data_PCOD8076488
_publ_section_title
;
Structure prediction by ZEFSAII (Michael W. Deem and Ramdas Pophale) SiO2 
 PCOD8076488
Probable space group: P 21/M
;
_chemical_formula_sum "Si O2"
_cell_formula_units_Z 32
_cell_length_a 31.168598
_cell_length_b 8.928152
_cell_length_c 11.973966
_cell_angle_alpha 90.000000
_cell_angle_beta 150.289025
_cell_angle_gamma 90.000000
_cell_volume 1651.467792
_symmetry_space_group_name_H-M "P 21/M"
_symmetry_group_IT_number 11
_symmetry_cell_setting 'monoclinic'
loop_
_space_group_symop_operation_xyz
x,y,z
-x,1/2+y,-z
-x,-y,-z
x,1/2-y,z
loop_
_atom_site_type_symbol
_atom_site_label
_atom_site_fract_x
_atom_site_fract_y
_atom_site_fract_z
Si Si1 0.591789 0.921391 0.699254
Si Si2 0.244081 0.074734 0.796434
Si Si3 0.276327 0.079974 0.618980
Si Si4 0.772215 0.426693 0.712461
Si Si5 0.477491 0.077228 0.064137
Si Si6 0.908626 0.924038 0.164667
Si Si7 0.621997 0.923196 0.516014
Si Si8 0.108019 0.575964 0.644178
O O1 0.570811 0.750000 0.675814
O O2 0.637181 0.944168 0.681722
O O3 0.500000 0.000000 0.500000
O O4 0.661536 0.981031 0.947197
O O5 0.232948 0.250000 0.800212
O O6 0.233028 0.044323 0.639981
O O7 0.169393 0.979500 0.684945
O O8 0.256953 0.250000 0.537322
O O9 0.238253 0.968654 0.440871
O O10 0.377720 0.055888 0.865212
O O11 0.769898 0.250000 0.719974
O O12 0.696262 0.496076 0.614583
O O13 0.863945 0.489487 0.961626
O O14 0.504999 0.250000 0.120418
O O15 0.529607 0.996596 0.280380
O O16 0.500000 0.000000 0.000000
O O17 0.884870 0.750000 0.103927
O O18 0.010293 0.954683 0.383944
O O19 0.871107 0.985501 0.196284
O O20 0.621127 0.750000 0.478087
O O21 0.123798 0.750000 0.704491
#
# Coordination Sequence:
#
# PCOD8076488 Si02
#       8
#     4   4   4   4   4   4   4   4
#     4  10  22  38  57  83 114 151 192 237 286 338
#     4  10  21  39  61  84 115 159 200 235 286 348
#     4  10  22  39  58  80 114 158 200 243 292 347
#     4  12  24  37  58  87 115 147 193 245 294 344
#     4  11  21  35  56  81 111 151 198 243 288 340
#     4  10  21  39  63  89 121 152 184 233 291 350
#     4  11  22  36  56  83 117 153 191 238 295 351
#     4  10  21  38  63  94 120 149 189 234 286 344
#
# _framework density 19.376701000000001
#
# number of rings (size 3 to 8) (size 9 to 14) (size 15 to 20)
#    0.000    1.500    1.250    4.125    0.000    6.000 
#    0.000    0.625    0.000    0.000    0.000    0.000 
#    0.000    0.000    0.000    0.000    0.000    0.000 
#
# Total GULP energy -396946.854337 kJ/mol
# GULP energy per Si atom -12404.589198 kJ/mol
# Density = 1.933260 g / cm^3
# Si number density = 19.376701 Si / 1000 Ang^3
#
#
#
# Elastic Constant Matrix: (Units=GPa)
#
#
# Indices 1 2 3 4 5 6 
#
# 1 97.2766 47.4198 44.3535 0.0000 3.8033 0.0000
# 2 47.4198 122.8046 60.9058 0.0000 -3.6458 0.0000
# 3 44.3535 60.9058 102.2524 0.0000 -9.9091 0.0000
# 4 0.0000 0.0000 0.0000 35.3996 0.0000 0.6456
# 5 3.8033 -3.6458 -9.9091 0.0000 28.2844 0.0000
# 6 0.0000 0.0000 0.0000 0.6456 0.0000 30.3380
#
#
#
# Elastic Compliance Matrix: (Units=1/GPa)
#
#
# Indices 1 2 3 4 5 6 
#
# 1 0.014115 -0.003324 -0.004522 0.000000 -0.003910 0.000000
# 2 -0.003324 0.012365 -0.005927 0.000000 -0.000036 0.000000
# 3 -0.004522 -0.005927 0.015792 0.000000 0.005377 0.000000
# 4 0.000000 0.000000 0.000000 0.028260 0.000000 -0.000601
# 5 -0.003910 -0.000036 0.005377 0.000000 0.037760 0.000000
# 6 0.000000 0.000000 0.000000 -0.000601 0.000000 0.032975
#
#
# Mechanical properties :
#
#
# Convention : Reuss Voigt Hill
#
# Bulk Modulus (GPa) = 67.89995 69.74353 68.82174
# Shear Modulus (GPa) = 28.78193 30.11470 29.44832
#
# Velocity S-wave (km/s) = 3.85826 3.94657 3.90266
# Velocity P-wave (km/s) = 7.41393 7.53916 7.47680
#
# Compressibility (1/GPa) = 0.01472755
#
# Stress axis : x y z
#
# Youngs Moduli (GPa) = 70.84765 80.87474 63.32219
#
# Poissons Ratio (x) = 0.26882 0.28632
# Poissons Ratio (y) = 0.23549 0.37529
# Poissons Ratio (z) = 0.32035 0.47932
#
# Static dielectric constant tensor:
#      x y z
#    x 3.390570 0.000000 -0.141060 
#    y 0.000000 3.555410 0.000000 
#    z -0.141060 0.000000 3.562340 
# 
# 
# High freq. dielectric constant tensor:
#      x y z
#    x 1.752570 0.000000 -0.006700 
#    y 0.000000 1.760190 0.000000 
#    z -0.006700 0.000000 1.758430 
# 
# From -- ./inp_files/45322.got.cif
#   From: 2010.06.25/outbox.cif.g09.slc.cpg/sg11_23_cif.got.tgz:45322.got - 2010.06.27 23:14:04.
