data_PCOD8076987
_publ_section_title
;
Structure prediction by ZEFSAII (Michael W. Deem and Ramdas Pophale) SiO2 
 PCOD8076987
Probable space group: P 21/M
;
_chemical_formula_sum "Si O2"
_cell_formula_units_Z 28
_cell_length_a 11.112561
_cell_length_b 8.819742
_cell_length_c 15.244192
_cell_angle_alpha 90.000000
_cell_angle_beta 114.605637
_cell_angle_gamma 90.000000
_cell_volume 1358.412155
_symmetry_space_group_name_H-M "P 21/M"
_symmetry_group_IT_number 11
_symmetry_cell_setting 'monoclinic'
loop_
_space_group_symop_operation_xyz
x,y,z
-x,1/2+y,-z
-x,-y,-z
x,1/2-y,z
loop_
_atom_site_type_symbol
_atom_site_label
_atom_site_fract_x
_atom_site_fract_y
_atom_site_fract_z
Si Si1 0.852310 0.431188 0.456319
Si Si2 0.765930 0.420685 0.766016
Si Si3 0.682532 0.424950 0.245559
Si Si4 0.699393 0.428238 0.057321
Si Si5 0.040532 0.423794 0.922911
Si Si6 0.605100 0.923250 0.861699
Si Si7 0.352467 0.930099 0.452438
O O1 0.864650 0.250000 0.462245
O O2 0.783534 0.495528 0.346594
O O3 0.752662 0.484548 0.504514
O O4 0.000000 0.500000 0.500000
O O5 0.713586 0.250000 0.762699
O O6 0.720669 0.514826 0.836277
O O7 0.712157 0.486322 0.658315
O O8 0.924567 0.426737 0.814992
O O9 0.720720 0.250000 0.247858
O O10 0.685153 0.500502 0.150131
O O11 0.531794 0.446127 0.233097
O O12 0.672847 0.250000 0.050460
O O13 0.847370 0.466564 0.077046
O O14 0.598806 0.499079 0.955715
O O15 0.087930 0.250000 0.952152
O O16 0.000000 0.500000 0.000000
O O17 0.634342 0.750000 0.890310
O O18 0.367725 0.750000 0.462681
O O19 0.500000 0.000000 0.500000
#
# Coordination Sequence:
#
# PCOD8076987 Si02
#       7
#     4   4   4   4   4   4   4
#     4  10  22  42  64  89 122 159 202 253 303 359
#     4  10  22  38  58  85 120 155 190 240 299 349
#     4   9  21  39  59  84 117 155 194 239 292 348
#     4  11  22  37  57  83 119 156 192 239 290 348
#     4  11  22  37  57  83 117 154 195 241 291 347
#     4  11  21  37  61  88 116 153 197 239 290 353
#     4  10  22  41  65  92 123 159 202 255 307 360
#
# _framework density 20.612300999999999
#
# number of rings (size 3 to 8) (size 9 to 14) (size 15 to 20)
#    0.000    1.714    1.429    2.571    2.000    2.857 
#    0.000    4.286    0.000    0.000    0.000    0.000 
#    0.000    0.000    0.000    0.000    0.000    0.000 
#
# Total GULP energy -346994.622212 kJ/mol
# GULP energy per Si atom -12392.665079 kJ/mol
# Density = 2.056539 g / cm^3
# Si number density = 20.612301 Si / 1000 Ang^3
#
#
#
# Elastic Constant Matrix: (Units=GPa)
#
#
# Indices 1 2 3 4 5 6 
#
# 1 94.7786 9.7116 44.8722 0.0000 3.2920 0.0000
# 2 9.7116 50.1886 28.8629 0.0000 -1.0338 0.0000
# 3 44.8722 28.8629 160.4599 0.0000 9.4428 0.0000
# 4 0.0000 0.0000 0.0000 19.9098 0.0000 12.1094
# 5 3.2920 -1.0338 9.4428 0.0000 39.6598 0.0000
# 6 0.0000 0.0000 0.0000 12.1094 0.0000 25.6580
#
#
#
# Elastic Compliance Matrix: (Units=1/GPa)
#
#
# Indices 1 2 3 4 5 6 
#
# 1 0.012172 -0.000458 -0.003308 0.000000 -0.000235 0.000000
# 2 -0.000458 0.022336 -0.003982 0.000000 0.001568 0.000000
# 3 -0.003308 -0.003982 0.007975 0.000000 -0.001728 0.000000
# 4 0.000000 0.000000 0.000000 0.070449 0.000000 -0.033249
# 5 -0.000235 0.001568 -0.001728 0.000000 0.025686 0.000000
# 6 0.000000 0.000000 0.000000 -0.033249 0.000000 0.054666
#
#
# Mechanical properties :
#
#
# Convention : Reuss Voigt Hill
#
# Bulk Modulus (GPa) = 37.05392 52.48004 44.76698
# Shear Modulus (GPa) = 22.95951 31.84420 27.40185
#
# Velocity S-wave (km/s) = 3.34110 3.93480 3.65004
# Velocity P-wave (km/s) = 5.73581 6.79407 6.28724
#
# Compressibility (1/GPa) = 0.02698770
#
# Stress axis : x y z
#
# Youngs Moduli (GPa) = 82.15588 44.77138 125.39166
#
# Poissons Ratio (x) = 0.02050 0.41476
# Poissons Ratio (y) = 0.03762 0.49930
# Poissons Ratio (z) = 0.27175 0.17827
#
# Static dielectric constant tensor:
#      x y z
#    x 3.789180 0.000000 0.062500 
#    y 0.000000 4.557260 0.000000 
#    z 0.062500 0.000000 4.088080 
# 
# 
# High freq. dielectric constant tensor:
#      x y z
#    x 1.814910 0.000000 0.008080 
#    y 0.000000 1.784350 0.000000 
#    z 0.008080 0.000000 1.823310 
# 
# From -- ./inp_files/49473.got.cif
#   From: 2010.06.25/outbox.cif.g09.slc.cpg/sg11_25_cif.got.tgz:49473.got - 2010.06.27 23:14:04.
