data_PCOD8076637
_publ_section_title
;
Structure prediction by ZEFSAII (Michael W. Deem and Ramdas Pophale) SiO2 
 PCOD8076637
Probable space group: P 21/M
;
_chemical_formula_sum "Si O2"
_cell_formula_units_Z 28
_cell_length_a 26.899585
_cell_length_b 8.972800
_cell_length_c 9.255033
_cell_angle_alpha 90.000000
_cell_angle_beta 39.746089
_cell_angle_gamma 90.000000
_cell_volume 1428.285459
_symmetry_space_group_name_H-M "P 21/M"
_symmetry_group_IT_number 11
_symmetry_cell_setting 'monoclinic'
loop_
_space_group_symop_operation_xyz
x,y,z
-x,1/2+y,-z
-x,-y,-z
x,1/2-y,z
loop_
_atom_site_type_symbol
_atom_site_label
_atom_site_fract_x
_atom_site_fract_y
_atom_site_fract_z
Si Si1 0.040212 0.914517 0.783921
Si Si2 0.794719 0.073592 0.681268
Si Si3 0.938655 0.583045 0.734342
Si Si4 0.649788 0.074082 0.816355
Si Si5 0.356665 0.073536 0.478421
Si Si6 0.495158 0.924236 0.665618
Si Si7 0.219431 0.927409 0.962543
O O1 0.062098 0.750000 0.790764
O O2 0.120596 0.992683 0.550779
O O3 0.975368 0.905361 0.808246
O O4 0.000000 0.000000 0.000000
O O5 0.800549 0.250000 0.679098
O O6 0.731560 0.023990 0.704053
O O7 0.770489 0.016274 0.894669
O O8 0.920968 0.750000 0.714591
O O9 0.000000 0.500000 0.500000
O O10 0.861860 0.484610 0.917258
O O11 0.647583 0.250000 0.788617
O O12 0.636531 0.985296 0.699244
O O13 0.583486 0.027584 0.077967
O O14 0.344896 0.250000 0.501328
O O15 0.433817 0.026094 0.391759
O O16 0.285306 0.997834 0.717416
O O17 0.496379 0.750000 0.633755
O O18 0.500000 0.000000 0.500000
O O19 0.222909 0.750000 0.941176
#
# Coordination Sequence:
#
# PCOD8076637 Si02
#       7
#     4   4   4   4   4   4   4
#     4  10  22  39  57  83 118 155 196 246 295 351
#     4   9  19  38  60  84 114 150 200 249 290 347
#     4  11  22  39  61  88 121 156 200 251 302 358
#     4  10  21  39  63  89 118 159 203 243 291 356
#     4  11  24  40  58  90 128 157 193 247 301 354
#     4  10  22  40  64  92 124 159 199 244 295 356
#     4  11  22  40  64  87 116 158 204 250 301 357
#
# _framework density 19.603923000000002
#
# number of rings (size 3 to 8) (size 9 to 14) (size 15 to 20)
#    0.000    1.714    1.429    2.571    2.000    4.000 
#    0.000    1.429    0.000    0.000    0.000    0.000 
#    0.000    0.000    0.000    0.000    0.000    0.000 
#
# Total GULP energy -347219.131431 kJ/mol
# GULP energy per Si atom -12400.683265 kJ/mol
# Density = 1.955930 g / cm^3
# Si number density = 19.603923 Si / 1000 Ang^3
#
#
#
# Elastic Constant Matrix: (Units=GPa)
#
#
# Indices 1 2 3 4 5 6 
#
# 1 141.0272 47.9079 71.5196 0.0000 -2.0466 0.0000
# 2 47.9079 71.9997 48.1573 0.0000 8.0027 0.0000
# 3 71.5196 48.1573 142.7946 0.0000 7.3399 0.0000
# 4 0.0000 0.0000 0.0000 36.3366 0.0000 3.9546
# 5 -2.0466 8.0027 7.3399 0.0000 38.2563 0.0000
# 6 0.0000 0.0000 0.0000 3.9546 0.0000 29.3912
#
#
#
# Elastic Compliance Matrix: (Units=1/GPa)
#
#
# Indices 1 2 3 4 5 6 
#
# 1 0.010717 -0.004802 -0.003867 0.000000 0.002320 0.000000
# 2 -0.004802 0.020349 -0.004268 0.000000 -0.003695 0.000000
# 3 -0.003867 -0.004268 0.010447 0.000000 -0.001319 0.000000
# 4 0.000000 0.000000 0.000000 0.027929 0.000000 -0.003758
# 5 0.002320 -0.003695 -0.001319 0.000000 0.027290 0.000000
# 6 0.000000 0.000000 0.000000 -0.003758 0.000000 0.034529
#
#
# Mechanical properties :
#
#
# Convention : Reuss Voigt Hill
#
# Bulk Modulus (GPa) = 63.94245 76.77678 70.35961
# Shear Modulus (GPa) = 30.79770 33.34593 32.07182
#
# Velocity S-wave (km/s) = 3.96788 4.12877 4.04913
# Velocity P-wave (km/s) = 7.32667 7.87261 7.60454
#
# Compressibility (1/GPa) = 0.01563906
#
# Stress axis : x y z
#
# Youngs Moduli (GPa) = 93.30838 49.14150 95.71968
#
# Poissons Ratio (x) = 0.23599 0.37019
# Poissons Ratio (y) = 0.44808 0.40850
# Poissons Ratio (z) = 0.36087 0.20972
#
# Static dielectric constant tensor:
#      x y z
#    x 3.743690 0.000000 -0.035430 
#    y 0.000000 3.598280 0.000000 
#    z -0.035430 0.000000 3.686410 
# 
# 
# High freq. dielectric constant tensor:
#      x y z
#    x 1.776270 0.000000 -0.003920 
#    y 0.000000 1.751480 0.000000 
#    z -0.003920 0.000000 1.779380 
# 
# From -- ./inp_files/28308.got.cif
#   From: 2010.06.25/outbox.cif.g09.slc.cpg/sg11_15_cif.got.tgz:28308.got - 2010.06.27 23:14:04.
