data_PCOD8076823
_publ_section_title
;
Structure prediction by ZEFSAII (Michael W. Deem and Ramdas Pophale) SiO2 
 PCOD8076823
Probable space group: P 21/M
;
_chemical_formula_sum "Si O2"
_cell_formula_units_Z 28
_cell_length_a 19.693143
_cell_length_b 13.819444
_cell_length_c 8.957816
_cell_angle_alpha 90.000000
_cell_angle_beta 147.853688
_cell_angle_gamma 90.000000
_cell_volume 1297.141140
_symmetry_space_group_name_H-M "P 21/M"
_symmetry_group_IT_number 11
_symmetry_cell_setting 'monoclinic'
loop_
_space_group_symop_operation_xyz
x,y,z
-x,1/2+y,-z
-x,-y,-z
x,1/2-y,z
loop_
_atom_site_type_symbol
_atom_site_label
_atom_site_fract_x
_atom_site_fract_y
_atom_site_fract_z
Si Si1 0.202266 0.964793 0.501017
Si Si2 0.271920 0.357935 0.975622
Si Si3 0.789856 0.136101 0.791739
Si Si4 0.364210 0.141250 0.838890
Si Si5 0.603560 0.984646 0.567238
Si Si6 0.556918 0.139897 0.954839
Si Si7 0.973489 0.943270 0.600523
O O1 0.166875 0.904039 0.288900
O O2 0.266324 0.067585 0.575741
O O3 0.074650 0.981854 0.360719
O O4 0.302930 0.905805 0.791250
O O5 0.291884 0.250000 0.072678
O O6 0.376661 0.382881 0.039715
O O7 0.136794 0.366173 0.640580
O O8 0.281195 0.427845 0.135145
O O9 0.761027 0.250000 0.727651
O O10 0.661054 0.083446 0.608055
O O11 0.903658 0.116081 0.118556
O O12 0.309912 0.250000 0.715317
O O13 0.505282 0.132952 0.029517
O O14 0.544850 0.917915 0.331085
O O15 0.500000 0.000000 0.500000
O O16 0.564248 0.250000 0.911135
O O17 0.000000 0.000000 0.500000
#
# Coordination Sequence:
#
# PCOD8076823 Si02
#       7
#     4   4   4   4   4   4   4
#     4  11  23  44  69  97 134 179 225 282 341 406
#     4  10  21  40  67  96 128 172 223 275 339 406
#     4  12  27  46  70 100 137 184 234 282 339 406
#     4   9  19  36  65  97 128 171 218 271 333 401
#     4  12  25  42  64  99 139 178 218 276 340 400
#     4  11  23  41  67 100 137 175 223 276 335 410
#     4  11  23  46  71  95 130 174 223 289 346 398
#
# _framework density 21.585930999999999
#
# number of rings (size 3 to 8) (size 9 to 14) (size 15 to 20)
#    0.000    1.143    2.857    3.857    2.000    1.714 
#    0.000    2.143    0.000    0.000    0.000    0.000 
#    0.000    0.000    0.000    0.000    0.000    0.000 
#
# Total GULP energy -347205.754599 kJ/mol
# GULP energy per Si atom -12400.205521 kJ/mol
# Density = 2.153680 g / cm^3
# Si number density = 21.585931 Si / 1000 Ang^3
#
#
#
# Elastic Constant Matrix: (Units=GPa)
#
#
# Indices 1 2 3 4 5 6 
#
# 1 102.6732 43.5529 8.2708 0.0000 0.1835 0.0000
# 2 43.5529 148.2658 28.8327 0.0000 -9.8338 0.0000
# 3 8.2708 28.8327 82.3002 0.0000 -11.8876 0.0000
# 4 0.0000 0.0000 0.0000 28.6080 0.0000 -2.3564
# 5 0.1835 -9.8338 -11.8876 0.0000 32.0974 0.0000
# 6 0.0000 0.0000 0.0000 -2.3564 0.0000 27.4738
#
#
#
# Elastic Compliance Matrix: (Units=1/GPa)
#
#
# Indices 1 2 3 4 5 6 
#
# 1 0.011164 -0.003331 -0.000118 0.000000 -0.001128 0.000000
# 2 -0.003331 0.008288 -0.002323 0.000000 0.001698 0.000000
# 3 -0.000118 -0.002323 0.013601 0.000000 0.004326 0.000000
# 4 0.000000 0.000000 0.000000 0.035204 0.000000 0.003019
# 5 -0.001128 0.001698 0.004326 0.000000 0.033284 0.000000
# 6 0.000000 0.000000 0.000000 0.003019 0.000000 0.036657
#
#
# Mechanical properties :
#
#
# Convention : Reuss Voigt Hill
#
# Bulk Modulus (GPa) = 46.49436 54.95022 50.72229
# Shear Modulus (GPa) = 31.86475 34.47470 33.16972
#
# Velocity S-wave (km/s) = 3.84628 4.00070 3.92425
# Velocity P-wave (km/s) = 6.42737 6.84489 6.63941
#
# Compressibility (1/GPa) = 0.02150798
#
# Stress axis : x y z
#
# Youngs Moduli (GPa) = 89.57124 120.66105 73.52211
#
# Poissons Ratio (x) = 0.40197 0.00866
# Poissons Ratio (y) = 0.29840 0.17083
# Poissons Ratio (z) = 0.01055 0.28035
#
# Static dielectric constant tensor:
#      x y z
#    x 4.211960 0.000000 -0.042400 
#    y 0.000000 4.019260 0.000000 
#    z -0.042400 0.000000 3.914480 
# 
# 
# High freq. dielectric constant tensor:
#      x y z
#    x 1.849280 0.000000 -0.005270 
#    y 0.000000 1.854150 0.000000 
#    z -0.005270 0.000000 1.840470 
# 
# From -- ./inp_files/26937.got.cif
#   From: 2010.06.25/outbox.cif.g09.slc.cpg/sg11_14_cif.got.tgz:26937.got - 2010.06.27 23:14:04.
