data_PCOD8076943
_publ_section_title
;
Structure prediction by ZEFSAII (Michael W. Deem and Ramdas Pophale) SiO2 
 PCOD8076943
Probable space group: P 21/M
;
_chemical_formula_sum "Si O2"
_cell_formula_units_Z 32
_cell_length_a 12.077750
_cell_length_b 18.458312
_cell_length_c 14.056293
_cell_angle_alpha 90.000000
_cell_angle_beta 29.718144
_cell_angle_gamma 90.000000
_cell_volume 1553.449989
_symmetry_space_group_name_H-M "P 21/M"
_symmetry_group_IT_number 11
_symmetry_cell_setting 'monoclinic'
loop_
_space_group_symop_operation_xyz
x,y,z
-x,1/2+y,-z
-x,-y,-z
x,1/2-y,z
loop_
_atom_site_type_symbol
_atom_site_label
_atom_site_fract_x
_atom_site_fract_y
_atom_site_fract_z
Si Si1 0.789578 0.830145 0.144228
Si Si2 0.741790 0.025918 0.793325
Si Si3 0.231233 0.330071 0.627675
Si Si4 0.855847 0.063406 0.208199
Si Si5 0.162285 0.935221 0.478485
Si Si6 0.310811 0.667099 0.506212
Si Si7 0.135808 0.935134 0.095662
Si Si8 0.506718 0.952550 0.673319
O O1 0.890032 0.750000 0.044613
O O2 0.676716 0.828132 0.334114
O O3 0.551171 0.844588 0.271981
O O4 0.967289 0.892875 0.989896
O O5 0.724831 0.073536 0.709694
O O6 0.841034 0.068254 0.808331
O O7 0.908522 0.959334 0.649468
O O8 0.500000 0.000000 0.000000
O O9 0.225008 0.250000 0.586708
O O10 0.369535 0.380325 0.453487
O O11 0.982352 0.359110 0.835940
O O12 0.729562 0.119768 0.368985
O O13 0.674606 0.024612 0.273141
O O14 0.981966 0.002311 0.174977
O O15 0.142674 0.859171 0.548286
O O16 0.309398 0.986725 0.440393
O O17 0.259038 0.750000 0.570363
O O18 0.377048 0.935467 0.867243
#
# Coordination Sequence:
#
# PCOD8076943 Si02
#       8
#     4   4   4   4   4   4   4   4
#     4  10  22  37  56  87 134 178 203 240 305 377
#     4  11  23  43  68  90 121 158 212 271 321 360
#     4  11  24  40  57  86 129 170 207 247 304 378
#     4  12  23  37  62  98 133 163 208 256 310 381
#     4  11  24  41  67  95 120 164 216 266 314 371
#     4  11  23  40  62  92 132 169 205 254 315 377
#     4  12  24  41  64  95 123 165 207 266 316 369
#     4  12  23  38  64  95 127 165 209 256 312 372
#
# _framework density 20.599312000000001
#
# number of rings (size 3 to 8) (size 9 to 14) (size 15 to 20)
#    0.000    0.750    6.250    1.500    1.750    2.000 
#    0.000    0.625    0.000    0.750    0.000    0.000 
#    0.000    0.000    0.000    0.000    0.000    0.000 
#
# Total GULP energy -396510.465938 kJ/mol
# GULP energy per Si atom -12390.952061 kJ/mol
# Density = 2.055243 g / cm^3
# Si number density = 20.599312 Si / 1000 Ang^3
#
#
#
# Elastic Constant Matrix: (Units=GPa)
#
#
# Indices 1 2 3 4 5 6 
#
# 1 99.8871 35.3074 23.7561 0.0000 14.6052 0.0000
# 2 35.3074 90.8148 32.3385 0.0000 -0.0372 0.0000
# 3 23.7561 32.3385 105.8972 0.0000 3.5002 0.0000
# 4 0.0000 0.0000 0.0000 27.7748 0.0000 3.0710
# 5 14.6052 -0.0372 3.5002 0.0000 32.8593 0.0000
# 6 0.0000 0.0000 0.0000 3.0710 0.0000 18.6839
#
#
#
# Elastic Compliance Matrix: (Units=1/GPa)
#
#
# Indices 1 2 3 4 5 6 
#
# 1 0.012711 -0.004481 -0.001301 0.000000 -0.005516 0.000000
# 2 -0.004481 0.013940 -0.003330 0.000000 0.002362 0.000000
# 3 -0.001301 -0.003330 0.010771 0.000000 -0.000573 0.000000
# 4 0.000000 0.000000 0.000000 0.036670 0.000000 -0.006027
# 5 -0.005516 0.002362 -0.000573 0.000000 0.032948 0.000000
# 6 0.000000 0.000000 0.000000 -0.006027 0.000000 0.054513
#
#
# Mechanical properties :
#
#
# Convention : Reuss Voigt Hill
#
# Bulk Modulus (GPa) = 52.08640 53.26700 52.67670
# Shear Modulus (GPa) = 26.85625 29.54340 28.19982
#
# Velocity S-wave (km/s) = 3.61466 3.79118 3.70397
# Velocity P-wave (km/s) = 6.53922 6.71408 6.62723
#
# Compressibility (1/GPa) = 0.01919887
#
# Stress axis : x y z
#
# Youngs Moduli (GPa) = 78.67109 71.73468 92.84417
#
# Poissons Ratio (x) = 0.32144 0.12077
# Poissons Ratio (y) = 0.35252 0.30916
# Poissons Ratio (z) = 0.10234 0.23887
#
# Static dielectric constant tensor:
#      x y z
#    x 4.433540 0.000000 0.033870 
#    y 0.000000 3.608700 0.000000 
#    z 0.033870 0.000000 3.939560 
# 
# 
# High freq. dielectric constant tensor:
#      x y z
#    x 1.800340 0.000000 0.004280 
#    y 0.000000 1.783380 0.000000 
#    z 0.004280 0.000000 1.823510 
# 
# From -- ./inp_files/50672.got.cif
#   From: 2010.06.25/outbox.cif.g09.slc.cpg/sg11_26_cif.got.tgz:50672.got - 2010.06.27 23:14:04.
