data_PCOD8076603
_publ_section_title
;
Structure prediction by ZEFSAII (Michael W. Deem and Ramdas Pophale) SiO2 
 PCOD8076603
Probable space group: P 21/M
;
_chemical_formula_sum "Si O2"
_cell_formula_units_Z 20
_cell_length_a 14.685817
_cell_length_b 8.860825
_cell_length_c 7.140242
_cell_angle_alpha 90.000000
_cell_angle_beta 91.002094
_cell_angle_gamma 90.000000
_cell_volume 929.006549
_symmetry_space_group_name_H-M "P 21/M"
_symmetry_group_IT_number 11
_symmetry_cell_setting 'monoclinic'
loop_
_space_group_symop_operation_xyz
x,y,z
-x,1/2+y,-z
-x,-y,-z
x,1/2-y,z
loop_
_atom_site_type_symbol
_atom_site_label
_atom_site_fract_x
_atom_site_fract_y
_atom_site_fract_z
Si Si1 0.296007 0.923506 0.635408
Si Si2 0.268847 0.922016 0.198271
Si Si3 0.077083 0.923691 0.299245
Si Si4 0.406866 0.426259 0.934191
Si Si5 0.881844 0.578172 0.321532
O O1 0.312597 0.750000 0.680202
O O2 0.290037 0.958429 0.416035
O O3 0.380199 0.015101 0.726469
O O4 0.202425 0.971857 0.739282
O O5 0.296563 0.750000 0.151673
O O6 0.160473 0.949536 0.156205
O O7 0.326459 0.034874 0.075397
O O8 0.085727 0.750000 0.376388
O O9 0.975853 0.947097 0.204758
O O10 0.089587 0.044148 0.464347
O O11 0.422004 0.250000 0.926390
O O12 0.500000 0.500000 0.000000
O O13 0.847686 0.750000 0.303296
#
# Coordination Sequence:
#
# PCOD8076603 Si02
#       5
#     4   4   4   4   4
#     4  10  21  39  62  87 118 155 192 234 285 339
#     4   9  19  38  62  87 117 153 192 235 284 337
#     4   8  15  28  49  79 116 156 192 229 276 330
#     4  12  26  43  63  86 113 146 188 240 294 347
#     4   9  15  26  49  82 117 152 192 233 275 329
#
# _framework density 21.528376000000002
#
# number of rings (size 3 to 8) (size 9 to 14) (size 15 to 20)
#    0.000    2.400    0.000    4.200    0.000    5.600 
#    0.000    1.000    0.000    0.000    0.000    0.000 
#    0.000    0.000    0.000    0.000    0.000    0.000 
#
# Total GULP energy -247861.739739 kJ/mol
# GULP energy per Si atom -12393.086987 kJ/mol
# Density = 2.147938 g / cm^3
# Si number density = 21.528376 Si / 1000 Ang^3
#
#
#
# Elastic Constant Matrix: (Units=GPa)
#
#
# Indices 1 2 3 4 5 6 
#
# 1 74.4347 19.7598 -5.6484 0.0000 1.5293 0.0000
# 2 19.7598 105.0708 4.4423 0.0000 -1.6395 0.0000
# 3 -5.6484 4.4423 26.9329 0.0000 -8.9944 0.0000
# 4 0.0000 0.0000 0.0000 27.1125 0.0000 -0.8974
# 5 1.5293 -1.6395 -8.9944 0.0000 27.9326 0.0000
# 6 0.0000 0.0000 0.0000 -0.8974 0.0000 40.4432
#
#
#
# Elastic Compliance Matrix: (Units=1/GPa)
#
#
# Indices 1 2 3 4 5 6 
#
# 1 0.014463 -0.002868 0.003569 0.000000 0.000189 0.000000
# 2 -0.002868 0.010153 -0.002269 0.000000 0.000022 0.000000
# 3 0.003569 -0.002269 0.042738 0.000000 0.013433 0.000000
# 4 0.000000 0.000000 0.000000 0.036911 0.000000 0.000819
# 5 0.000189 0.000022 0.013433 0.000000 0.040117 0.000000
# 6 0.000000 0.000000 0.000000 0.000819 0.000000 0.024744
#
#
# Mechanical properties :
#
#
# Convention : Reuss Voigt Hill
#
# Bulk Modulus (GPa) = 15.57151 27.06063 21.31607
# Shear Modulus (GPa) = 25.81760 31.62332 28.72046
#
# Velocity S-wave (km/s) = 3.46676 3.83680 3.65646
# Velocity P-wave (km/s) = 4.82423 5.67671 5.26775
#
# Compressibility (1/GPa) = 0.06421986
#
# Stress axis : x y z
#
# Youngs Moduli (GPa) = 69.14253 98.49319 23.39832
#
# Poissons Ratio (x) = 0.28247 -0.08352
# Poissons Ratio (y) = 0.19829 0.05308
# Poissons Ratio (z) = -0.24680 0.22344
#
# Static dielectric constant tensor:
#      x y z
#    x 4.304350 0.000000 -0.025740 
#    y 0.000000 3.833220 0.000000 
#    z -0.025740 0.000000 3.494970 
# 
# 
# High freq. dielectric constant tensor:
#      x y z
#    x 1.860190 0.000000 -0.001710 
#    y 0.000000 1.844330 0.000000 
#    z -0.001710 0.000000 1.808860 
# 
# From -- ./inp_files/20121.got.cif
#   From: 2010.06.25/outbox.cif.g09.slc.cpg/sg11_11_cif.got.tgz:20121.got - 2010.06.27 23:14:04.
