data_PCOD8076619
_publ_section_title
;
Structure prediction by ZEFSAII (Michael W. Deem and Ramdas Pophale) SiO2 
 PCOD8076619
Probable space group: P 21/M
;
_chemical_formula_sum "Si O2"
_cell_formula_units_Z 28
_cell_length_a 14.509041
_cell_length_b 8.483719
_cell_length_c 16.122606
_cell_angle_alpha 90.000000
_cell_angle_beta 137.762015
_cell_angle_gamma 90.000000
_cell_volume 1334.031873
_symmetry_space_group_name_H-M "P 21/M"
_symmetry_group_IT_number 11
_symmetry_cell_setting 'monoclinic'
loop_
_space_group_symop_operation_xyz
x,y,z
-x,1/2+y,-z
-x,-y,-z
x,1/2-y,z
loop_
_atom_site_type_symbol
_atom_site_label
_atom_site_fract_x
_atom_site_fract_y
_atom_site_fract_z
Si Si1 0.817080 0.432080 0.739705
Si Si2 0.825440 0.432313 0.555100
Si Si3 0.416224 0.066335 0.701566
Si Si4 0.323974 0.432973 0.203542
Si Si5 0.108914 0.932135 0.935041
Si Si6 0.864026 0.933785 0.221698
Si Si7 0.609301 0.435451 0.137214
O O1 0.787666 0.250000 0.738566
O O2 0.788758 0.474888 0.625384
O O3 0.716070 0.537743 0.727590
O O4 0.975326 0.465376 0.867245
O O5 0.793983 0.250000 0.515578
O O6 0.736588 0.539268 0.434652
O O7 0.984275 0.472428 0.643573
O O8 0.443651 0.250000 0.732481
O O9 0.521446 0.992436 0.705819
O O10 0.439757 0.978952 0.803932
O O11 0.311879 0.250000 0.173581
O O12 0.224658 0.533146 0.079079
O O13 0.067814 0.750000 0.911765
O O14 0.168344 0.972372 0.884085
O O15 0.850135 0.750000 0.191768
O O16 0.756926 0.985377 0.220210
O O17 0.621981 0.250000 0.135748
O O18 0.500000 0.500000 0.000000
#
# Coordination Sequence:
#
# PCOD8076619 Si02
#       7
#     4   4   4   4   4   4   4
#     4  10  21  39  62  89 121 158 202 249 299 356
#     4   9  21  42  65  89 120 157 199 247 296 350
#     4  12  26  43  63  88 120 158 202 249 297 354
#     4  12  24  39  59  85 120 161 204 250 304 358
#     4  11  21  36  59  90 125 159 200 247 301 359
#     4  10  21  40  65  92 123 159 200 246 298 354
#     4  12  25  43  66  93 125 158 197 243 298 358
#
# _framework density 20.989006
#
# number of rings (size 3 to 8) (size 9 to 14) (size 15 to 20)
#    0.000    1.143    0.000    8.143    0.000    4.571 
#    0.000    0.000    0.000    0.000    0.000    0.000 
#    0.000    0.000    0.000    0.000    0.000    0.000 
#
# Total GULP energy -347430.659372 kJ/mol
# GULP energy per Si atom -12408.237835 kJ/mol
# Density = 2.094123 g / cm^3
# Si number density = 20.989006 Si / 1000 Ang^3
#
#
#
# Elastic Constant Matrix: (Units=GPa)
#
#
# Indices 1 2 3 4 5 6 
#
# 1 113.5911 22.0728 29.9806 0.0000 9.6596 0.0000
# 2 22.0728 92.2112 35.8485 0.0000 3.4283 0.0000
# 3 29.9806 35.8485 96.9344 0.0000 5.6633 0.0000
# 4 0.0000 0.0000 0.0000 35.7402 0.0000 -1.3366
# 5 9.6596 3.4283 5.6633 0.0000 18.5137 0.0000
# 6 0.0000 0.0000 0.0000 -1.3366 0.0000 38.8804
#
#
#
# Elastic Compliance Matrix: (Units=1/GPa)
#
#
# Indices 1 2 3 4 5 6 
#
# 1 0.010050 -0.001326 -0.002368 0.000000 -0.004273 0.000000
# 2 -0.001326 0.012856 -0.004323 0.000000 -0.000366 0.000000
# 3 -0.002368 -0.004323 0.012756 0.000000 -0.001866 0.000000
# 4 0.000000 0.000000 0.000000 0.028016 0.000000 0.000963
# 5 -0.004273 -0.000366 -0.001866 0.000000 0.056883 0.000000
# 6 0.000000 0.000000 0.000000 0.000963 0.000000 0.025753
#
#
# Mechanical properties :
#
#
# Convention : Reuss Voigt Hill
#
# Bulk Modulus (GPa) = 50.94767 53.17118 52.05943
# Shear Modulus (GPa) = 29.60492 32.94917 31.27704
#
# Velocity S-wave (km/s) = 3.75973 3.96641 3.86445
# Velocity P-wave (km/s) = 6.57067 6.80914 6.69096
#
# Compressibility (1/GPa) = 0.01962798
#
# Stress axis : x y z
#
# Youngs Moduli (GPa) = 99.50619 77.78249 78.39164
#
# Poissons Ratio (x) = 0.10314 0.18564
# Poissons Ratio (y) = 0.13195 0.33889
# Poissons Ratio (z) = 0.23564 0.33626
#
# Static dielectric constant tensor:
#      x y z
#    x 3.953270 0.000000 0.010920 
#    y 0.000000 3.813650 0.000000 
#    z 0.010920 0.000000 3.630650 
# 
# 
# High freq. dielectric constant tensor:
#      x y z
#    x 1.830430 0.000000 0.001540 
#    y 0.000000 1.832540 0.000000 
#    z 0.001540 0.000000 1.816210 
# 
# From -- ./inp_files/37832.got.cif
#   From: 2010.06.25/outbox.cif.g09.slc.cpg/sg11_19_cif.got.tgz:37832.got - 2010.06.27 23:14:04.
