data_PCOD8076266
_publ_section_title
;
Structure prediction by ZEFSAII (Michael W. Deem and Ramdas Pophale) SiO2 
 PCOD8076266
Probable space group: P 21/M
;
_chemical_formula_sum "Si O2"
_cell_formula_units_Z 32
_cell_length_a 20.171743
_cell_length_b 8.900279
_cell_length_c 13.381953
_cell_angle_alpha 90.000000
_cell_angle_beta 140.123532
_cell_angle_gamma 90.000000
_cell_volume 1540.336799
_symmetry_space_group_name_H-M "P 21/M"
_symmetry_group_IT_number 11
_symmetry_cell_setting 'monoclinic'
loop_
_space_group_symop_operation_xyz
x,y,z
-x,1/2+y,-z
-x,-y,-z
x,1/2-y,z
loop_
_atom_site_type_symbol
_atom_site_label
_atom_site_fract_x
_atom_site_fract_y
_atom_site_fract_z
Si Si1 0.686077 0.928666 0.609556
Si Si2 0.953633 0.923933 0.165963
Si Si3 0.916122 0.925314 0.833192
Si Si4 0.729253 0.924810 0.294455
Si Si5 0.638593 0.925721 0.981167
Si Si6 0.720700 0.574242 0.867094
Si Si7 0.029689 0.424963 0.433816
Si Si8 0.401855 0.925499 0.682904
O O1 0.676473 0.750000 0.587265
O O2 0.801206 0.985631 0.716695
O O3 0.662238 0.980302 0.697458
O O4 0.610337 0.005715 0.442492
O O5 0.982533 0.750000 0.186327
O O6 0.842084 0.958174 0.988591
O O7 0.046279 0.029225 0.232801
O O8 0.951842 0.976231 0.277079
O O9 0.919332 0.750000 0.856177
O O10 0.000000 0.000000 0.000000
O O11 0.699600 0.750000 0.265649
O O12 0.850054 0.951424 0.450047
O O13 0.673399 0.005189 0.321900
O O14 0.693791 0.991602 0.144924
O O15 0.663468 0.750000 0.005484
O O16 0.680203 0.000107 0.924346
O O17 0.517830 0.960192 0.851873
O O18 0.701634 0.750000 0.855459
O O19 0.000659 0.250000 0.396225
O O20 0.000000 0.500000 0.500000
O O21 0.379489 0.750000 0.649403
#
# Coordination Sequence:
#
# PCOD8076266 Si02
#       8
#     4   4   4   4   4   4   4   4
#     4  10  21  38  58  82 115 157 196 227 279 356
#     4  11  21  36  58  85 116 156 196 234 286 343
#     4  11  21  35  55  83 114 149 192 234 278 335
#     4  10  21  40  63  84 112 154 195 232 285 357
#     4   9  19  37  61  85 110 144 192 244 292 346
#     4   9  18  36  59  82 112 155 196 229 280 356
#     4  11  23  38  58  87 118 154 194 235 284 344
#     4  11  23  37  58  89 116 144 189 249 300 330
#
# _framework density 20.774678000000002
#
# number of rings (size 3 to 8) (size 9 to 14) (size 15 to 20)
#    0.000    1.750    1.250    3.375    0.000    7.500 
#    0.000    0.625    0.000    4.500    0.000    0.000 
#    0.000    0.000    0.000    0.000    0.000    0.000 
#
# Total GULP energy -396594.572017 kJ/mol
# GULP energy per Si atom -12393.580376 kJ/mol
# Density = 2.072739 g / cm^3
# Si number density = 20.774678 Si / 1000 Ang^3
#
#
#
# Elastic Constant Matrix: (Units=GPa)
#
#
# Indices 1 2 3 4 5 6 
#
# 1 90.3324 20.8646 13.2389 0.0000 -23.7596 0.0000
# 2 20.8646 45.1570 30.1772 0.0000 3.6858 0.0000
# 3 13.2389 30.1772 88.6741 0.0000 -32.2402 0.0000
# 4 0.0000 0.0000 0.0000 28.8850 0.0000 -4.1300
# 5 -23.7596 3.6858 -32.2402 0.0000 36.6269 0.0000
# 6 0.0000 0.0000 0.0000 -4.1300 0.0000 24.2066
#
#
#
# Elastic Compliance Matrix: (Units=1/GPa)
#
#
# Indices 1 2 3 4 5 6 
#
# 1 0.022161 -0.023215 0.015689 0.000000 0.030522 0.000000
# 2 -0.023215 0.062400 -0.037543 0.000000 -0.054386 0.000000
# 3 0.015689 -0.037543 0.039392 0.000000 0.048630 0.000000
# 4 0.000000 0.000000 0.000000 0.035486 0.000000 0.006054
# 5 0.030522 -0.054386 0.048630 0.000000 0.095381 0.000000
# 6 0.000000 0.000000 0.000000 0.006054 0.000000 0.042344
#
#
# Mechanical properties :
#
#
# Convention : Reuss Voigt Hill
#
# Bulk Modulus (GPa) = 29.57327 39.19167 34.38247
# Shear Modulus (GPa) = 12.54472 28.60254 20.57363
#
# Velocity S-wave (km/s) = 2.46000 3.71455 3.15035
# Velocity P-wave (km/s) = 4.72598 6.10764 5.46068
#
# Compressibility (1/GPa) = 0.03381432
#
# Stress axis : x y z
#
# Youngs Moduli (GPa) = 45.12420 16.02570 25.38558
#
# Poissons Ratio (x) = 0.37204 -0.39828
# Poissons Ratio (y) = 1.04757 0.95306
# Poissons Ratio (z) = -0.70796 0.60166
#
# Static dielectric constant tensor:
#      x y z
#    x 2.765400 0.000000 -1.242510 
#    y 0.000000 3.556380 0.000000 
#    z -1.242510 0.000000 5.394610 
# 
# 
# High freq. dielectric constant tensor:
#      x y z
#    x 1.827750 0.000000 -0.017550 
#    y 0.000000 1.780640 0.000000 
#    z -0.017550 0.000000 1.825640 
# 
# From -- ./inp_files/54314.got.cif
#   From: 2010.06.25/outbox.cif.g09.slc.cpg/sg11_28_cif.got.tgz:54314.got - 2010.06.27 23:14:04.
