data_PCOD8076116
_publ_section_title
;
Structure prediction by ZEFSAII (Michael W. Deem and Ramdas Pophale) SiO2 
 PCOD8076116
Probable space group: P 21/M
;
_chemical_formula_sum "Si O2"
_cell_formula_units_Z 32
_cell_length_a 12.891842
_cell_length_b 14.713936
_cell_length_c 18.304181
_cell_angle_alpha 90.000000
_cell_angle_beta 152.034279
_cell_angle_gamma 90.000000
_cell_volume 1628.224956
_symmetry_space_group_name_H-M "P 21/M"
_symmetry_group_IT_number 11
_symmetry_cell_setting 'monoclinic'
loop_
_space_group_symop_operation_xyz
x,y,z
-x,1/2+y,-z
-x,-y,-z
x,1/2-y,z
loop_
_atom_site_type_symbol
_atom_site_label
_atom_site_fract_x
_atom_site_fract_y
_atom_site_fract_z
Si Si1 0.364337 0.003008 0.234181
Si Si2 0.257505 0.856803 0.531167
Si Si3 0.071797 0.854609 0.804469
Si Si4 0.973846 0.502892 0.104001
Si Si5 0.568296 0.142187 0.082460
Si Si6 0.270160 0.145392 0.537295
Si Si7 0.078424 0.356803 0.804962
Si Si8 0.110089 0.642189 0.596137
O O1 0.510859 0.093044 0.334475
O O2 0.196406 0.000239 0.196410
O O3 0.508127 0.912171 0.327452
O O4 0.240734 0.007489 0.080255
O O5 0.307414 0.750000 0.565206
O O6 0.135179 0.891257 0.528683
O O7 0.099924 0.883497 0.366573
O O8 0.093118 0.750000 0.841645
O O9 0.866983 0.867900 0.622322
O O10 0.034530 0.912167 0.853518
O O11 0.297120 0.890041 0.905493
O O12 0.982240 0.593021 0.158301
O O13 0.580599 0.250000 0.091838
O O14 0.685647 0.103699 0.228694
O O15 0.315760 0.108683 0.922554
O O16 0.339117 0.250000 0.590336
O O17 0.122832 0.109922 0.514216
O O18 0.080611 0.250000 0.823062
O O19 0.113568 0.750000 0.602640
#
# Coordination Sequence:
#
# PCOD8076116 Si02
#       8
#     4   4   4   4   4   4   4   4
#     4  11  25  41  56  78 109 148 193 234 274 326
#     4  10  21  37  59  86 113 144 183 227 276 328
#     4   9  19  37  61  87 114 145 181 225 278 330
#     4  11  25  41  56  78 109 148 193 234 274 326
#     4   8  15  31  56  85 115 144 175 216 271 333
#     4   9  19  37  61  87 114 145 181 225 278 330
#     4  10  21  37  59  86 113 144 183 227 276 328
#     4   8  15  31  56  85 115 144 175 216 271 333
#
# _framework density 19.653305
#
# number of rings (size 3 to 8) (size 9 to 14) (size 15 to 20)
#    0.000    2.500    0.000    3.000    0.000    7.000 
#    0.000    7.500    0.000    0.000    0.000    0.000 
#    0.000    0.000    0.000    0.000    0.000    0.000 
#
# Total GULP energy -396800.258715 kJ/mol
# GULP energy per Si atom -12400.008085 kJ/mol
# Density = 1.960857 g / cm^3
# Si number density = 19.653305 Si / 1000 Ang^3
#
#
#
# Elastic Constant Matrix: (Units=GPa)
#
#
# Indices 1 2 3 4 5 6 
#
# 1 132.5710 59.3571 96.8299 0.0000 1.4728 0.0000
# 2 59.3571 84.9950 61.8764 0.0000 -1.9470 0.0000
# 3 96.8299 61.8764 134.7294 0.0000 -4.6756 0.0000
# 4 0.0000 0.0000 0.0000 30.3202 0.0000 3.2951
# 5 1.4728 -1.9470 -4.6756 0.0000 18.3180 0.0000
# 6 0.0000 0.0000 0.0000 3.2951 0.0000 36.7553
#
#
#
# Elastic Compliance Matrix: (Units=1/GPa)
#
#
# Indices 1 2 3 4 5 6 
#
# 1 0.017300 -0.004536 -0.010508 0.000000 -0.004555 0.000000
# 2 -0.004536 0.018865 -0.005369 0.000000 0.000999 0.000000
# 3 -0.010508 -0.005369 0.017606 0.000000 0.004768 0.000000
# 4 0.000000 0.000000 0.000000 0.033306 0.000000 -0.002986
# 5 -0.004555 0.000999 0.004768 0.000000 0.056281 0.000000
# 6 0.000000 0.000000 0.000000 -0.002986 0.000000 0.027475
#
#
# Mechanical properties :
#
#
# Convention : Reuss Voigt Hill
#
# Bulk Modulus (GPa) = 77.25776 87.60247 82.43012
# Shear Modulus (GPa) = 23.15096 26.02750 24.58923
#
# Velocity S-wave (km/s) = 3.43588 3.64308 3.54100
# Velocity P-wave (km/s) = 7.42536 7.89726 7.66494
#
# Compressibility (1/GPa) = 0.01294368
#
# Stress axis : x y z
#
# Youngs Moduli (GPa) = 57.80374 53.00866 56.79852
#
# Poissons Ratio (x) = 0.24044 0.59686
# Poissons Ratio (y) = 0.26219 0.30497
# Poissons Ratio (z) = 0.60742 0.28462
#
# Static dielectric constant tensor:
#      x y z
#    x 3.649190 0.000000 -0.001930 
#    y 0.000000 3.423480 0.000000 
#    z -0.001930 0.000000 3.652620 
# 
# 
# High freq. dielectric constant tensor:
#      x y z
#    x 1.765780 0.000000 -0.001080 
#    y 0.000000 1.763300 0.000000 
#    z -0.001080 0.000000 1.767830 
# 
# From -- ./inp_files/59499.got.cif
#   From: 2010.06.25/outbox.cif.g09.slc.cpg/sg11_30_cif.got.tgz:59499.got - 2010.06.27 23:14:04.
