data_PCOD8076831
_publ_section_title
;
Structure prediction by ZEFSAII (Michael W. Deem and Ramdas Pophale) SiO2 
 PCOD8076831
Probable space group: P 21/M
;
_chemical_formula_sum "Si O2"
_cell_formula_units_Z 28
_cell_length_a 8.455816
_cell_length_b 15.124848
_cell_length_c 11.165010
_cell_angle_alpha 90.000000
_cell_angle_beta 71.977642
_cell_angle_gamma 90.000000
_cell_volume 1357.865906
_symmetry_space_group_name_H-M "P 21/M"
_symmetry_group_IT_number 11
_symmetry_cell_setting 'monoclinic'
loop_
_space_group_symop_operation_xyz
x,y,z
-x,1/2+y,-z
-x,-y,-z
x,1/2-y,z
loop_
_atom_site_type_symbol
_atom_site_label
_atom_site_fract_x
_atom_site_fract_y
_atom_site_fract_z
Si Si1 0.034892 0.347257 0.206626
Si Si2 0.353551 0.923911 0.182605
Si Si3 0.158508 0.147587 0.431198
Si Si4 0.673400 0.916075 0.981441
Si Si5 0.195787 0.998306 0.819211
Si Si6 0.009748 0.352655 0.719355
Si Si7 0.537938 0.979931 0.626794
O O1 0.950887 0.250000 0.225683
O O2 0.056732 0.383333 0.337369
O O3 0.934134 0.418943 0.155686
O O4 0.212238 0.337898 0.097196
O O5 0.508043 0.873218 0.081353
O O6 0.181591 0.873073 0.202677
O O7 0.386358 0.935798 0.317716
O O8 0.362963 0.021916 0.124350
O O9 0.201343 0.250000 0.409396
O O10 0.335410 0.100949 0.398767
O O11 0.041347 0.127147 0.572100
O O12 0.775378 0.976851 0.050521
O O13 0.134435 0.086375 0.765134
O O14 0.362228 0.955888 0.726272
O O15 0.046664 0.250000 0.741118
O O16 0.500000 0.000000 0.500000
#
# Coordination Sequence:
#
# PCOD8076831 Si02
#       7
#     4   4   4   4   4   4   4
#     4  11  23  40  65  91 122 162 200 250 309 361
#     4  10  22  39  63  86 115 162 202 244 300 366
#     4  10  22  40  60  90 124 158 206 253 301 367
#     4  10  21  41  61  87 123 157 201 251 294 359
#     4  11  23  38  62  93 125 155 206 253 298 360
#     4  11  23  40  62  90 124 161 202 252 306 363
#     4  11  21  37  64  88 113 162 200 247 312 354
#
# _framework density 20.620591999999998
#
# number of rings (size 3 to 8) (size 9 to 14) (size 15 to 20)
#    0.000    1.429    4.286    0.429    2.000    2.857 
#    0.000    2.857    0.000    0.000    0.000    0.000 
#    0.000    0.000    0.000    0.000    0.000    0.000 
#
# Total GULP energy -347093.406081 kJ/mol
# GULP energy per Si atom -12396.193074 kJ/mol
# Density = 2.057366 g / cm^3
# Si number density = 20.620592 Si / 1000 Ang^3
#
#
#
# Elastic Constant Matrix: (Units=GPa)
#
#
# Indices 1 2 3 4 5 6 
#
# 1 93.3784 30.9012 26.4768 0.0000 -10.7908 0.0000
# 2 30.9012 59.9567 17.5390 0.0000 -9.0068 0.0000
# 3 26.4768 17.5390 92.5200 0.0000 -0.2548 0.0000
# 4 0.0000 0.0000 0.0000 22.5662 0.0000 -4.0514
# 5 -10.7908 -9.0068 -0.2548 0.0000 39.4966 0.0000
# 6 0.0000 0.0000 0.0000 -4.0514 0.0000 19.4459
#
#
#
# Elastic Compliance Matrix: (Units=1/GPa)
#
#
# Indices 1 2 3 4 5 6 
#
# 1 0.013732 -0.005898 -0.002805 0.000000 0.002389 0.000000
# 2 -0.005898 0.020848 -0.002256 0.000000 0.003128 0.000000
# 3 -0.002805 -0.002256 0.012036 0.000000 -0.001203 0.000000
# 4 0.000000 0.000000 0.000000 0.046036 0.000000 0.009591
# 5 0.002389 0.003128 -0.001203 0.000000 0.026677 0.000000
# 6 0.000000 0.000000 0.000000 0.009591 0.000000 0.053423
#
#
# Mechanical properties :
#
#
# Convention : Reuss Voigt Hill
#
# Bulk Modulus (GPa) = 40.48869 43.96544 42.22707
# Shear Modulus (GPa) = 24.64235 27.69762 26.16998
#
# Velocity S-wave (km/s) = 3.46068 3.66895 3.56633
# Velocity P-wave (km/s) = 5.97044 6.27022 6.12216
#
# Compressibility (1/GPa) = 0.02469825
#
# Stress axis : x y z
#
# Youngs Moduli (GPa) = 72.82062 47.96548 83.08731
#
# Poissons Ratio (x) = 0.28291 0.23307
# Poissons Ratio (y) = 0.42951 0.18742
# Poissons Ratio (z) = 0.20427 0.10820
#
# Static dielectric constant tensor:
#      x y z
#    x 3.917540 0.000000 -0.054680 
#    y 0.000000 3.497160 0.000000 
#    z -0.054680 0.000000 4.136300 
# 
# 
# High freq. dielectric constant tensor:
#      x y z
#    x 1.813000 0.000000 -0.001800 
#    y 0.000000 1.777480 0.000000 
#    z -0.001800 0.000000 1.828570 
# 
# From -- ./inp_files/24940.got.cif
#   From: 2010.06.25/outbox.cif.g09.slc.cpg/sg11_13_cif.got.tgz:24940.got - 2010.06.27 23:14:04.
