data_PCOD8076970
_publ_section_title
;
Structure prediction by ZEFSAII (Michael W. Deem and Ramdas Pophale) SiO2 
 PCOD8076970
Probable space group: P 21/M
;
_chemical_formula_sum "Si O2"
_cell_formula_units_Z 32
_cell_length_a 8.855423
_cell_length_b 18.652155
_cell_length_c 12.460433
_cell_angle_alpha 90.000000
_cell_angle_beta 127.332897
_cell_angle_gamma 90.000000
_cell_volume 1636.466414
_symmetry_space_group_name_H-M "P 21/M"
_symmetry_group_IT_number 11
_symmetry_cell_setting 'monoclinic'
loop_
_space_group_symop_operation_xyz
x,y,z
-x,1/2+y,-z
-x,-y,-z
x,1/2-y,z
loop_
_atom_site_type_symbol
_atom_site_label
_atom_site_fract_x
_atom_site_fract_y
_atom_site_fract_z
Si Si1 0.673105 0.334222 0.351545
Si Si2 0.036671 0.166161 0.186343
Si Si3 0.734150 0.169266 0.726436
Si Si4 0.989883 0.671037 0.357005
Si Si5 0.573036 0.665975 0.558819
Si Si6 0.679202 0.408309 0.131134
Si Si7 0.727443 0.571087 0.127161
Si Si8 0.979025 0.581072 0.028230
O O1 0.642711 0.250000 0.314276
O O2 0.889060 0.348665 0.484712
O O3 0.525675 0.364839 0.376218
O O4 0.632239 0.379344 0.227982
O O5 0.028802 0.250000 0.159682
O O6 0.835599 0.141084 0.143210
O O7 0.202783 0.147841 0.344617
O O8 0.097184 0.127778 0.102870
O O9 0.719893 0.250000 0.769855
O O10 0.869186 0.171202 0.682157
O O11 0.529347 0.139143 0.595346
O O12 0.815844 0.113423 0.848604
O O13 0.899443 0.750000 0.331928
O O14 0.818565 0.615901 0.263972
O O15 0.531927 0.750000 0.544419
O O16 0.756934 0.488773 0.171592
O O17 0.492082 0.406791 0.976530
O O18 0.828386 0.588121 0.058223
O O19 0.000000 0.500000 0.000000
#
# Coordination Sequence:
#
# PCOD8076970 Si02
#       8
#     4   4   4   4   4   4   4   4
#     4   9  17  33  57  82 105 137 181 226 274 328
#     4  11  22  36  56  83 113 145 182 229 279 325
#     4   8  15  31  56  82 106 136 179 230 277 323
#     4   8  16  32  57  82 102 131 181 233 268 321
#     4   8  16  33  57  82 106 135 179 231 274 323
#     4  11  22  36  53  78 115 152 180 224 273 333
#     4  10  22  38  56  77 111 150 188 222 276 326
#     4  11  20  36  57  80 111 148 187 233 273 326
#
# _framework density 19.554328000000002
#
# number of rings (size 3 to 8) (size 9 to 14) (size 15 to 20)
#    0.000    2.500    1.250    3.000    0.000    2.000 
#    0.000    1.875    2.750    1.500    0.000    0.000 
#    0.000    0.000    0.000    0.000    0.000    0.000 
#
# Total GULP energy -396691.340814 kJ/mol
# GULP energy per Si atom -12396.604400 kJ/mol
# Density = 1.950982 g / cm^3
# Si number density = 19.554328 Si / 1000 Ang^3
#
#
#
# Elastic Constant Matrix: (Units=GPa)
#
#
# Indices 1 2 3 4 5 6 
#
# 1 48.4541 17.8915 11.6121 0.0000 15.0819 0.0000
# 2 17.8915 97.8986 51.5863 0.0000 14.9096 0.0000
# 3 11.6121 51.5863 93.0460 0.0000 20.0635 0.0000
# 4 0.0000 0.0000 0.0000 18.2272 0.0000 -4.6697
# 5 15.0819 14.9096 20.0635 0.0000 26.3535 0.0000
# 6 0.0000 0.0000 0.0000 -4.6697 0.0000 25.5100
#
#
#
# Elastic Compliance Matrix: (Units=1/GPa)
#
#
# Indices 1 2 3 4 5 6 
#
# 1 0.025930 -0.003510 0.001772 0.000000 -0.014204 0.000000
# 2 -0.003510 0.015042 -0.007776 0.000000 -0.000581 0.000000
# 3 0.001772 -0.007776 0.016878 0.000000 -0.009465 0.000000
# 4 0.000000 0.000000 0.000000 0.057563 0.000000 0.010537
# 5 -0.014204 -0.000581 -0.009465 0.000000 0.053609 0.000000
# 6 0.000000 0.000000 0.000000 0.010537 0.000000 0.041129
#
#
# Mechanical properties :
#
#
# Convention : Reuss Voigt Hill
#
# Bulk Modulus (GPa) = 25.75744 44.61984 35.18864
# Shear Modulus (GPa) = 20.65094 24.57207 22.61150
#
# Velocity S-wave (km/s) = 3.25326 3.54871 3.40419
# Velocity P-wave (km/s) = 5.22613 6.29754 5.78669
#
# Compressibility (1/GPa) = 0.03882373
#
# Stress axis : x y z
#
# Youngs Moduli (GPa) = 38.56490 66.47957 59.24747
#
# Poissons Ratio (x) = 0.23333 -0.10501
# Poissons Ratio (y) = 0.13535 0.46073
# Poissons Ratio (z) = -0.06836 0.51697
#
# Static dielectric constant tensor:
#      x y z
#    x 3.279580 0.000000 0.170860 
#    y 0.000000 3.579000 0.000000 
#    z 0.170860 0.000000 3.937430 
# 
# 
# High freq. dielectric constant tensor:
#      x y z
#    x 1.736470 0.000000 0.012150 
#    y 0.000000 1.749140 0.000000 
#    z 0.012150 0.000000 1.774140 
# 
# From -- ./inp_files/32846.got.cif
#   From: 2010.06.25/outbox.cif.g09.slc.cpg/sg11_17_cif.got.tgz:32846.got - 2010.06.27 23:14:04.
