data_PCOD8076755
_publ_section_title
;
Structure prediction by ZEFSAII (Michael W. Deem and Ramdas Pophale) SiO2 
 PCOD8076755
Probable space group: P 21/M
;
_chemical_formula_sum "Si O2"
_cell_formula_units_Z 28
_cell_length_a 9.362270
_cell_length_b 28.591337
_cell_length_c 6.803305
_cell_angle_alpha 90.000000
_cell_angle_beta 49.372105
_cell_angle_gamma 90.000000
_cell_volume 1382.137467
_symmetry_space_group_name_H-M "P 21/M"
_symmetry_group_IT_number 11
_symmetry_cell_setting 'monoclinic'
loop_
_space_group_symop_operation_xyz
x,y,z
-x,1/2+y,-z
-x,-y,-z
x,1/2-y,z
loop_
_atom_site_type_symbol
_atom_site_label
_atom_site_fract_x
_atom_site_fract_y
_atom_site_fract_z
Si Si1 0.734449 0.697628 0.981469
Si Si2 0.607598 0.305316 0.980860
Si Si3 0.022234 0.545080 0.341970
Si Si4 0.993396 0.648978 0.472565
Si Si5 0.304823 0.442583 0.654431
Si Si6 0.325560 0.163489 0.549811
Si Si7 0.601586 0.010448 0.111179
O O1 0.776911 0.750000 0.871590
O O2 0.539733 0.680472 0.057084
O O3 0.710605 0.697948 0.236777
O O4 0.914704 0.666799 0.752899
O O5 0.647952 0.250000 0.952043
O O6 0.799439 0.332520 0.761841
O O7 0.519654 0.322483 0.267207
O O8 0.000000 0.500000 0.500000
O O9 0.985215 0.592741 0.493981
O O10 0.890802 0.542330 0.268682
O O11 0.233199 0.547126 0.074509
O O12 0.851464 0.668510 0.435498
O O13 0.337623 0.387630 0.634304
O O14 0.316647 0.462667 0.865622
O O15 0.466958 0.464278 0.379852
O O16 0.500000 0.000000 0.000000
#
# Coordination Sequence:
#
# PCOD8076755 Si02
#       7
#     4   4   4   4   4   4   4
#     4  10  22  40  62  90 121 158 201 248 306 363
#     4  10  21  40  63  89 122 157 198 252 304 362
#     4  11  22  39  60  87 123 160 199 245 303 352
#     4  10  23  40  61  89 123 159 202 250 297 364
#     4  10  23  39  58  89 119 157 201 249 296 359
#     4  10  22  39  62  88 122 157 198 246 304 359
#     4  11  22  39  61  83 116 160 203 248 295 352
#
# _framework density 20.258478
#
# number of rings (size 3 to 8) (size 9 to 14) (size 15 to 20)
#    0.000    1.714    1.429    2.143    2.000    5.143 
#    0.000    0.000    0.000    0.000    0.000    0.000 
#    0.000    0.000    0.000    0.000    0.000    0.000 
#
# Total GULP energy -347232.859083 kJ/mol
# GULP energy per Si atom -12401.173539 kJ/mol
# Density = 2.021237 g / cm^3
# Si number density = 20.258478 Si / 1000 Ang^3
#
#
#
# Elastic Constant Matrix: (Units=GPa)
#
#
# Indices 1 2 3 4 5 6 
#
# 1 100.7100 43.0454 52.6680 0.0000 -13.6666 0.0000
# 2 43.0454 91.7388 32.4284 0.0000 -2.8912 0.0000
# 3 52.6680 32.4284 114.9035 0.0000 -8.4050 0.0000
# 4 0.0000 0.0000 0.0000 33.3776 0.0000 -4.8333
# 5 -13.6666 -2.8912 -8.4050 0.0000 39.7719 0.0000
# 6 0.0000 0.0000 0.0000 -4.8333 0.0000 27.4079
#
#
#
# Elastic Compliance Matrix: (Units=1/GPa)
#
#
# Indices 1 2 3 4 5 6 
#
# 1 0.015485 -0.005260 -0.005334 0.000000 0.003811 0.000000
# 2 -0.005260 0.013896 -0.001594 0.000000 -0.001134 0.000000
# 3 -0.005334 -0.001594 0.011635 0.000000 0.000510 0.000000
# 4 0.000000 0.000000 0.000000 0.030745 0.000000 0.005422
# 5 0.003811 -0.001134 0.000510 0.000000 0.026478 0.000000
# 6 0.000000 0.000000 0.000000 0.005422 0.000000 0.037442
#
#
# Mechanical properties :
#
#
# Convention : Reuss Voigt Hill
#
# Bulk Modulus (GPa) = 60.09695 62.62620 61.36157
# Shear Modulus (GPa) = 30.19245 32.05885 31.12565
#
# Velocity S-wave (km/s) = 3.86471 3.98237 3.92398
# Velocity P-wave (km/s) = 7.04586 7.21986 7.13339
#
# Compressibility (1/GPa) = 0.01663978
#
# Stress axis : x y z
#
# Youngs Moduli (GPa) = 64.58039 71.96218 85.94630
#
# Poissons Ratio (x) = 0.37851 0.45847
# Poissons Ratio (y) = 0.33969 0.13698
# Poissons Ratio (z) = 0.34450 0.11469
#
# Static dielectric constant tensor:
#      x y z
#    x 3.738740 0.000000 -0.100910 
#    y 0.000000 3.822430 0.000000 
#    z -0.100910 0.000000 3.749440 
# 
# 
# High freq. dielectric constant tensor:
#      x y z
#    x 1.790590 0.000000 -0.006710 
#    y 0.000000 1.799480 0.000000 
#    z -0.006710 0.000000 1.798260 
# 
# From -- ./inp_files/3321.got.cif
#   From: 2010.06.25/outbox.cif.g09.slc.cpg/sg11_2_cif.got.tgz:3321.got - 2010.06.27 23:14:04.
