data_PCOD8076292
_publ_section_title
;
Structure prediction by ZEFSAII (Michael W. Deem and Ramdas Pophale) SiO2 
 PCOD8076292
Probable space group: P 21/M
;
_chemical_formula_sum "Si O2"
_cell_formula_units_Z 32
_cell_length_a 10.117072
_cell_length_b 18.504730
_cell_length_c 12.239668
_cell_angle_alpha 90.000000
_cell_angle_beta 130.817351
_cell_angle_gamma 90.000000
_cell_volume 1734.150222
_symmetry_space_group_name_H-M "P 21/M"
_symmetry_group_IT_number 11
_symmetry_cell_setting 'monoclinic'
loop_
_space_group_symop_operation_xyz
x,y,z
-x,1/2+y,-z
-x,-y,-z
x,1/2-y,z
loop_
_atom_site_type_symbol
_atom_site_label
_atom_site_fract_x
_atom_site_fract_y
_atom_site_fract_z
Si Si1 0.915558 0.668335 0.110009
Si Si2 0.878403 0.070740 0.932386
Si Si3 0.358863 0.330217 0.204398
Si Si4 0.187905 0.334858 0.502148
Si Si5 0.367402 0.580821 0.533167
Si Si6 0.509140 0.073452 0.636079
Si Si7 0.970819 0.332792 0.595480
Si Si8 0.961925 0.832025 0.807867
O O1 0.962454 0.750000 0.098021
O O2 0.066655 0.618147 0.142472
O O3 0.898818 0.662212 0.230978
O O4 0.728208 0.647332 0.957843
O O5 0.672907 0.053194 0.803475
O O6 0.899685 0.114942 0.057705
O O7 0.000000 0.000000 0.000000
O O8 0.439953 0.250000 0.242788
O O9 0.509351 0.386402 0.307846
O O10 0.216618 0.334860 0.222344
O O11 0.216053 0.250000 0.511291
O O12 0.381720 0.367442 0.620048
O O13 0.073881 0.357882 0.544500
O O14 0.082677 0.361267 0.337509
O O15 0.420560 0.605737 0.440368
O O16 0.382631 0.494777 0.547746
O O17 0.177383 0.608868 0.461206
O O18 0.899643 0.250000 0.545526
O O19 0.036854 0.750000 0.844497
#
# Coordination Sequence:
#
# PCOD8076292 Si02
#       8
#     4   4   4   4   4   4   4   4
#     4   9  18  33  54  81 110 142 182 228 283 329
#     4  11  21  34  56  84 114 146 184 234 279 333
#     4   9  16  30  54  81 108 141 179 231 281 324
#     4  10  22  39  59  83 115 151 188 230 283 337
#     4  11  21  35  54  84 113 144 190 232 277 337
#     4  11  23  35  55  85 114 147 186 236 284 329
#     4  10  21  38  59  83 112 150 190 231 278 336
#     4   9  18  34  55  80 111 146 182 226 282 333
#
# _framework density 18.452842
#
# number of rings (size 3 to 8) (size 9 to 14) (size 15 to 20)
#    0.000    2.000    2.500    3.000    1.750    2.000 
#    0.000    1.250    0.000    6.750    0.000    0.000 
#    0.000    0.000    0.000    0.000    0.000    0.000 
#
# Total GULP energy -396710.743680 kJ/mol
# GULP energy per Si atom -12397.210740 kJ/mol
# Density = 1.841084 g / cm^3
# Si number density = 18.452842 Si / 1000 Ang^3
#
#
#
# Elastic Constant Matrix: (Units=GPa)
#
#
# Indices 1 2 3 4 5 6 
#
# 1 98.0832 41.2799 60.5994 0.0000 -5.3870 0.0000
# 2 41.2799 66.7323 42.4398 0.0000 4.2658 0.0000
# 3 60.5994 42.4398 128.7311 0.0000 -6.0851 0.0000
# 4 0.0000 0.0000 0.0000 30.0227 0.0000 8.1310
# 5 -5.3870 4.2658 -6.0851 0.0000 27.4336 0.0000
# 6 0.0000 0.0000 0.0000 8.1310 0.0000 22.5609
#
#
#
# Elastic Compliance Matrix: (Units=1/GPa)
#
#
# Indices 1 2 3 4 5 6 
#
# 1 0.016671 -0.007113 -0.005352 0.000000 0.003193 0.000000
# 2 -0.007113 0.022531 -0.004357 0.000000 -0.005867 0.000000
# 3 -0.005352 -0.004357 0.011830 0.000000 0.002251 0.000000
# 4 0.000000 0.000000 0.000000 0.036911 0.000000 -0.013303
# 5 0.003193 -0.005867 0.002251 0.000000 0.038490 0.000000
# 6 0.000000 0.000000 0.000000 -0.013303 0.000000 0.049119
#
#
# Mechanical properties :
#
#
# Convention : Reuss Voigt Hill
#
# Bulk Modulus (GPa) = 57.50810 64.68720 61.09765
# Shear Modulus (GPa) = 23.25670 25.95193 24.60432
#
# Velocity S-wave (km/s) = 3.55397 3.75426 3.65548
# Velocity P-wave (km/s) = 6.93350 7.34330 7.14134
#
# Compressibility (1/GPa) = 0.01738885
#
# Stress axis : x y z
#
# Youngs Moduli (GPa) = 59.98470 44.38303 84.52882
#
# Poissons Ratio (x) = 0.31569 0.45239
# Poissons Ratio (y) = 0.42666 0.36829
# Poissons Ratio (z) = 0.32103 0.19338
#
# Static dielectric constant tensor:
#      x y z
#    x 3.099170 0.000000 -0.205270 
#    y 0.000000 3.453050 0.000000 
#    z -0.205270 0.000000 3.739480 
# 
# 
# High freq. dielectric constant tensor:
#      x y z
#    x 1.673880 0.000000 -0.007800 
#    y 0.000000 1.718320 0.000000 
#    z -0.007800 0.000000 1.728050 
# 
# From -- ./inp_files/32807.got.cif
#   From: 2010.06.25/outbox.cif.g09.slc.cpg/sg11_17_cif.got.tgz:32807.got - 2010.06.27 23:14:04.
