data_PCOD8076389
_publ_section_title
;
Structure prediction by ZEFSAII (Michael W. Deem and Ramdas Pophale) SiO2 
 PCOD8076389
Probable space group: P 21/M
;
_chemical_formula_sum "Si O2"
_cell_formula_units_Z 32
_cell_length_a 14.788113
_cell_length_b 8.965206
_cell_length_c 12.247072
_cell_angle_alpha 90.000000
_cell_angle_beta 88.160447
_cell_angle_gamma 90.000000
_cell_volume 1622.861391
_symmetry_space_group_name_H-M "P 21/M"
_symmetry_group_IT_number 11
_symmetry_cell_setting 'monoclinic'
loop_
_space_group_symop_operation_xyz
x,y,z
-x,1/2+y,-z
-x,-y,-z
x,1/2-y,z
loop_
_atom_site_type_symbol
_atom_site_label
_atom_site_fract_x
_atom_site_fract_y
_atom_site_fract_z
Si Si1 0.315546 0.080520 0.726117
Si Si2 0.055037 0.911844 0.583987
Si Si3 0.252857 0.912118 0.530438
Si Si4 0.315691 0.073963 0.324392
Si Si5 0.491393 0.576217 0.380096
Si Si6 0.973125 0.575476 0.196446
Si Si7 0.819709 0.073641 0.841657
Si Si8 0.801451 0.922296 0.063199
O O1 0.287832 0.250000 0.697277
O O2 0.421647 0.054871 0.700787
O O3 0.281436 0.046652 0.850170
O O4 0.263713 0.963629 0.653686
O O5 0.011171 0.750000 0.609903
O O6 0.147824 0.890379 0.516332
O O7 0.065497 0.999606 0.694939
O O8 0.000000 0.000000 0.500000
O O9 0.300679 0.750000 0.508558
O O10 0.290892 0.039824 0.450653
O O11 0.321379 0.250000 0.304121
O O12 0.413951 0.998607 0.307436
O O13 0.239952 0.003520 0.249382
O O14 0.500000 0.500000 0.500000
O O15 0.471368 0.750000 0.401041
O O16 0.972745 0.750000 0.217900
O O17 0.901218 0.533594 0.104938
O O18 0.075309 0.520425 0.167967
O O19 0.810915 0.250000 0.827467
O O20 0.780746 0.024566 0.959843
O O21 0.801760 0.750000 0.027217
#
# Coordination Sequence:
#
# PCOD8076389 Si02
#       8
#     4   4   4   4   4   4   4   4
#     4  10  21  38  63  91 121 155 195 241 298 360
#     4  11  23  35  52  82 119 160 201 245 300 359
#     4  11  22  36  57  86 121 156 196 248 301 357
#     4  12  25  41  62  88 121 164 205 250 307 365
#     4  11  22  38  63  96 126 157 198 247 302 367
#     4  10  21  38  61  87 120 159 202 251 301 355
#     4  11  24  41  61  89 122 160 206 257 305 355
#     4  10  21  40  64  90 121 161 204 248 298 363
#
# _framework density 19.718257999999999
#
# number of rings (size 3 to 8) (size 9 to 14) (size 15 to 20)
#    0.000    1.250    2.500    3.750    0.000    7.000 
#    0.000    0.625    0.000    0.000    0.000    0.000 
#    0.000    0.000    0.000    0.000    0.000    0.000 
#
# Total GULP energy -396668.690527 kJ/mol
# GULP energy per Si atom -12395.896579 kJ/mol
# Density = 1.967338 g / cm^3
# Si number density = 19.718258 Si / 1000 Ang^3
#
#
#
# Elastic Constant Matrix: (Units=GPa)
#
#
# Indices 1 2 3 4 5 6 
#
# 1 107.9280 40.8391 29.2715 0.0000 -13.6643 0.0000
# 2 40.8391 88.9328 33.1158 0.0000 3.4747 0.0000
# 3 29.2715 33.1158 69.4936 0.0000 -6.6395 0.0000
# 4 0.0000 0.0000 0.0000 36.3473 0.0000 2.1254
# 5 -13.6643 3.4747 -6.6395 0.0000 26.6943 0.0000
# 6 0.0000 0.0000 0.0000 2.1254 0.0000 26.2408
#
#
#
# Elastic Compliance Matrix: (Units=1/GPa)
#
#
# Indices 1 2 3 4 5 6 
#
# 1 0.012697 -0.005270 -0.002203 0.000000 0.006638 0.000000
# 2 -0.005270 0.016181 -0.006095 0.000000 -0.006320 0.000000
# 3 -0.002203 -0.006095 0.018633 0.000000 0.004300 0.000000
# 4 0.000000 0.000000 0.000000 0.027643 0.000000 -0.002239
# 5 0.006638 -0.006320 0.004300 0.000000 0.042751 0.000000
# 6 0.000000 0.000000 0.000000 -0.002239 0.000000 0.038290
#
#
# Mechanical properties :
#
#
# Convention : Reuss Voigt Hill
#
# Bulk Modulus (GPa) = 49.07697 52.53412 50.80555
# Shear Modulus (GPa) = 26.29893 28.73169 27.51531
#
# Velocity S-wave (km/s) = 3.65600 3.82135 3.73959
# Velocity P-wave (km/s) = 6.53949 6.79489 6.66841
#
# Compressibility (1/GPa) = 0.02037615
#
# Stress axis : x y z
#
# Youngs Moduli (GPa) = 78.75708 61.80166 53.66866
#
# Poissons Ratio (x) = 0.32568 0.11822
# Poissons Ratio (y) = 0.41503 0.32710
# Poissons Ratio (z) = 0.17349 0.37666
#
# Static dielectric constant tensor:
#      x y z
#    x 3.818100 0.000000 -0.016640 
#    y 0.000000 3.678120 0.000000 
#    z -0.016640 0.000000 3.251540 
# 
# 
# High freq. dielectric constant tensor:
#      x y z
#    x 1.777070 0.000000 -0.005910 
#    y 0.000000 1.778460 0.000000 
#    z -0.005910 0.000000 1.755600 
# 
# From -- ./inp_files/38173.got.cif
#   From: 2010.06.25/outbox.cif.g09.slc.cpg/sg11_20_cif.got.tgz:38173.got - 2010.06.27 23:14:04.
