data_PCOD8076687
_publ_section_title
;
Structure prediction by ZEFSAII (Michael W. Deem and Ramdas Pophale) SiO2 
 PCOD8076687
Probable space group: P 21/M
;
_chemical_formula_sum "Si O2"
_cell_formula_units_Z 32
_cell_length_a 11.765352
_cell_length_b 16.222392
_cell_length_c 14.966527
_cell_angle_alpha 90.000000
_cell_angle_beta 147.650796
_cell_angle_gamma 90.000000
_cell_volume 1528.473724
_symmetry_space_group_name_H-M "P 21/M"
_symmetry_group_IT_number 11
_symmetry_cell_setting 'monoclinic'
loop_
_space_group_symop_operation_xyz
x,y,z
-x,1/2+y,-z
-x,-y,-z
x,1/2-y,z
loop_
_atom_site_type_symbol
_atom_site_label
_atom_site_fract_x
_atom_site_fract_y
_atom_site_fract_z
Si Si1 0.348020 0.344204 0.920972
Si Si2 0.223863 0.159822 0.156808
Si Si3 0.295335 0.992320 0.307060
Si Si4 0.816075 0.006250 0.449015
Si Si5 0.429466 0.842374 0.755393
Si Si6 0.054133 0.482724 0.780810
Si Si7 0.733169 0.339981 0.831328
Si Si8 0.565787 0.408427 0.893468
O O1 0.280706 0.250000 0.890185
O O2 0.134410 0.396784 0.792803
O O3 0.444389 0.355758 0.886953
O O4 0.527299 0.369012 0.113271
O O5 0.287942 0.250000 0.242074
O O6 0.345629 0.147702 0.144824
O O7 0.269365 0.082574 0.249112
O O8 0.978883 0.160884 0.971612
O O9 0.356546 0.920123 0.278379
O O10 0.084994 0.969085 0.222869
O O11 0.500000 0.000000 0.500000
O O12 0.748078 0.101821 0.409234
O O13 0.905067 0.975958 0.604683
O O14 0.607481 0.956899 0.280395
O O15 0.000000 0.000000 0.500000
O O16 0.339715 0.750000 0.690309
O O17 0.263241 0.534835 0.942719
O O18 0.637707 0.250000 0.738035
O O19 0.691638 0.348762 0.909718
#
# Coordination Sequence:
#
# PCOD8076687 Si02
#       8
#     4   4   4   4   4   4   4   4
#     4  11  23  40  65  97 128 169 221 274 333 393
#     4  10  21  41  67  96 130 171 219 272 330 399
#     4  12  25  42  66 101 139 172 219 278 333 401
#     4  12  24  42  65  96 129 170 219 267 334 399
#     4  10  21  39  64  94 130 168 214 273 332 392
#     4  12  24  41  70  98 127 173 223 270 329 400
#     4  11  24  42  69  98 132 179 225 270 335 403
#     4  12  23  45  68  91 134 173 220 276 330 397
#
# _framework density 20.935918999999998
#
# number of rings (size 3 to 8) (size 9 to 14) (size 15 to 20)
#    0.000    0.750    3.750    4.875    0.000    2.500 
#    0.000    0.000    0.000    3.000    0.000    0.000 
#    0.000    0.000    0.000    0.000    0.000    0.000 
#
# Total GULP energy -396689.884670 kJ/mol
# GULP energy per Si atom -12396.558896 kJ/mol
# Density = 2.088827 g / cm^3
# Si number density = 20.935919 Si / 1000 Ang^3
#
#
#
# Elastic Constant Matrix: (Units=GPa)
#
#
# Indices 1 2 3 4 5 6 
#
# 1 118.8243 49.3416 19.9812 0.0000 -5.3662 0.0000
# 2 49.3416 131.7658 48.8500 0.0000 -3.9374 0.0000
# 3 19.9812 48.8500 109.9008 0.0000 -7.8204 0.0000
# 4 0.0000 0.0000 0.0000 0.8732 0.0000 2.9457
# 5 -5.3662 -3.9374 -7.8204 0.0000 31.5217 0.0000
# 6 0.0000 0.0000 0.0000 2.9457 0.0000 22.3412
#
#
#
# Elastic Compliance Matrix: (Units=1/GPa)
#
#
# Indices 1 2 3 4 5 6 
#
# 1 0.010014 -0.003677 -0.000100 0.000000 0.001221 0.000000
# 2 -0.003677 0.010437 -0.003993 0.000000 -0.000313 0.000000
# 3 -0.000100 -0.003993 0.011050 0.000000 0.002226 0.000000
# 4 0.000000 0.000000 0.000000 2.062592 0.000000 -0.271958
# 5 0.001221 -0.000313 0.002226 0.000000 0.032445 0.000000
# 6 0.000000 0.000000 0.000000 -0.271958 0.000000 0.080619
#
#
# Mechanical properties :
#
#
# Convention : Reuss Voigt Hill
#
# Bulk Modulus (GPa) = 62.64328 66.31518 64.47923
# Shear Modulus (GPa) = 2.24415 27.10175 14.67295
#
# Velocity S-wave (km/s) = 1.03646 3.60183 2.65023
# Velocity P-wave (km/s) = 5.60524 7.00298 6.34273
#
# Compressibility (1/GPa) = 0.01596340
#
# Stress axis : x y z
#
# Youngs Moduli (GPa) = 99.85631 95.81338 90.49402
#
# Poissons Ratio (x) = 0.35227 0.00902
# Poissons Ratio (y) = 0.36713 0.36134
# Poissons Ratio (z) = 0.00995 0.38258
#
# Static dielectric constant tensor:
#      x y z
#    x 4.154010 0.000000 0.083630 
#    y 0.000000 5.232190 0.000000 
#    z 0.083630 0.000000 3.745860 
# 
# 
# High freq. dielectric constant tensor:
#      x y z
#    x 1.836690 0.000000 0.003980 
#    y 0.000000 1.825320 0.000000 
#    z 0.003980 0.000000 1.808400 
# 
# From -- ./inp_files/50741.got.cif
#   From: 2010.06.25/outbox.cif.g09.slc.cpg/sg11_26_cif.got.tgz:50741.got - 2010.06.27 23:14:04.
