data_PCOD8076822
_publ_section_title
;
Structure prediction by ZEFSAII (Michael W. Deem and Ramdas Pophale) SiO2 
 PCOD8076822
Probable space group: P 21/M
;
_chemical_formula_sum "Si O2"
_cell_formula_units_Z 28
_cell_length_a 19.899190
_cell_length_b 12.815841
_cell_length_c 8.735018
_cell_angle_alpha 90.000000
_cell_angle_beta 32.456941
_cell_angle_gamma 90.000000
_cell_volume 1195.501419
_symmetry_space_group_name_H-M "P 21/M"
_symmetry_group_IT_number 11
_symmetry_cell_setting 'monoclinic'
loop_
_space_group_symop_operation_xyz
x,y,z
-x,1/2+y,-z
-x,-y,-z
x,1/2-y,z
loop_
_atom_site_type_symbol
_atom_site_label
_atom_site_fract_x
_atom_site_fract_y
_atom_site_fract_z
Si Si1 0.053848 0.872779 0.859869
Si Si2 0.548894 0.872683 0.836368
Si Si3 0.803515 0.871165 0.491824
Si Si4 0.067011 0.634157 0.483089
Si Si5 0.182239 0.426490 0.189682
Si Si6 0.681641 0.374391 0.516245
Si Si7 0.600942 0.971157 0.430513
O O1 0.050562 0.750000 0.896212
O O2 0.037718 0.898772 0.712668
O O3 0.187578 0.914493 0.662764
O O4 0.934877 0.924823 0.180545
O O5 0.544465 0.750000 0.867817
O O6 0.683173 0.918213 0.635045
O O7 0.533258 0.900590 0.688385
O O8 0.432866 0.918189 0.158162
O O9 0.813085 0.750000 0.432278
O O10 0.781284 0.885598 0.713906
O O11 0.126689 0.750000 0.359721
O O12 0.163658 0.551818 0.227013
O O13 0.940398 0.634142 0.628705
O O14 0.292530 0.402631 0.858293
O O15 0.678911 0.250000 0.504715
O O16 0.662538 0.425184 0.386344
O O17 0.500000 0.000000 0.500000
#
# Coordination Sequence:
#
# PCOD8076822 Si02
#       7
#     4   4   4   4   4   4   4
#     4   9  20  38  65  93 120 162 211 268 322 365
#     4  10  23  44  69  93 125 175 224 266 317 380
#     4  10  21  40  67  95 128 169 218 270 315 380
#     4  10  23  42  62  91 133 168 211 265 322 391
#     4  11  25  39  62  99 128 176 211 254 335 386
#     4  10  23  43  68  95 124 168 221 272 322 378
#     4  12  27  42  63  96 133 172 212 267 326 391
#
# _framework density 23.421135
#
# number of rings (size 3 to 8) (size 9 to 14) (size 15 to 20)
#    0.000    1.714    0.000    2.571    8.000    4.000 
#    0.000    0.000    0.000    0.000    0.000    0.000 
#    0.000    0.000    0.000    0.000    0.000    0.000 
#
# Total GULP energy -347347.034399 kJ/mol
# GULP energy per Si atom -12405.251229 kJ/mol
# Density = 2.336783 g / cm^3
# Si number density = 23.421135 Si / 1000 Ang^3
#
#
#
# Elastic Constant Matrix: (Units=GPa)
#
#
# Indices 1 2 3 4 5 6 
#
# 1 172.7182 12.9352 57.3785 0.0000 -3.5861 0.0000
# 2 12.9352 44.9267 23.8283 0.0000 -10.6234 0.0000
# 3 57.3785 23.8283 153.6676 0.0000 -2.9561 0.0000
# 4 0.0000 0.0000 0.0000 33.6846 0.0000 5.2331
# 5 -3.5861 -10.6234 -2.9561 0.0000 42.5258 0.0000
# 6 0.0000 0.0000 0.0000 5.2331 0.0000 36.7092
#
#
#
# Elastic Compliance Matrix: (Units=1/GPa)
#
#
# Indices 1 2 3 4 5 6 
#
# 1 0.006629 -0.000588 -0.002379 0.000000 0.000247 0.000000
# 2 -0.000588 0.025826 -0.003667 0.000000 0.006147 0.000000
# 3 -0.002379 -0.003667 0.007954 0.000000 -0.000564 0.000000
# 4 0.000000 0.000000 0.000000 0.030359 0.000000 -0.004328
# 5 0.000247 0.006147 -0.000564 0.000000 0.025032 0.000000
# 6 0.000000 0.000000 0.000000 -0.004328 0.000000 0.027858
#
#
# Mechanical properties :
#
#
# Convention : Reuss Voigt Hill
#
# Bulk Modulus (GPa) = 36.84564 62.17741 49.51153
# Shear Modulus (GPa) = 34.25237 41.06194 37.65716
#
# Velocity S-wave (km/s) = 3.82836 4.19167 4.01412
# Velocity P-wave (km/s) = 5.94203 7.07333 6.53221
#
# Compressibility (1/GPa) = 0.02714025
#
# Stress axis : x y z
#
# Youngs Moduli (GPa) = 150.84269 38.72031 125.72702
#
# Poissons Ratio (x) = 0.02278 0.29915
# Poissons Ratio (y) = 0.08876 0.46101
# Poissons Ratio (z) = 0.35891 0.14198
#
# Static dielectric constant tensor:
#      x y z
#    x 4.133170 0.000000 -0.142400 
#    y 0.000000 4.272890 0.000000 
#    z -0.142400 0.000000 4.676970 
# 
# 
# High freq. dielectric constant tensor:
#      x y z
#    x 1.927700 0.000000 -0.003500 
#    y 0.000000 1.953720 0.000000 
#    z -0.003500 0.000000 1.928970 
# 
# From -- ./inp_files/26911.got.cif
#   From: 2010.06.25/outbox.cif.g09.slc.cpg/sg11_14_cif.got.tgz:26911.got - 2010.06.27 23:14:04.
