data_PCOD8076989
_publ_section_title
;
Structure prediction by ZEFSAII (Michael W. Deem and Ramdas Pophale) SiO2 
 PCOD8076989
Probable space group: P 21/M
;
_chemical_formula_sum "Si O2"
_cell_formula_units_Z 32
_cell_length_a 15.299839
_cell_length_b 8.684292
_cell_length_c 11.412236
_cell_angle_alpha 90.000000
_cell_angle_beta 91.892481
_cell_angle_gamma 90.000000
_cell_volume 1515.496981
_symmetry_space_group_name_H-M "P 21/M"
_symmetry_group_IT_number 11
_symmetry_cell_setting 'monoclinic'
loop_
_space_group_symop_operation_xyz
x,y,z
-x,1/2+y,-z
-x,-y,-z
x,1/2-y,z
loop_
_atom_site_type_symbol
_atom_site_label
_atom_site_fract_x
_atom_site_fract_y
_atom_site_fract_z
Si Si1 0.595603 0.572256 0.001101
Si Si2 0.222249 0.575664 0.403550
Si Si3 0.760379 0.576177 0.135066
Si Si4 0.372696 0.571496 0.228714
Si Si5 0.022869 0.573144 0.372061
Si Si6 0.477461 0.569939 0.622569
Si Si7 0.298557 0.078441 0.620152
Si Si8 0.048628 0.065315 0.886480
O O1 0.580441 0.750000 0.026172
O O2 0.642359 0.539695 0.880691
O O3 0.500000 0.500000 0.000000
O O4 0.667530 0.497973 0.093690
O O5 0.237529 0.750000 0.448025
O O6 0.292929 0.532804 0.309363
O O7 0.125515 0.552472 0.350733
O O8 0.236776 0.459088 0.509379
O O9 0.754982 0.750000 0.086963
O O10 0.767606 0.569926 0.274973
O O11 0.851147 0.504964 0.091677
O O12 0.374464 0.750000 0.192088
O O13 0.467099 0.527039 0.283038
O O14 0.995315 0.750000 0.383796
O O15 0.000000 0.500000 0.500000
O O16 0.981899 0.506864 0.246586
O O17 0.500000 0.500000 0.500000
O O18 0.500412 0.750000 0.630555
O O19 0.375343 0.544908 0.640907
O O20 0.338690 0.250000 0.607708
O O21 0.041051 0.250000 0.887798
O O22 0.000000 0.000000 0.000000
#
# Coordination Sequence:
#
# PCOD8076989 Si02
#       8
#     4   4   4   4   4   4   4   4
#     4  11  23  41  63  88 121 162 208 257 311 375
#     4  10  22  38  58  87 124 160 198 253 313 371
#     4   9  21  40  62  89 123 161 202 254 309 367
#     4  11  23  39  59  85 122 161 202 254 309 366
#     4  10  22  41  65  93 126 164 210 265 324 385
#     4  12  23  37  57  86 122 161 204 252 306 368
#     4  11  21  37  63  91 121 162 208 252 308 371
#     4  10  22  42  66  94 128 166 211 263 319 383
#
# _framework density 21.115186000000001
#
# number of rings (size 3 to 8) (size 9 to 14) (size 15 to 20)
#    0.000    1.500    1.250    3.750    1.750    3.500 
#    0.000    3.750    0.000    0.000    0.000    0.000 
#    0.000    0.000    0.000    0.000    0.000    0.000 
#
# Total GULP energy -396474.418368 kJ/mol
# GULP energy per Si atom -12389.825574 kJ/mol
# Density = 2.106713 g / cm^3
# Si number density = 21.115186 Si / 1000 Ang^3
#
#
#
# Elastic Constant Matrix: (Units=GPa)
#
#
# Indices 1 2 3 4 5 6 
#
# 1 147.4505 33.0587 53.2598 0.0000 7.1274 0.0000
# 2 33.0587 49.5015 31.4815 0.0000 -5.2241 0.0000
# 3 53.2598 31.4815 133.0882 0.0000 5.0231 0.0000
# 4 0.0000 0.0000 0.0000 34.2083 0.0000 -3.5379
# 5 7.1274 -5.2241 5.0231 0.0000 21.8729 0.0000
# 6 0.0000 0.0000 0.0000 -3.5379 0.0000 27.1648
#
#
#
# Elastic Compliance Matrix: (Units=1/GPa)
#
#
# Indices 1 2 3 4 5 6 
#
# 1 0.008857 -0.004846 -0.002265 0.000000 -0.003523 0.000000
# 2 -0.004846 0.027553 -0.004929 0.000000 0.009292 0.000000
# 3 -0.002265 -0.004929 0.009687 0.000000 -0.002664 0.000000
# 4 0.000000 0.000000 0.000000 0.029632 0.000000 0.003859
# 5 -0.003523 0.009292 -0.002664 0.000000 0.049698 0.000000
# 6 0.000000 0.000000 0.000000 0.003859 0.000000 0.037315
#
#
# Mechanical properties :
#
#
# Convention : Reuss Voigt Hill
#
# Bulk Modulus (GPa) = 45.42080 62.84889 54.13484
# Shear Modulus (GPa) = 25.75192 30.79857 28.27525
#
# Velocity S-wave (km/s) = 3.49606 3.82330 3.66334
# Velocity P-wave (km/s) = 6.15258 7.02279 6.60204
#
# Compressibility (1/GPa) = 0.02201634
#
# Stress axis : x y z
#
# Youngs Moduli (GPa) = 112.90591 36.29355 103.23443
#
# Poissons Ratio (x) = 0.17589 0.23383
# Poissons Ratio (y) = 0.54717 0.50883
# Poissons Ratio (z) = 0.25574 0.17889
#
# Static dielectric constant tensor:
#      x y z
#    x 3.919590 0.000000 0.117940 
#    y 0.000000 3.510580 0.000000 
#    z 0.117940 0.000000 4.004730 
# 
# 
# High freq. dielectric constant tensor:
#      x y z
#    x 1.842950 0.000000 -0.000070 
#    y 0.000000 1.805960 0.000000 
#    z -0.000070 0.000000 1.837250 
# 
# From -- ./inp_files/38195.got.cif
#   From: 2010.06.25/outbox.cif.g09.slc.cpg/sg11_20_cif.got.tgz:38195.got - 2010.06.27 23:14:04.
