data_PCOD8076051
_publ_section_title
;
Structure prediction by ZEFSAII (Michael W. Deem and Ramdas Pophale) SiO2 
 PCOD8076051
Probable space group: P 21/M
;
_chemical_formula_sum "Si O2"
_cell_formula_units_Z 28
_cell_length_a 10.194114
_cell_length_b 8.814161
_cell_length_c 20.196575
_cell_angle_alpha 90.000000
_cell_angle_beta 128.385045
_cell_angle_gamma 90.000000
_cell_volume 1422.473663
_symmetry_space_group_name_H-M "P 21/M"
_symmetry_group_IT_number 11
_symmetry_cell_setting 'monoclinic'
loop_
_space_group_symop_operation_xyz
x,y,z
-x,1/2+y,-z
-x,-y,-z
x,1/2-y,z
loop_
_atom_site_type_symbol
_atom_site_label
_atom_site_fract_x
_atom_site_fract_y
_atom_site_fract_z
Si Si1 0.005679 0.426322 0.322806
Si Si2 0.958041 0.070618 0.056518
Si Si3 0.864538 0.428945 0.506297
Si Si4 0.410999 0.927440 0.033764
Si Si5 0.345625 0.073099 0.772925
Si Si6 0.446438 0.427690 0.656466
Si Si7 0.799275 0.926647 0.750367
O O1 0.015976 0.250000 0.344986
O O2 0.098965 0.523621 0.407435
O O3 0.093221 0.460906 0.280878
O O4 0.813248 0.474005 0.256673
O O5 0.953322 0.250000 0.047508
O O6 0.093530 0.018931 0.153005
O O7 0.776951 0.008581 0.021679
O O8 0.000000 0.000000 0.000000
O O9 0.877364 0.250000 0.503646
O O10 0.679341 0.483384 0.430560
O O11 0.000000 0.500000 0.500000
O O12 0.410001 0.750000 0.021596
O O13 0.505157 0.970079 0.130946
O O14 0.500000 0.000000 0.000000
O O15 0.297393 0.250000 0.761481
O O16 0.407794 0.027246 0.719735
O O17 0.423332 0.250000 0.637152
O O18 0.632587 0.474768 0.695337
O O19 0.752320 0.750000 0.740994
#
# Coordination Sequence:
#
# PCOD8076051 Si02
#       7
#     4   4   4   4   4   4   4
#     4  11  23  40  64  90 121 163 204 249 306 361
#     4  10  21  39  61  86 120 161 205 253 302 359
#     4  12  24  41  65  94 125 157 198 247 299 358
#     4  10  21  37  57  85 119 156 199 252 306 358
#     4  10  21  37  59  87 119 155 201 254 305 360
#     4  11  23  40  64  91 120 158 202 249 302 358
#     4  10  23  41  60  88 124 161 205 253 306 363
#
# _framework density 19.68402
#
# number of rings (size 3 to 8) (size 9 to 14) (size 15 to 20)
#    0.000    1.429    1.429    3.857    0.000    6.286 
#    0.000    0.000    0.000    0.000    0.000    0.000 
#    0.000    0.000    0.000    0.000    0.000    0.000 
#
# Total GULP energy -347369.879408 kJ/mol
# GULP energy per Si atom -12406.067122 kJ/mol
# Density = 1.963922 g / cm^3
# Si number density = 19.684020 Si / 1000 Ang^3
#
#
#
# Elastic Constant Matrix: (Units=GPa)
#
#
# Indices 1 2 3 4 5 6 
#
# 1 116.2580 43.9193 40.5882 0.0000 10.0016 0.0000
# 2 43.9193 81.8792 46.0405 0.0000 4.6012 0.0000
# 3 40.5882 46.0405 125.6662 0.0000 9.5563 0.0000
# 4 0.0000 0.0000 0.0000 31.1478 0.0000 0.2854
# 5 10.0016 4.6012 9.5563 0.0000 38.9954 0.0000
# 6 0.0000 0.0000 0.0000 0.2854 0.0000 37.4722
#
#
#
# Elastic Compliance Matrix: (Units=1/GPa)
#
#
# Indices 1 2 3 4 5 6 
#
# 1 0.011225 -0.004984 -0.001656 0.000000 -0.001885 0.000000
# 2 -0.004984 0.017602 -0.004869 0.000000 0.000395 0.000000
# 3 -0.001656 -0.004869 0.010394 0.000000 -0.001548 0.000000
# 4 0.000000 0.000000 0.000000 0.032107 0.000000 -0.000245
# 5 -0.001885 0.000395 -0.001548 0.000000 0.026460 0.000000
# 6 0.000000 0.000000 0.000000 -0.000245 0.000000 0.026688
#
#
# Mechanical properties :
#
#
# Convention : Reuss Voigt Hill
#
# Bulk Modulus (GPa) = 61.71785 64.98883 63.35334
# Shear Modulus (GPa) = 32.70203 34.40678 33.55440
#
# Velocity S-wave (km/s) = 4.08039 4.18539 4.13322
# Velocity P-wave (km/s) = 7.32269 7.51295 7.41843
#
# Compressibility (1/GPa) = 0.01620277
#
# Stress axis : x y z
#
# Youngs Moduli (GPa) = 89.08993 56.81149 96.20771
#
# Poissons Ratio (x) = 0.28313 0.15934
# Poissons Ratio (y) = 0.44399 0.46846
# Poissons Ratio (z) = 0.14755 0.27663
#
# Static dielectric constant tensor:
#      x y z
#    x 3.711590 0.000000 0.152660 
#    y 0.000000 3.732230 0.000000 
#    z 0.152660 0.000000 4.013300 
# 
# 
# High freq. dielectric constant tensor:
#      x y z
#    x 1.775770 0.000000 0.001500 
#    y 0.000000 1.765760 0.000000 
#    z 0.001500 0.000000 1.786030 
# 
# From -- ./inp_files/63423.got.cif
#   From: 2010.06.25/outbox.cif.g09.slc.cpg/sg11_32_cif.got.tgz:63423.got - 2010.06.27 23:14:04.
