data_PCOD8076820
_publ_section_title
;
Structure prediction by ZEFSAII (Michael W. Deem and Ramdas Pophale) SiO2 
 PCOD8076820
Probable space group: P 21/M
;
_chemical_formula_sum "Si O2"
_cell_formula_units_Z 20
_cell_length_a 12.267628
_cell_length_b 14.049029
_cell_length_c 7.670719
_cell_angle_alpha 90.000000
_cell_angle_beta 34.629995
_cell_angle_gamma 90.000000
_cell_volume 751.278944
_symmetry_space_group_name_H-M "P 21/M"
_symmetry_group_IT_number 11
_symmetry_cell_setting 'monoclinic'
loop_
_space_group_symop_operation_xyz
x,y,z
-x,1/2+y,-z
-x,-y,-z
x,1/2-y,z
loop_
_atom_site_type_symbol
_atom_site_label
_atom_site_fract_x
_atom_site_fract_y
_atom_site_fract_z
Si Si1 0.571719 0.039888 0.205382
Si Si2 0.797978 0.642005 0.415126
Si Si3 0.236972 0.357301 0.128767
Si Si4 0.225547 0.860231 0.751934
Si Si5 0.814042 0.140874 0.590657
O O1 0.360239 0.926516 0.693512
O O2 0.351208 0.069284 0.474424
O O3 0.596095 0.925462 0.162953
O O4 0.699214 0.080757 0.881824
O O5 0.746796 0.750000 0.426215
O O6 0.793327 0.630886 0.627200
O O7 0.005513 0.611806 0.075237
O O8 0.300997 0.250000 0.996427
O O9 0.038226 0.385220 0.296440
O O10 0.257288 0.750000 0.761520
O O11 0.271567 0.878734 0.487812
O O12 0.786369 0.250000 0.682496
#
# Coordination Sequence:
#
# PCOD8076820 Si02
#       5
#     4   4   4   4   4
#     4  12  22  41  70  97 127 176 228 266 324 398
#     4  10  21  40  66  95 131 172 216 270 333 393
#     4  10  22  42  65  93 133 177 218 275 335 384
#     4  10  22  41  65  98 139 173 209 269 334 393
#     4  10  21  40  66  97 134 173 214 268 332 393
#
# _framework density 26.621269000000002
#
# number of rings (size 3 to 8) (size 9 to 14) (size 15 to 20)
#    0.000    1.600    2.000    3.000    0.000    0.800 
#    3.600    1.000    0.000    0.000    0.000    0.000 
#    0.000    0.000    0.000    0.000    0.000    0.000 
#
# Total GULP energy -248161.967780 kJ/mol
# GULP energy per Si atom -12408.098389 kJ/mol
# Density = 2.656068 g / cm^3
# Si number density = 26.621269 Si / 1000 Ang^3
#
#
#
# Elastic Constant Matrix: (Units=GPa)
#
#
# Indices 1 2 3 4 5 6 
#
# 1 135.0550 44.2389 31.7805 0.0000 -3.0916 0.0000
# 2 44.2389 97.6288 30.2010 0.0000 0.0420 0.0000
# 3 31.7805 30.2010 72.3026 0.0000 2.6372 0.0000
# 4 0.0000 0.0000 0.0000 2.0477 0.0000 -20.6873
# 5 -3.0916 0.0420 2.6372 0.0000 47.8562 0.0000
# 6 0.0000 0.0000 0.0000 -20.6873 0.0000 36.6438
#
#
#
# Elastic Compliance Matrix: (Units=1/GPa)
#
#
# Indices 1 2 3 4 5 6 
#
# 1 0.009133 -0.003317 -0.002656 0.000000 0.000739 0.000000
# 2 -0.003317 0.012971 -0.003960 0.000000 -0.000007 0.000000
# 3 -0.002656 -0.003960 0.016692 0.000000 -0.001088 0.000000
# 4 0.000000 0.000000 0.000000 -0.103828 0.000000 -0.058616
# 5 0.000739 -0.000007 -0.001088 0.000000 0.021004 0.000000
# 6 0.000000 0.000000 0.000000 -0.058616 0.000000 -0.005802
#
#
# Mechanical properties :
#
#
# Convention : Reuss Voigt Hill
#
# Bulk Modulus (GPa) = 52.82511 57.49191 55.15851
# Shear Modulus (GPa) = -211.36523 30.56061 -90.40231
#
# Velocity S-wave (km/s) = -8.92017 3.39186 -5.83373
# Velocity P-wave (km/s) = 9.28474 6.08134 4.96103
#
# Compressibility (1/GPa) = 0.01893039
#
# Stress axis : x y z
#
# Youngs Moduli (GPa) = 109.49528 77.09557 59.91006
#
# Poissons Ratio (x) = 0.25574 0.15910
# Poissons Ratio (y) = 0.36322 0.23722
# Poissons Ratio (z) = 0.29078 0.30527
#
# Static dielectric constant tensor:
#      x y z
#    x 5.049090 0.000000 -0.010570 
#    y 0.000000 5.182700 0.000000 
#    z -0.010570 0.000000 4.775750 
# 
# 
# High freq. dielectric constant tensor:
#      x y z
#    x 2.082330 0.000000 0.003630 
#    y 0.000000 2.082660 0.000000 
#    z 0.003630 0.000000 2.087090 
# 
# From -- ./inp_files/41457.got.cif
#   From: 2010.06.25/outbox.cif.g09.slc.cpg/sg11_21_cif.got.tgz:41457.got - 2010.06.27 23:14:04.
