data_PCOD8076997
_publ_section_title
;
Structure prediction by ZEFSAII (Michael W. Deem and Ramdas Pophale) SiO2 
 PCOD8076997
Probable space group: P 21/M
;
_chemical_formula_sum "Si O2"
_cell_formula_units_Z 28
_cell_length_a 8.632250
_cell_length_b 13.827485
_cell_length_c 11.466526
_cell_angle_alpha 90.000000
_cell_angle_beta 111.585131
_cell_angle_gamma 90.000000
_cell_volume 1272.688824
_symmetry_space_group_name_H-M "P 21/M"
_symmetry_group_IT_number 11
_symmetry_cell_setting 'monoclinic'
loop_
_space_group_symop_operation_xyz
x,y,z
-x,1/2+y,-z
-x,-y,-z
x,1/2-y,z
loop_
_atom_site_type_symbol
_atom_site_label
_atom_site_fract_x
_atom_site_fract_y
_atom_site_fract_z
Si Si1 0.082425 0.520002 0.401811
Si Si2 0.914538 0.540405 0.135560
Si Si3 0.385560 0.637985 0.446855
Si Si4 0.365503 0.136371 0.092858
Si Si5 0.761369 0.140209 0.837131
Si Si6 0.708633 0.359974 0.077148
Si Si7 0.716706 0.864060 0.666662
O O1 0.241263 0.584601 0.477926
O O2 0.128400 0.422270 0.343055
O O3 0.000000 0.500000 0.500000
O O4 0.956345 0.577406 0.279408
O O5 0.872121 0.426256 0.137685
O O6 0.081968 0.565612 0.107839
O O7 0.755501 0.591775 0.036815
O O8 0.366805 0.750000 0.469370
O O9 0.361812 0.612707 0.303130
O O10 0.563172 0.602767 0.542478
O O11 0.348250 0.250000 0.077456
O O12 0.554497 0.104981 0.114214
O O13 0.319820 0.101978 0.210629
O O14 0.830504 0.250000 0.839772
O O15 0.654193 0.132106 0.925618
O O16 0.760766 0.250000 0.122638
O O17 0.752273 0.750000 0.669417
#
# Coordination Sequence:
#
# PCOD8076997 Si02
#       7
#     4   4   4   4   4   4   4
#     4  11  26  41  61  95 126 161 209 257 307 370
#     4  11  23  39  60  88 127 163 197 252 316 361
#     4   9  20  41  65  87 120 166 207 250 304 362
#     4  10  23  41  63  92 122 159 207 253 305 369
#     4   9  19  36  61  90 119 156 202 250 305 362
#     4  10  22  38  59  91 123 159 205 250 300 367
#     4  10  23  43  66  90 123 165 205 252 308 368
#
# _framework density 22.000665999999999
#
# number of rings (size 3 to 8) (size 9 to 14) (size 15 to 20)
#    0.000    2.000    0.000    1.714    8.000    2.857 
#    0.000    1.429    0.000    0.000    0.000    0.000 
#    0.000    0.000    0.000    0.000    0.000    0.000 
#
# Total GULP energy -347087.250668 kJ/mol
# GULP energy per Si atom -12395.973238 kJ/mol
# Density = 2.195059 g / cm^3
# Si number density = 22.000666 Si / 1000 Ang^3
#
#
#
# Elastic Constant Matrix: (Units=GPa)
#
#
# Indices 1 2 3 4 5 6 
#
# 1 104.6766 50.2611 65.0071 0.0000 -20.1788 0.0000
# 2 50.2611 52.0472 44.2475 0.0000 0.6482 0.0000
# 3 65.0071 44.2475 102.3443 0.0000 -0.6414 0.0000
# 4 0.0000 0.0000 0.0000 30.8528 0.0000 0.6033
# 5 -20.1788 0.6482 -0.6414 0.0000 45.8772 0.0000
# 6 0.0000 0.0000 0.0000 0.6033 0.0000 33.6221
#
#
#
# Elastic Compliance Matrix: (Units=1/GPa)
#
#
# Indices 1 2 3 4 5 6 
#
# 1 0.025380 -0.017400 -0.008527 0.000000 0.011290 0.000000
# 2 -0.017400 0.042326 -0.007299 0.000000 -0.008354 0.000000
# 3 -0.008527 -0.007299 0.018322 0.000000 -0.003391 0.000000
# 4 0.000000 0.000000 0.000000 0.032423 0.000000 -0.000582
# 5 0.011290 -0.008354 -0.003391 0.000000 0.026834 0.000000
# 6 0.000000 0.000000 0.000000 -0.000582 0.000000 0.029753
#
#
# Mechanical properties :
#
#
# Convention : Reuss Voigt Hill
#
# Bulk Modulus (GPa) = 51.08780 64.23328 57.66054
# Shear Modulus (GPa) = 20.15993 28.70726 24.43359
#
# Velocity S-wave (km/s) = 3.03038 3.61617 3.33616
# Velocity P-wave (km/s) = 5.95951 6.83338 6.41135
#
# Compressibility (1/GPa) = 0.01957414
#
# Stress axis : x y z
#
# Youngs Moduli (GPa) = 39.40056 23.62616 54.57963
#
# Poissons Ratio (x) = 0.41111 0.46542
# Poissons Ratio (y) = 0.68559 0.39838
# Poissons Ratio (z) = 0.33599 0.17245
#
# Static dielectric constant tensor:
#      x y z
#    x 3.767130 0.000000 0.071560 
#    y 0.000000 4.159480 0.000000 
#    z 0.071560 0.000000 4.244220 
# 
# 
# High freq. dielectric constant tensor:
#      x y z
#    x 1.844820 0.000000 0.005820 
#    y 0.000000 1.877060 0.000000 
#    z 0.005820 0.000000 1.875190 
# 
# From -- ./inp_files/31719.got.cif
#   From: 2010.06.25/outbox.cif.g09.slc.cpg/sg11_16_cif.got.tgz:31719.got - 2010.06.27 23:14:04.
