data_PCOD8076593
_publ_section_title
;
Structure prediction by ZEFSAII (Michael W. Deem and Ramdas Pophale) SiO2 
 PCOD8076593
Probable space group: P 21/M
;
_chemical_formula_sum "Si O2"
_cell_formula_units_Z 32
_cell_length_a 30.553445
_cell_length_b 8.901256
_cell_length_c 11.092333
_cell_angle_alpha 90.000000
_cell_angle_beta 147.129727
_cell_angle_gamma 90.000000
_cell_volume 1637.288490
_symmetry_space_group_name_H-M "P 21/M"
_symmetry_group_IT_number 11
_symmetry_cell_setting 'monoclinic'
loop_
_space_group_symop_operation_xyz
x,y,z
-x,1/2+y,-z
-x,-y,-z
x,1/2-y,z
loop_
_atom_site_type_symbol
_atom_site_label
_atom_site_fract_x
_atom_site_fract_y
_atom_site_fract_z
Si Si1 0.362243 0.921342 0.439253
Si Si2 0.013842 0.076250 0.159120
Si Si3 0.506054 0.425441 0.643248
Si Si4 0.819057 0.922593 0.330757
Si Si5 0.189980 0.576477 0.938511
Si Si6 0.725361 0.424269 0.523483
Si Si7 0.124407 0.427646 0.020280
Si Si8 0.322542 0.575189 0.855746
O O1 0.392329 0.750000 0.501533
O O2 0.285745 0.945871 0.175303
O O3 0.339063 0.966221 0.522183
O O4 0.433273 0.028483 0.561350
O O5 0.989375 0.250000 0.094207
O O6 0.107092 0.055288 0.407705
O O7 0.000000 0.000000 0.000000
O O8 0.960490 0.996920 0.137258
O O9 0.500000 0.500000 0.500000
O O10 0.502442 0.250000 0.613578
O O11 0.588469 0.473289 0.898786
O O12 0.808211 0.750000 0.267255
O O13 0.738953 0.976612 0.211083
O O14 0.836289 0.020150 0.252569
O O15 0.166095 0.750000 0.899175
O O16 0.142047 0.481333 0.926233
O O17 0.749856 0.250000 0.593195
O O18 0.806369 0.520237 0.726682
O O19 0.685383 0.461979 0.303685
O O20 0.118296 0.250000 0.009726
O O21 0.305240 0.750000 0.841876
#
# Coordination Sequence:
#
# PCOD8076593 Si02
#       8
#     4   4   4   4   4   4   4   4
#     4   9  19  36  58  84 112 145 185 229 280 336
#     4  11  24  41  60  85 117 151 190 235 284 338
#     4  11  23  37  55  81 112 148 189 233 282 336
#     4  11  24  39  58  86 115 145 188 240 286 331
#     4  10  21  39  62  85 114 153 191 229 280 339
#     4   9  19  38  61  83 113 152 190 231 281 337
#     4  11  22  37  60  89 118 149 188 232 280 336
#     4  10  22  39  58  81 112 151 192 232 281 341
#
# _framework density 19.544508
#
# number of rings (size 3 to 8) (size 9 to 14) (size 15 to 20)
#    0.000    1.750    0.000    4.875    0.000   12.000 
#    0.000    0.000    0.000    0.000    0.000    0.000 
#    0.000    0.000    0.000    0.000    0.000    0.000 
#
# Total GULP energy -396986.219422 kJ/mol
# GULP energy per Si atom -12405.819357 kJ/mol
# Density = 1.950002 g / cm^3
# Si number density = 19.544508 Si / 1000 Ang^3
#
#
#
# Elastic Constant Matrix: (Units=GPa)
#
#
# Indices 1 2 3 4 5 6 
#
# 1 95.0884 43.5086 39.3586 0.0000 -1.2374 0.0000
# 2 43.5086 108.6176 46.2029 0.0000 3.0108 0.0000
# 3 39.3586 46.2029 69.3735 0.0000 -4.5719 0.0000
# 4 0.0000 0.0000 0.0000 31.9215 0.0000 2.6522
# 5 -1.2374 3.0108 -4.5719 0.0000 40.0989 0.0000
# 6 0.0000 0.0000 0.0000 2.6522 0.0000 39.5782
#
#
#
# Elastic Compliance Matrix: (Units=1/GPa)
#
#
# Indices 1 2 3 4 5 6 
#
# 1 0.014510 -0.003224 -0.006086 0.000000 -0.000004 0.000000
# 2 -0.003224 0.013716 -0.007436 0.000000 -0.001977 0.000000
# 3 -0.006086 -0.007436 0.023017 0.000000 0.002995 0.000000
# 4 0.000000 0.000000 0.000000 0.031502 0.000000 -0.002111
# 5 -0.000004 -0.001977 0.002995 0.000000 0.025428 0.000000
# 6 0.000000 0.000000 0.000000 -0.002111 0.000000 0.025408
#
#
# Mechanical properties :
#
#
# Convention : Reuss Voigt Hill
#
# Bulk Modulus (GPa) = 56.32999 59.02442 57.67721
# Shear Modulus (GPa) = 28.90333 31.92033 30.41183
#
# Velocity S-wave (km/s) = 3.84975 4.04569 3.94893
# Velocity P-wave (km/s) = 6.97458 7.21727 7.09696
#
# Compressibility (1/GPa) = 0.01775253
#
# Stress axis : x y z
#
# Youngs Moduli (GPa) = 68.91583 72.90854 43.44555
#
# Poissons Ratio (x) = 0.23503 0.26440
# Poissons Ratio (y) = 0.22216 0.32307
# Poissons Ratio (z) = 0.41941 0.54216
#
# Static dielectric constant tensor:
#      x y z
#    x 3.575600 0.000000 -0.109500 
#    y 0.000000 3.615960 0.000000 
#    z -0.109500 0.000000 3.519560 
# 
# 
# High freq. dielectric constant tensor:
#      x y z
#    x 1.773980 0.000000 -0.002400 
#    y 0.000000 1.767340 0.000000 
#    z -0.002400 0.000000 1.761440 
# 
# From -- ./inp_files/45316.got.cif
#   From: 2010.06.25/outbox.cif.g09.slc.cpg/sg11_23_cif.got.tgz:45316.got - 2010.06.27 23:14:04.
