data_PCOD8076565
_publ_section_title
;
Structure prediction by ZEFSAII (Michael W. Deem and Ramdas Pophale) SiO2 
 PCOD8076565
Probable space group: P 21/M
;
_chemical_formula_sum "Si O2"
_cell_formula_units_Z 32
_cell_length_a 25.957453
_cell_length_b 8.750426
_cell_length_c 15.373582
_cell_angle_alpha 90.000000
_cell_angle_beta 152.516853
_cell_angle_gamma 90.000000
_cell_volume 1611.485715
_symmetry_space_group_name_H-M "P 21/M"
_symmetry_group_IT_number 11
_symmetry_cell_setting 'monoclinic'
loop_
_space_group_symop_operation_xyz
x,y,z
-x,1/2+y,-z
-x,-y,-z
x,1/2-y,z
loop_
_atom_site_type_symbol
_atom_site_label
_atom_site_fract_x
_atom_site_fract_y
_atom_site_fract_z
Si Si1 0.492102 0.929819 0.325485
Si Si2 0.879115 0.930181 0.815578
Si Si3 0.731552 0.425782 0.249596
Si Si4 0.723986 0.570630 0.930406
Si Si5 0.262178 0.574210 0.543404
Si Si6 0.729354 0.571243 0.745247
Si Si7 0.878258 0.570312 0.320347
Si Si8 0.491214 0.429254 0.137226
O O1 0.493439 0.750000 0.306085
O O2 0.602875 0.985773 0.541412
O O3 0.387440 0.971451 0.228248
O O4 0.481049 0.026880 0.221989
O O5 0.889590 0.750000 0.838152
O O6 0.810616 0.001783 0.794549
O O7 0.818667 0.971585 0.635357
O O8 0.000000 0.000000 0.000000
O O9 0.734453 0.250000 0.224897
O O10 0.776064 0.446584 0.414270
O O11 0.810795 0.518944 0.304031
O O12 0.604544 0.483358 0.058824
O O13 0.695249 0.750000 0.896037
O O14 0.771827 0.531554 0.906043
O O15 0.813667 0.518547 0.136429
O O16 0.251292 0.750000 0.497612
O O17 0.389561 0.518653 0.721860
O O18 0.730873 0.750000 0.731753
O O19 0.891113 0.750000 0.342750
O O20 0.000000 0.500000 0.500000
O O21 0.471240 0.250000 0.096210
#
# Coordination Sequence:
#
# PCOD8076565 Si02
#       8
#     4   4   4   4   4   4   4   4
#     4  11  20  34  59  90 121 155 193 238 296 359
#     4  11  23  41  63  88 120 160 203 252 301 357
#     4  11  23  40  63  90 123 159 199 250 304 360
#     4  10  21  39  61  86 118 156 195 242 297 354
#     4  10  23  41  62  90 122 160 202 248 303 359
#     4   9  20  38  60  87 119 155 195 239 297 356
#     4  11  24  41  62  87 118 159 205 251 300 354
#     4  11  21  36  60  90 124 159 197 243 299 365
#
# _framework density 19.857451999999999
#
# number of rings (size 3 to 8) (size 9 to 14) (size 15 to 20)
#    0.000    1.500    2.500    2.625    0.000    3.000 
#    0.000    4.375    0.000    0.000    0.000    0.000 
#    0.000    0.000    0.000    0.000    0.000    0.000 
#
# Total GULP energy -396888.414235 kJ/mol
# GULP energy per Si atom -12402.762945 kJ/mol
# Density = 1.981226 g / cm^3
# Si number density = 19.857452 Si / 1000 Ang^3
#
#
#
# Elastic Constant Matrix: (Units=GPa)
#
#
# Indices 1 2 3 4 5 6 
#
# 1 111.9695 32.6178 81.2421 0.0000 -9.4575 0.0000
# 2 32.6178 50.8883 43.4815 0.0000 3.0793 0.0000
# 3 81.2421 43.4815 141.0009 0.0000 16.0694 0.0000
# 4 0.0000 0.0000 0.0000 33.7760 0.0000 2.0620
# 5 -9.4575 3.0793 16.0694 0.0000 30.6025 0.0000
# 6 0.0000 0.0000 0.0000 2.0620 0.0000 30.0943
#
#
#
# Elastic Compliance Matrix: (Units=1/GPa)
#
#
# Indices 1 2 3 4 5 6 
#
# 1 0.019265 -0.003272 -0.011495 0.000000 0.012319 0.000000
# 2 -0.003272 0.027324 -0.006502 0.000000 -0.000347 0.000000
# 3 -0.011495 -0.006502 0.017073 0.000000 -0.011863 0.000000
# 4 0.000000 0.000000 0.000000 0.029731 0.000000 -0.002037
# 5 0.012319 -0.000347 -0.011863 0.000000 0.042749 0.000000
# 6 0.000000 0.000000 0.000000 -0.002037 0.000000 0.033368
#
#
# Mechanical properties :
#
#
# Convention : Reuss Voigt Hill
#
# Bulk Modulus (GPa) = 47.33796 68.72683 58.03240
# Shear Modulus (GPa) = 22.82173 28.66238 25.74205
#
# Velocity S-wave (km/s) = 3.39378 3.80334 3.60438
# Velocity P-wave (km/s) = 6.26479 7.34659 6.82715
#
# Compressibility (1/GPa) = 0.02112470
#
# Stress axis : x y z
#
# Youngs Moduli (GPa) = 51.90640 36.59766 58.57353
#
# Poissons Ratio (x) = 0.11974 0.67333
# Poissons Ratio (y) = 0.16982 0.38082
# Poissons Ratio (z) = 0.59669 0.23794
#
# Static dielectric constant tensor:
#      x y z
#    x 3.834220 0.000000 0.074470 
#    y 0.000000 3.514260 0.000000 
#    z 0.074470 0.000000 3.618100 
# 
# 
# High freq. dielectric constant tensor:
#      x y z
#    x 1.785450 0.000000 -0.005250 
#    y 0.000000 1.767280 0.000000 
#    z -0.005250 0.000000 1.776210 
# 
# From -- ./inp_files/55733.got.cif
#   From: 2010.06.25/outbox.cif.g09.slc.cpg/sg11_28_cif.got.tgz:55733.got - 2010.06.27 23:14:04.
