data_PCOD8076874
_publ_section_title
;
Structure prediction by ZEFSAII (Michael W. Deem and Ramdas Pophale) SiO2 
 PCOD8076874
Probable space group: P 21/M
;
_chemical_formula_sum "Si O2"
_cell_formula_units_Z 28
_cell_length_a 5.204580
_cell_length_b 30.370993
_cell_length_c 9.195732
_cell_angle_alpha 90.000000
_cell_angle_beta 57.229226
_cell_angle_gamma 90.000000
_cell_volume 1222.209916
_symmetry_space_group_name_H-M "P 21/M"
_symmetry_group_IT_number 11
_symmetry_cell_setting 'monoclinic'
loop_
_space_group_symop_operation_xyz
x,y,z
-x,1/2+y,-z
-x,-y,-z
x,1/2-y,z
loop_
_atom_site_type_symbol
_atom_site_label
_atom_site_fract_x
_atom_site_fract_y
_atom_site_fract_z
Si Si1 0.090603 0.201723 0.785349
Si Si2 0.692354 0.368555 0.357889
Si Si3 0.588679 0.198462 0.160455
Si Si4 0.592892 0.464271 0.356357
Si Si5 0.680067 0.627141 0.959519
Si Si6 0.311462 0.034703 0.146379
Si Si7 0.319238 0.658647 0.323439
O O1 0.009491 0.250000 0.753542
O O2 0.960753 0.170106 0.697692
O O3 0.454614 0.197781 0.693898
O O4 0.935824 0.194256 0.991857
O O5 0.530578 0.325353 0.335302
O O6 0.498169 0.413733 0.428072
O O7 0.814930 0.360728 0.485181
O O8 0.956696 0.378059 0.159447
O O9 0.488920 0.250000 0.204649
O O10 0.390178 0.173348 0.099863
O O11 0.500000 0.500000 0.500000
O O12 0.374930 0.477630 0.291911
O O13 0.954557 0.468204 0.215107
O O14 0.546174 0.583583 0.923157
O O15 0.550353 0.626414 0.164302
O O16 0.500000 0.000000 0.000000
#
# Coordination Sequence:
#
# PCOD8076874 Si02
#       7
#     4   4   4   4   4   4   4
#     4  10  22  42  63  92 131 171 223 283 330 389
#     4  11  24  43  67  99 135 177 228 279 339 402
#     4  10  21  41  67  92 133 183 224 275 339 395
#     4  11  25  46  69 103 144 174 223 288 348 411
#     4  10  23  45  64  98 141 173 227 283 336 400
#     4  11  24  44  73 102 137 180 228 279 345 419
#     4  11  24  39  67  94 128 177 221 271 341 394
#
# _framework density 22.909320999999998
#
# number of rings (size 3 to 8) (size 9 to 14) (size 15 to 20)
#    0.000    1.429    2.857    1.286    4.000    2.286 
#    5.143    0.000    0.000    0.000    0.000    0.000 
#    0.000    0.000    0.000    0.000    0.000    0.000 
#
# Total GULP energy -346869.294194 kJ/mol
# GULP energy per Si atom -12388.189078 kJ/mol
# Density = 2.285718 g / cm^3
# Si number density = 22.909321 Si / 1000 Ang^3
#
#
#
# Elastic Constant Matrix: (Units=GPa)
#
#
# Indices 1 2 3 4 5 6 
#
# 1 62.3597 10.8564 5.1461 0.0000 10.3369 0.0000
# 2 10.8564 156.8359 37.2398 0.0000 10.1877 0.0000
# 3 5.1461 37.2398 87.3240 0.0000 23.2100 0.0000
# 4 0.0000 0.0000 0.0000 29.8361 0.0000 4.8758
# 5 10.3369 10.1877 23.2100 0.0000 41.2726 0.0000
# 6 0.0000 0.0000 0.0000 4.8758 0.0000 28.2508
#
#
#
# Elastic Compliance Matrix: (Units=1/GPa)
#
#
# Indices 1 2 3 4 5 6 
#
# 1 0.016880 -0.001028 0.000588 0.000000 -0.004304 0.000000
# 2 -0.001028 0.007157 -0.003046 0.000000 0.000204 0.000000
# 3 0.000588 -0.003046 0.014762 0.000000 -0.007697 0.000000
# 4 0.000000 0.000000 0.000000 0.034489 0.000000 -0.005952
# 5 -0.004304 0.000204 -0.007697 0.000000 0.029585 0.000000
# 6 0.000000 0.000000 0.000000 -0.005952 0.000000 0.036425
#
#
# Mechanical properties :
#
#
# Convention : Reuss Voigt Hill
#
# Bulk Modulus (GPa) = 31.42060 45.88934 38.65497
# Shear Modulus (GPa) = 31.87163 36.75705 34.31434
#
# Velocity S-wave (km/s) = 3.73394 4.00991 3.87438
# Velocity P-wave (km/s) = 5.68636 6.44310 6.07652
#
# Compressibility (1/GPa) = 0.03182625
#
# Stress axis : x y z
#
# Youngs Moduli (GPa) = 59.24150 139.71846 67.74345
#
# Poissons Ratio (x) = 0.14369 -0.03983
# Poissons Ratio (y) = 0.06093 0.20633
# Poissons Ratio (z) = -0.03483 0.42555
#
# Static dielectric constant tensor:
#      x y z
#    x 3.896320 0.000000 -0.065220 
#    y 0.000000 4.412730 0.000000 
#    z -0.065220 0.000000 4.091210 
# 
# 
# High freq. dielectric constant tensor:
#      x y z
#    x 1.894390 0.000000 0.009240 
#    y 0.000000 1.906060 0.000000 
#    z 0.009240 0.000000 1.903410 
# 
# From -- ./inp_files/10789.got.cif
#   From: 2010.06.25/outbox.cif.g09.slc.cpg/sg11_6_cif.got.tgz:10789.got - 2010.06.27 23:14:04.
