data_PCOD8076723
_publ_section_title
;
Structure prediction by ZEFSAII (Michael W. Deem and Ramdas Pophale) SiO2 
 PCOD8076723
Probable space group: P 21/M
;
_chemical_formula_sum "Si O2"
_cell_formula_units_Z 20
_cell_length_a 15.205898
_cell_length_b 11.805167
_cell_length_c 12.232305
_cell_angle_alpha 90.000000
_cell_angle_beta 154.192913
_cell_angle_gamma 90.000000
_cell_volume 955.924371
_symmetry_space_group_name_H-M "P 21/M"
_symmetry_group_IT_number 11
_symmetry_cell_setting 'monoclinic'
loop_
_space_group_symop_operation_xyz
x,y,z
-x,1/2+y,-z
-x,-y,-z
x,1/2-y,z
loop_
_atom_site_type_symbol
_atom_site_label
_atom_site_fract_x
_atom_site_fract_y
_atom_site_fract_z
Si Si1 0.392684 0.880602 0.917864
Si Si2 0.893155 0.125546 0.986224
Si Si3 0.003836 0.627001 0.348489
Si Si4 0.785325 0.060665 0.631332
Si Si5 0.642934 0.469576 0.898274
O O1 0.466864 0.750000 0.963298
O O2 0.164556 0.898761 0.622836
O O3 0.500000 0.000000 0.000000
O O4 0.407198 0.875635 0.066115
O O5 0.951589 0.250000 0.090364
O O6 0.806640 0.129732 0.767003
O O7 0.715293 0.080902 0.864765
O O8 0.102719 0.059036 0.228902
O O9 0.908156 0.750000 0.259290
O O10 0.112651 0.627877 0.352691
O O11 0.819939 0.541875 0.151424
O O12 0.550579 0.046086 0.342684
#
# Coordination Sequence:
#
# PCOD8076723 Si02
#       5
#     4   4   4   4   4
#     4  11  23  42  65  93 128 168 211 262 317 378
#     4  10  22  38  59  88 121 161 204 256 311 375
#     4  10  22  39  62  92 125 163 210 258 313 374
#     4  10  21  40  61  86 125 158 206 255 312 371
#     4  11  22  40  62  91 123 162 209 260 314 373
#
# _framework density 20.922158
#
# number of rings (size 3 to 8) (size 9 to 14) (size 15 to 20)
#    0.000    1.600    2.000    2.400    0.000    4.000 
#    0.000    1.000    0.000    0.000    0.000    0.000 
#    0.000    0.000    0.000    0.000    0.000    0.000 
#
# Total GULP energy -247795.196312 kJ/mol
# GULP energy per Si atom -12389.759816 kJ/mol
# Density = 2.087454 g / cm^3
# Si number density = 20.922158 Si / 1000 Ang^3
#
#
#
# Elastic Constant Matrix: (Units=GPa)
#
#
# Indices 1 2 3 4 5 6 
#
# 1 73.8268 2.3432 11.8349 0.0000 -2.6487 0.0000
# 2 2.3432 120.6916 21.2445 0.0000 17.6275 0.0000
# 3 11.8349 21.2445 85.6210 0.0000 4.1947 0.0000
# 4 0.0000 0.0000 0.0000 6.7784 0.0000 -11.2996
# 5 -2.6487 17.6275 4.1947 0.0000 30.4945 0.0000
# 6 0.0000 0.0000 0.0000 -11.2996 0.0000 7.9752
#
#
#
# Elastic Compliance Matrix: (Units=1/GPa)
#
#
# Indices 1 2 3 4 5 6 
#
# 1 0.013921 -0.000154 -0.001963 0.000000 0.001568 0.000000
# 2 -0.000154 0.009406 -0.002059 0.000000 -0.005167 0.000000
# 3 -0.001963 -0.002059 0.012496 0.000000 -0.000699 0.000000
# 4 0.000000 0.000000 0.000000 -0.108328 0.000000 -0.153483
# 5 0.001568 -0.005167 -0.000699 0.000000 0.036012 0.000000
# 6 0.000000 0.000000 0.000000 -0.153483 0.000000 -0.092072
#
#
# Mechanical properties :
#
#
# Convention : Reuss Voigt Hill
#
# Bulk Modulus (GPa) = 36.40258 38.99828 37.70043
# Shear Modulus (GPa) = -45.02194 25.36409 -9.82893
#
# Velocity S-wave (km/s) = -4.64387 3.48560 -2.16980
# Velocity P-wave (km/s) = 3.36410 5.90588 3.43236
#
# Compressibility (1/GPa) = 0.02747058
#
# Stress axis : x y z
#
# Youngs Moduli (GPa) = 71.83386 106.31809 80.02617
#
# Poissons Ratio (x) = 0.01635 0.15708
# Poissons Ratio (y) = 0.01105 0.16480
# Poissons Ratio (z) = 0.14100 0.21895
#
# Static dielectric constant tensor:
#      x y z
#    x 3.929320 0.000000 -0.151460 
#    y 0.000000 3.911630 0.000000 
#    z -0.151460 0.000000 3.724890 
# 
# 
# High freq. dielectric constant tensor:
#      x y z
#    x 1.822010 0.000000 -0.015480 
#    y 0.000000 1.823650 0.000000 
#    z -0.015480 0.000000 1.820600 
# 
# From -- ./inp_files/38776.got.cif
#   From: 2010.06.25/outbox.cif.g09.slc.cpg/sg11_20_cif.got.tgz:38776.got - 2010.06.27 23:14:04.
