data_PCOD8076539
_publ_section_title
;
Structure prediction by ZEFSAII (Michael W. Deem and Ramdas Pophale) SiO2 
 PCOD8076539
Probable space group: P 21/M
;
_chemical_formula_sum "Si O2"
_cell_formula_units_Z 32
_cell_length_a 26.134652
_cell_length_b 8.672683
_cell_length_c 20.780010
_cell_angle_alpha 90.000000
_cell_angle_beta 20.829584
_cell_angle_gamma 90.000000
_cell_volume 1674.807891
_symmetry_space_group_name_H-M "P 21/M"
_symmetry_group_IT_number 11
_symmetry_cell_setting 'monoclinic'
loop_
_space_group_symop_operation_xyz
x,y,z
-x,1/2+y,-z
-x,-y,-z
x,1/2-y,z
loop_
_atom_site_type_symbol
_atom_site_label
_atom_site_fract_x
_atom_site_fract_y
_atom_site_fract_z
Si Si1 0.725057 0.567268 0.982209
Si Si2 0.139339 0.569560 0.303403
Si Si3 0.146886 0.931043 0.804869
Si Si4 0.563897 0.427182 0.987696
Si Si5 0.343361 0.932052 0.686871
Si Si6 0.848984 0.432754 0.966643
Si Si7 0.850707 0.432103 0.343575
Si Si8 0.558803 0.566353 0.734220
O O1 0.709277 0.750000 0.997723
O O2 0.825862 0.511253 0.805191
O O3 0.799666 0.518607 0.960565
O O4 0.566032 0.491578 0.167367
O O5 0.119041 0.750000 0.313148
O O6 0.266464 0.539928 0.205223
O O7 0.000000 0.500000 0.500000
O O8 0.134502 0.750000 0.825340
O O9 0.269498 0.993549 0.708410
O O10 0.179048 0.983086 0.694702
O O11 0.000000 0.000000 0.000000
O O12 0.529781 0.250000 0.022434
O O13 0.500000 0.500000 0.000000
O O14 0.485258 0.491166 0.143223
O O15 0.353343 0.750000 0.676386
O O16 0.500000 0.000000 0.500000
O O17 0.253280 0.989185 0.854731
O O18 0.840376 0.250000 0.966690
O O19 0.012349 0.479058 0.789685
O O20 0.875900 0.250000 0.321054
O O21 0.709820 0.484101 0.546639
O O22 0.572038 0.750000 0.711912
#
# Coordination Sequence:
#
# PCOD8076539 Si02
#       8
#     4   4   4   4   4   4   4   4
#     4  11  23  40  62  88 119 156 199 251 301 351
#     4  10  21  39  61  89 122 158 200 242 292 354
#     4  10  21  39  60  85 116 151 193 242 295 350
#     4   9  20  37  59  86 117 151 190 236 283 338
#     4  10  23  40  59  86 117 152 195 242 295 355
#     4  11  23  41  61  85 118 158 199 244 299 360
#     4  11  23  38  60  90 119 154 198 247 297 351
#     4  10  22  41  61  86 120 158 198 240 294 358
#
# _framework density 19.106669
#
# number of rings (size 3 to 8) (size 9 to 14) (size 15 to 20)
#    0.000    1.750    1.250    3.375    1.750    6.000 
#    0.000    2.500    0.000    0.000    0.000    0.000 
#    0.000    0.000    0.000    0.000    0.000    0.000 
#
# Total GULP energy -396829.192026 kJ/mol
# GULP energy per Si atom -12400.912251 kJ/mol
# Density = 1.906318 g / cm^3
# Si number density = 19.106669 Si / 1000 Ang^3
#
#
#
# Elastic Constant Matrix: (Units=GPa)
#
#
# Indices 1 2 3 4 5 6 
#
# 1 133.9355 30.7613 44.7414 0.0000 -11.6843 0.0000
# 2 30.7613 47.2808 23.5886 0.0000 3.1997 0.0000
# 3 44.7414 23.5886 138.8967 0.0000 -11.0554 0.0000
# 4 0.0000 0.0000 0.0000 37.1111 0.0000 -4.4900
# 5 -11.6843 3.1997 -11.0554 0.0000 24.7013 0.0000
# 6 0.0000 0.0000 0.0000 -4.4900 0.0000 32.2261
#
#
#
# Elastic Compliance Matrix: (Units=1/GPa)
#
#
# Indices 1 2 3 4 5 6 
#
# 1 0.009798 -0.005781 -0.001810 0.000000 0.004573 0.000000
# 2 -0.005781 0.027112 -0.003359 0.000000 -0.007750 0.000000
# 3 -0.001810 -0.003359 0.008627 0.000000 0.003440 0.000000
# 4 0.000000 0.000000 0.000000 0.027408 0.000000 0.003819
# 5 0.004573 -0.007750 0.003440 0.000000 0.045190 0.000000
# 6 0.000000 0.000000 0.000000 0.003819 0.000000 0.031563
#
#
# Mechanical properties :
#
#
# Convention : Reuss Voigt Hill
#
# Bulk Modulus (GPa) = 42.30833 57.58838 49.94836
# Shear Modulus (GPa) = 27.85885 33.54249 30.70067
#
# Velocity S-wave (km/s) = 3.82261 4.19446 4.01284
# Velocity P-wave (km/s) = 6.45557 7.32556 6.90429
#
# Compressibility (1/GPa) = 0.02363601
#
# Stress axis : x y z
#
# Youngs Moduli (GPa) = 102.06548 36.88466 115.91536
#
# Poissons Ratio (x) = 0.21322 0.20984
# Poissons Ratio (y) = 0.59001 0.38937
# Poissons Ratio (z) = 0.18477 0.12390
#
# Static dielectric constant tensor:
#      x y z
#    x 3.620100 0.000000 -0.014270 
#    y 0.000000 4.096860 0.000000 
#    z -0.014270 0.000000 3.599480 
# 
# 
# High freq. dielectric constant tensor:
#      x y z
#    x 1.754230 0.000000 -0.002370 
#    y 0.000000 1.748820 0.000000 
#    z -0.002370 0.000000 1.751540 
# 
# From -- ./inp_files/66949.got.cif
#   From: 2010.06.25/outbox.cif.g09.slc.cpg/sg11_34_cif.got.tgz:66949.got - 2010.06.27 23:14:04.
