data_PCOD8076563
_publ_section_title
;
Structure prediction by ZEFSAII (Michael W. Deem and Ramdas Pophale) SiO2 
 PCOD8076563
Probable space group: P 21/M
;
_chemical_formula_sum "Si O2"
_cell_formula_units_Z 24
_cell_length_a 23.053881
_cell_length_b 8.684239
_cell_length_c 16.446195
_cell_angle_alpha 90.000000
_cell_angle_beta 23.042399
_cell_angle_gamma 90.000000
_cell_volume 1288.770553
_symmetry_space_group_name_H-M "P 21/M"
_symmetry_group_IT_number 11
_symmetry_cell_setting 'monoclinic'
loop_
_space_group_symop_operation_xyz
x,y,z
-x,1/2+y,-z
-x,-y,-z
x,1/2-y,z
loop_
_atom_site_type_symbol
_atom_site_label
_atom_site_fract_x
_atom_site_fract_y
_atom_site_fract_z
Si Si1 0.544454 0.932441 0.528609
Si Si2 0.339024 0.071778 0.204750
Si Si3 0.155594 0.428878 0.777524
Si Si4 0.837906 0.431818 0.711696
Si Si5 0.671877 0.574071 0.599382
Si Si6 0.600239 0.569196 0.130125
O O1 0.535384 0.750000 0.537463
O O2 0.710833 0.988859 0.337022
O O3 0.500000 0.000000 0.500000
O O4 0.430246 0.991855 0.743686
O O5 0.345068 0.250000 0.169035
O O6 0.269132 0.055881 0.385142
O O7 0.239998 0.973624 0.272227
O O8 0.500000 0.000000 0.000000
O O9 0.136897 0.250000 0.814190
O O10 0.195453 0.471539 0.632802
O O11 0.000000 0.500000 0.000000
O O12 0.843415 0.250000 0.715196
O O13 0.000000 0.500000 0.500000
O O14 0.753648 0.504210 0.897335
O O15 0.621023 0.750000 0.647351
O O16 0.528949 0.467888 0.768236
O O17 0.613749 0.750000 0.125035
#
# Coordination Sequence:
#
# PCOD8076563 Si02
#       6
#     4   4   4   4   4   4
#     4  10  21  39  61  86 116 152 195 242 289 348
#     4  11  21  36  61  89 117 152 195 241 288 345
#     4   9  19  36  57  83 115 150 186 232 286 338
#     4  12  25  42  60  84 120 158 196 243 298 352
#     4   9  19  36  58  84 116 152 193 236 285 345
#     4  11  21  36  61  88 115 151 196 241 293 353
#
# _framework density 18.622399999999999
#
# number of rings (size 3 to 8) (size 9 to 14) (size 15 to 20)
#    0.000    1.667    1.667    5.000    0.000    4.000 
#    3.000    0.000    0.000    0.000    0.000    0.000 
#    0.000    0.000    0.000    0.000    0.000    0.000 
#
# Total GULP energy -297630.417052 kJ/mol
# GULP energy per Si atom -12401.267377 kJ/mol
# Density = 1.858001 g / cm^3
# Si number density = 18.622400 Si / 1000 Ang^3
#
#
#
# Elastic Constant Matrix: (Units=GPa)
#
#
# Indices 1 2 3 4 5 6 
#
# 1 126.5403 40.9467 68.1597 0.0000 8.7897 0.0000
# 2 40.9467 102.9917 50.1578 0.0000 4.1695 0.0000
# 3 68.1597 50.1578 161.4514 0.0000 6.8670 0.0000
# 4 0.0000 0.0000 0.0000 35.6942 0.0000 0.6528
# 5 8.7897 4.1695 6.8670 0.0000 25.2502 0.0000
# 6 0.0000 0.0000 0.0000 0.6528 0.0000 33.9058
#
#
#
# Elastic Compliance Matrix: (Units=1/GPa)
#
#
# Indices 1 2 3 4 5 6 
#
# 1 0.010857 -0.002401 -0.003737 0.000000 -0.002367 0.000000
# 2 -0.002401 0.011993 -0.002695 0.000000 -0.000412 0.000000
# 3 -0.003737 -0.002695 0.008634 0.000000 -0.000602 0.000000
# 4 0.000000 0.000000 0.000000 0.028026 0.000000 -0.000540
# 5 -0.002367 -0.000412 -0.000602 0.000000 0.040659 0.000000
# 6 0.000000 0.000000 0.000000 -0.000540 0.000000 0.029504
#
#
# Mechanical properties :
#
#
# Convention : Reuss Voigt Hill
#
# Bulk Modulus (GPa) = 72.36321 78.83466 75.59893
# Shear Modulus (GPa) = 32.90692 34.41800 33.66246
#
# Velocity S-wave (km/s) = 4.20820 4.30374 4.25624
# Velocity P-wave (km/s) = 7.90914 8.19276 8.05220
#
# Compressibility (1/GPa) = 0.01381918
#
# Stress axis : x y z
#
# Youngs Moduli (GPa) = 92.10950 83.38173 115.81785
#
# Poissons Ratio (x) = 0.20017 0.43280
# Poissons Ratio (y) = 0.22112 0.31212
# Poissons Ratio (z) = 0.34420 0.22470
#
# Static dielectric constant tensor:
#      x y z
#    x 3.709090 0.000000 0.268880 
#    y 0.000000 3.518790 0.000000 
#    z 0.268880 0.000000 3.639950 
# 
# 
# High freq. dielectric constant tensor:
#      x y z
#    x 1.724260 0.000000 0.017170 
#    y 0.000000 1.733570 0.000000 
#    z 0.017170 0.000000 1.718810 
# 
# From -- ./inp_files/53341.got.cif
#   From: 2010.06.25/outbox.cif.g09.slc.cpg/sg11_27_cif.got.tgz:53341.got - 2010.06.27 23:14:04.
