data_PCOD8076022
_publ_section_title
;
Structure prediction by ZEFSAII (Michael W. Deem and Ramdas Pophale) SiO2 
 PCOD8076022
Probable space group: P 21/M
;
_chemical_formula_sum "Si O2"
_cell_formula_units_Z 28
_cell_length_a 15.282678
_cell_length_b 9.043101
_cell_length_c 20.235269
_cell_angle_alpha 90.000000
_cell_angle_beta 150.212477
_cell_angle_gamma 90.000000
_cell_volume 1389.294395
_symmetry_space_group_name_H-M "P 21/M"
_symmetry_group_IT_number 11
_symmetry_cell_setting 'monoclinic'
loop_
_space_group_symop_operation_xyz
x,y,z
-x,1/2+y,-z
-x,-y,-z
x,1/2-y,z
loop_
_atom_site_type_symbol
_atom_site_label
_atom_site_fract_x
_atom_site_fract_y
_atom_site_fract_z
Si Si1 0.342233 0.079945 0.564359
Si Si2 0.822321 0.579266 0.405020
Si Si3 0.093432 0.924477 0.309173
Si Si4 0.436953 0.579800 0.858442
Si Si5 0.982098 0.077309 0.888931
Si Si6 0.264146 0.923506 0.153012
Si Si7 0.248971 0.579726 0.873701
O O1 0.355170 0.250000 0.549671
O O2 0.205165 0.063366 0.534733
O O3 0.534678 0.021549 0.711853
O O4 0.276904 0.981748 0.459959
O O5 0.833950 0.750000 0.391313
O O6 0.654971 0.505125 0.261214
O O7 0.000000 0.500000 0.500000
O O8 0.076805 0.750000 0.308015
O O9 0.084186 0.971368 0.226590
O O10 0.940813 0.005566 0.249662
O O11 0.465059 0.750000 0.857481
O O12 0.317191 0.563146 0.844323
O O13 0.626451 0.506375 0.993603
O O14 0.018696 0.250000 0.915977
O O15 0.831485 0.028857 0.841742
O O16 0.166880 0.998880 0.027191
O O17 0.254797 0.750000 0.134926
O O18 0.238307 0.750000 0.888403
#
# Coordination Sequence:
#
# PCOD8076022 Si02
#       7
#     4   4   4   4   4   4   4
#     4  10  23  40  58  84 116 153 198 242 285 347
#     4  11  23  38  56  81 114 153 197 242 290 344
#     4  11  23  37  56  86 119 153 190 239 293 343
#     4  10  21  37  57  82 110 147 192 242 294 343
#     4   9  20  38  60  88 119 149 187 239 292 347
#     4   9  19  39  63  86 115 151 192 237 289 349
#     4  10  21  37  57  81 113 150 192 237 284 346
#
# _framework density 20.154115000000001
#
# number of rings (size 3 to 8) (size 9 to 14) (size 15 to 20)
#    0.000    2.000    0.000    2.571    2.000    8.571 
#    0.000    0.000    0.000    0.000    0.000    0.000 
#    0.000    0.000    0.000    0.000    0.000    0.000 
#
# Total GULP energy -347338.965788 kJ/mol
# GULP energy per Si atom -12404.963064 kJ/mol
# Density = 2.010824 g / cm^3
# Si number density = 20.154115 Si / 1000 Ang^3
#
#
#
# Elastic Constant Matrix: (Units=GPa)
#
#
# Indices 1 2 3 4 5 6 
#
# 1 58.3560 37.7832 45.7884 0.0000 -4.2779 0.0000
# 2 37.7832 106.1915 58.0198 0.0000 -11.4947 0.0000
# 3 45.7884 58.0198 134.6263 0.0000 -8.8644 0.0000
# 4 0.0000 0.0000 0.0000 43.8516 0.0000 -2.8709
# 5 -4.2779 -11.4947 -8.8644 0.0000 35.3923 0.0000
# 6 0.0000 0.0000 0.0000 -2.8709 0.0000 25.2006
#
#
#
# Elastic Compliance Matrix: (Units=1/GPa)
#
#
# Indices 1 2 3 4 5 6 
#
# 1 0.025797 -0.005767 -0.006311 0.000000 -0.000335 0.000000
# 2 -0.005767 0.013869 -0.003828 0.000000 0.002848 0.000000
# 3 -0.006311 -0.003828 0.011278 0.000000 0.000819 0.000000
# 4 0.000000 0.000000 0.000000 0.022976 0.000000 0.002617
# 5 -0.000335 0.002848 0.000819 0.000000 0.029344 0.000000
# 6 0.000000 0.000000 0.000000 0.002617 0.000000 0.039980
#
#
# Mechanical properties :
#
#
# Convention : Reuss Voigt Hill
#
# Bulk Modulus (GPa) = 52.26726 64.70630 58.48678
# Shear Modulus (GPa) = 27.55849 31.39439 29.47644
#
# Velocity S-wave (km/s) = 3.70183 3.95107 3.82848
# Velocity P-wave (km/s) = 6.65293 7.27943 6.97322
#
# Compressibility (1/GPa) = 0.01913244
#
# Stress axis : x y z
#
# Youngs Moduli (GPa) = 38.76402 72.10481 88.66849
#
# Poissons Ratio (x) = 0.41583 0.55956
# Poissons Ratio (y) = 0.22355 0.33942
# Poissons Ratio (z) = 0.24463 0.27602
#
# Static dielectric constant tensor:
#      x y z
#    x 3.634640 0.000000 -0.138870 
#    y 0.000000 2.884450 0.000000 
#    z -0.138870 0.000000 4.175440 
# 
# 
# High freq. dielectric constant tensor:
#      x y z
#    x 1.780420 0.000000 -0.002440 
#    y 0.000000 1.788930 0.000000 
#    z -0.002440 0.000000 1.797300 
# 
# From -- ./inp_files/65439.got.cif
#   From: 2010.06.25/outbox.cif.g09.slc.cpg/sg11_33_cif.got.tgz:65439.got - 2010.06.27 23:14:04.
