data_PCOD8076811
_publ_section_title
;
Structure prediction by ZEFSAII (Michael W. Deem and Ramdas Pophale) SiO2 
 PCOD8076811
Probable space group: P 21/M
;
_chemical_formula_sum "Si O2"
_cell_formula_units_Z 32
_cell_length_a 14.832876
_cell_length_b 8.606885
_cell_length_c 11.975052
_cell_angle_alpha 90.000000
_cell_angle_beta 85.922298
_cell_angle_gamma 90.000000
_cell_volume 1524.923222
_symmetry_space_group_name_H-M "P 21/M"
_symmetry_group_IT_number 11
_symmetry_cell_setting 'monoclinic'
loop_
_space_group_symop_operation_xyz
x,y,z
-x,1/2+y,-z
-x,-y,-z
x,1/2-y,z
loop_
_atom_site_type_symbol
_atom_site_label
_atom_site_fract_x
_atom_site_fract_y
_atom_site_fract_z
Si Si1 0.175096 0.567225 0.725728
Si Si2 0.001292 0.931613 0.876443
Si Si3 0.579450 0.068683 0.566092
Si Si4 0.523072 0.568568 0.799249
Si Si5 0.842192 0.071640 0.752044
Si Si6 0.329311 0.431760 0.852571
Si Si7 0.220643 0.932281 0.477222
Si Si8 0.673663 0.429055 0.921352
O O1 0.191812 0.750000 0.743646
O O2 0.086744 0.506032 0.798139
O O3 0.260679 0.470734 0.759821
O O4 0.164688 0.530140 0.594496
O O5 0.009450 0.750000 0.890118
O O6 0.911856 0.970473 0.815921
O O7 0.000000 0.000000 0.000000
O O8 0.578691 0.250000 0.544310
O O9 0.677532 0.998198 0.523096
O O10 0.500000 0.000000 0.500000
O O11 0.562003 0.033545 0.695956
O O12 0.534367 0.750000 0.772482
O O13 0.419143 0.530996 0.827608
O O14 0.580952 0.519033 0.901940
O O15 0.875170 0.250000 0.751779
O O16 0.833934 0.003939 0.626288
O O17 0.743824 0.054577 0.814753
O O18 0.351258 0.250000 0.850976
O O19 0.284617 0.488113 0.972815
O O20 0.231308 0.750000 0.455439
O O21 0.651898 0.250000 0.949743
#
# Coordination Sequence:
#
# PCOD8076811 Si02
#       8
#     4   4   4   4   4   4   4   4
#     4  10  22  42  65  90 123 162 207 255 310 372
#     4  11  24  41  64  95 127 163 205 256 310 374
#     4  11  21  37  60  89 123 166 216 263 314 373
#     4  12  24  39  59  87 123 165 208 256 314 374
#     4  10  21  40  66  92 122 164 204 253 316 378
#     4  12  25  40  60  89 124 162 208 261 315 373
#     4   9  19  39  64  88 120 162 206 253 310 370
#     4  11  22  40  63  89 122 161 208 258 314 377
#
# _framework density 20.984663000000001
#
# number of rings (size 3 to 8) (size 9 to 14) (size 15 to 20)
#    0.000    1.250    1.250    5.250    0.000    6.500 
#    0.000    1.250    0.000    0.000    0.000    0.000 
#    0.000    0.000    0.000    0.000    0.000    0.000 
#
# Total GULP energy -396905.008168 kJ/mol
# GULP energy per Si atom -12403.281505 kJ/mol
# Density = 2.093690 g / cm^3
# Si number density = 20.984663 Si / 1000 Ang^3
#
#
#
# Elastic Constant Matrix: (Units=GPa)
#
#
# Indices 1 2 3 4 5 6 
#
# 1 109.1084 24.4209 54.3522 0.0000 9.8997 0.0000
# 2 24.4209 56.8183 24.9354 0.0000 5.3000 0.0000
# 3 54.3522 24.9354 150.5555 0.0000 2.9742 0.0000
# 4 0.0000 0.0000 0.0000 32.8409 0.0000 4.6407
# 5 9.8997 5.3000 2.9742 0.0000 37.9337 0.0000
# 6 0.0000 0.0000 0.0000 4.6407 0.0000 29.2726
#
#
#
# Elastic Compliance Matrix: (Units=1/GPa)
#
#
# Indices 1 2 3 4 5 6 
#
# 1 0.011975 -0.003288 -0.003732 0.000000 -0.002373 0.000000
# 2 -0.003288 0.020105 -0.002108 0.000000 -0.001786 0.000000
# 3 -0.003732 -0.002108 0.008326 0.000000 0.000616 0.000000
# 4 0.000000 0.000000 0.000000 0.031148 0.000000 -0.004938
# 5 -0.002373 -0.001786 0.000616 0.000000 0.027182 0.000000
# 6 0.000000 0.000000 0.000000 -0.004938 0.000000 0.034945
#
#
# Mechanical properties :
#
#
# Convention : Reuss Voigt Hill
#
# Bulk Modulus (GPa) = 45.14342 58.21102 51.67722
# Shear Modulus (GPa) = 31.38352 34.19435 32.78894
#
# Velocity S-wave (km/s) = 3.87142 4.04108 3.95716
# Velocity P-wave (km/s) = 6.44540 7.04086 6.74970
#
# Compressibility (1/GPa) = 0.02215162
#
# Stress axis : x y z
#
# Youngs Moduli (GPa) = 83.50406 49.73978 120.10299
#
# Poissons Ratio (x) = 0.16354 0.44820
# Poissons Ratio (y) = 0.27456 0.25312
# Poissons Ratio (z) = 0.31162 0.10483
#
# Static dielectric constant tensor:
#      x y z
#    x 3.849250 0.000000 -0.000820 
#    y 0.000000 3.784160 0.000000 
#    z -0.000820 0.000000 4.076380 
# 
# 
# High freq. dielectric constant tensor:
#      x y z
#    x 1.821490 0.000000 0.002680 
#    y 0.000000 1.808280 0.000000 
#    z 0.002680 0.000000 1.840360 
# 
# From -- ./inp_files/38169.got.cif
#   From: 2010.06.25/outbox.cif.g09.slc.cpg/sg11_20_cif.got.tgz:38169.got - 2010.06.27 23:14:04.
