data_PCOD8076062
_publ_section_title
;
Structure prediction by ZEFSAII (Michael W. Deem and Ramdas Pophale) SiO2 
 PCOD8076062
Probable space group: P 21/M
;
_chemical_formula_sum "Si O2"
_cell_formula_units_Z 32
_cell_length_a 21.079394
_cell_length_b 8.910112
_cell_length_c 26.425434
_cell_angle_alpha 90.000000
_cell_angle_beta 19.812823
_cell_angle_gamma 90.000000
_cell_volume 1682.275459
_symmetry_space_group_name_H-M "P 21/M"
_symmetry_group_IT_number 11
_symmetry_cell_setting 'monoclinic'
loop_
_space_group_symop_operation_xyz
x,y,z
-x,1/2+y,-z
-x,-y,-z
x,1/2-y,z
loop_
_atom_site_type_symbol
_atom_site_label
_atom_site_fract_x
_atom_site_fract_y
_atom_site_fract_z
Si Si1 0.213370 0.418486 0.206325
Si Si2 0.412511 0.918348 0.139931
Si Si3 0.336141 0.921821 0.850487
Si Si4 0.626216 0.424940 0.062588
Si Si5 0.989758 0.072144 0.062482
Si Si6 0.597452 0.577445 0.562421
Si Si7 0.387491 0.071541 0.629799
Si Si8 0.015434 0.573775 0.268329
O O1 0.148167 0.250000 0.265960
O O2 0.243730 0.498100 0.237661
O O3 0.051901 0.499458 0.295434
O O4 0.403785 0.424436 0.032070
O O5 0.346146 0.750000 0.200071
O O6 0.457293 0.994587 0.160008
O O7 0.261400 0.750000 0.904836
O O8 0.393600 0.967556 0.863949
O O9 0.517121 0.940451 0.679239
O O10 0.176105 0.035514 0.953347
O O11 0.601984 0.250000 0.070807
O O12 0.829827 0.477522 0.888986
O O13 0.962390 0.250000 0.078093
O O14 0.818086 0.998006 0.220842
O O15 0.000000 0.000000 0.000000
O O16 0.579530 0.750000 0.557430
O O17 0.480282 0.471396 0.613443
O O18 0.812462 0.523450 0.400440
O O19 0.377836 0.250000 0.631888
O O20 0.500000 0.000000 0.500000
O O21 0.020028 0.750000 0.274033
#
# Coordination Sequence:
#
# PCOD8076062 Si02
#       8
#     4   4   4   4   4   4   4   4
#     4   9  16  27  46  73 104 139 175 219 271 326
#     4   9  16  27  46  73 105 138 174 221 271 323
#     4  10  21  37  58  82 112 150 188 229 278 334
#     4   9  18  32  51  78 108 142 181 224 274 327
#     4  12  24  41  63  88 115 150 193 238 284 339
#     4  10  21  38  58  81 113 150 187 227 278 338
#     4  12  26  43  63  88 117 150 189 238 290 342
#     4   9  18  32  51  77 108 143 181 224 274 330
#
# _framework density 19.021854999999999
#
# number of rings (size 3 to 8) (size 9 to 14) (size 15 to 20)
#    0.000    2.000    1.250    3.000    1.750    4.000 
#    0.000    0.000    0.000    0.750    0.000    0.000 
#    0.000    0.000    0.000    0.000    0.000    0.000 
#
# Total GULP energy -396864.888255 kJ/mol
# GULP energy per Si atom -12402.027758 kJ/mol
# Density = 1.897856 g / cm^3
# Si number density = 19.021855 Si / 1000 Ang^3
#
#
#
# Elastic Constant Matrix: (Units=GPa)
#
#
# Indices 1 2 3 4 5 6 
#
# 1 114.6177 41.4842 17.0258 0.0000 9.7573 0.0000
# 2 41.4842 103.9529 19.9589 0.0000 3.1503 0.0000
# 3 17.0258 19.9589 49.3488 0.0000 12.4074 0.0000
# 4 0.0000 0.0000 0.0000 21.5795 0.0000 -6.1282
# 5 9.7573 3.1503 12.4074 0.0000 24.6612 0.0000
# 6 0.0000 0.0000 0.0000 -6.1282 0.0000 36.6742
#
#
#
# Elastic Compliance Matrix: (Units=1/GPa)
#
#
# Indices 1 2 3 4 5 6 
#
# 1 0.010582 -0.003877 -0.001322 0.000000 -0.003027 0.000000
# 2 -0.003877 0.011868 -0.003969 0.000000 0.002015 0.000000
# 3 -0.001322 -0.003969 0.025262 0.000000 -0.011679 0.000000
# 4 0.000000 0.000000 0.000000 0.048649 0.000000 0.008129
# 5 -0.003027 0.002015 -0.011679 0.000000 0.047366 0.000000
# 6 0.000000 0.000000 0.000000 0.008129 0.000000 0.028626
#
#
# Mechanical properties :
#
#
# Convention : Reuss Voigt Hill
#
# Bulk Modulus (GPa) = 34.04175 47.20635 40.62405
# Shear Modulus (GPa) = 24.94020 29.21302 27.07661
#
# Velocity S-wave (km/s) = 3.62489 3.92313 3.77695
# Velocity P-wave (km/s) = 5.95439 6.73736 6.35794
#
# Compressibility (1/GPa) = 0.02937569
#
# Stress axis : x y z
#
# Youngs Moduli (GPa) = 94.49992 84.25989 39.58579
#
# Poissons Ratio (x) = 0.32671 0.05232
# Poissons Ratio (y) = 0.36642 0.15711
# Poissons Ratio (z) = 0.12490 0.33441
#
# Static dielectric constant tensor:
#      x y z
#    x 3.873960 0.000000 -0.243230 
#    y 0.000000 3.558130 0.000000 
#    z -0.243230 0.000000 3.463900 
# 
# 
# High freq. dielectric constant tensor:
#      x y z
#    x 1.745490 0.000000 -0.007460 
#    y 0.000000 1.741100 0.000000 
#    z -0.007460 0.000000 1.713640 
# 
# From -- ./inp_files/72034.got.cif
#   From: 2010.06.25/outbox.cif.g09.slc.cpg/sg11_37_cif.got.tgz:72034.got - 2010.06.27 23:14:04.
