data_PCOD8076500
_publ_section_title
;
Structure prediction by ZEFSAII (Michael W. Deem and Ramdas Pophale) SiO2 
 PCOD8076500
Probable space group: P 21/M
;
_chemical_formula_sum "Si O2"
_cell_formula_units_Z 28
_cell_length_a 21.625111
_cell_length_b 8.533457
_cell_length_c 14.587280
_cell_angle_alpha 90.000000
_cell_angle_beta 31.018996
_cell_angle_gamma 90.000000
_cell_volume 1387.191918
_symmetry_space_group_name_H-M "P 21/M"
_symmetry_group_IT_number 11
_symmetry_cell_setting 'monoclinic'
loop_
_space_group_symop_operation_xyz
x,y,z
-x,1/2+y,-z
-x,-y,-z
x,1/2-y,z
loop_
_atom_site_type_symbol
_atom_site_label
_atom_site_fract_x
_atom_site_fract_y
_atom_site_fract_z
Si Si1 0.608615 0.566414 0.477380
Si Si2 0.685298 0.432113 0.557543
Si Si3 0.127672 0.568312 0.169449
Si Si4 0.530465 0.066799 0.059858
Si Si5 0.216089 0.067724 0.237084
Si Si6 0.119080 0.930636 0.544674
Si Si7 0.351154 0.432496 0.781938
O O1 0.596016 0.750000 0.511006
O O2 0.700310 0.487447 0.433199
O O3 0.479187 0.488078 0.656260
O O4 0.660438 0.530733 0.311154
O O5 0.651057 0.250000 0.607589
O O6 0.579202 0.536578 0.733480
O O7 0.808385 0.467551 0.454553
O O8 0.099435 0.750000 0.195944
O O9 0.134412 0.524706 0.268147
O O10 0.018649 0.473998 0.261363
O O11 0.249672 0.528204 0.962753
O O12 0.557673 0.250000 0.017017
O O13 0.500000 0.000000 0.000000
O O14 0.646709 0.981494 0.952247
O O15 0.202463 0.250000 0.233729
O O16 0.173383 0.033007 0.393848
O O17 0.131987 0.750000 0.500474
O O18 0.335358 0.250000 0.823579
#
# Coordination Sequence:
#
# PCOD8076500 Si02
#       7
#     4   4   4   4   4   4   4
#     4  10  21  38  64  94 123 154 192 243 299 357
#     4  11  23  39  61  88 122 160 198 243 297 357
#     4  12  25  41  62  87 118 156 202 250 298 353
#     4  12  23  37  58  86 121 156 196 243 294 349
#     4  12  24  40  62  87 119 159 202 247 298 354
#     4  11  24  42  61  84 119 159 203 248 294 353
#     4  10  21  40  64  91 122 154 195 245 298 353
#
# _framework density 20.184661999999999
#
# number of rings (size 3 to 8) (size 9 to 14) (size 15 to 20)
#    0.000    0.857    1.429    6.857    0.000    3.429 
#    0.000    0.714    0.000    0.000    0.000    0.000 
#    0.000    0.000    0.000    0.000    0.000    0.000 
#
# Total GULP energy -347413.599591 kJ/mol
# GULP energy per Si atom -12407.628557 kJ/mol
# Density = 2.013872 g / cm^3
# Si number density = 20.184662 Si / 1000 Ang^3
#
#
#
# Elastic Constant Matrix: (Units=GPa)
#
#
# Indices 1 2 3 4 5 6 
#
# 1 138.5375 33.6824 33.3152 0.0000 -4.3950 0.0000
# 2 33.6824 77.5832 18.4513 0.0000 1.0477 0.0000
# 3 33.3152 18.4513 48.5391 0.0000 -3.4432 0.0000
# 4 0.0000 0.0000 0.0000 32.3948 0.0000 -0.6930
# 5 -4.3950 1.0477 -3.4432 0.0000 27.8633 0.0000
# 6 0.0000 0.0000 0.0000 -0.6930 0.0000 35.8342
#
#
#
# Elastic Compliance Matrix: (Units=1/GPa)
#
#
# Indices 1 2 3 4 5 6 
#
# 1 0.009163 -0.002759 -0.005175 0.000000 0.000909 0.000000
# 2 -0.002759 0.015042 -0.003930 0.000000 -0.001486 0.000000
# 3 -0.005175 -0.003930 0.025827 0.000000 0.002523 0.000000
# 4 0.000000 0.000000 0.000000 0.030882 0.000000 0.000597
# 5 0.000909 -0.001486 0.002523 0.000000 0.036401 0.000000
# 6 0.000000 0.000000 0.000000 0.000597 0.000000 0.027918
#
#
# Mechanical properties :
#
#
# Convention : Reuss Voigt Hill
#
# Bulk Modulus (GPa) = 38.01856 48.39527 43.20692
# Shear Modulus (GPa) = 28.13292 31.16585 29.64939
#
# Velocity S-wave (km/s) = 3.73738 3.93369 3.83679
# Velocity P-wave (km/s) = 6.12375 6.68283 6.40939
#
# Compressibility (1/GPa) = 0.02630294
#
# Stress axis : x y z
#
# Youngs Moduli (GPa) = 109.14004 66.48077 38.71944
#
# Poissons Ratio (x) = 0.18344 0.20039
# Poissons Ratio (y) = 0.30115 0.15215
# Poissons Ratio (z) = 0.56484 0.26124
#
# Static dielectric constant tensor:
#      x y z
#    x 3.960920 0.000000 -0.017100 
#    y 0.000000 3.777830 0.000000 
#    z -0.017100 0.000000 3.592790 
# 
# 
# High freq. dielectric constant tensor:
#      x y z
#    x 1.799990 0.000000 -0.002370 
#    y 0.000000 1.805190 0.000000 
#    z -0.002370 0.000000 1.773510 
# 
# From -- ./inp_files/54485.got.cif
#   From: 2010.06.25/outbox.cif.g09.slc.cpg/sg11_28_cif.got.tgz:54485.got - 2010.06.27 23:14:04.
