data_PCOD8076741
_publ_section_title
;
Structure prediction by ZEFSAII (Michael W. Deem and Ramdas Pophale) SiO2 
 PCOD8076741
Probable space group: P 21/M
;
_chemical_formula_sum "Si O2"
_cell_formula_units_Z 20
_cell_length_a 13.584156
_cell_length_b 13.354078
_cell_length_c 7.606228
_cell_angle_alpha 90.000000
_cell_angle_beta 136.478252
_cell_angle_gamma 90.000000
_cell_volume 950.170972
_symmetry_space_group_name_H-M "P 21/M"
_symmetry_group_IT_number 11
_symmetry_cell_setting 'monoclinic'
loop_
_space_group_symop_operation_xyz
x,y,z
-x,1/2+y,-z
-x,-y,-z
x,1/2-y,z
loop_
_atom_site_type_symbol
_atom_site_label
_atom_site_fract_x
_atom_site_fract_y
_atom_site_fract_z
Si Si1 0.552604 0.970326 0.351486
Si Si2 0.299210 0.861497 0.139554
Si Si3 0.152378 0.543896 0.245601
Si Si4 0.406098 0.131252 0.949081
Si Si5 0.841360 0.023176 0.351406
O O1 0.281376 0.035698 0.373921
O O2 0.441299 0.930958 0.358331
O O3 0.528952 0.892517 0.158836
O O4 0.512716 0.082549 0.231918
O O5 0.352778 0.750000 0.183066
O O6 0.188570 0.865284 0.160053
O O7 0.222999 0.896844 0.864143
O O8 0.156565 0.575603 0.454245
O O9 0.000000 0.500000 0.000000
O O10 0.393224 0.250000 0.964959
O O11 0.249649 0.079580 0.763946
O O12 0.000000 0.000000 0.500000
#
# Coordination Sequence:
#
# PCOD8076741 Si02
#       5
#     4   4   4   4   4
#     4   9  20  37  60  91 127 161 203 268 309 363
#     4  11  23  40  65  92 122 166 211 256 315 374
#     4  11  22  40  64  87 125 165 206 255 314 370
#     4   9  18  35  63  91 117 164 215 254 310 374
#     4  10  21  40  62  90 128 163 202 264 315 365
#
# _framework density 21.048843999999999
#
# number of rings (size 3 to 8) (size 9 to 14) (size 15 to 20)
#    0.000    2.000    2.000    2.400    0.000    2.400 
#    0.000    1.000    0.000   10.800    0.000    0.000 
#    0.000    0.000    0.000    0.000    0.000    0.000 
#
# Total GULP energy -247913.627539 kJ/mol
# GULP energy per Si atom -12395.681377 kJ/mol
# Density = 2.100094 g / cm^3
# Si number density = 21.048844 Si / 1000 Ang^3
#
#
#
# Elastic Constant Matrix: (Units=GPa)
#
#
# Indices 1 2 3 4 5 6 
#
# 1 144.8516 33.5435 50.5719 0.0000 8.5913 0.0000
# 2 33.5435 136.9930 40.5691 0.0000 2.2293 0.0000
# 3 50.5719 40.5691 122.9750 0.0000 12.5465 0.0000
# 4 0.0000 0.0000 0.0000 11.4275 0.0000 -0.9500
# 5 8.5913 2.2293 12.5465 0.0000 49.0257 0.0000
# 6 0.0000 0.0000 0.0000 -0.9500 0.0000 24.8265
#
#
#
# Elastic Compliance Matrix: (Units=1/GPa)
#
#
# Indices 1 2 3 4 5 6 
#
# 1 0.008233 -0.001133 -0.002947 0.000000 -0.000637 0.000000
# 2 -0.001133 0.008251 -0.002298 0.000000 0.000411 0.000000
# 3 -0.002947 -0.002298 0.010308 0.000000 -0.002017 0.000000
# 4 0.000000 0.000000 0.000000 0.087788 0.000000 0.003359
# 5 -0.000637 0.000411 -0.002017 0.000000 0.021007 0.000000
# 6 0.000000 0.000000 0.000000 0.003359 0.000000 0.040408
#
#
# Mechanical properties :
#
#
# Convention : Reuss Voigt Hill
#
# Bulk Modulus (GPa) = 71.24767 72.68766 71.96767
# Shear Modulus (GPa) = 25.84952 35.73161 30.79056
#
# Velocity S-wave (km/s) = 3.50819 4.12461 3.82883
# Velocity P-wave (km/s) = 7.09451 7.56908 7.33564
#
# Compressibility (1/GPa) = 0.01403555
#
# Stress axis : x y z
#
# Youngs Moduli (GPa) = 121.46921 121.19944 97.01673
#
# Poissons Ratio (x) = 0.13729 0.28589
# Poissons Ratio (y) = 0.13759 0.22295
# Poissons Ratio (z) = 0.35795 0.27853
#
# Static dielectric constant tensor:
#      x y z
#    x 4.377690 0.000000 -0.184410 
#    y 0.000000 3.347070 0.000000 
#    z -0.184410 0.000000 6.496010 
# 
# 
# High freq. dielectric constant tensor:
#      x y z
#    x 1.855800 0.000000 -0.005850 
#    y 0.000000 1.780140 0.000000 
#    z -0.005850 0.000000 1.839750 
# 
# From -- ./inp_files/17283.got.cif
#   From: 2010.06.25/outbox.cif.g09.slc.cpg/sg11_9_cif.got.tgz:17283.got - 2010.06.27 23:14:04.
