data_PCOD8076920
_publ_section_title
;
Structure prediction by ZEFSAII (Michael W. Deem and Ramdas Pophale) SiO2 
 PCOD8076920
Probable space group: P 21/M
;
_chemical_formula_sum "Si O2"
_cell_formula_units_Z 28
_cell_length_a 9.184895
_cell_length_b 26.107733
_cell_length_c 9.649823
_cell_angle_alpha 90.000000
_cell_angle_beta 34.436572
_cell_angle_gamma 90.000000
_cell_volume 1308.550143
_symmetry_space_group_name_H-M "P 21/M"
_symmetry_group_IT_number 11
_symmetry_cell_setting 'monoclinic'
loop_
_space_group_symop_operation_xyz
x,y,z
-x,1/2+y,-z
-x,-y,-z
x,1/2-y,z
loop_
_atom_site_type_symbol
_atom_site_label
_atom_site_fract_x
_atom_site_fract_y
_atom_site_fract_z
Si Si1 0.906083 0.693637 0.311600
Si Si2 0.056144 0.309767 0.147816
Si Si3 0.546002 0.552995 0.539718
Si Si4 0.718778 0.393305 0.017956
Si Si5 0.534483 0.845213 0.405044
Si Si6 0.985179 0.551146 0.424025
Si Si7 0.792521 0.848289 0.680253
O O1 0.012617 0.750000 0.187770
O O2 0.615816 0.686509 0.479549
O O3 0.927018 0.687956 0.460563
O O4 0.053261 0.646141 0.125075
O O5 0.014654 0.250000 0.155439
O O6 0.771210 0.335418 0.376857
O O7 0.192982 0.320117 0.186281
O O8 0.268810 0.329551 0.871870
O O9 0.500000 0.500000 0.500000
O O10 0.584056 0.594351 0.388704
O O11 0.782483 0.547482 0.458735
O O12 0.312074 0.572822 0.819513
O O13 0.755715 0.432943 0.860192
O O14 0.494834 0.355409 0.147756
O O15 0.922466 0.595592 0.583591
O O16 0.000000 0.500000 0.500000
#
# Coordination Sequence:
#
# PCOD8076920 Si02
#       7
#     4   4   4   4   4   4   4
#     4  11  22  42  72  98 133 185 231 290 354 422
#     4  12  28  46  70 105 148 192 235 292 360 418
#     4  11  25  43  69 100 134 185 233 292 360 425
#     4  10  21  45  66 100 139 173 241 291 344 431
#     4  12  26  48  68 105 146 182 240 294 351 430
#     4  10  23  42  67 101 131 180 234 293 354 417
#     4  10  24  43  67  98 138 178 237 293 341 430
#
# _framework density 21.397729999999999
#
# number of rings (size 3 to 8) (size 9 to 14) (size 15 to 20)
#    0.000    1.143    4.286    2.571    6.000    5.143 
#    0.000    0.000    0.000    0.000    0.000    0.000 
#    0.000    0.000    0.000    0.000    0.000    0.000 
#
# Total GULP energy -346895.108783 kJ/mol
# GULP energy per Si atom -12389.111028 kJ/mol
# Density = 2.134903 g / cm^3
# Si number density = 21.397730 Si / 1000 Ang^3
#
#
#
# Elastic Constant Matrix: (Units=GPa)
#
#
# Indices 1 2 3 4 5 6 
#
# 1 78.3678 45.6155 44.4885 0.0000 16.6297 0.0000
# 2 45.6155 158.3265 51.4475 0.0000 9.1487 0.0000
# 3 44.4885 51.4475 118.1778 0.0000 1.0528 0.0000
# 4 0.0000 0.0000 0.0000 23.8289 0.0000 8.3633
# 5 16.6297 9.1487 1.0528 0.0000 25.1241 0.0000
# 6 0.0000 0.0000 0.0000 8.3633 0.0000 32.0727
#
#
#
# Elastic Compliance Matrix: (Units=1/GPa)
#
#
# Indices 1 2 3 4 5 6 
#
# 1 0.020866 -0.003239 -0.006335 0.000000 -0.012366 0.000000
# 2 -0.003239 0.008026 -0.002269 0.000000 -0.000684 0.000000
# 3 -0.006335 -0.002269 0.011794 0.000000 0.004525 0.000000
# 4 0.000000 0.000000 0.000000 0.046194 0.000000 -0.012045
# 5 -0.012366 -0.000684 0.004525 0.000000 0.048047 0.000000
# 6 0.000000 0.000000 0.000000 -0.012045 0.000000 0.034320
#
#
# Mechanical properties :
#
#
# Convention : Reuss Voigt Hill
#
# Bulk Modulus (GPa) = 58.81942 70.88613 64.85277
# Shear Modulus (GPa) = 25.17650 30.42652 27.80151
#
# Velocity S-wave (km/s) = 3.43388 3.77497 3.60845
# Velocity P-wave (km/s) = 6.57802 7.22498 6.90907
#
# Compressibility (1/GPa) = 0.01700119
#
# Stress axis : x y z
#
# Youngs Moduli (GPa) = 47.92524 124.59741 84.78891
#
# Poissons Ratio (x) = 0.40352 0.53714
# Poissons Ratio (y) = 0.15521 0.19236
# Poissons Ratio (z) = 0.30360 0.28268
#
# Static dielectric constant tensor:
#      x y z
#    x 3.835500 0.000000 0.011340 
#    y 0.000000 -15.011910 0.000000 
#    z 0.011340 0.000000 4.308780 
# 
# 
# High freq. dielectric constant tensor:
#      x y z
#    x 1.838690 0.000000 0.003290 
#    y 0.000000 1.845630 0.000000 
#    z 0.003290 0.000000 1.844400 
# 
# From -- ./inp_files/15267.got.cif
#   From: 2010.06.25/outbox.cif.g09.slc.cpg/sg11_8_cif.got.tgz:15267.got - 2010.06.27 23:14:04.
