data_PCOD8076143
_publ_section_title
;
Structure prediction by ZEFSAII (Michael W. Deem and Ramdas Pophale) SiO2 
 PCOD8076143
Probable space group: P 21/M
;
_chemical_formula_sum "Si O2"
_cell_formula_units_Z 32
_cell_length_a 19.660320
_cell_length_b 8.963759
_cell_length_c 26.650580
_cell_angle_alpha 90.000000
_cell_angle_beta 19.841148
_cell_angle_gamma 90.000000
_cell_volume 1594.103762
_symmetry_space_group_name_H-M "P 21/M"
_symmetry_group_IT_number 11
_symmetry_cell_setting 'monoclinic'
loop_
_space_group_symop_operation_xyz
x,y,z
-x,1/2+y,-z
-x,-y,-z
x,1/2-y,z
loop_
_atom_site_type_symbol
_atom_site_label
_atom_site_fract_x
_atom_site_fract_y
_atom_site_fract_z
Si Si1 0.670369 0.583579 0.854051
Si Si2 0.916914 0.076052 0.983317
Si Si3 0.711937 0.923895 0.464065
Si Si4 0.689785 0.576220 0.226131
Si Si5 0.046510 0.925488 0.155775
Si Si6 0.514809 0.084984 0.125178
Si Si7 0.824749 0.424031 0.589319
Si Si8 0.077272 0.077704 0.577206
O O1 0.714474 0.750000 0.844792
O O2 0.605284 0.597810 0.842394
O O3 0.850730 0.472493 0.737307
O O4 0.500000 0.500000 0.000000
O O5 0.863529 0.250000 0.019453
O O6 0.126330 0.042976 0.864685
O O7 0.937013 0.011649 0.912617
O O8 0.736204 0.997054 0.139466
O O9 0.667377 0.750000 0.486298
O O10 0.855509 0.989238 0.319719
O O11 0.822504 0.952091 0.439372
O O12 0.501943 0.009488 0.612212
O O13 0.654427 0.750000 0.241732
O O14 0.014007 0.750000 0.176320
O O15 0.253333 0.965942 0.041451
O O16 0.511394 0.250000 0.153464
O O17 0.398077 0.962166 0.238027
O O18 0.866685 0.250000 0.563079
O O19 0.817712 0.476654 0.537101
O O20 0.000000 0.500000 0.500000
O O21 0.088092 0.250000 0.553725
#
# Coordination Sequence:
#
# PCOD8076143 Si02
#       8
#     4   4   4   4   4   4   4   4
#     4  11  22  36  57  81 112 153 196 242 295 352
#     4   9  19  38  63  89 118 158 200 240 294 355
#     4  10  22  40  62  88 118 157 200 243 297 362
#     4  10  21  37  59  90 125 156 194 244 295 354
#     4   9  19  38  63  88 116 153 201 247 290 353
#     4  10  21  38  59  84 114 150 195 246 294 347
#     4  12  24  39  59  85 115 151 196 246 301 356
#     4  11  23  39  59  83 114 152 197 245 298 356
#
# _framework density 20.073975999999998
#
# number of rings (size 3 to 8) (size 9 to 14) (size 15 to 20)
#    0.000    1.750    1.250    3.000    1.750    4.500 
#    0.000    1.250    0.000    0.000    0.000    0.000 
#    0.000    0.000    0.000    0.000    0.000    0.000 
#
# Total GULP energy -396685.916641 kJ/mol
# GULP energy per Si atom -12396.434895 kJ/mol
# Density = 2.002829 g / cm^3
# Si number density = 20.073976 Si / 1000 Ang^3
#
#
#
# Elastic Constant Matrix: (Units=GPa)
#
#
# Indices 1 2 3 4 5 6 
#
# 1 -150.1931 44.5879 -74.0115 0.0000 -58.2949 0.0000
# 2 44.5879 82.7624 49.5967 0.0000 10.4978 0.0000
# 3 -74.0115 49.5967 94.4223 0.0000 -20.8990 0.0000
# 4 0.0000 0.0000 0.0000 37.1009 0.0000 -1.4516
# 5 -58.2949 10.4978 -20.8990 0.0000 12.3049 0.0000
# 6 0.0000 0.0000 0.0000 -1.4516 0.0000 21.9621
#
#
#
# Elastic Compliance Matrix: (Units=1/GPa)
#
#
# Indices 1 2 3 4 5 6 
#
# 1 0.000041 0.003551 -0.003944 0.000000 -0.009536 0.000000
# 2 0.003551 0.011352 -0.002562 0.000000 0.002787 0.000000
# 3 -0.003944 -0.002562 0.008322 0.000000 -0.002364 0.000000
# 4 0.000000 0.000000 0.000000 0.027023 0.000000 0.001786
# 5 -0.009536 0.002787 -0.002364 0.000000 0.029701 0.000000
# 6 0.000000 0.000000 0.000000 0.001786 0.000000 0.045651
#
#
# Mechanical properties :
#
#
# Convention : Reuss Voigt Hill
#
# Bulk Modulus (GPa) = 72.44368 7.48201 39.96284
# Shear Modulus (GPa) = 37.70699 14.72814 26.21757
#
# Velocity S-wave (km/s) = 4.33876 2.71162 3.61785
# Velocity P-wave (km/s) = 7.82729 3.67955 6.11578
#
# Compressibility (1/GPa) = 0.01380383
#
# Stress axis : x y z
#
# Youngs Moduli (GPa) = 24601.23784 88.09219 120.16373
#
# Poissons Ratio (x) = -0.31282 0.47392
# Poissons Ratio (y) = -87.36110 0.30791
# Poissons Ratio (z) = 97.02591 0.22573
#
# Static dielectric constant tensor:
#      x y z
#    x 3.828940 0.000000 0.192820 
#    y 0.000000 3.552290 0.000000 
#    z 0.192820 0.000000 3.917000 
# 
# 
# High freq. dielectric constant tensor:
#      x y z
#    x 1.779570 0.000000 0.003390 
#    y 0.000000 1.770040 0.000000 
#    z 0.003390 0.000000 1.798620 
# 
# From -- ./inp_files/72006.got.cif
#   From: 2010.06.25/outbox.cif.g09.slc.cpg/sg11_37_cif.got.tgz:72006.got - 2010.06.27 23:14:04.
