data_PCOD8076050
_publ_section_title
;
Structure prediction by ZEFSAII (Michael W. Deem and Ramdas Pophale) SiO2 
 PCOD8076050
Probable space group: P 21/M
;
_chemical_formula_sum "Si O2"
_cell_formula_units_Z 32
_cell_length_a 14.733236
_cell_length_b 8.970021
_cell_length_c 25.286479
_cell_angle_alpha 90.000000
_cell_angle_beta 29.440696
_cell_angle_gamma 90.000000
_cell_volume 1642.567823
_symmetry_space_group_name_H-M "P 21/M"
_symmetry_group_IT_number 11
_symmetry_cell_setting 'monoclinic'
loop_
_space_group_symop_operation_xyz
x,y,z
-x,1/2+y,-z
-x,-y,-z
x,1/2-y,z
loop_
_atom_site_type_symbol
_atom_site_label
_atom_site_fract_x
_atom_site_fract_y
_atom_site_fract_z
Si Si1 0.655503 0.579087 0.570432
Si Si2 0.012227 0.922896 0.769775
Si Si3 0.436121 0.577385 0.276135
Si Si4 0.348568 0.423041 0.215008
Si Si5 0.231806 0.922897 0.024680
Si Si6 0.580221 0.078079 0.408159
Si Si7 0.022690 0.921174 0.321224
Si Si8 0.853780 0.922659 0.037253
O O1 0.606414 0.750000 0.609670
O O2 0.638599 0.476708 0.630067
O O3 0.515468 0.516775 0.596638
O O4 0.865401 0.564452 0.445054
O O5 0.959766 0.750000 0.791837
O O6 0.200208 0.946460 0.707655
O O7 0.843713 0.009043 0.882660
O O8 0.044358 0.988551 0.695594
O O9 0.386830 0.750000 0.293171
O O10 0.335872 0.485691 0.280796
O O11 0.654286 0.549303 0.163714
O O12 0.295112 0.250000 0.243534
O O13 0.211028 0.511034 0.247279
O O14 0.549855 0.449764 0.088149
O O15 0.181314 0.750000 0.046840
O O16 0.130521 0.006174 0.028373
O O17 0.526575 0.250000 0.441575
O O18 0.500000 0.000000 0.500000
O O19 0.056614 0.750000 0.288214
O O20 0.902204 0.750000 0.007297
O O21 0.000000 0.000000 0.000000
#
# Coordination Sequence:
#
# PCOD8076050 Si02
#       8
#     4   4   4   4   4   4   4   4
#     4  10  22  39  59  87 121 158 197 239 292 350
#     4  11  23  38  60  91 122 157 198 243 293 350
#     4  10  22  39  60  88 118 153 197 243 292 349
#     4  10  22  42  65  87 116 154 195 247 300 349
#     4  10  22  40  61  86 117 155 196 242 297 351
#     4  10  21  38  59  85 119 158 196 240 292 345
#     4  11  23  40  63  88 117 156 199 247 295 348
#     4  10  21  37  57  85 118 154 197 243 291 347
#
# _framework density 19.481691000000001
#
# number of rings (size 3 to 8) (size 9 to 14) (size 15 to 20)
#    0.000    1.750    1.250    2.250    1.750    6.000 
#    0.000    0.000    0.000    0.000    0.000    0.000 
#    0.000    0.000    0.000    0.000    0.000    0.000 
#
# Total GULP energy -396986.238295 kJ/mol
# GULP energy per Si atom -12405.819947 kJ/mol
# Density = 1.943735 g / cm^3
# Si number density = 19.481691 Si / 1000 Ang^3
#
#
#
# Elastic Constant Matrix: (Units=GPa)
#
#
# Indices 1 2 3 4 5 6 
#
# 1 73.5273 38.4426 23.7813 0.0000 -11.1043 0.0000
# 2 38.4426 105.2794 43.8878 0.0000 -5.6015 0.0000
# 3 23.7813 43.8878 75.5254 0.0000 11.4648 0.0000
# 4 0.0000 0.0000 0.0000 34.8538 0.0000 5.0563
# 5 -11.1043 -5.6015 11.4648 0.0000 29.0162 0.0000
# 6 0.0000 0.0000 0.0000 5.0563 0.0000 38.9012
#
#
#
# Elastic Compliance Matrix: (Units=1/GPa)
#
#
# Indices 1 2 3 4 5 6 
#
# 1 0.018610 -0.004513 -0.004454 0.000000 0.008010 0.000000
# 2 -0.004513 0.014560 -0.007664 0.000000 0.004112 0.000000
# 3 -0.004454 -0.007664 0.020829 0.000000 -0.011414 0.000000
# 4 0.000000 0.000000 0.000000 0.029243 0.000000 -0.003801
# 5 0.008010 0.004112 -0.011414 0.000000 0.042833 0.000000
# 6 0.000000 0.000000 0.000000 -0.003801 0.000000 0.026200
#
#
# Mechanical properties :
#
#
# Convention : Reuss Voigt Hill
#
# Bulk Modulus (GPa) = 48.21948 51.83951 50.02949
# Shear Modulus (GPa) = 25.98101 30.43560 28.20830
#
# Velocity S-wave (km/s) = 3.65583 3.95684 3.80931
# Velocity P-wave (km/s) = 6.52878 6.89511 6.71445
#
# Compressibility (1/GPa) = 0.02073851
#
# Stress axis : x y z
#
# Youngs Moduli (GPa) = 53.73473 68.68107 48.00964
#
# Poissons Ratio (x) = 0.30993 0.21381
# Poissons Ratio (y) = 0.24249 0.36795
# Poissons Ratio (z) = 0.23931 0.52638
#
# Static dielectric constant tensor:
#      x y z
#    x 3.632040 0.000000 -0.063420 
#    y 0.000000 3.548510 0.000000 
#    z -0.063420 0.000000 3.538310 
# 
# 
# High freq. dielectric constant tensor:
#      x y z
#    x 1.763190 0.000000 -0.000790 
#    y 0.000000 1.770230 0.000000 
#    z -0.000790 0.000000 1.759310 
# 
# From -- ./inp_files/51717.got.cif
#   From: 2010.06.25/outbox.cif.g09.slc.cpg/sg11_26_cif.got.tgz:51717.got - 2010.06.27 23:14:04.
