data_PCOD8076819
_publ_section_title
;
Structure prediction by ZEFSAII (Michael W. Deem and Ramdas Pophale) SiO2 
 PCOD8076819
Probable space group: P 21/M
;
_chemical_formula_sum "Si O2"
_cell_formula_units_Z 32
_cell_length_a 13.454835
_cell_length_b 17.727474
_cell_length_c 11.594230
_cell_angle_alpha 90.000000
_cell_angle_beta 34.071631
_cell_angle_gamma 90.000000
_cell_volume 1549.289843
_symmetry_space_group_name_H-M "P 21/M"
_symmetry_group_IT_number 11
_symmetry_cell_setting 'monoclinic'
loop_
_space_group_symop_operation_xyz
x,y,z
-x,1/2+y,-z
-x,-y,-z
x,1/2-y,z
loop_
_atom_site_type_symbol
_atom_site_label
_atom_site_fract_x
_atom_site_fract_y
_atom_site_fract_z
Si Si1 0.172949 0.163927 0.701477
Si Si2 0.425314 0.662479 0.717529
Si Si3 0.939953 0.565050 0.401406
Si Si4 0.144615 0.334798 0.305429
Si Si5 0.880141 0.162788 0.163269
Si Si6 0.354589 0.565000 0.009281
Si Si7 0.511053 0.900761 0.100458
Si Si8 0.838641 0.396943 0.450035
O O1 0.144316 0.250000 0.688220
O O2 0.380203 0.146442 0.522179
O O3 0.087039 0.111085 0.688735
O O4 0.069371 0.149392 0.920166
O O5 0.397115 0.750000 0.774395
O O6 0.279500 0.635617 0.765760
O O7 0.402287 0.617554 0.856985
O O8 0.844612 0.607203 0.598668
O O9 0.851924 0.483534 0.476451
O O10 0.146028 0.556028 0.229587
O O11 0.143432 0.250000 0.355632
O O12 0.972092 0.345421 0.393510
O O13 0.316607 0.347562 0.059580
O O14 0.854525 0.250000 0.223219
O O15 0.878544 0.110465 0.276760
O O16 0.438000 0.483893 0.906286
O O17 0.435021 0.602903 0.044734
O O18 0.361413 0.869140 0.331191
#
# Coordination Sequence:
#
# PCOD8076819 Si02
#       8
#     4   4   4   4   4   4   4   4
#     4  10  21  40  66  95 128 165 210 269 323 365
#     4  10  21  40  66  96 128 166 216 269 316 368
#     4  12  22  42  69  96 127 167 209 269 323 373
#     4  12  26  43  66  97 128 164 214 261 317 388
#     4  10  23  42  63  90 126 168 215 262 311 376
#     4  11  21  41  68  95 130 166 210 258 324 378
#     4  11  24  42  65  94 131 171 203 259 320 383
#     4  12  25  44  66  92 132 174 212 257 317 383
#
# _framework density 20.654623999999998
#
# number of rings (size 3 to 8) (size 9 to 14) (size 15 to 20)
#    0.000    1.000    3.750    4.125    0.000    4.500 
#    0.000    2.500    0.000    0.000    0.000    0.000 
#    0.000    0.000    0.000    0.000    0.000    0.000 
#
# Total GULP energy -397000.567418 kJ/mol
# GULP energy per Si atom -12406.267732 kJ/mol
# Density = 2.060761 g / cm^3
# Si number density = 20.654624 Si / 1000 Ang^3
#
#
#
# Elastic Constant Matrix: (Units=GPa)
#
#
# Indices 1 2 3 4 5 6 
#
# 1 63.6719 46.2114 38.4604 0.0000 6.2452 0.0000
# 2 46.2114 78.5062 38.9711 0.0000 10.3263 0.0000
# 3 38.4604 38.9711 145.8645 0.0000 -10.2673 0.0000
# 4 0.0000 0.0000 0.0000 149.5649 0.0000 137.8291
# 5 6.2452 10.3263 -10.2673 0.0000 36.3135 0.0000
# 6 0.0000 0.0000 0.0000 137.8291 0.0000 173.9430
#
#
#
# Elastic Compliance Matrix: (Units=1/GPa)
#
#
# Indices 1 2 3 4 5 6 
#
# 1 0.029037 -0.014978 -0.003782 0.000000 -0.001804 0.000000
# 2 -0.014978 0.023525 -0.002679 0.000000 -0.004871 0.000000
# 3 -0.003782 -0.002679 0.008844 0.000000 0.003913 0.000000
# 4 0.000000 0.000000 0.000000 0.024782 0.000000 -0.019637
# 5 -0.001804 -0.004871 0.003913 0.000000 0.030340 0.000000
# 6 0.000000 0.000000 0.000000 -0.019637 0.000000 0.021309
#
#
# Mechanical properties :
#
#
# Convention : Reuss Voigt Hill
#
# Bulk Modulus (GPa) = 53.96823 59.48094 56.72459
# Shear Modulus (GPa) = 26.75379 82.92425 54.83902
#
# Velocity S-wave (km/s) = 3.60292 6.34312 5.15831
# Velocity P-wave (km/s) = 6.59497 9.08335 7.93729
#
# Compressibility (1/GPa) = 0.01852942
#
# Stress axis : x y z
#
# Youngs Moduli (GPa) = 34.43865 42.50838 113.07215
#
# Poissons Ratio (x) = 0.63668 0.42759
# Poissons Ratio (y) = 0.51581 0.30290
# Poissons Ratio (z) = 0.13023 0.11387
#
# Static dielectric constant tensor:
#      x y z
#    x 3.734770 0.000000 -0.229950 
#    y 0.000000 3.656200 0.000000 
#    z -0.229950 0.000000 4.003470 
# 
# 
# High freq. dielectric constant tensor:
#      x y z
#    x 1.805190 0.000000 -0.014560 
#    y 0.000000 1.800870 0.000000 
#    z -0.014560 0.000000 1.826900 
# 
# From -- ./inp_files/39936.got.cif
#   From: 2010.06.25/outbox.cif.g09.slc.cpg/sg11_20_cif.got.tgz:39936.got - 2010.06.27 23:14:04.
