data_PCOD8076554
_publ_section_title
;
Structure prediction by ZEFSAII (Michael W. Deem and Ramdas Pophale) SiO2 
 PCOD8076554
Probable space group: P 21/M
;
_chemical_formula_sum "Si O2"
_cell_formula_units_Z 32
_cell_length_a 18.501657
_cell_length_b 22.593495
_cell_length_c 10.807015
_cell_angle_alpha 90.000000
_cell_angle_beta 22.474434
_cell_angle_gamma 90.000000
_cell_volume 1726.916421
_symmetry_space_group_name_H-M "P 21/M"
_symmetry_group_IT_number 11
_symmetry_cell_setting 'monoclinic'
loop_
_space_group_symop_operation_xyz
x,y,z
-x,1/2+y,-z
-x,-y,-z
x,1/2-y,z
loop_
_atom_site_type_symbol
_atom_site_label
_atom_site_fract_x
_atom_site_fract_y
_atom_site_fract_z
Si Si1 0.450855 0.184547 0.860255
Si Si2 0.551907 0.681627 0.846476
Si Si3 0.709785 0.023742 0.645158
Si Si4 0.275608 0.588923 0.612848
Si Si5 0.266959 0.905265 0.159263
Si Si6 0.115181 0.406643 0.640869
Si Si7 0.430135 0.005285 0.749512
Si Si8 0.133567 0.099376 0.321701
O O1 0.465982 0.250000 0.783950
O O2 0.600718 0.145737 0.549153
O O3 0.501343 0.181357 0.925444
O O4 0.244513 0.161153 0.150701
O O5 0.575936 0.750000 0.762323
O O6 0.749882 0.645998 0.523803
O O7 0.389939 0.649096 0.021040
O O8 0.740961 0.080998 0.508696
O O9 0.786615 0.045435 0.654914
O O10 0.821195 0.969776 0.406417
O O11 0.500000 0.000000 0.000000
O O12 0.383719 0.528771 0.476805
O O13 0.088611 0.604360 0.981715
O O14 0.066869 0.883997 0.421593
O O15 0.385060 0.938709 0.865497
O O16 0.108665 0.418229 0.504291
O O17 0.500000 0.000000 0.500000
O O18 0.248724 0.048435 0.063520
#
# Coordination Sequence:
#
# PCOD8076554 Si02
#       8
#     4   4   4   4   4   4   4   4
#     4   9  19  39  61  80 110 151 199 242 280 341
#     4  10  21  39  61  83 111 155 198 237 289 342
#     4  12  19  36  57  85 121 152 183 234 297 346
#     4  11  21  34  57  90 113 149 193 233 288 344
#     4  12  21  36  60  85 122 152 188 242 291 349
#     4  11  21  37  58  85 118 151 194 236 281 350
#     4  11  22  36  56  86 120 153 189 231 290 352
#     4  10  22  37  57  84 114 153 190 232 290 344
#
# _framework density 18.530138999999998
#
# number of rings (size 3 to 8) (size 9 to 14) (size 15 to 20)
#    0.000    1.250    5.000    2.250    1.750    1.000 
#    0.000    0.000    0.000    6.000    0.000    0.000 
#    0.000    0.000    0.000    0.000    0.000    0.000 
#
# Total GULP energy -396500.758493 kJ/mol
# GULP energy per Si atom -12390.648703 kJ/mol
# Density = 1.848796 g / cm^3
# Si number density = 18.530139 Si / 1000 Ang^3
#
#
#
# Elastic Constant Matrix: (Units=GPa)
#
#
# Indices 1 2 3 4 5 6 
#
# 1 92.3886 43.3366 51.6224 0.0000 -13.2177 0.0000
# 2 43.3366 131.1330 52.4482 0.0000 -11.1687 0.0000
# 3 51.6224 52.4482 123.8391 0.0000 -7.6563 0.0000
# 4 0.0000 0.0000 0.0000 13.3853 0.0000 -1.2192
# 5 -13.2177 -11.1687 -7.6563 0.0000 37.9301 0.0000
# 6 0.0000 0.0000 0.0000 -1.2192 0.0000 20.7580
#
#
#
# Elastic Compliance Matrix: (Units=1/GPa)
#
#
# Indices 1 2 3 4 5 6 
#
# 1 0.015457 -0.002789 -0.005043 0.000000 0.003547 0.000000
# 2 -0.002789 0.009828 -0.002917 0.000000 0.001333 0.000000
# 3 -0.005043 -0.002917 0.011393 0.000000 -0.000317 0.000000
# 4 0.000000 0.000000 0.000000 0.075110 0.000000 0.004412
# 5 0.003547 0.001333 -0.000317 0.000000 0.027929 0.000000
# 6 0.000000 0.000000 0.000000 0.004412 0.000000 0.048433
#
#
# Mechanical properties :
#
#
# Convention : Reuss Voigt Hill
#
# Bulk Modulus (GPa) = 65.87701 71.35276 68.61489
# Shear Modulus (GPa) = 23.28727 27.74493 25.51610
#
# Velocity S-wave (km/s) = 3.54888 3.87368 3.71483
# Velocity P-wave (km/s) = 7.24025 7.65487 7.45044
#
# Compressibility (1/GPa) = 0.01517980
#
# Stress axis : x y z
#
# Youngs Moduli (GPa) = 64.69396 101.75069 87.77323
#
# Poissons Ratio (x) = 0.28381 0.44262
# Poissons Ratio (y) = 0.18045 0.25605
# Poissons Ratio (z) = 0.32624 0.29683
#
# Static dielectric constant tensor:
#      x y z
#    x 3.583340 0.000000 -0.135130 
#    y 0.000000 3.666600 0.000000 
#    z -0.135130 0.000000 3.416900 
# 
# 
# High freq. dielectric constant tensor:
#      x y z
#    x 1.713930 0.000000 -0.005060 
#    y 0.000000 1.713370 0.000000 
#    z -0.005060 0.000000 1.716130 
# 
# From -- ./inp_files/43555.got.cif
#   From: 2010.06.25/outbox.cif.g09.slc.cpg/sg11_22_cif.got.tgz:43555.got - 2010.06.27 23:14:04.
