data_PCOD8076843
_publ_section_title
;
Structure prediction by ZEFSAII (Michael W. Deem and Ramdas Pophale) SiO2 
 PCOD8076843
Probable space group: P 21/M
;
_chemical_formula_sum "Si O2"
_cell_formula_units_Z 32
_cell_length_a 8.991172
_cell_length_b 13.821883
_cell_length_c 13.962591
_cell_angle_alpha 90.000000
_cell_angle_beta 118.696406
_cell_angle_gamma 90.000000
_cell_volume 1522.076275
_symmetry_space_group_name_H-M "P 21/M"
_symmetry_group_IT_number 11
_symmetry_cell_setting 'monoclinic'
loop_
_space_group_symop_operation_xyz
x,y,z
-x,1/2+y,-z
-x,-y,-z
x,1/2-y,z
loop_
_atom_site_type_symbol
_atom_site_label
_atom_site_fract_x
_atom_site_fract_y
_atom_site_fract_z
Si Si1 0.444658 0.361252 0.619391
Si Si2 0.114172 0.360655 0.990594
Si Si3 0.799916 0.863978 0.770689
Si Si4 0.535517 0.364601 0.435632
Si Si5 0.808392 0.478483 0.411632
Si Si6 0.277280 0.857238 0.144257
Si Si7 0.682120 0.473769 0.023896
Si Si8 0.124086 0.864168 0.758975
O O1 0.384267 0.250000 0.600885
O O2 0.476520 0.400128 0.522080
O O3 0.295429 0.421004 0.625687
O O4 0.624466 0.375817 0.726766
O O5 0.179481 0.250000 0.003393
O O6 0.142438 0.403830 0.107269
O O7 0.211396 0.426891 0.944560
O O8 0.921105 0.369401 0.899069
O O9 0.805015 0.750000 0.780700
O O10 0.611029 0.898984 0.684334
O O11 0.931278 0.893707 0.727149
O O12 0.558666 0.250000 0.443046
O O13 0.714261 0.410570 0.460105
O O14 0.809779 0.425107 0.310241
O O15 0.000000 0.500000 0.500000
O O16 0.316362 0.750000 0.117196
O O17 0.342813 0.933795 0.089435
O O18 0.500000 0.500000 0.000000
O O19 0.761818 0.390971 0.114751
O O20 0.141869 0.750000 0.742545
#
# Coordination Sequence:
#
# PCOD8076843 Si02
#       8
#     4   4   4   4   4   4   4   4
#     4  10  23  43  66  91 126 172 218 270 326 386
#     4  10  22  40  64  95 126 169 220 269 318 378
#     4   9  19  38  65  94 125 165 218 274 320 372
#     4  10  22  41  67  96 126 167 221 276 324 379
#     4  12  26  42  63  98 132 171 211 269 329 397
#     4  10  21  41  64  88 123 167 219 269 320 380
#     4  12  25  38  59  96 133 173 210 261 322 389
#     4  11  24  43  66  94 130 172 218 267 327 386
#
# _framework density 21.023914000000001
#
# number of rings (size 3 to 8) (size 9 to 14) (size 15 to 20)
#    0.000    1.500    1.250    3.000    3.500    4.000 
#    0.000    0.625    0.000    0.000    0.000    0.000 
#    0.000    0.000    0.000    0.000    0.000    0.000 
#
# Total GULP energy -396820.616580 kJ/mol
# GULP energy per Si atom -12400.644268 kJ/mol
# Density = 2.097606 g / cm^3
# Si number density = 21.023914 Si / 1000 Ang^3
#
#
#
# Elastic Constant Matrix: (Units=GPa)
#
#
# Indices 1 2 3 4 5 6 
#
# 1 133.9620 60.5999 44.4933 0.0000 12.9625 0.0000
# 2 60.5999 99.5148 37.9350 0.0000 -5.6845 0.0000
# 3 44.4933 37.9350 102.3444 0.0000 16.3863 0.0000
# 4 0.0000 0.0000 0.0000 29.4755 0.0000 -5.8991
# 5 12.9625 -5.6845 16.3863 0.0000 34.6837 0.0000
# 6 0.0000 0.0000 0.0000 -5.8991 0.0000 39.5949
#
#
#
# Elastic Compliance Matrix: (Units=1/GPa)
#
#
# Indices 1 2 3 4 5 6 
#
# 1 0.011469 -0.006537 -0.001845 0.000000 -0.004486 0.000000
# 2 -0.006537 0.016050 -0.004240 0.000000 0.007077 0.000000
# 3 -0.001845 -0.004240 0.013139 0.000000 -0.006213 0.000000
# 4 0.000000 0.000000 0.000000 0.034969 0.000000 0.005210
# 5 -0.004486 0.007077 -0.006213 0.000000 0.034604 0.000000
# 6 0.000000 0.000000 0.000000 0.005210 0.000000 0.026032
#
#
# Mechanical properties :
#
#
# Convention : Reuss Voigt Hill
#
# Bulk Modulus (GPa) = 64.87484 69.09750 66.98617
# Shear Modulus (GPa) = 30.00384 33.60368 31.80376
#
# Velocity S-wave (km/s) = 3.78183 4.00228 3.89362
# Velocity P-wave (km/s) = 7.07067 7.36852 7.22113
#
# Compressibility (1/GPa) = 0.01541430
#
# Stress axis : x y z
#
# Youngs Moduli (GPa) = 87.19421 62.30483 76.10704
#
# Poissons Ratio (x) = 0.40728 0.14039
# Poissons Ratio (y) = 0.56998 0.32272
# Poissons Ratio (z) = 0.16084 0.26419
#
# Static dielectric constant tensor:
#      x y z
#    x 3.824970 0.000000 -0.028200 
#    y 0.000000 3.998160 0.000000 
#    z -0.028200 0.000000 4.038030 
# 
# 
# High freq. dielectric constant tensor:
#      x y z
#    x 1.818540 0.000000 0.005630 
#    y 0.000000 1.839030 0.000000 
#    z 0.005630 0.000000 1.824700 
# 
# From -- ./inp_files/47630.got.cif
#   From: 2010.06.25/outbox.cif.g09.slc.cpg/sg11_24_cif.got.tgz:47630.got - 2010.06.27 23:14:04.
