data_PCOD8076160
_publ_section_title
;
Structure prediction by ZEFSAII (Michael W. Deem and Ramdas Pophale) SiO2 
 PCOD8076160
Probable space group: P 21/M
;
_chemical_formula_sum "Si O2"
_cell_formula_units_Z 32
_cell_length_a 17.276923
_cell_length_b 15.781266
_cell_length_c 11.007279
_cell_angle_alpha 90.000000
_cell_angle_beta 147.718685
_cell_angle_gamma 90.000000
_cell_volume 1602.846076
_symmetry_space_group_name_H-M "P 21/M"
_symmetry_group_IT_number 11
_symmetry_cell_setting 'monoclinic'
loop_
_space_group_symop_operation_xyz
x,y,z
-x,1/2+y,-z
-x,-y,-z
x,1/2-y,z
loop_
_atom_site_type_symbol
_atom_site_label
_atom_site_fract_x
_atom_site_fract_y
_atom_site_fract_z
Si Si1 0.067201 0.656809 0.107484
Si Si2 0.214708 0.351324 0.539751
Si Si3 0.464430 0.848564 0.036870
Si Si4 0.217085 0.547959 0.115594
Si Si5 0.808540 0.347848 0.477539
Si Si6 0.441527 0.843870 0.274307
Si Si7 0.983820 0.505407 0.620229
Si Si8 0.243489 0.112240 0.299224
O O1 0.077726 0.750000 0.066780
O O2 0.094562 0.597652 0.028759
O O3 0.188576 0.643213 0.372708
O O4 0.908410 0.644627 0.960233
O O5 0.177714 0.250000 0.499431
O O6 0.107318 0.409078 0.475224
O O7 0.207410 0.385825 0.393597
O O8 0.376877 0.372019 0.803123
O O9 0.462254 0.750000 0.062518
O O10 0.349821 0.874329 0.781842
O O11 0.429674 0.888300 0.124539
O O12 0.354705 0.602952 0.258676
O O13 0.278793 0.479066 0.290563
O O14 0.139089 0.511602 0.892520
O O15 0.847095 0.250000 0.491227
O O16 0.918263 0.415418 0.569816
O O17 0.373432 0.750000 0.185422
O O18 0.612040 0.834143 0.536575
O O19 0.000000 0.500000 0.500000
#
# Coordination Sequence:
#
# PCOD8076160 Si02
#       8
#     4   4   4   4   4   4   4   4
#     4  11  21  36  63  90 115 157 203 246 302 361
#     4  10  21  39  66  92 115 154 207 257 298 353
#     4   8  17  37  62  87 117 157 206 250 296 354
#     4  12  23  38  57  90 129 155 198 254 306 358
#     4  10  21  39  60  86 121 159 198 246 299 362
#     4  10  21  37  60  88 120 162 205 247 302 360
#     4  12  25  39  58  87 123 159 202 246 304 365
#     4  11  20  38  62  88 119 155 203 250 299 353
#
# _framework density 19.964487999999999
#
# number of rings (size 3 to 8) (size 9 to 14) (size 15 to 20)
#    0.000    1.500    2.500    4.500    0.000    1.500 
#    0.000    2.500    0.000    1.500    0.000    0.000 
#    0.000    0.000    0.000    0.000    0.000    0.000 
#
# Total GULP energy -396528.219011 kJ/mol
# GULP energy per Si atom -12391.506844 kJ/mol
# Density = 1.991905 g / cm^3
# Si number density = 19.964488 Si / 1000 Ang^3
#
#
#
# Elastic Constant Matrix: (Units=GPa)
#
#
# Indices 1 2 3 4 5 6 
#
# 1 96.9800 50.8590 36.6672 0.0000 0.6938 0.0000
# 2 50.8590 91.8933 33.7379 0.0000 -8.4255 0.0000
# 3 36.6672 33.7379 106.4917 0.0000 -0.8000 0.0000
# 4 0.0000 0.0000 0.0000 24.5972 0.0000 6.5876
# 5 0.6938 -8.4255 -0.8000 0.0000 24.3949 0.0000
# 6 0.0000 0.0000 0.0000 6.5876 0.0000 21.4362
#
#
#
# Elastic Compliance Matrix: (Units=1/GPa)
#
#
# Indices 1 2 3 4 5 6 
#
# 1 0.015537 -0.007834 -0.002892 0.000000 -0.003243 0.000000
# 2 -0.007834 0.016695 -0.002547 0.000000 0.005905 0.000000
# 3 -0.002892 -0.002547 0.011190 0.000000 -0.000431 0.000000
# 4 0.000000 0.000000 0.000000 0.044301 0.000000 -0.013614
# 5 -0.003243 0.005905 -0.000431 0.000000 0.043110 0.000000
# 6 0.000000 0.000000 0.000000 -0.013614 0.000000 0.050834
#
#
# Mechanical properties :
#
#
# Convention : Reuss Voigt Hill
#
# Bulk Modulus (GPa) = 59.26173 59.76590 59.51381
# Shear Modulus (GPa) = 23.38220 25.69241 24.53730
#
# Velocity S-wave (km/s) = 3.42598 3.59124 3.50958
# Velocity P-wave (km/s) = 6.73779 6.87001 6.80422
#
# Compressibility (1/GPa) = 0.01687430
#
# Stress axis : x y z
#
# Youngs Moduli (GPa) = 64.36429 59.89878 89.36641
#
# Poissons Ratio (x) = 0.46927 0.25844
# Poissons Ratio (y) = 0.50426 0.22764
# Poissons Ratio (z) = 0.18613 0.15258
#
# Static dielectric constant tensor:
#      x y z
#    x 3.450130 0.000000 -0.153000 
#    y 0.000000 3.189810 0.000000 
#    z -0.153000 0.000000 4.291270 
# 
# 
# High freq. dielectric constant tensor:
#      x y z
#    x 1.754930 0.000000 -0.001740 
#    y 0.000000 1.779500 0.000000 
#    z -0.001740 0.000000 1.792660 
# 
# From -- ./inp_files/41741.got.cif
#   From: 2010.06.25/outbox.cif.g09.slc.cpg/sg11_21_cif.got.tgz:41741.got - 2010.06.27 23:14:04.
