data_PCOD8076967
_publ_section_title
;
Structure prediction by ZEFSAII (Michael W. Deem and Ramdas Pophale) SiO2 
 PCOD8076967
Probable space group: P 21/M
;
_chemical_formula_sum "Si O2"
_cell_formula_units_Z 20
_cell_length_a 16.155979
_cell_length_b 9.255289
_cell_length_c 20.451604
_cell_angle_alpha 90.000000
_cell_angle_beta 160.906672
_cell_angle_gamma 90.000000
_cell_volume 1000.326140
_symmetry_space_group_name_H-M "P 21/M"
_symmetry_group_IT_number 11
_symmetry_cell_setting 'monoclinic'
loop_
_space_group_symop_operation_xyz
x,y,z
-x,1/2+y,-z
-x,-y,-z
x,1/2-y,z
loop_
_atom_site_type_symbol
_atom_site_label
_atom_site_fract_x
_atom_site_fract_y
_atom_site_fract_z
Si Si1 0.762472 0.919281 0.508361
Si Si2 0.619733 0.913442 0.694273
Si Si3 0.002803 0.912731 0.100270
Si Si4 0.661799 0.083650 0.068336
Si Si5 0.385323 0.915571 0.113352
O O1 0.744982 0.750000 0.512492
O O2 0.624377 0.955818 0.336810
O O3 0.049738 0.972288 0.715778
O O4 0.635125 0.006907 0.472655
O O5 0.554916 0.750000 0.624489
O O6 0.821615 0.914089 0.902807
O O7 0.739445 0.000095 0.722533
O O8 0.075541 0.750000 0.174569
O O9 0.859042 0.988241 0.052909
O O10 0.654887 0.250000 0.083295
O O11 0.539234 0.057324 0.905510
O O12 0.500000 0.000000 0.000000
O O13 0.303406 0.750000 0.063807
#
# Coordination Sequence:
#
# PCOD8076967 Si02
#       5
#     4   4   4   4   4
#     4   9  18  34  54  75 102 135 169 207 251 298
#     4   9  16  27  47  76 107 138 171 206 246 295
#     4   9  16  27  47  76 107 138 171 206 246 295
#     4  10  22  38  55  76 101 130 167 212 260 306
#     4   9  18  34  54  75 102 135 169 207 251 298
#
# _framework density 19.993479000000001
#
# number of rings (size 3 to 8) (size 9 to 14) (size 15 to 20)
#    0.000    2.800    0.000    1.200    0.000    7.200 
#    0.000    1.000    0.000    0.000    0.000    0.000 
#    0.000    0.000    0.000    0.000    0.000    0.000 
#
# Total GULP energy -248022.946066 kJ/mol
# GULP energy per Si atom -12401.147303 kJ/mol
# Density = 1.994797 g / cm^3
# Si number density = 19.993479 Si / 1000 Ang^3
#
#
#
# Elastic Constant Matrix: (Units=GPa)
#
#
# Indices 1 2 3 4 5 6 
#
# 1 51.3419 33.0781 14.7974 0.0000 25.7105 0.0000
# 2 33.0781 103.4346 30.5562 0.0000 27.2620 0.0000
# 3 14.7974 30.5562 84.7670 0.0000 23.4077 0.0000
# 4 0.0000 0.0000 0.0000 22.8428 0.0000 16.8640
# 5 25.7105 27.2620 23.4077 0.0000 33.5974 0.0000
# 6 0.0000 0.0000 0.0000 16.8640 0.0000 35.0500
#
#
#
# Elastic Compliance Matrix: (Units=1/GPa)
#
#
# Indices 1 2 3 4 5 6 
#
# 1 0.033922 -0.005446 0.002464 0.000000 -0.023256 0.000000
# 2 -0.005446 0.013475 -0.002524 0.000000 -0.005008 0.000000
# 3 0.002464 -0.002524 0.015146 0.000000 -0.010390 0.000000
# 4 0.000000 0.000000 0.000000 0.067894 0.000000 -0.032667
# 5 -0.023256 -0.005008 -0.010390 0.000000 0.058863 0.000000
# 6 0.000000 0.000000 0.000000 -0.032667 0.000000 0.044248
#
#
# Mechanical properties :
#
#
# Convention : Reuss Voigt Hill
#
# Bulk Modulus (GPa) = 19.40614 44.04518 31.72566
# Shear Modulus (GPa) = 19.10304 29.03884 24.07094
#
# Velocity S-wave (km/s) = 3.09441 3.81519 3.47355
# Velocity P-wave (km/s) = 4.74283 6.44090 5.65596
#
# Compressibility (1/GPa) = 0.05153009
#
# Stress axis : x y z
#
# Youngs Moduli (GPa) = 29.47917 74.21042 66.02506
#
# Poissons Ratio (x) = 0.40418 -0.16266
# Poissons Ratio (y) = 0.16056 0.16663
# Poissons Ratio (z) = -0.07263 0.18729
#
# Static dielectric constant tensor:
#      x y z
#    x 3.500420 0.000000 0.000380 
#    y 0.000000 3.711530 0.000000 
#    z 0.000380 0.000000 3.553360 
# 
# 
# High freq. dielectric constant tensor:
#      x y z
#    x 1.771630 0.000000 -0.000640 
#    y 0.000000 1.778470 0.000000 
#    z -0.000640 0.000000 1.772880 
# 
# From -- ./inp_files/20225.got.cif
#   From: 2010.06.25/outbox.cif.g09.slc.cpg/sg11_11_cif.got.tgz:20225.got - 2010.06.27 23:14:04.
