data_PCOD8076695
_publ_section_title
;
Structure prediction by ZEFSAII (Michael W. Deem and Ramdas Pophale) SiO2 
 PCOD8076695
Probable space group: P 21/M
;
_chemical_formula_sum "Si O2"
_cell_formula_units_Z 32
_cell_length_a 7.012309
_cell_length_b 14.630703
_cell_length_c 15.928022
_cell_angle_alpha 90.000000
_cell_angle_beta 90.126516
_cell_angle_gamma 90.000000
_cell_volume 1634.131598
_symmetry_space_group_name_H-M "P 21/M"
_symmetry_group_IT_number 11
_symmetry_cell_setting 'monoclinic'
loop_
_space_group_symop_operation_xyz
x,y,z
-x,1/2+y,-z
-x,-y,-z
x,1/2-y,z
loop_
_atom_site_type_symbol
_atom_site_label
_atom_site_fract_x
_atom_site_fract_y
_atom_site_fract_z
Si Si1 0.009570 0.143433 0.043695
Si Si2 0.477051 0.855463 0.517323
Si Si3 0.672834 0.500725 0.234257
Si Si4 0.015094 0.647100 0.761417
Si Si5 0.292643 0.008559 0.961117
Si Si6 0.103528 0.923644 0.445878
Si Si7 0.318160 0.052231 0.329394
Si Si8 0.741507 0.852688 0.369799
O O1 0.984821 0.250000 0.016554
O O2 0.047614 0.135259 0.142527
O O3 0.821177 0.085415 0.018471
O O4 0.190522 0.098226 0.998350
O O5 0.525323 0.750000 0.528664
O O6 0.252248 0.871408 0.505800
O O7 0.548422 0.907117 0.598761
O O8 0.588774 0.894218 0.435808
O O9 0.805834 0.416059 0.261006
O O10 0.692990 0.525101 0.137568
O O11 0.452647 0.477734 0.252646
O O12 0.741670 0.588213 0.286048
O O13 0.081791 0.750000 0.742640
O O14 0.833449 0.625633 0.703606
O O15 0.500000 0.000000 0.000000
O O16 0.949121 0.851581 0.412881
O O17 0.206302 0.964962 0.364418
O O18 0.000000 0.000000 0.500000
O O19 0.685202 0.750000 0.344706
#
# Coordination Sequence:
#
# PCOD8076695 Si02
#       8
#     4   4   4   4   4   4   4   4
#     4   9  20  40  63  90 125 158 196 246 300 362
#     4  11  24  39  57  85 119 157 203 250 296 356
#     4  11  23  40  62  88 123 157 197 248 302 360
#     4  10  22  39  61  90 122 157 197 245 301 360
#     4  10  21  39  65  93 121 159 201 244 302 368
#     4  12  22  39  60  81 112 160 205 248 301 348
#     4  12  22  37  60  86 120 156 199 248 306 351
#     4  11  23  41  60  84 117 161 205 248 300 356
#
# _framework density 19.582267999999999
#
# number of rings (size 3 to 8) (size 9 to 14) (size 15 to 20)
#    0.000    1.250    3.750    2.625    0.000    2.000 
#    0.000    2.500    0.000    0.000    0.000    0.000 
#    0.000    0.000    0.000    0.000    0.000    0.000 
#
# Total GULP energy -396936.951117 kJ/mol
# GULP energy per Si atom -12404.279722 kJ/mol
# Density = 1.953770 g / cm^3
# Si number density = 19.582268 Si / 1000 Ang^3
#
#
#
# Elastic Constant Matrix: (Units=GPa)
#
#
# Indices 1 2 3 4 5 6 
#
# 1 120.8384 32.9587 35.9994 0.0000 2.3686 0.0000
# 2 32.9587 95.6503 33.2277 0.0000 -2.9243 0.0000
# 3 35.9994 33.2277 68.1207 0.0000 -3.3955 0.0000
# 4 0.0000 0.0000 0.0000 30.5678 0.0000 -0.7690
# 5 2.3686 -2.9243 -3.3955 0.0000 40.8257 0.0000
# 6 0.0000 0.0000 0.0000 -0.7690 0.0000 26.8198
#
#
#
# Elastic Compliance Matrix: (Units=1/GPa)
#
#
# Indices 1 2 3 4 5 6 
#
# 1 0.010168 -0.001988 -0.004458 0.000000 -0.001103 0.000000
# 2 -0.001988 0.012983 -0.005252 0.000000 0.000609 0.000000
# 3 -0.004458 -0.005252 0.019673 0.000000 0.001519 0.000000
# 4 0.000000 0.000000 0.000000 0.032738 0.000000 0.000939
# 5 -0.001103 0.000609 0.001519 0.000000 0.024728 0.000000
# 6 0.000000 0.000000 0.000000 0.000939 0.000000 0.037313
#
#
# Mechanical properties :
#
#
# Convention : Reuss Voigt Hill
#
# Bulk Modulus (GPa) = 51.47474 54.33121 52.90298
# Shear Modulus (GPa) = 29.85519 31.80422 30.82970
#
# Velocity S-wave (km/s) = 3.90885 4.03443 3.97214
# Velocity P-wave (km/s) = 6.83488 7.03615 6.93625
#
# Compressibility (1/GPa) = 0.01942701
#
# Stress axis : x y z
#
# Youngs Moduli (GPa) = 98.35072 77.02452 50.83058
#
# Poissons Ratio (x) = 0.15316 0.22662
# Poissons Ratio (y) = 0.19557 0.26694
# Poissons Ratio (z) = 0.43848 0.40450
#
# Static dielectric constant tensor:
#      x y z
#    x 3.763550 0.000000 -0.075070 
#    y 0.000000 3.568150 0.000000 
#    z -0.075070 0.000000 3.559870 
# 
# 
# High freq. dielectric constant tensor:
#      x y z
#    x 1.775380 0.000000 -0.004230 
#    y 0.000000 1.763470 0.000000 
#    z -0.004230 0.000000 1.760130 
# 
# From -- ./inp_files/57056.got.cif
#   From: 2010.06.25/outbox.cif.g09.slc.cpg/sg11_29_cif.got.tgz:57056.got - 2010.06.27 23:14:04.
