data_PCOD8076821
_publ_section_title
;
Structure prediction by ZEFSAII (Michael W. Deem and Ramdas Pophale) SiO2 
 PCOD8076821
Probable space group: P 21/M
;
_chemical_formula_sum "Si O2"
_cell_formula_units_Z 28
_cell_length_a 27.585359
_cell_length_b 8.998543
_cell_length_c 7.795205
_cell_angle_alpha 90.000000
_cell_angle_beta 45.622235
_cell_angle_gamma 90.000000
_cell_volume 1383.021670
_symmetry_space_group_name_H-M "P 21/M"
_symmetry_group_IT_number 11
_symmetry_cell_setting 'monoclinic'
loop_
_space_group_symop_operation_xyz
x,y,z
-x,1/2+y,-z
-x,-y,-z
x,1/2-y,z
loop_
_atom_site_type_symbol
_atom_site_label
_atom_site_fract_x
_atom_site_fract_y
_atom_site_fract_z
Si Si1 0.711065 0.926533 0.912859
Si Si2 0.850186 0.575851 0.725026
Si Si3 0.844682 0.426764 0.081402
Si Si4 0.072757 0.425917 0.815917
Si Si5 0.713813 0.572543 0.517791
Si Si6 0.434410 0.089057 0.113538
Si Si7 0.433870 0.411948 0.711721
O O1 0.704944 0.750000 0.920444
O O2 0.772869 0.976551 0.879702
O O3 0.725478 0.981631 0.684172
O O4 0.638267 0.986866 0.167185
O O5 0.853431 0.750000 0.760970
O O6 0.895483 0.538713 0.447886
O O7 0.877434 0.482055 0.820260
O O8 0.850354 0.250000 0.081397
O O9 0.882383 0.502206 0.146686
O O10 0.766988 0.482805 0.270763
O O11 0.068216 0.250000 0.858821
O O12 0.000000 0.500000 0.000000
O O13 0.724673 0.750000 0.470899
O O14 0.638013 0.525051 0.641490
O O15 0.444715 0.250000 0.172303
O O16 0.428312 0.103828 0.927175
O O17 0.500000 0.000000 0.000000
O O18 0.500000 0.500000 0.500000
O O19 0.441808 0.250000 0.606392
#
# Coordination Sequence:
#
# PCOD8076821 Si02
#       7
#     4   4   4   4   4   4   4
#     4   8  15  33  59  80 103 146 203 252 296 353
#     4  10  21  40  67  93 119 161 211 253 298 362
#     4  12  25  39  61  96 132 163 201 255 310 366
#     4  11  24  45  72  97 127 166 205 252 306 364
#     4   9  17  36  60  80 108 156 209 255 305 366
#     4   9  19  33  52  76 109 150 197 249 302 361
#     4   9  18  32  50  74 106 145 190 242 295 352
#
# _framework density 20.245525000000001
#
# number of rings (size 3 to 8) (size 9 to 14) (size 15 to 20)
#    0.000    2.286    1.429    3.429    0.000    4.000 
#    0.000    7.143    0.000    0.000    0.000    0.000 
#    0.000    0.000    0.000    0.000    0.000    0.000 
#
# Total GULP energy -346981.560267 kJ/mol
# GULP energy per Si atom -12392.198581 kJ/mol
# Density = 2.019945 g / cm^3
# Si number density = 20.245525 Si / 1000 Ang^3
#
#
#
# Elastic Constant Matrix: (Units=GPa)
#
#
# Indices 1 2 3 4 5 6 
#
# 1 86.7782 51.7416 60.3767 0.0000 -8.2924 0.0000
# 2 51.7416 100.8190 61.9749 0.0000 -4.5495 0.0000
# 3 60.3767 61.9749 132.3565 0.0000 -15.5308 0.0000
# 4 0.0000 0.0000 0.0000 29.0500 0.0000 -5.4862
# 5 -8.2924 -4.5495 -15.5308 0.0000 37.4060 0.0000
# 6 0.0000 0.0000 0.0000 -5.4862 0.0000 30.6373
#
#
#
# Elastic Compliance Matrix: (Units=1/GPa)
#
#
# Indices 1 2 3 4 5 6 
#
# 1 0.019440 -0.006398 -0.005737 0.000000 0.001149 0.000000
# 2 -0.006398 0.016074 -0.004778 0.000000 -0.001447 0.000000
# 3 -0.005737 -0.004778 0.012817 0.000000 0.003468 0.000000
# 4 0.000000 0.000000 0.000000 0.035628 0.000000 0.006380
# 5 0.001149 -0.001447 0.003468 0.000000 0.028253 0.000000
# 6 0.000000 0.000000 0.000000 0.006380 0.000000 0.033782
#
#
# Mechanical properties :
#
#
# Convention : Reuss Voigt Hill
#
# Bulk Modulus (GPa) = 68.94409 74.23779 71.59094
# Shear Modulus (GPa) = 27.07751 29.14268 28.11010
#
# Velocity S-wave (km/s) = 3.66109 3.79814 3.73025
# Velocity P-wave (km/s) = 7.21106 7.48217 7.34786
#
# Compressibility (1/GPa) = 0.01450451
#
# Stress axis : x y z
#
# Youngs Moduli (GPa) = 51.43995 62.21192 78.02442
#
# Poissons Ratio (x) = 0.39806 0.44763
# Poissons Ratio (y) = 0.32913 0.37277
# Poissons Ratio (z) = 0.29512 0.29723
#
# Static dielectric constant tensor:
#      x y z
#    x 3.498330 0.000000 0.152900 
#    y 0.000000 3.402050 0.000000 
#    z 0.152900 0.000000 3.059520 
# 
# 
# High freq. dielectric constant tensor:
#      x y z
#    x 1.793940 0.000000 -0.007980 
#    y 0.000000 1.758260 0.000000 
#    z -0.007980 0.000000 1.800180 
# 
# From -- ./inp_files/29042.got.cif
#   From: 2010.06.25/outbox.cif.g09.slc.cpg/sg11_15_cif.got.tgz:29042.got - 2010.06.27 23:14:04.
