data_PCOD8076360
_publ_section_title
;
Structure prediction by ZEFSAII (Michael W. Deem and Ramdas Pophale) SiO2 
 PCOD8076360
Probable space group: P 21/M
;
_chemical_formula_sum "Si O2"
_cell_formula_units_Z 28
_cell_length_a 15.388640
_cell_length_b 8.735703
_cell_length_c 12.748533
_cell_angle_alpha 90.000000
_cell_angle_beta 123.778720
_cell_angle_gamma 90.000000
_cell_volume 1424.489188
_symmetry_space_group_name_H-M "P 21/M"
_symmetry_group_IT_number 11
_symmetry_cell_setting 'monoclinic'
loop_
_space_group_symop_operation_xyz
x,y,z
-x,1/2+y,-z
-x,-y,-z
x,1/2-y,z
loop_
_atom_site_type_symbol
_atom_site_label
_atom_site_fract_x
_atom_site_fract_y
_atom_site_fract_z
Si Si1 0.971642 0.583876 0.378211
Si Si2 0.646260 0.070982 0.588154
Si Si3 0.951410 0.074192 0.067821
Si Si4 0.206023 0.432093 0.896390
Si Si5 0.433467 0.567511 0.052069
Si Si6 0.529143 0.569272 0.693586
Si Si7 0.120425 0.580772 0.302505
O O1 0.928774 0.750000 0.379534
O O2 0.876699 0.509620 0.247185
O O3 0.000000 0.500000 0.500000
O O4 0.084064 0.597609 0.397338
O O5 0.632031 0.250000 0.600376
O O6 0.572962 0.019793 0.441855
O O7 0.761411 0.025569 0.628211
O O8 0.625164 0.984319 0.684024
O O9 0.922002 0.250000 0.032577
O O10 0.845148 0.984541 0.027656
O O11 0.044492 0.052421 0.212284
O O12 0.000000 0.000000 0.000000
O O13 0.222293 0.250000 0.908773
O O14 0.314905 0.516450 0.952189
O O15 0.442463 0.750000 0.056240
O O16 0.472042 0.508963 0.192442
O O17 0.500000 0.500000 0.000000
O O18 0.536187 0.750000 0.717191
O O19 0.105833 0.750000 0.237875
#
# Coordination Sequence:
#
# PCOD8076360 Si02
#       7
#     4   4   4   4   4   4   4
#     4   9  19  35  57  84 116 153 192 242 296 352
#     4   9  19  37  61  87 118 158 204 253 307 366
#     4  11  22  36  56  85 118 155 193 236 292 356
#     4  10  22  42  62  86 119 155 198 248 296 353
#     4  12  26  44  65  90 121 162 209 258 310 370
#     4  10  21  38  60  88 122 159 201 254 310 366
#     4   9  19  36  55  80 114 149 193 243 291 350
#
# _framework density 19.656168999999998
#
# number of rings (size 3 to 8) (size 9 to 14) (size 15 to 20)
#    0.000    2.000    0.000    4.286    2.000    5.143 
#    0.000    1.429    0.000    0.000    0.000    0.000 
#    0.000    0.000    0.000    0.000    0.000    0.000 
#
# Total GULP energy -346912.273029 kJ/mol
# GULP energy per Si atom -12389.724037 kJ/mol
# Density = 1.961143 g / cm^3
# Si number density = 19.656169 Si / 1000 Ang^3
#
#
#
# Elastic Constant Matrix: (Units=GPa)
#
#
# Indices 1 2 3 4 5 6 
#
# 1 159.5720 54.2914 71.8064 0.0000 1.0052 0.0000
# 2 54.2914 107.5017 46.8597 0.0000 -11.6541 0.0000
# 3 71.8064 46.8597 103.7350 0.0000 -18.7705 0.0000
# 4 0.0000 0.0000 0.0000 34.9637 0.0000 -2.9868
# 5 1.0052 -11.6541 -18.7705 0.0000 31.3163 0.0000
# 6 0.0000 0.0000 0.0000 -2.9868 0.0000 34.9109
#
#
#
# Elastic Compliance Matrix: (Units=1/GPa)
#
#
# Indices 1 2 3 4 5 6 
#
# 1 0.010368 -0.002827 -0.006898 0.000000 -0.005520 0.000000
# 2 -0.002827 0.012403 -0.003134 0.000000 0.002828 0.000000
# 3 -0.006898 -0.003134 0.017564 0.000000 0.009583 0.000000
# 4 0.000000 0.000000 0.000000 0.028812 0.000000 0.002465
# 5 -0.005520 0.002828 0.009583 0.000000 0.038906 0.000000
# 6 0.000000 0.000000 0.000000 0.002465 0.000000 0.028855
#
#
# Mechanical properties :
#
#
# Convention : Reuss Voigt Hill
#
# Bulk Modulus (GPa) = 68.41671 79.63596 74.02634
# Shear Modulus (GPa) = 29.85110 33.42828 31.63969
#
# Velocity S-wave (km/s) = 3.90123 4.12837 4.01641
# Velocity P-wave (km/s) = 7.42799 7.95783 7.69747
#
# Compressibility (1/GPa) = 0.01461631
#
# Stress axis : x y z
#
# Youngs Moduli (GPa) = 96.45416 80.62782 56.93307
#
# Poissons Ratio (x) = 0.22797 0.39273
# Poissons Ratio (y) = 0.27272 0.17841
# Poissons Ratio (z) = 0.66535 0.25266
#
# Static dielectric constant tensor:
#      x y z
#    x 3.599520 0.000000 0.027990 
#    y 0.000000 3.661840 0.000000 
#    z 0.027990 0.000000 3.525840 
# 
# 
# High freq. dielectric constant tensor:
#      x y z
#    x 1.773970 0.000000 -0.001700 
#    y 0.000000 1.768460 0.000000 
#    z -0.001700 0.000000 1.760780 
# 
# From -- ./inp_files/38437.got.cif
#   From: 2010.06.25/outbox.cif.g09.slc.cpg/sg11_20_cif.got.tgz:38437.got - 2010.06.27 23:14:04.
