data_PCOD8076865
_publ_section_title
;
Structure prediction by ZEFSAII (Michael W. Deem and Ramdas Pophale) SiO2 
 PCOD8076865
Probable space group: P 21/M
;
_chemical_formula_sum "Si O2"
_cell_formula_units_Z 18
_cell_length_a 10.995015
_cell_length_b 10.766724
_cell_length_c 14.706803
_cell_angle_alpha 90.000000
_cell_angle_beta 152.756299
_cell_angle_gamma 90.000000
_cell_volume 796.986322
_symmetry_space_group_name_H-M "P 21/M"
_symmetry_group_IT_number 11
_symmetry_cell_setting 'monoclinic'
loop_
_space_group_symop_operation_xyz
x,y,z
-x,1/2+y,-z
-x,-y,-z
x,1/2-y,z
loop_
_atom_site_type_symbol
_atom_site_label
_atom_site_fract_x
_atom_site_fract_y
_atom_site_fract_z
Si Si1 0.958412 0.750000 0.639897
Si Si2 0.623828 0.250000 0.745039
Si Si3 0.859794 0.750000 0.784089
Si Si4 0.800049 0.485782 0.284655
Si Si5 0.765387 0.606637 0.079760
Si Si6 0.828806 0.015273 0.797465
O O1 0.664148 0.750000 0.397562
O O2 0.941807 0.750000 0.735700
O O3 0.130510 0.865509 0.725927
O O4 0.623772 0.127533 0.679421
O O5 0.864410 0.250000 0.975423
O O6 0.693871 0.622433 0.694644
O O7 0.820701 0.598085 0.225390
O O8 0.000000 0.500000 0.500000
O O9 0.501681 0.469177 0.124179
O O10 0.738424 0.750000 0.033402
O O11 0.999497 0.545063 0.177408
O O12 0.000000 0.000000 0.000000
#
# Coordination Sequence:
#
# PCOD8076865 Si02
#       6
#     2   2   2   4   4   4
#     4  12  24  43  64  98 128 173 224 261 339 393
#     4  10  24  39  68  94 136 169 216 273 325 403
#     4  10  22  42  64  90 134 174 218 266 324 392
#     4  11  27  43  66  98 132 174 224 278 334 391
#     4  11  23  45  70  94 133 175 224 276 328 398
#     4  10  21  41  66  97 127 176 214 268 334 386
#
# _framework density 22.585080999999999
#
# number of rings (size 3 to 8) (size 9 to 14) (size 15 to 20)
#    0.000    1.333    4.444    0.000    7.778    0.889 
#    0.000    0.000    0.000    0.000    0.000    0.000 
#    0.000    0.000    0.000    0.000    0.000    0.000 
#
# Total GULP energy -223077.519620 kJ/mol
# GULP energy per Si atom -12393.195534 kJ/mol
# Density = 2.253368 g / cm^3
# Si number density = 22.585081 Si / 1000 Ang^3
#
#
#
# Elastic Constant Matrix: (Units=GPa)
#
#
# Indices 1 2 3 4 5 6 
#
# 1 43.5536 4.3997 1.1562 0.0000 -8.6555 0.0000
# 2 4.3997 141.9563 -17.5616 0.0000 -5.1237 0.0000
# 3 1.1562 -17.5616 86.1121 0.0000 -18.9505 0.0000
# 4 0.0000 0.0000 0.0000 18.3969 0.0000 0.0462
# 5 -8.6555 -5.1237 -18.9505 0.0000 40.9605 0.0000
# 6 0.0000 0.0000 0.0000 0.0462 0.0000 33.1131
#
#
#
# Elastic Compliance Matrix: (Units=1/GPa)
#
#
# Indices 1 2 3 4 5 6 
#
# 1 0.024055 -0.000456 0.000768 0.000000 0.005382 0.000000
# 2 -0.000456 0.007352 0.001878 0.000000 0.001692 0.000000
# 3 0.000768 0.001878 0.013441 0.000000 0.006616 0.000000
# 4 0.000000 0.000000 0.000000 0.054357 0.000000 -0.000076
# 5 0.005382 0.001692 0.006616 0.000000 0.028824 0.000000
# 6 0.000000 0.000000 0.000000 -0.000076 0.000000 0.030200
#
#
# Mechanical properties :
#
#
# Convention : Reuss Voigt Hill
#
# Bulk Modulus (GPa) = 20.31346 27.51229 23.91288
# Shear Modulus (GPa) = 29.36706 37.40262 33.38484
#
# Velocity S-wave (km/s) = 3.60986 4.07391 3.84888
# Velocity P-wave (km/s) = 5.13697 5.85978 5.51024
#
# Compressibility (1/GPa) = 0.04922844
#
# Stress axis : x y z
#
# Youngs Moduli (GPa) = 41.57066 136.01850 74.39717
#
# Poissons Ratio (x) = 0.06206 -0.05716
# Poissons Ratio (y) = 0.01897 -0.13971
# Poissons Ratio (z) = -0.03194 -0.25542
#
# Static dielectric constant tensor:
#      x y z
#    x 4.188210 0.000000 -0.021290 
#    y 0.000000 3.931980 0.000000 
#    z -0.021290 0.000000 3.850530 
# 
# 
# High freq. dielectric constant tensor:
#      x y z
#    x 1.886570 0.000000 -0.012800 
#    y 0.000000 1.913210 0.000000 
#    z -0.012800 0.000000 1.880640 
# 
# From -- ./inp_files/49720.got.cif
#   From: 2010.06.25/outbox.cif.g09.slc.cpg/sg11_25_cif.got.tgz:49720.got - 2010.06.27 23:14:04.
