data_PCOD8076445
_publ_section_title
;
Structure prediction by ZEFSAII (Michael W. Deem and Ramdas Pophale) SiO2 
 PCOD8076445
Probable space group: P 21/M
;
_chemical_formula_sum "Si O2"
_cell_formula_units_Z 24
_cell_length_a 22.864498
_cell_length_b 8.858126
_cell_length_c 18.951554
_cell_angle_alpha 90.000000
_cell_angle_beta 162.775572
_cell_angle_gamma 90.000000
_cell_volume 1136.604069
_symmetry_space_group_name_H-M "P 21/M"
_symmetry_group_IT_number 11
_symmetry_cell_setting 'monoclinic'
loop_
_space_group_symop_operation_xyz
x,y,z
-x,1/2+y,-z
-x,-y,-z
x,1/2-y,z
loop_
_atom_site_type_symbol
_atom_site_label
_atom_site_fract_x
_atom_site_fract_y
_atom_site_fract_z
Si Si1 0.377334 0.082520 0.036238
Si Si2 0.187904 0.073087 0.680745
Si Si3 0.931579 0.428624 0.848697
Si Si4 0.113111 0.926338 0.924676
Si Si5 0.056995 0.919631 0.400641
Si Si6 0.463773 0.424120 0.653917
O O1 0.465456 0.250000 0.149740
O O2 0.508973 0.964787 0.231830
O O3 0.373705 0.043552 0.948030
O O4 0.153935 0.078498 0.805522
O O5 0.149527 0.250000 0.626337
O O6 0.000000 0.000000 0.500000
O O7 0.218027 0.996377 0.638661
O O8 0.948407 0.250000 0.872429
O O9 0.706094 0.474689 0.575099
O O10 0.000000 0.500000 0.000000
O O11 0.078357 0.488970 0.957771
O O12 0.074366 0.750000 0.890140
O O13 0.336334 0.960283 0.158059
O O14 0.954708 0.987844 0.685557
O O15 0.127691 0.750000 0.465147
O O16 0.403168 0.250000 0.578738
#
# Coordination Sequence:
#
# PCOD8076445 Si02
#       6
#     4   4   4   4   4   4
#     4   8  15  27  45  73 110 151 194 238 284 336
#     4   9  15  23  39  68 107 149 194 242 287 335
#     4  12  26  44  66  90 119 152 190 238 291 352
#     4  10  21  39  63  90 121 156 196 241 290 347
#     4   9  16  27  46  75 111 151 195 239 286 340
#     4  10  21  38  62  90 120 155 195 240 291 347
#
# _framework density 21.115532000000002
#
# number of rings (size 3 to 8) (size 9 to 14) (size 15 to 20)
#    0.000    2.333    0.000    4.500    0.000    7.333 
#    0.000    0.000    0.000    1.000    0.000    0.000 
#    0.000    0.000    0.000    0.000    0.000    0.000 
#
# Total GULP energy -297516.225993 kJ/mol
# GULP energy per Si atom -12396.509416 kJ/mol
# Density = 2.106747 g / cm^3
# Si number density = 21.115532 Si / 1000 Ang^3
#
#
#
# Elastic Constant Matrix: (Units=GPa)
#
#
# Indices 1 2 3 4 5 6 
#
# 1 6033.5128 2316.7177 -910.5283 0.0000-1719.6812 0.0000
# 2 2316.7177 1028.3225 -303.3230 0.0000 -666.6889 0.0000
# 3 -910.5283 -303.3230 265.1246 0.0000 244.9734 0.0000
# 4 0.0000 0.0000 0.0000 35.3971 0.0000 -12.4144
# 5 -1719.6812 -666.6889 244.9734 0.0000 522.1204 0.0000
# 6 0.0000 0.0000 0.0000 -12.4144 0.0000 31.1211
#
#
#
# Elastic Compliance Matrix: (Units=1/GPa)
#
#
# Indices 1 2 3 4 5 6 
#
# 1 0.004857 -0.003508 0.003574 0.000000 0.009841 0.000000
# 2 -0.003508 0.008201 -0.002939 0.000000 0.000298 0.000000
# 3 0.003574 -0.002939 0.009311 0.000000 0.003650 0.000000
# 4 0.000000 0.000000 0.000000 0.032846 0.000000 0.013103
# 5 0.009841 0.000298 0.003650 0.000000 0.032995 0.000000
# 6 0.000000 0.000000 0.000000 0.013103 0.000000 0.037359
#
#
# Mechanical properties :
#
#
# Convention : Reuss Voigt Hill
#
# Bulk Modulus (GPa) = 60.15481 1059.18808 559.67144
# Shear Modulus (GPa) = 36.53487 532.66729 284.60108
#
# Velocity S-wave (km/s) = 4.16412 15.90003 11.62219
# Velocity P-wave (km/s) = 7.18820 28.97906 21.11227
#
# Compressibility (1/GPa) = 0.01662377
#
# Stress axis : x y z
#
# Youngs Moduli (GPa) = 205.89832 121.93814 107.39931
#
# Poissons Ratio (x) = 0.42770 -0.38385
# Poissons Ratio (y) = 0.72220 0.31564
# Poissons Ratio (z) = -0.73588 0.35837
#
# Static dielectric constant tensor:
#      x y z
#    x 3.819140 0.000000 -0.379020 
#    y 0.000000 3.978050 0.000000 
#    z -0.379020 0.000000 3.851710 
# 
# 
# High freq. dielectric constant tensor:
#      x y z
#    x 1.819540 0.000000 -0.018100 
#    y 0.000000 1.836660 0.000000 
#    z -0.018100 0.000000 1.821050 
# 
# From -- ./inp_files/61889.got.cif
#   From: 2010.06.25/outbox.cif.g09.slc.cpg/sg11_31_cif.got.tgz:61889.got - 2010.06.27 23:14:04.
