data_PCOD8076269
_publ_section_title
;
Structure prediction by ZEFSAII (Michael W. Deem and Ramdas Pophale) SiO2 
 PCOD8076269
Probable space group: P 21/M
;
_chemical_formula_sum "Si O2"
_cell_formula_units_Z 32
_cell_length_a 20.618138
_cell_length_b 13.289504
_cell_length_c 17.490160
_cell_angle_alpha 90.000000
_cell_angle_beta 160.703688
_cell_angle_gamma 90.000000
_cell_volume 1583.662157
_symmetry_space_group_name_H-M "P 21/M"
_symmetry_group_IT_number 11
_symmetry_cell_setting 'monoclinic'
loop_
_space_group_symop_operation_xyz
x,y,z
-x,1/2+y,-z
-x,-y,-z
x,1/2-y,z
loop_
_atom_site_type_symbol
_atom_site_label
_atom_site_fract_x
_atom_site_fract_y
_atom_site_fract_z
Si Si1 0.044216 0.868874 0.926763
Si Si2 0.474779 0.631773 0.362701
Si Si3 0.316648 0.036688 0.545272
Si Si4 0.103649 0.134521 0.764944
Si Si5 0.420100 0.006767 0.029485
Si Si6 0.046406 0.866443 0.236336
Si Si7 0.144721 0.368370 0.129284
Si Si8 0.693526 0.367697 0.227973
O O1 0.033816 0.750000 0.916924
O O2 0.890971 0.904229 0.691091
O O3 0.984117 0.911960 0.943440
O O4 0.262218 0.906561 0.151370
O O5 0.478564 0.750000 0.346242
O O6 0.533622 0.570240 0.353301
O O7 0.626091 0.608463 0.600085
O O8 0.417825 0.052859 0.739987
O O9 0.260366 0.918556 0.476002
O O10 0.164621 0.250000 0.818303
O O11 0.079823 0.112819 0.828375
O O12 0.900025 0.109776 0.497040
O O13 0.270069 0.061365 0.919132
O O14 0.518022 0.090486 0.084738
O O15 0.306734 0.923426 0.853851
O O16 0.093514 0.750000 0.278734
O O17 0.924334 0.914350 0.028889
O O18 0.109998 0.250000 0.084807
O O19 0.657873 0.250000 0.175418
#
# Coordination Sequence:
#
# PCOD8076269 Si02
#       8
#     4   4   4   4   4   4   4   4
#     4   9  19  37  59  82 116 157 197 245 295 339
#     4   9  19  36  57  82 114 155 200 246 293 340
#     4  11  22  35  59  85 120 152 193 236 292 347
#     4  10  21  40  63  86 117 153 192 237 292 346
#     4  11  23  38  64  90 119 153 189 235 288 354
#     4  10  21  38  58  82 119 158 196 246 289 338
#     4   8  16  35  56  79 112 153 201 247 291 335
#     4  10  22  42  64  89 118 149 188 236 288 347
#
# _framework density 20.206329
#
# number of rings (size 3 to 8) (size 9 to 14) (size 15 to 20)
#    0.000    2.250    1.250    1.875    1.750    3.500 
#    2.250    1.250    0.000    0.000    0.000    0.000 
#    0.000    0.000    0.000    0.000    0.000    0.000 
#
# Total GULP energy -396808.355510 kJ/mol
# GULP energy per Si atom -12400.261110 kJ/mol
# Density = 2.016034 g / cm^3
# Si number density = 20.206329 Si / 1000 Ang^3
#
#
#
# Elastic Constant Matrix: (Units=GPa)
#
#
# Indices 1 2 3 4 5 6 
#
# 1 116.3761 49.9156 71.6002 0.0000 -6.7053 0.0000
# 2 49.9156 53.1239 34.2200 0.0000 -0.4481 0.0000
# 3 71.6002 34.2200 113.0165 0.0000 4.4895 0.0000
# 4 0.0000 0.0000 0.0000 33.2429 0.0000 2.5384
# 5 -6.7053 -0.4481 4.4895 0.0000 42.0121 0.0000
# 6 0.0000 0.0000 0.0000 2.5384 0.0000 32.1219
#
#
#
# Elastic Compliance Matrix: (Units=1/GPa)
#
#
# Indices 1 2 3 4 5 6 
#
# 1 0.019724 -0.012857 -0.008760 0.000000 0.003947 0.000000
# 2 -0.012857 0.031809 -0.001424 0.000000 -0.001561 0.000000
# 3 -0.008760 -0.001424 0.014949 0.000000 -0.003011 0.000000
# 4 0.000000 0.000000 0.000000 0.030264 0.000000 -0.002392
# 5 0.003947 -0.001561 -0.003011 0.000000 0.024738 0.000000
# 6 0.000000 0.000000 0.000000 -0.002392 0.000000 0.031320
#
#
# Mechanical properties :
#
#
# Convention : Reuss Voigt Hill
#
# Bulk Modulus (GPa) = 49.01972 65.99868 57.50920
# Shear Modulus (GPa) = 24.30891 29.92742 27.11816
#
# Velocity S-wave (km/s) = 3.47224 3.85267 3.66739
# Velocity P-wave (km/s) = 6.35512 7.24735 6.81585
#
# Compressibility (1/GPa) = 0.02039995
#
# Stress axis : x y z
#
# Youngs Moduli (GPa) = 50.69845 31.43809 66.89523
#
# Poissons Ratio (x) = 0.40420 0.58600
# Poissons Ratio (y) = 0.65184 0.09524
# Poissons Ratio (z) = 0.44412 0.04476
#
# Static dielectric constant tensor:
#      x y z
#    x 3.732530 0.000000 -0.131370 
#    y 0.000000 3.671600 0.000000 
#    z -0.131370 0.000000 3.772830 
# 
# 
# High freq. dielectric constant tensor:
#      x y z
#    x 1.783310 0.000000 -0.006250 
#    y 0.000000 1.796190 0.000000 
#    z -0.006250 0.000000 1.793350 
# 
# From -- ./inp_files/61630.got.cif
#   From: 2010.06.25/outbox.cif.g09.slc.cpg/sg11_31_cif.got.tgz:61630.got - 2010.06.27 23:14:04.
