data_PCOD8076740
_publ_section_title
;
Structure prediction by ZEFSAII (Michael W. Deem and Ramdas Pophale) SiO2 
 PCOD8076740
Probable space group: P 21/M
;
_chemical_formula_sum "Si O2"
_cell_formula_units_Z 28
_cell_length_a 13.145466
_cell_length_b 13.352099
_cell_length_c 11.789514
_cell_angle_alpha 90.000000
_cell_angle_beta 138.956437
_cell_angle_gamma 90.000000
_cell_volume 1358.763624
_symmetry_space_group_name_H-M "P 21/M"
_symmetry_group_IT_number 11
_symmetry_cell_setting 'monoclinic'
loop_
_space_group_symop_operation_xyz
x,y,z
-x,1/2+y,-z
-x,-y,-z
x,1/2-y,z
loop_
_atom_site_type_symbol
_atom_site_label
_atom_site_fract_x
_atom_site_fract_y
_atom_site_fract_z
Si Si1 0.770292 0.637641 0.548196
Si Si2 0.972430 0.497587 0.609454
Si Si3 0.747840 0.364287 0.567865
Si Si4 0.456578 0.367422 0.841134
Si Si5 0.311699 0.038758 0.932256
Si Si6 0.823559 0.506493 0.812173
Si Si7 0.607944 0.636084 0.781709
O O1 0.784314 0.750000 0.599614
O O2 0.919144 0.609729 0.596728
O O3 0.612573 0.619281 0.343633
O O4 0.777845 0.575705 0.668574
O O5 0.837733 0.423931 0.543465
O O6 0.000000 0.500000 0.500000
O O7 0.130006 0.469452 0.805719
O O8 0.796611 0.250000 0.593603
O O9 0.786809 0.396400 0.730724
O O10 0.565784 0.381667 0.403399
O O11 0.483379 0.250000 0.891147
O O12 0.335638 0.418855 0.825991
O O13 0.616816 0.427849 0.988585
O O14 0.386856 0.120413 0.078926
O O15 0.717871 0.548528 0.824157
O O16 0.000000 0.500000 0.000000
O O17 0.662281 0.750000 0.797803
#
# Coordination Sequence:
#
# PCOD8076740 Si02
#       7
#     4   4   4   4   4   4   4
#     4  10  21  40  62  89 124 163 207 256 316 380
#     4  11  22  38  59  89 127 167 208 257 315 367
#     4  10  24  42  63  91 127 167 214 260 315 381
#     4  10  22  39  61  88 120 163 209 259 318 375
#     4  11  22  38  62  88 127 161 207 262 308 375
#     4  11  23  41  66  94 127 164 208 264 318 372
#     4  11  23  41  66  96 126 168 211 258 315 373
#
# _framework density 20.606968999999999
#
# number of rings (size 3 to 8) (size 9 to 14) (size 15 to 20)
#    0.000    1.429    1.429    4.714    2.000    4.571 
#    0.000    2.143    0.000    0.000    0.000    0.000 
#    0.000    0.000    0.000    0.000    0.000    0.000 
#
# Total GULP energy -347013.183970 kJ/mol
# GULP energy per Si atom -12393.327999 kJ/mol
# Density = 2.056007 g / cm^3
# Si number density = 20.606969 Si / 1000 Ang^3
#
#
#
# Elastic Constant Matrix: (Units=GPa)
#
#
# Indices 1 2 3 4 5 6 
#
# 1 81.4788 34.9237 22.5917 0.0000 8.8606 0.0000
# 2 34.9237 112.4860 46.1976 0.0000 8.9014 0.0000
# 3 22.5917 46.1976 112.4451 0.0000 6.8875 0.0000
# 4 0.0000 0.0000 0.0000 23.5404 0.0000 -2.3071
# 5 8.8606 8.9014 6.8875 0.0000 36.7151 0.0000
# 6 0.0000 0.0000 0.0000 -2.3071 0.0000 24.5302
#
#
#
# Elastic Compliance Matrix: (Units=1/GPa)
#
#
# Indices 1 2 3 4 5 6 
#
# 1 0.014500 -0.003824 -0.001198 0.000000 -0.002347 0.000000
# 2 -0.003824 0.011820 -0.004015 0.000000 -0.001190 0.000000
# 3 -0.001198 -0.004015 0.010831 0.000000 -0.000769 0.000000
# 4 0.000000 0.000000 0.000000 0.042875 0.000000 0.004032
# 5 -0.002347 -0.001190 -0.000769 0.000000 0.028236 0.000000
# 6 0.000000 0.000000 0.000000 0.004032 0.000000 0.041145
#
#
# Mechanical properties :
#
#
# Convention : Reuss Voigt Hill
#
# Bulk Modulus (GPa) = 52.42208 57.09287 54.75747
# Shear Modulus (GPa) = 28.76194 30.47028 29.61611
#
# Velocity S-wave (km/s) = 3.74001 3.84948 3.79514
# Velocity P-wave (km/s) = 6.64413 6.89375 6.77009
#
# Compressibility (1/GPa) = 0.01907593
#
# Stress axis : x y z
#
# Youngs Moduli (GPa) = 68.96722 84.59979 92.32977
#
# Poissons Ratio (x) = 0.32349 0.11065
# Poissons Ratio (y) = 0.26372 0.37072
# Poissons Ratio (z) = 0.08265 0.33969
#
# Static dielectric constant tensor:
#      x y z
#    x 3.821650 0.000000 -0.071450 
#    y 0.000000 4.213960 0.000000 
#    z -0.071450 0.000000 3.896340 
# 
# 
# High freq. dielectric constant tensor:
#      x y z
#    x 1.801120 0.000000 -0.005110 
#    y 0.000000 1.809410 0.000000 
#    z -0.005110 0.000000 1.820990 
# 
# From -- ./inp_files/39466.got.cif
#   From: 2010.06.25/outbox.cif.g09.slc.cpg/sg11_20_cif.got.tgz:39466.got - 2010.06.27 23:14:04.
