data_PCOD8076207
_publ_section_title
;
Structure prediction by ZEFSAII (Michael W. Deem and Ramdas Pophale) SiO2 
 PCOD8076207
Probable space group: P 21/M
;
_chemical_formula_sum "Si O2"
_cell_formula_units_Z 28
_cell_length_a 7.452647
_cell_length_b 14.402822
_cell_length_c 12.328948
_cell_angle_alpha 90.000000
_cell_angle_beta 105.612085
_cell_angle_gamma 90.000000
_cell_volume 1274.553807
_symmetry_space_group_name_H-M "P 21/M"
_symmetry_group_IT_number 11
_symmetry_cell_setting 'monoclinic'
loop_
_space_group_symop_operation_xyz
x,y,z
-x,1/2+y,-z
-x,-y,-z
x,1/2-y,z
loop_
_atom_site_type_symbol
_atom_site_label
_atom_site_fract_x
_atom_site_fract_y
_atom_site_fract_z
Si Si1 0.081817 0.358774 0.317407
Si Si2 0.103016 0.141644 0.075615
Si Si3 0.738423 0.149040 0.918856
Si Si4 0.281092 0.541716 0.681831
Si Si5 0.507914 0.854265 0.543771
Si Si6 0.539795 0.642866 0.302842
Si Si7 0.507912 0.092965 0.068845
O O1 0.026473 0.250000 0.314607
O O2 0.929471 0.421852 0.353349
O O3 0.102652 0.396207 0.197959
O O4 0.274273 0.377773 0.410013
O O5 0.057616 0.250000 0.073841
O O6 0.297719 0.126015 0.049588
O O7 0.932450 0.094990 0.977931
O O8 0.784981 0.250000 0.878638
O O9 0.617274 0.100242 0.804702
O O10 0.621272 0.163078 0.010966
O O11 0.382353 0.573877 0.588498
O O12 0.286795 0.428566 0.683945
O O13 0.388403 0.586635 0.800385
O O14 0.470478 0.750000 0.581771
O O15 0.454524 0.861605 0.408880
O O16 0.599520 0.750000 0.283766
O O17 0.500000 0.000000 0.000000
#
# Coordination Sequence:
#
# PCOD8076207 Si02
#       7
#     4   4   4   4   4   4   4
#     4  10  21  37  63 100 128 154 204 267 322 370
#     4  10  21  38  62  92 127 163 201 254 317 375
#     4  10  21  40  62  88 125 166 206 253 309 374
#     4  12  22  39  66  97 124 165 211 263 315 370
#     4  10  22  42  67  93 126 164 208 264 318 372
#     4  10  23  44  63  86 128 176 215 254 308 375
#     4  12  23  37  58  95 124 160 202 255 312 372
#
# _framework density 21.968471000000001
#
# number of rings (size 3 to 8) (size 9 to 14) (size 15 to 20)
#    0.000    1.429    4.286    1.286    0.000    2.286 
#    2.571    1.429    0.000    7.714    0.000    0.000 
#    0.000    0.000    0.000    0.000    0.000    0.000 
#
# Total GULP energy -347105.080167 kJ/mol
# GULP energy per Si atom -12396.610006 kJ/mol
# Density = 2.191847 g / cm^3
# Si number density = 21.968471 Si / 1000 Ang^3
#
#
#
# Elastic Constant Matrix: (Units=GPa)
#
#
# Indices 1 2 3 4 5 6 
#
# 1 133.1389 28.6361 37.0555 0.0000 -0.4579 0.0000
# 2 28.6361 73.2788 15.9671 0.0000 1.8873 0.0000
# 3 37.0555 15.9671 112.5183 0.0000 -7.3609 0.0000
# 4 0.0000 0.0000 0.0000 22.2577 0.0000 -1.0649
# 5 -0.4579 1.8873 -7.3609 0.0000 15.6115 0.0000
# 6 0.0000 0.0000 0.0000 -1.0649 0.0000 28.2759
#
#
#
# Elastic Compliance Matrix: (Units=1/GPa)
#
#
# Indices 1 2 3 4 5 6 
#
# 1 0.008836 -0.002885 -0.002539 0.000000 -0.000589 0.000000
# 2 -0.002885 0.015137 -0.001365 0.000000 -0.002558 0.000000
# 3 -0.002539 -0.001365 0.010239 0.000000 0.004918 0.000000
# 4 0.000000 0.000000 0.000000 0.045009 0.000000 0.001695
# 5 -0.000589 -0.002558 0.004918 0.000000 0.066667 0.000000
# 6 0.000000 0.000000 0.000000 0.001695 0.000000 0.035430
#
#
# Mechanical properties :
#
#
# Convention : Reuss Voigt Hill
#
# Bulk Modulus (GPa) = 48.46359 53.58369 51.02364
# Shear Modulus (GPa) = 24.78015 29.04750 26.91382
#
# Velocity S-wave (km/s) = 3.36220 3.64020 3.50396
# Velocity P-wave (km/s) = 6.09761 6.48939 6.29655
#
# Compressibility (1/GPa) = 0.02063405
#
# Stress axis : x y z
#
# Youngs Moduli (GPa) = 113.17269 66.06264 97.66385
#
# Poissons Ratio (x) = 0.19056 0.24799
# Poissons Ratio (y) = 0.32645 0.13336
# Poissons Ratio (z) = 0.28737 0.09021
#
# Static dielectric constant tensor:
#      x y z
#    x 3.635980 0.000000 0.178100 
#    y 0.000000 3.986340 0.000000 
#    z 0.178100 0.000000 4.109280 
# 
# 
# High freq. dielectric constant tensor:
#      x y z
#    x 1.846830 0.000000 0.005610 
#    y 0.000000 1.863980 0.000000 
#    z 0.005610 0.000000 1.874130 
# 
# From -- ./inp_files/31725.got.cif
#   From: 2010.06.25/outbox.cif.g09.slc.cpg/sg11_16_cif.got.tgz:31725.got - 2010.06.27 23:14:04.
