data_PCOD8076299
_publ_section_title
;
Structure prediction by ZEFSAII (Michael W. Deem and Ramdas Pophale) SiO2 
 PCOD8076299
Probable space group: P 21/M
;
_chemical_formula_sum "Si O2"
_cell_formula_units_Z 28
_cell_length_a 11.727116
_cell_length_b 8.651589
_cell_length_c 15.557723
_cell_angle_alpha 90.000000
_cell_angle_beta 63.878427
_cell_angle_gamma 90.000000
_cell_volume 1417.237588
_symmetry_space_group_name_H-M "P 21/M"
_symmetry_group_IT_number 11
_symmetry_cell_setting 'monoclinic'
loop_
_space_group_symop_operation_xyz
x,y,z
-x,1/2+y,-z
-x,-y,-z
x,1/2-y,z
loop_
_atom_site_type_symbol
_atom_site_label
_atom_site_fract_x
_atom_site_fract_y
_atom_site_fract_z
Si Si1 0.428987 0.067344 0.699188
Si Si2 0.328712 0.431467 0.454867
Si Si3 0.784456 0.069806 0.336813
Si Si4 0.948929 0.072913 0.758277
Si Si5 0.879897 0.072234 0.585561
Si Si6 0.470277 0.432669 0.878261
Si Si7 0.692269 0.067343 0.926921
O O1 0.410134 0.250000 0.701670
O O2 0.466923 0.007416 0.781446
O O3 0.536694 0.018095 0.595284
O O4 0.298139 0.985163 0.716643
O O5 0.353052 0.250000 0.445965
O O6 0.255351 0.475877 0.565613
O O7 0.245309 0.480598 0.400740
O O8 0.765400 0.250000 0.360412
O O9 0.930981 0.036297 0.266453
O O10 0.989304 0.250000 0.761885
O O11 0.892350 0.055215 0.682458
O O12 0.836920 0.018482 0.859305
O O13 0.866124 0.250000 0.561644
O O14 0.000000 0.000000 0.500000
O O15 0.466039 0.250000 0.879856
O O16 0.597742 0.494143 0.883012
O O17 0.346386 0.494596 0.969197
O O18 0.680154 0.250000 0.936556
#
# Coordination Sequence:
#
# PCOD8076299 Si02
#       7
#     4   4   4   4   4   4   4
#     4  11  23  41  62  83 113 152 196 241 290 345
#     4  12  24  39  59  85 117 154 196 240 291 344
#     4  12  25  40  58  82 115 153 197 243 289 344
#     4  10  21  38  59  84 118 157 194 234 288 345
#     4  11  21  35  57  85 118 153 192 235 285 339
#     4   9  19  37  61  89 117 147 183 233 290 343
#     4   9  18  35  61  90 118 148 183 230 286 344
#
# _framework density 19.756743
#
# number of rings (size 3 to 8) (size 9 to 14) (size 15 to 20)
#    0.000    1.429    1.429    4.714    0.000    4.571 
#    0.000    3.571    0.000    0.000    0.000    0.000 
#    0.000    0.000    0.000    0.000    0.000    0.000 
#
# Total GULP energy -347331.012596 kJ/mol
# GULP energy per Si atom -12404.679021 kJ/mol
# Density = 1.971178 g / cm^3
# Si number density = 19.756743 Si / 1000 Ang^3
#
#
#
# Elastic Constant Matrix: (Units=GPa)
#
#
# Indices 1 2 3 4 5 6 
#
# 1 100.0922 25.1225 37.4540 0.0000 -7.0862 0.0000
# 2 25.1225 55.6134 17.4333 0.0000 0.8217 0.0000
# 3 37.4540 17.4333 90.3028 0.0000 -15.1056 0.0000
# 4 0.0000 0.0000 0.0000 30.1484 0.0000 -4.9278
# 5 -7.0862 0.8217 -15.1056 0.0000 22.7294 0.0000
# 6 0.0000 0.0000 0.0000 -4.9278 0.0000 34.3406
#
#
#
# Elastic Compliance Matrix: (Units=1/GPa)
#
#
# Indices 1 2 3 4 5 6 
#
# 1 0.012786 -0.004475 -0.004214 0.000000 0.001348 0.000000
# 2 -0.004475 0.020962 -0.002870 0.000000 -0.004060 0.000000
# 3 -0.004214 -0.002870 0.014821 0.000000 0.008640 0.000000
# 4 0.000000 0.000000 0.000000 0.033966 0.000000 0.004874
# 5 0.001348 -0.004060 0.008640 0.000000 0.050305 0.000000
# 6 0.000000 0.000000 0.000000 0.004874 0.000000 0.029819
#
#
# Mechanical properties :
#
#
# Convention : Reuss Voigt Hill
#
# Bulk Modulus (GPa) = 39.28995 45.11422 42.20208
# Shear Modulus (GPa) = 25.73853 28.51025 27.12439
#
# Velocity S-wave (km/s) = 3.61331 3.80289 3.70931
# Velocity P-wave (km/s) = 6.11048 6.49362 6.30496
#
# Compressibility (1/GPa) = 0.02545180
#
# Stress axis : x y z
#
# Youngs Moduli (GPa) = 78.20933 47.70432 67.47214
#
# Poissons Ratio (x) = 0.21347 0.28432
# Poissons Ratio (y) = 0.34998 0.19365
# Poissons Ratio (z) = 0.32957 0.13691
#
# Static dielectric constant tensor:
#      x y z
#    x 3.796840 0.000000 0.079810 
#    y 0.000000 3.730810 0.000000 
#    z 0.079810 0.000000 3.706440 
# 
# 
# High freq. dielectric constant tensor:
#      x y z
#    x 1.772050 0.000000 -0.007590 
#    y 0.000000 1.769380 0.000000 
#    z -0.007590 0.000000 1.765890 
# 
# From -- ./inp_files/37930.got.cif
#   From: 2010.06.25/outbox.cif.g09.slc.cpg/sg11_19_cif.got.tgz:37930.got - 2010.06.27 23:14:04.
