data_PCOD8076598
_publ_section_title
;
Structure prediction by ZEFSAII (Michael W. Deem and Ramdas Pophale) SiO2 
 PCOD8076598
Probable space group: P 21/M
;
_chemical_formula_sum "Si O2"
_cell_formula_units_Z 24
_cell_length_a 23.447537
_cell_length_b 8.747853
_cell_length_c 11.748315
_cell_angle_alpha 90.000000
_cell_angle_beta 146.394822
_cell_angle_gamma 90.000000
_cell_volume 1333.723734
_symmetry_space_group_name_H-M "P 21/M"
_symmetry_group_IT_number 11
_symmetry_cell_setting 'monoclinic'
loop_
_space_group_symop_operation_xyz
x,y,z
-x,1/2+y,-z
-x,-y,-z
x,1/2-y,z
loop_
_atom_site_type_symbol
_atom_site_label
_atom_site_fract_x
_atom_site_fract_y
_atom_site_fract_z
Si Si1 0.225445 0.428798 0.208609
Si Si2 0.081352 0.921685 0.798841
Si Si3 0.109946 0.569948 0.216259
Si Si4 0.387659 0.569007 0.317149
Si Si5 0.853853 0.923744 0.485891
Si Si6 0.237006 0.575135 0.868116
O O1 0.243167 0.250000 0.254093
O O2 0.201107 0.504032 0.289588
O O3 0.328489 0.502688 0.328103
O O4 0.127728 0.457777 0.964757
O O5 0.112155 0.750000 0.891603
O O6 0.128424 0.949110 0.752522
O O7 0.959536 0.941025 0.591423
O O8 0.101287 0.750000 0.186127
O O9 0.142158 0.530668 0.397873
O O10 0.000000 0.500000 0.000000
O O11 0.500000 0.500000 0.500000
O O12 0.392199 0.750000 0.336364
O O13 0.328996 0.519921 0.103738
O O14 0.833397 0.750000 0.490202
O O15 0.764128 0.976894 0.249898
O O16 0.253140 0.750000 0.859421
#
# Coordination Sequence:
#
# PCOD8076598 Si02
#       6
#     4   4   4   4   4   4
#     4  11  21  34  55  82 110 145 186 227 273 325
#     4   9  18  32  49  72 108 147 183 224 266 316
#     4  12  23  36  53  76 110 151 191 228 267 319
#     4  10  21  39  62  86 111 140 179 230 281 330
#     4  11  21  32  50  76 109 149 187 223 266 321
#     4   9  19  34  51  76 109 143 179 223 274 324
#
# _framework density 17.994731999999999
#
# number of rings (size 3 to 8) (size 9 to 14) (size 15 to 20)
#    0.000    1.667    1.667    5.500    0.000    4.000 
#    0.000    0.000    0.000    1.000    0.000    0.000 
#    0.000    0.000    0.000    0.000    0.000    0.000 
#
# Total GULP energy -297618.031323 kJ/mol
# GULP energy per Si atom -12400.751305 kJ/mol
# Density = 1.795377 g / cm^3
# Si number density = 17.994732 Si / 1000 Ang^3
#
#
#
# Elastic Constant Matrix: (Units=GPa)
#
#
# Indices 1 2 3 4 5 6 
#
# 1 98.0978 52.5548 62.0208 0.0000 -4.3784 0.0000
# 2 52.5548 119.7082 46.5036 0.0000 -1.0104 0.0000
# 3 62.0208 46.5036 89.8545 0.0000 -1.7543 0.0000
# 4 0.0000 0.0000 0.0000 28.3815 0.0000 -2.3562
# 5 -4.3784 -1.0104 -1.7543 0.0000 26.1824 0.0000
# 6 0.0000 0.0000 0.0000 -2.3562 0.0000 31.4638
#
#
#
# Elastic Compliance Matrix: (Units=1/GPa)
#
#
# Indices 1 2 3 4 5 6 
#
# 1 0.019788 -0.004230 -0.011423 0.000000 0.002381 0.000000
# 2 -0.004230 0.011360 -0.002969 0.000000 -0.000468 0.000000
# 3 -0.011423 -0.002969 0.020537 0.000000 -0.000649 0.000000
# 4 0.000000 0.000000 0.000000 0.035455 0.000000 0.002655
# 5 0.002381 -0.000468 -0.000649 0.000000 0.038530 0.000000
# 6 0.000000 0.000000 0.000000 0.002655 0.000000 0.031981
#
#
# Mechanical properties :
#
#
# Convention : Reuss Voigt Hill
#
# Bulk Modulus (GPa) = 69.24039 69.97988 69.61014
# Shear Modulus (GPa) = 25.03639 26.97764 26.00701
#
# Velocity S-wave (km/s) = 3.73408 3.87615 3.80578
# Velocity P-wave (km/s) = 7.55995 7.68155 7.62099
#
# Compressibility (1/GPa) = 0.01444244
#
# Stress axis : x y z
#
# Youngs Moduli (GPa) = 50.53501 88.02792 48.69157
#
# Poissons Ratio (x) = 0.37235 0.55620
# Poissons Ratio (y) = 0.21376 0.14456
# Poissons Ratio (z) = 0.57726 0.26134
#
# Static dielectric constant tensor:
#      x y z
#    x 3.339420 0.000000 -0.045440 
#    y 0.000000 3.395380 0.000000 
#    z -0.045440 0.000000 3.063090 
# 
# 
# High freq. dielectric constant tensor:
#      x y z
#    x 1.688600 0.000000 -0.013900 
#    y 0.000000 1.708640 0.000000 
#    z -0.013900 0.000000 1.670380 
# 
# From -- ./inp_files/44015.got.cif
#   From: 2010.06.25/outbox.cif.g09.slc.cpg/sg11_23_cif.got.tgz:44015.got - 2010.06.27 23:14:04.
