data_PCOD8076944
_publ_section_title
;
Structure prediction by ZEFSAII (Michael W. Deem and Ramdas Pophale) SiO2 
 PCOD8076944
Probable space group: P 21/M
;
_chemical_formula_sum "Si O2"
_cell_formula_units_Z 32
_cell_length_a 23.617985
_cell_length_b 8.821715
_cell_length_c 14.812622
_cell_angle_alpha 90.000000
_cell_angle_beta 150.387084
_cell_angle_gamma 90.000000
_cell_volume 1525.021397
_symmetry_space_group_name_H-M "P 21/M"
_symmetry_group_IT_number 11
_symmetry_cell_setting 'monoclinic'
loop_
_space_group_symop_operation_xyz
x,y,z
-x,1/2+y,-z
-x,-y,-z
x,1/2-y,z
loop_
_atom_site_type_symbol
_atom_site_label
_atom_site_fract_x
_atom_site_fract_y
_atom_site_fract_z
Si Si1 0.240467 0.069511 0.666656
Si Si2 0.367003 0.930704 0.008436
Si Si3 0.382590 0.577621 0.352449
Si Si4 0.005717 0.927330 0.284544
Si Si5 0.280625 0.585074 0.389218
Si Si6 0.246711 0.072662 0.013403
Si Si7 0.046633 0.576472 0.975872
Si Si8 0.378373 0.073159 0.684789
O O1 0.244313 0.250000 0.679217
O O2 0.324233 0.008890 0.702510
O O3 0.282172 0.995543 0.816373
O O4 0.109769 0.018803 0.472659
O O5 0.366559 0.750000 0.006185
O O6 0.319950 0.985607 0.039318
O O7 0.495855 0.994146 0.164986
O O8 0.500000 0.500000 0.500000
O O9 0.377684 0.750000 0.310369
O O10 0.384739 0.569702 0.464601
O O11 0.284464 0.484156 0.164336
O O12 0.034769 0.750000 0.324367
O O13 0.890161 0.960332 0.182081
O O14 0.992690 0.980346 0.163749
O O15 0.274910 0.750000 0.428874
O O16 0.181479 0.566909 0.177381
O O17 0.288399 0.463306 0.479781
O O18 0.271415 0.250000 0.037462
O O19 0.003966 0.750000 0.905655
O O20 0.000000 0.500000 0.000000
O O21 0.389057 0.250000 0.709159
#
# Coordination Sequence:
#
# PCOD8076944 Si02
#       8
#     4   4   4   4   4   4   4   4
#     4  11  24  43  67  94 125 164 210 265 324 384
#     4  11  24  43  67  94 125 164 210 265 324 384
#     4  11  22  38  59  88 124 164 208 254 307 367
#     4  11  24  42  64  92 127 168 214 264 317 377
#     4  10  22  37  57  86 122 161 200 242 299 364
#     4  11  24  42  64  92 127 168 214 264 317 377
#     4  11  22  38  59  88 124 164 208 254 307 367
#     4  10  23  41  63  94 128 163 207 260 317 378
#
# _framework density 20.983312999999999
#
# number of rings (size 3 to 8) (size 9 to 14) (size 15 to 20)
#    0.000    1.250    1.250    4.125    0.000   10.000 
#    0.000    0.000    0.000    0.000    0.000    0.000 
#    0.000    0.000    0.000    0.000    0.000    0.000 
#
# Total GULP energy -396681.771151 kJ/mol
# GULP energy per Si atom -12396.305348 kJ/mol
# Density = 2.093555 g / cm^3
# Si number density = 20.983313 Si / 1000 Ang^3
#
#
#
# Elastic Constant Matrix: (Units=GPa)
#
#
# Indices 1 2 3 4 5 6 
#
# 1 87.1029 33.9771 20.7153 0.0000 2.6793 0.0000
# 2 33.9771 80.3106 25.1561 0.0000 6.8661 0.0000
# 3 20.7153 25.1561 72.3902 0.0000 -5.0924 0.0000
# 4 0.0000 0.0000 0.0000 38.7130 0.0000 -2.9563
# 5 2.6793 6.8661 -5.0924 0.0000 35.1728 0.0000
# 6 0.0000 0.0000 0.0000 -2.9563 0.0000 34.8243
#
#
#
# Elastic Compliance Matrix: (Units=1/GPa)
#
#
# Indices 1 2 3 4 5 6 
#
# 1 0.014059 -0.005215 -0.002237 0.000000 -0.000377 0.000000
# 2 -0.005215 0.016338 -0.004427 0.000000 -0.003433 0.000000
# 3 -0.002237 -0.004427 0.016231 0.000000 0.003385 0.000000
# 4 0.000000 0.000000 0.000000 0.026000 0.000000 0.002207
# 5 -0.000377 -0.003433 0.003385 0.000000 0.029620 0.000000
# 6 0.000000 0.000000 0.000000 0.002207 0.000000 0.028903
#
#
# Mechanical properties :
#
#
# Convention : Reuss Voigt Hill
#
# Bulk Modulus (GPa) = 43.72653 44.38899 44.05776
# Shear Modulus (GPa) = 30.76340 32.40569 31.58454
#
# Velocity S-wave (km/s) = 3.83311 3.93409 3.88393
# Velocity P-wave (km/s) = 6.36194 6.46811 6.41524
#
# Compressibility (1/GPa) = 0.02286941
#
# Stress axis : x y z
#
# Youngs Moduli (GPa) = 71.13120 61.20702 61.61159
#
# Poissons Ratio (x) = 0.31918 0.13785
# Poissons Ratio (y) = 0.37093 0.27274
# Poissons Ratio (z) = 0.15915 0.27095
#
# Static dielectric constant tensor:
#      x y z
#    x 3.766750 0.000000 0.798160 
#    y 0.000000 3.960740 0.000000 
#    z 0.798160 0.000000 -1.231680 
# 
# 
# High freq. dielectric constant tensor:
#      x y z
#    x 1.834660 0.000000 0.008140 
#    y 0.000000 1.824990 0.000000 
#    z 0.008140 0.000000 1.826830 
# 
# From -- ./inp_files/55677.got.cif
#   From: 2010.06.25/outbox.cif.g09.slc.cpg/sg11_28_cif.got.tgz:55677.got - 2010.06.27 23:14:04.
