data_PCOD8076813
_publ_section_title
;
Structure prediction by ZEFSAII (Michael W. Deem and Ramdas Pophale) SiO2 
 PCOD8076813
Probable space group: P 21/M
;
_chemical_formula_sum "Si O2"
_cell_formula_units_Z 32
_cell_length_a 18.111330
_cell_length_b 15.470069
_cell_length_c 11.758697
_cell_angle_alpha 90.000000
_cell_angle_beta 26.608581
_cell_angle_gamma 90.000000
_cell_volume 1475.625211
_symmetry_space_group_name_H-M "P 21/M"
_symmetry_group_IT_number 11
_symmetry_cell_setting 'monoclinic'
loop_
_space_group_symop_operation_xyz
x,y,z
-x,1/2+y,-z
-x,-y,-z
x,1/2-y,z
loop_
_atom_site_type_symbol
_atom_site_label
_atom_site_fract_x
_atom_site_fract_y
_atom_site_fract_z
Si Si1 0.174571 0.482563 0.471760
Si Si2 0.937002 0.066606 0.991485
Si Si3 0.449172 0.938843 0.468059
Si Si4 0.819071 0.653951 0.211216
Si Si5 0.765577 0.651881 0.042229
Si Si6 0.105158 0.349387 0.373118
Si Si7 0.444963 0.060257 0.277563
Si Si8 0.233442 0.849441 0.255488
O O1 0.181585 0.415481 0.357920
O O2 0.342872 0.467468 0.308117
O O3 0.177516 0.583355 0.431128
O O4 0.009762 0.460430 0.769489
O O5 0.022048 0.153499 0.924434
O O6 0.743333 0.083573 0.255612
O O7 0.000000 0.000000 0.000000
O O8 0.565879 0.854874 0.317725
O O9 0.500000 0.000000 0.500000
O O10 0.497491 0.976446 0.277357
O O11 0.766618 0.750000 0.254397
O O12 0.839779 0.607818 0.057237
O O13 0.665211 0.612295 0.483419
O O14 0.823572 0.750000 0.958431
O O15 0.842046 0.611225 0.822655
O O16 0.168154 0.250000 0.307847
O O17 0.905987 0.350811 0.650785
O O18 0.596921 0.119602 0.032943
O O19 0.250526 0.750000 0.279128
#
# Coordination Sequence:
#
# PCOD8076813 Si02
#       8
#     4   4   4   4   4   4   4   4
#     4  11  24  43  69  92 135 174 218 267 331 393
#     4  11  23  42  64  97 126 163 218 265 323 397
#     4  12  23  39  67  95 127 166 211 267 327 383
#     4  10  21  40  66  92 130 172 209 267 328 383
#     4  10  22  41  64  95 133 172 216 267 326 384
#     4  10  24  43  66  97 132 175 223 266 323 390
#     4  11  23  42  65  96 127 169 218 265 330 391
#     4  11  25  42  65  98 131 172 222 270 319 392
#
# _framework density 21.685722999999999
#
# number of rings (size 3 to 8) (size 9 to 14) (size 15 to 20)
#    0.000    1.250    3.750    1.875    5.250    3.000 
#    0.000    1.875    0.000    0.000    0.000    0.000 
#    0.000    0.000    0.000    0.000    0.000    0.000 
#
# Total GULP energy -396502.982441 kJ/mol
# GULP energy per Si atom -12390.718201 kJ/mol
# Density = 2.163637 g / cm^3
# Si number density = 21.685723 Si / 1000 Ang^3
#
#
#
# Elastic Constant Matrix: (Units=GPa)
#
#
# Indices 1 2 3 4 5 6 
#
# 1 135.5816 42.0554 49.6176 0.0000 16.3518 0.0000
# 2 42.0554 84.3702 26.0504 0.0000 16.0273 0.0000
# 3 49.6176 26.0504 100.6774 0.0000 3.1532 0.0000
# 4 0.0000 0.0000 0.0000 27.2823 0.0000 -1.0220
# 5 16.3518 16.0273 3.1532 0.0000 39.8412 0.0000
# 6 0.0000 0.0000 0.0000 -1.0220 0.0000 27.4279
#
#
#
# Elastic Compliance Matrix: (Units=1/GPa)
#
#
# Indices 1 2 3 4 5 6 
#
# 1 0.010215 -0.003351 -0.004089 0.000000 -0.002521 0.000000
# 2 -0.003351 0.015025 -0.002095 0.000000 -0.004503 0.000000
# 3 -0.004089 -0.002095 0.012442 0.000000 0.001536 0.000000
# 4 0.000000 0.000000 0.000000 0.036705 0.000000 0.001368
# 5 -0.002521 -0.004503 0.001536 0.000000 0.027824 0.000000
# 6 0.000000 0.000000 0.000000 0.001368 0.000000 0.036510
#
#
# Mechanical properties :
#
#
# Convention : Reuss Voigt Hill
#
# Bulk Modulus (GPa) = 53.72577 61.78621 57.75599
# Shear Modulus (GPa) = 30.48870 32.43734 31.46302
#
# Velocity S-wave (km/s) = 3.75365 3.87174 3.81315
# Velocity P-wave (km/s) = 6.60416 6.96712 6.78807
#
# Compressibility (1/GPa) = 0.01861304
#
# Stress axis : x y z
#
# Youngs Moduli (GPa) = 97.89298 66.55521 80.37448
#
# Poissons Ratio (x) = 0.22300 0.32861
# Poissons Ratio (y) = 0.32800 0.16842
# Poissons Ratio (z) = 0.40024 0.13946
#
# Static dielectric constant tensor:
#      x y z
#    x 6.120840 0.000000 -0.952700 
#    y 0.000000 5.209020 0.000000 
#    z -0.952700 0.000000 4.623150 
# 
# 
# High freq. dielectric constant tensor:
#      x y z
#    x 1.861440 0.000000 0.001230 
#    y 0.000000 1.844900 0.000000 
#    z 0.001230 0.000000 1.859620 
# 
# From -- ./inp_files/41677.got.cif
#   From: 2010.06.25/outbox.cif.g09.slc.cpg/sg11_21_cif.got.tgz:41677.got - 2010.06.27 23:14:04.
