data_PCOD8076681
_publ_section_title
;
Structure prediction by ZEFSAII (Michael W. Deem and Ramdas Pophale) SiO2 
 PCOD8076681
Probable space group: P 21/M
;
_chemical_formula_sum "Si O2"
_cell_formula_units_Z 32
_cell_length_a 9.607426
_cell_length_b 18.751418
_cell_length_c 15.150777
_cell_angle_alpha 90.000000
_cell_angle_beta 35.489199
_cell_angle_gamma 90.000000
_cell_volume 1584.584141
_symmetry_space_group_name_H-M "P 21/M"
_symmetry_group_IT_number 11
_symmetry_cell_setting 'monoclinic'
loop_
_space_group_symop_operation_xyz
x,y,z
-x,1/2+y,-z
-x,-y,-z
x,1/2-y,z
loop_
_atom_site_type_symbol
_atom_site_label
_atom_site_fract_x
_atom_site_fract_y
_atom_site_fract_z
Si Si1 0.540856 0.945068 0.826457
Si Si2 0.399608 0.922344 0.322865
Si Si3 0.949215 0.450937 0.346321
Si Si4 0.276835 0.168349 0.728756
Si Si5 0.910025 0.332612 0.645038
Si Si6 0.884490 0.087085 0.831444
Si Si7 0.296018 0.830219 0.627201
Si Si8 0.455588 0.331776 0.323165
O O1 0.485058 0.879233 0.791622
O O2 0.807567 0.939788 0.725824
O O3 0.503065 0.018959 0.794570
O O4 0.357316 0.943806 0.001925
O O5 0.268521 0.961027 0.472429
O O6 0.624116 0.875314 0.238763
O O7 0.207694 0.869909 0.378069
O O8 0.905857 0.382704 0.306240
O O9 0.952460 0.521155 0.284646
O O10 0.231876 0.250000 0.780512
O O11 0.458436 0.163725 0.553660
O O12 0.026334 0.133935 0.829295
O O13 0.844593 0.250000 0.675194
O O14 0.805938 0.364931 0.788991
O O15 0.192330 0.347259 0.496867
O O16 0.193491 0.750000 0.672489
O O17 0.353731 0.849618 0.698578
O O18 0.476792 0.250000 0.281980
#
# Coordination Sequence:
#
# PCOD8076681 Si02
#       8
#     4   4   4   4   4   4   4   4
#     4  12  25  41  61  91 131 163 205 250 309 371
#     4  11  23  40  67  94 123 156 210 265 307 353
#     4  11  23  40  65  93 124 160 209 257 309 362
#     4  10  22  41  64  92 122 159 208 256 307 367
#     4  11  21  40  67  91 121 163 208 254 306 363
#     4  12  25  40  62  89 130 169 201 245 306 380
#     4   9  20  39  65  93 121 155 205 264 310 356
#     4  10  21  39  64  93 122 158 210 259 304 362
#
# _framework density 20.194572999999998
#
# number of rings (size 3 to 8) (size 9 to 14) (size 15 to 20)
#    0.000    1.250    3.750    2.250    1.750    3.500 
#    0.000    0.000    0.000    0.000    0.000    0.000 
#    0.000    0.000    0.000    0.000    0.000    0.000 
#
# Total GULP energy -396990.999974 kJ/mol
# GULP energy per Si atom -12405.968749 kJ/mol
# Density = 2.014861 g / cm^3
# Si number density = 20.194573 Si / 1000 Ang^3
#
#
#
# Elastic Constant Matrix: (Units=GPa)
#
#
# Indices 1 2 3 4 5 6 
#
# 1 86.0814 33.6538 4.5392 0.0000 4.3482 0.0000
# 2 33.6538 115.4390 30.3663 0.0000 11.9564 0.0000
# 3 4.5392 30.3663 64.2457 0.0000 13.8668 0.0000
# 4 0.0000 0.0000 0.0000 16.8703 0.0000 5.7650
# 5 4.3482 11.9564 13.8668 0.0000 20.3108 0.0000
# 6 0.0000 0.0000 0.0000 5.7650 0.0000 47.8146
#
#
#
# Elastic Compliance Matrix: (Units=1/GPa)
#
#
# Indices 1 2 3 4 5 6 
#
# 1 0.013197 -0.004044 0.001261 0.000000 -0.001306 0.000000
# 2 -0.004044 0.011299 -0.004464 0.000000 -0.002738 0.000000
# 3 0.001261 -0.004464 0.020029 0.000000 -0.011316 0.000000
# 4 0.000000 0.000000 0.000000 0.061823 0.000000 -0.007454
# 5 -0.001306 -0.002738 -0.011316 0.000000 0.058852 0.000000
# 6 0.000000 0.000000 0.000000 -0.007454 0.000000 0.021813
#
#
# Mechanical properties :
#
#
# Convention : Reuss Voigt Hill
#
# Bulk Modulus (GPa) = 33.29891 44.76497 39.03194
# Shear Modulus (GPa) = 23.63868 30.14627 26.89247
#
# Velocity S-wave (km/s) = 3.42504 3.86786 3.65316
# Velocity P-wave (km/s) = 5.67151 6.49323 6.09623
#
# Compressibility (1/GPa) = 0.03003101
#
# Stress axis : x y z
#
# Youngs Moduli (GPa) = 75.77302 88.50081 49.92858
#
# Poissons Ratio (x) = 0.35788 -0.06294
# Poissons Ratio (y) = 0.30641 0.22288
# Poissons Ratio (z) = -0.09553 0.39507
#
# Static dielectric constant tensor:
#      x y z
#    x 3.780270 0.000000 0.089980 
#    y 0.000000 3.857840 0.000000 
#    z 0.089980 0.000000 3.318660 
# 
# 
# High freq. dielectric constant tensor:
#      x y z
#    x 1.800160 0.000000 0.007750 
#    y 0.000000 1.805120 0.000000 
#    z 0.007750 0.000000 1.759260 
# 
# From -- ./inp_files/48235.got.cif
#   From: 2010.06.25/outbox.cif.g09.slc.cpg/sg11_25_cif.got.tgz:48235.got - 2010.06.27 23:14:04.
