data_PCOD8076712
_publ_section_title
;
Structure prediction by ZEFSAII (Michael W. Deem and Ramdas Pophale) SiO2 
 PCOD8076712
Probable space group: P 21/M
;
_chemical_formula_sum "Si O2"
_cell_formula_units_Z 28
_cell_length_a 9.115967
_cell_length_b 14.565595
_cell_length_c 12.046816
_cell_angle_alpha 90.000000
_cell_angle_beta 124.948459
_cell_angle_gamma 90.000000
_cell_volume 1311.115834
_symmetry_space_group_name_H-M "P 21/M"
_symmetry_group_IT_number 11
_symmetry_cell_setting 'monoclinic'
loop_
_space_group_symop_operation_xyz
x,y,z
-x,1/2+y,-z
-x,-y,-z
x,1/2-y,z
loop_
_atom_site_type_symbol
_atom_site_label
_atom_site_fract_x
_atom_site_fract_y
_atom_site_fract_z
Si Si1 0.030462 0.885055 0.102042
Si Si2 0.996561 0.909719 0.843719
Si Si3 0.808042 0.485752 0.461640
Si Si4 0.283417 0.650269 0.399847
Si Si5 0.681190 0.046609 0.178618
Si Si6 0.687808 0.645624 0.548248
Si Si7 0.338311 0.356086 0.937619
O O1 0.196542 0.840008 0.239916
O O2 0.057520 0.992100 0.133547
O O3 0.047474 0.855181 0.979428
O O4 0.839043 0.851519 0.064521
O O5 0.822932 0.866646 0.709864
O O6 0.161000 0.910613 0.828430
O O7 0.829381 0.422421 0.578958
O O8 0.698310 0.435824 0.317157
O O9 0.734673 0.584921 0.462541
O O10 0.000000 0.500000 0.500000
O O11 0.272561 0.750000 0.452295
O O12 0.487391 0.615845 0.493348
O O13 0.502244 0.103296 0.078864
O O14 0.678820 0.934690 0.165113
O O15 0.691478 0.750000 0.508894
O O16 0.374786 0.250000 0.911299
#
# Coordination Sequence:
#
# PCOD8076712 Si02
#       7
#     4   4   4   4   4   4   4
#     4  10  21  39  70  93 123 171 217 269 320 379
#     4  10  21  42  65  95 127 166 217 266 325 385
#     4  12  23  43  67  92 133 174 215 269 327 390
#     4  11  25  43  66  98 131 175 223 268 327 390
#     4  10  23  41  65  96 130 174 215 261 331 391
#     4  11  25  42  65  99 132 171 220 272 331 389
#     4  10  22  41  63  95 132 169 218 269 321 384
#
# _framework density 21.355854000000001
#
# number of rings (size 3 to 8) (size 9 to 14) (size 15 to 20)
#    0.000    1.429    2.857    1.714    2.000    6.857 
#    0.000    1.429    0.000    0.000    0.000    0.000 
#    0.000    0.000    0.000    0.000    0.000    0.000 
#
# Total GULP energy -346955.350741 kJ/mol
# GULP energy per Si atom -12391.262526 kJ/mol
# Density = 2.130725 g / cm^3
# Si number density = 21.355854 Si / 1000 Ang^3
#
#
#
# Elastic Constant Matrix: (Units=GPa)
#
#
# Indices 1 2 3 4 5 6 
#
# 1 95.1230 50.6162 68.1922 0.0000 9.9782 0.0000
# 2 50.6162 105.8479 13.6245 0.0000 2.6909 0.0000
# 3 68.1922 13.6245 152.3152 0.0000 4.4886 0.0000
# 4 0.0000 0.0000 0.0000 75.7611 0.0000 82.6459
# 5 9.9782 2.6909 4.4886 0.0000 40.6717 0.0000
# 6 0.0000 0.0000 0.0000 82.6459 0.0000 89.2781
#
#
#
# Elastic Compliance Matrix: (Units=1/GPa)
#
#
# Indices 1 2 3 4 5 6 
#
# 1 0.022500 -0.009488 -0.009110 0.000000 -0.003887 0.000000
# 2 -0.009488 0.013570 0.003002 0.000000 0.001099 0.000000
# 3 -0.009110 0.003002 0.010349 0.000000 0.000894 0.000000
# 4 0.000000 0.000000 0.000000 -1.341910 0.000000 1.242223
# 5 -0.003887 0.001099 0.000894 0.000000 0.025369 0.000000
# 6 0.000000 0.000000 0.000000 1.242223 0.000000 -1.138741
#
#
# Mechanical properties :
#
#
# Convention : Reuss Voigt Hill
#
# Bulk Modulus (GPa) = 65.67523 68.68355 67.17939
# Shear Modulus (GPa) = -2.10740 55.86574 26.87917
#
# Velocity S-wave (km/s) = -0.99446 5.12018 3.55157
# Velocity P-wave (km/s) = 5.43148 8.19672 6.95296
#
# Compressibility (1/GPa) = 0.01522644
#
# Stress axis : x y z
#
# Youngs Moduli (GPa) = 44.44434 73.68991 96.62645
#
# Poissons Ratio (x) = 0.69917 0.88028
# Poissons Ratio (y) = 0.42169 -0.29003
# Poissons Ratio (z) = 0.40489 -0.22119
#
# Static dielectric constant tensor:
#      x y z
#    x 3.730140 0.000000 -0.057580 
#    y 0.000000 3.932790 0.000000 
#    z -0.057580 0.000000 5.692290 
# 
# 
# High freq. dielectric constant tensor:
#      x y z
#    x 1.829200 0.000000 0.014570 
#    y 0.000000 1.842320 0.000000 
#    z 0.014570 0.000000 1.848310 
# 
# From -- ./inp_files/31954.got.cif
#   From: 2010.06.25/outbox.cif.g09.slc.cpg/sg11_16_cif.got.tgz:31954.got - 2010.06.27 23:14:04.
