data_PCOD8076242
_publ_section_title
;
Structure prediction by ZEFSAII (Michael W. Deem and Ramdas Pophale) SiO2 
 PCOD8076242
Probable space group: P 21/M
;
_chemical_formula_sum "Si O2"
_cell_formula_units_Z 28
_cell_length_a 27.399046
_cell_length_b 9.335776
_cell_length_c 9.671344
_cell_angle_alpha 90.000000
_cell_angle_beta 37.893516
_cell_angle_gamma 90.000000
_cell_volume 1519.426186
_symmetry_space_group_name_H-M "P 21/M"
_symmetry_group_IT_number 11
_symmetry_cell_setting 'monoclinic'
loop_
_space_group_symop_operation_xyz
x,y,z
-x,1/2+y,-z
-x,-y,-z
x,1/2-y,z
loop_
_atom_site_type_symbol
_atom_site_label
_atom_site_fract_x
_atom_site_fract_y
_atom_site_fract_z
Si Si1 0.980891 0.085702 0.905857
Si Si2 0.473442 0.085141 0.191735
Si Si3 0.268098 0.919622 0.010403
Si Si4 0.560288 0.414192 0.272592
Si Si5 0.845648 0.912778 0.540200
Si Si6 0.299737 0.416138 0.667128
Si Si7 0.835354 0.585533 0.243851
O O1 0.960574 0.250000 0.985579
O O2 0.060076 0.076199 0.634856
O O3 0.902791 0.010282 0.015485
O O4 0.000000 0.000000 0.000000
O O5 0.465149 0.250000 0.167855
O O6 0.540898 0.060149 0.155582
O O7 0.388745 0.029176 0.437261
O O8 0.500000 0.000000 0.000000
O O9 0.259032 0.750000 0.015975
O O10 0.197408 0.978297 0.262184
O O11 0.350285 0.965208 0.899813
O O12 0.262689 0.990003 0.871995
O O13 0.500000 0.500000 0.500000
O O14 0.549015 0.250000 0.339550
O O15 0.816099 0.750000 0.631650
O O16 0.826894 0.958017 0.423676
O O17 0.299679 0.250000 0.712732
O O18 0.248198 0.440876 0.644494
O O19 0.862804 0.750000 0.171448
#
# Coordination Sequence:
#
# PCOD8076242 Si02
#       7
#     4   4   4   4   4   4   4
#     4   9  17  32  55  82 111 143 180 222 270 322
#     4  10  22  38  57  81 110 143 181 225 272 323
#     4  11  23  36  54  82 111 142 184 229 270 317
#     4  10  21  38  57  79 107 143 185 224 268 321
#     4   9  19  35  56  81 109 142 180 219 265 327
#     4  10  21  39  58  78 110 149 182 220 274 330
#     4   9  19  35  57  84 110 141 183 225 271 325
#
# _framework density 18.42801
#
# number of rings (size 3 to 8) (size 9 to 14) (size 15 to 20)
#    0.000    2.286    1.429    1.714    2.000    5.143 
#    0.000    0.714    0.000    0.000    0.000    0.000 
#    0.000    0.000    0.000    0.000    0.000    0.000 
#
# Total GULP energy -347189.223194 kJ/mol
# GULP energy per Si atom -12399.615114 kJ/mol
# Density = 1.838607 g / cm^3
# Si number density = 18.428010 Si / 1000 Ang^3
#
#
#
# Elastic Constant Matrix: (Units=GPa)
#
#
# Indices 1 2 3 4 5 6 
#
# 1 57.9240 24.2121 28.7210 0.0000 2.5848 0.0000
# 2 24.2121 81.2316 55.5037 0.0000 4.1303 0.0000
# 3 28.7210 55.5037 108.9293 0.0000 4.7458 0.0000
# 4 0.0000 0.0000 0.0000 38.8847 0.0000 0.3388
# 5 2.5848 4.1303 4.7458 0.0000 25.0097 0.0000
# 6 0.0000 0.0000 0.0000 0.3388 0.0000 27.9281
#
#
#
# Elastic Compliance Matrix: (Units=1/GPa)
#
#
# Indices 1 2 3 4 5 6 
#
# 1 0.020586 -0.003696 -0.003507 0.000000 -0.000852 0.000000
# 2 -0.003696 0.019591 -0.008958 0.000000 -0.001154 0.000000
# 3 -0.003507 -0.008958 0.014711 0.000000 -0.000950 0.000000
# 4 0.000000 0.000000 0.000000 0.025720 0.000000 -0.000312
# 5 -0.000852 -0.001154 -0.000950 0.000000 0.040443 0.000000
# 6 0.000000 0.000000 0.000000 -0.000312 0.000000 0.035810
#
#
# Mechanical properties :
#
#
# Convention : Reuss Voigt Hill
#
# Bulk Modulus (GPa) = 44.31516 51.66207 47.98862
# Shear Modulus (GPa) = 25.41866 27.67439 26.54652
#
# Velocity S-wave (km/s) = 3.71799 3.87945 3.79958
# Velocity P-wave (km/s) = 6.52159 6.93991 6.73400
#
# Compressibility (1/GPa) = 0.02256564
#
# Stress axis : x y z
#
# Youngs Moduli (GPa) = 48.57651 51.04256 67.97728
#
# Poissons Ratio (x) = 0.18866 0.23843
# Poissons Ratio (y) = 0.17954 0.60893
# Poissons Ratio (z) = 0.17038 0.45723
#
# Static dielectric constant tensor:
#      x y z
#    x 4.006390 0.000000 -0.383450 
#    y 0.000000 3.547280 0.000000 
#    z -0.383450 0.000000 3.505240 
# 
# 
# High freq. dielectric constant tensor:
#      x y z
#    x 1.711370 0.000000 -0.015230 
#    y 0.000000 1.717610 0.000000 
#    z -0.015230 0.000000 1.707620 
# 
# From -- ./inp_files/28397.got.cif
#   From: 2010.06.25/outbox.cif.g09.slc.cpg/sg11_15_cif.got.tgz:28397.got - 2010.06.27 23:14:04.
