data_PCOD8076853
_publ_section_title
;
Structure prediction by ZEFSAII (Michael W. Deem and Ramdas Pophale) SiO2 
 PCOD8076853
Probable space group: P 21/M
;
_chemical_formula_sum "Si O2"
_cell_formula_units_Z 28
_cell_length_a 12.455047
_cell_length_b 8.937263
_cell_length_c 14.423979
_cell_angle_alpha 90.000000
_cell_angle_beta 60.155362
_cell_angle_gamma 90.000000
_cell_volume 1392.654532
_symmetry_space_group_name_H-M "P 21/M"
_symmetry_group_IT_number 11
_symmetry_cell_setting 'monoclinic'
loop_
_space_group_symop_operation_xyz
x,y,z
-x,1/2+y,-z
-x,-y,-z
x,1/2-y,z
loop_
_atom_site_type_symbol
_atom_site_label
_atom_site_fract_x
_atom_site_fract_y
_atom_site_fract_z
Si Si1 0.452787 0.576281 0.286094
Si Si2 0.960676 0.573467 0.111499
Si Si3 0.034792 0.419258 0.578164
Si Si4 0.694523 0.575726 0.294330
Si Si5 0.844513 0.418789 0.818768
Si Si6 0.279965 0.573111 0.530165
Si Si7 0.594646 0.573631 0.888911
O O1 0.431853 0.750000 0.270876
O O2 0.592413 0.546167 0.259602
O O3 0.359199 0.523796 0.406860
O O4 0.427824 0.481039 0.205671
O O5 0.957033 0.750000 0.100745
O O6 0.825221 0.515368 0.199577
O O7 0.060206 0.523865 0.144907
O O8 0.000000 0.500000 0.000000
O O9 0.077764 0.250000 0.539697
O O10 0.143721 0.504165 0.583993
O O11 0.000000 0.500000 0.500000
O O12 0.911404 0.421058 0.691531
O O13 0.702017 0.750000 0.317296
O O14 0.656034 0.487751 0.403918
O O15 0.798186 0.250000 0.860486
O O16 0.730934 0.531890 0.865180
O O17 0.270835 0.750000 0.539930
O O18 0.577811 0.750000 0.899500
O O19 0.500000 0.500000 0.000000
#
# Coordination Sequence:
#
# PCOD8076853 Si02
#       7
#     4   4   4   4   4   4   4
#     4  10  23  42  64  92 129 168 210 260 310 368
#     4  10  22  40  63  93 124 161 206 258 314 370
#     4  11  22  38  61  89 125 166 206 256 310 369
#     4  10  21  41  65  91 126 168 208 253 316 373
#     4  10  22  43  65  89 125 163 204 255 311 365
#     4  11  22  37  60  94 130 166 208 256 310 369
#     4  12  27  45  67  93 123 163 210 259 312 372
#
# _framework density 20.105488999999999
#
# number of rings (size 3 to 8) (size 9 to 14) (size 15 to 20)
#    0.000    1.429    1.429    3.429    2.000    7.429 
#    0.000    0.000    0.000    0.000    0.000    0.000 
#    0.000    0.000    0.000    0.000    0.000    0.000 
#
# Total GULP energy -347342.063845 kJ/mol
# GULP energy per Si atom -12405.073709 kJ/mol
# Density = 2.005973 g / cm^3
# Si number density = 20.105489 Si / 1000 Ang^3
#
#
#
# Elastic Constant Matrix: (Units=GPa)
#
#
# Indices 1 2 3 4 5 6 
#
# 1 110.2803 45.0248 48.4510 0.0000 -10.5687 0.0000
# 2 45.0248 95.4780 58.5785 0.0000 -2.2918 0.0000
# 3 48.4510 58.5785 127.7310 0.0000 -2.3718 0.0000
# 4 0.0000 0.0000 0.0000 37.8630 0.0000 4.3832
# 5 -10.5687 -2.2918 -2.3718 0.0000 31.1603 0.0000
# 6 0.0000 0.0000 0.0000 4.3832 0.0000 28.2157
#
#
#
# Elastic Compliance Matrix: (Units=1/GPa)
#
#
# Indices 1 2 3 4 5 6 
#
# 1 0.012261 -0.004011 -0.002744 0.000000 0.003655 0.000000
# 2 -0.004011 0.015896 -0.005781 0.000000 -0.000631 0.000000
# 3 -0.002744 -0.005781 0.011512 0.000000 -0.000479 0.000000
# 4 0.000000 0.000000 0.000000 0.026895 0.000000 -0.004178
# 5 0.003655 -0.000631 -0.000479 0.000000 0.033249 0.000000
# 6 0.000000 0.000000 0.000000 -0.004178 0.000000 0.036090
#
#
# Mechanical properties :
#
#
# Convention : Reuss Voigt Hill
#
# Bulk Modulus (GPa) = 68.49726 70.84420 69.67073
# Shear Modulus (GPa) = 30.14966 31.54346 30.84656
#
# Velocity S-wave (km/s) = 3.87663 3.96523 3.92118
# Velocity P-wave (km/s) = 7.36075 7.50179 7.43160
#
# Compressibility (1/GPa) = 0.01459912
#
# Stress axis : x y z
#
# Youngs Moduli (GPa) = 81.55945 62.90714 86.86812
#
# Poissons Ratio (x) = 0.25232 0.23832
# Poissons Ratio (y) = 0.32713 0.50214
# Poissons Ratio (z) = 0.22376 0.36364
#
# Static dielectric constant tensor:
#      x y z
#    x 3.828710 0.000000 -0.097520 
#    y 0.000000 3.639300 0.000000 
#    z -0.097520 0.000000 3.706110 
# 
# 
# High freq. dielectric constant tensor:
#      x y z
#    x 1.800030 0.000000 0.001130 
#    y 0.000000 1.780730 0.000000 
#    z 0.001130 0.000000 1.793850 
# 
# From -- ./inp_files/49144.got.cif
#   From: 2010.06.25/outbox.cif.g09.slc.cpg/sg11_25_cif.got.tgz:49144.got - 2010.06.27 23:14:04.
