data_PCOD8076204
_publ_section_title
;
Structure prediction by ZEFSAII (Michael W. Deem and Ramdas Pophale) SiO2 
 PCOD8076204
Probable space group: P 21/M
;
_chemical_formula_sum "Si O2"
_cell_formula_units_Z 32
_cell_length_a 11.165023
_cell_length_b 21.312546
_cell_length_c 17.162471
_cell_angle_alpha 90.000000
_cell_angle_beta 158.053123
_cell_angle_gamma 90.000000
_cell_volume 1526.343302
_symmetry_space_group_name_H-M "P 21/M"
_symmetry_group_IT_number 11
_symmetry_cell_setting 'monoclinic'
loop_
_space_group_symop_operation_xyz
x,y,z
-x,1/2+y,-z
-x,-y,-z
x,1/2-y,z
loop_
_atom_site_type_symbol
_atom_site_label
_atom_site_fract_x
_atom_site_fract_y
_atom_site_fract_z
Si Si1 0.357528 0.429506 0.907683
Si Si2 0.233896 0.579867 0.710754
Si Si3 0.415076 0.954777 0.108442
Si Si4 0.707618 0.976538 0.695283
Si Si5 0.532321 0.919678 0.343470
Si Si6 0.554872 0.320999 0.274572
Si Si7 0.847175 0.321862 0.787977
Si Si8 0.293270 0.867252 0.467919
O O1 0.495291 0.406750 0.907377
O O2 0.975802 0.420289 0.676292
O O3 0.500000 0.500000 0.000000
O O4 0.499491 0.393230 0.067897
O O5 0.323850 0.511416 0.729522
O O6 0.205600 0.630804 0.624596
O O7 0.914461 0.575231 0.569807
O O8 0.406391 0.911702 0.179596
O O9 0.071827 0.987039 0.889209
O O10 0.629738 0.903346 0.660498
O O11 0.500000 0.000000 0.500000
O O12 0.625881 0.015775 0.722826
O O13 0.424933 0.862626 0.333484
O O14 0.615686 0.250000 0.282306
O O15 0.640573 0.322361 0.418319
O O16 0.192090 0.341414 0.032312
O O17 0.776731 0.250000 0.765671
O O18 0.815191 0.330095 0.675047
#
# Coordination Sequence:
#
# PCOD8076204 Si02
#       8
#     4   4   4   4   4   4   4   4
#     4  10  21  37  62  93 132 166 203 258 320 394
#     4  11  21  40  62  90 133 165 207 265 321 381
#     4  11  22  37  60  95 130 167 207 256 327 393
#     4  12  21  35  60  94 128 164 204 256 321 396
#     4  12  23  38  61  93 128 168 207 260 324 379
#     4  11  24  43  68  93 119 169 227 271 312 376
#     4  11  25  45  65  90 127 169 218 270 316 375
#     4  12  22  42  67  95 131 168 214 262 328 387
#
# _framework density 20.965139000000001
#
# number of rings (size 3 to 8) (size 9 to 14) (size 15 to 20)
#    0.000    0.750    2.500    7.875    0.000    0.500 
#    0.000    0.000    0.000    0.750    0.000    0.000 
#    0.000    0.000    0.000    0.000    0.000    0.000 
#
# Total GULP energy -396641.219623 kJ/mol
# GULP energy per Si atom -12395.038113 kJ/mol
# Density = 2.091742 g / cm^3
# Si number density = 20.965139 Si / 1000 Ang^3
#
#
#
# Elastic Constant Matrix: (Units=GPa)
#
#
# Indices 1 2 3 4 5 6 
#
# 1 121.2835 17.8146 37.4879 0.0000 -14.4970 0.0000
# 2 17.8146 62.7879 13.6676 0.0000 4.3560 0.0000
# 3 37.4879 13.6676 101.4137 0.0000 1.4860 0.0000
# 4 0.0000 0.0000 0.0000 20.3301 0.0000 -3.6057
# 5 -14.4970 4.3560 1.4860 0.0000 52.2988 0.0000
# 6 0.0000 0.0000 0.0000 -3.6057 0.0000 22.2666
#
#
#
# Elastic Compliance Matrix: (Units=1/GPa)
#
#
# Indices 1 2 3 4 5 6 
#
# 1 0.010012 -0.002306 -0.003435 0.000000 0.003065 0.000000
# 2 -0.002306 0.017028 -0.001413 0.000000 -0.002017 0.000000
# 3 -0.003435 -0.001413 0.011338 0.000000 -0.001157 0.000000
# 4 0.000000 0.000000 0.000000 0.050643 0.000000 0.008201
# 5 0.003065 -0.002017 -0.001157 0.000000 0.020171 0.000000
# 6 0.000000 0.000000 0.000000 0.008201 0.000000 0.046238
#
#
# Mechanical properties :
#
#
# Convention : Reuss Voigt Hill
#
# Bulk Modulus (GPa) = 41.54463 47.04727 44.29595
# Shear Modulus (GPa) = 28.12758 33.41342 30.77050
#
# Velocity S-wave (km/s) = 3.66681 3.99652 3.83521
# Velocity P-wave (km/s) = 6.14706 6.61708 6.38640
#
# Compressibility (1/GPa) = 0.02407050
#
# Stress axis : x y z
#
# Youngs Moduli (GPa) = 99.88104 58.72566 88.20050
#
# Poissons Ratio (x) = 0.13539 0.30298
# Poissons Ratio (y) = 0.23028 0.12464
# Poissons Ratio (z) = 0.34310 0.08299
#
# Static dielectric constant tensor:
#      x y z
#    x 4.678540 0.000000 -0.073130 
#    y 0.000000 3.147160 0.000000 
#    z -0.073130 0.000000 4.010160 
# 
# 
# High freq. dielectric constant tensor:
#      x y z
#    x 1.841840 0.000000 -0.011240 
#    y 0.000000 1.780140 0.000000 
#    z -0.011240 0.000000 1.833880 
# 
# From -- ./inp_files/59749.got.cif
#   From: 2010.06.25/outbox.cif.g09.slc.cpg/sg11_30_cif.got.tgz:59749.got - 2010.06.27 23:14:04.
