data_PCOD8076666
_publ_section_title
;
Structure prediction by ZEFSAII (Michael W. Deem and Ramdas Pophale) SiO2 
 PCOD8076666
Probable space group: P 21/M
;
_chemical_formula_sum "Si O2"
_cell_formula_units_Z 28
_cell_length_a 14.740550
_cell_length_b 18.007032
_cell_length_c 5.565068
_cell_angle_alpha 90.000000
_cell_angle_beta 114.379381
_cell_angle_gamma 90.000000
_cell_volume 1345.441151
_symmetry_space_group_name_H-M "P 21/M"
_symmetry_group_IT_number 11
_symmetry_cell_setting 'monoclinic'
loop_
_space_group_symop_operation_xyz
x,y,z
-x,1/2+y,-z
-x,-y,-z
x,1/2-y,z
loop_
_atom_site_type_symbol
_atom_site_label
_atom_site_fract_x
_atom_site_fract_y
_atom_site_fract_z
Si Si1 0.457525 0.081869 0.921383
Si Si2 0.293714 0.056745 0.383635
Si Si3 0.716583 0.663527 0.013005
Si Si4 0.659252 0.163543 0.183112
Si Si5 0.740208 0.400294 0.778822
Si Si6 0.132835 0.070972 0.581424
Si Si7 0.060916 0.545096 0.875244
O O1 0.377782 0.110858 0.029157
O O2 0.545397 0.140746 0.021433
O O3 0.400046 0.080063 0.606826
O O4 0.500000 0.000000 0.000000
O O5 0.253356 0.131868 0.213589
O O6 0.205891 0.031802 0.469646
O O7 0.306882 0.982873 0.235802
O O8 0.689048 0.750000 0.983467
O O9 0.812105 0.647982 0.286329
O O10 0.665623 0.250000 0.231642
O O11 0.704040 0.129351 0.478881
O O12 0.712330 0.144837 0.988519
O O13 0.861328 0.399828 0.911346
O O14 0.021249 0.090271 0.369572
O O15 0.125892 0.012230 0.789469
O O16 0.000000 0.500000 0.000000
#
# Coordination Sequence:
#
# PCOD8076666 Si02
#       7
#     4   4   4   4   4   4   4
#     4  11  24  42  69  98 131 177 237 286 339 413
#     4  11  22  40  67 103 129 177 231 290 339 415
#     4  11  24  41  63  97 141 181 224 288 362 419
#     4  12  28  47  67  99 145 189 228 286 353 414
#     4  12  24  44  73 100 139 179 237 290 339 416
#     4  10  21  39  64 101 136 166 228 287 356 404
#     4  11  21  37  72 104 123 172 232 295 339 410
#
# _framework density 20.811017
#
# number of rings (size 3 to 8) (size 9 to 14) (size 15 to 20)
#    0.000    0.857    4.286    2.571    4.000    4.000 
#    0.000    1.429    0.000    0.000    0.000    0.000 
#    0.000    0.000    0.000    0.000    0.000    0.000 
#
# Total GULP energy -346913.055441 kJ/mol
# GULP energy per Si atom -12389.751980 kJ/mol
# Density = 2.076365 g / cm^3
# Si number density = 20.811017 Si / 1000 Ang^3
#
#
#
# Elastic Constant Matrix: (Units=GPa)
#
#
# Indices 1 2 3 4 5 6 
#
# 1 115.4398 43.6499 55.9456 0.0000 14.1464 0.0000
# 2 43.6499 137.6225 53.2737 0.0000 5.1547 0.0000
# 3 55.9456 53.2737 130.0917 0.0000 18.9626 0.0000
# 4 0.0000 0.0000 0.0000 30.7564 0.0000 -0.5453
# 5 14.1464 5.1547 18.9626 0.0000 44.0782 0.0000
# 6 0.0000 0.0000 0.0000 -0.5453 0.0000 21.3870
#
#
#
# Elastic Compliance Matrix: (Units=1/GPa)
#
#
# Indices 1 2 3 4 5 6 
#
# 1 0.011540 -0.002107 -0.003836 0.000000 -0.001807 0.000000
# 2 -0.002107 0.009032 -0.002920 0.000000 0.000876 0.000000
# 3 -0.003836 -0.002920 0.010993 0.000000 -0.003156 0.000000
# 4 0.000000 0.000000 0.000000 0.032528 0.000000 0.000829
# 5 -0.001807 0.000876 -0.003156 0.000000 0.024522 0.000000
# 6 0.000000 0.000000 0.000000 0.000829 0.000000 0.046779
#
#
# Mechanical properties :
#
#
# Convention : Reuss Voigt Hill
#
# Bulk Modulus (GPa) = 72.27089 76.54361 74.40725
# Shear Modulus (GPa) = 31.69887 34.59663 33.14775
#
# Velocity S-wave (km/s) = 3.90702 4.08170 3.99532
# Velocity P-wave (km/s) = 7.42669 7.68595 7.55743
#
# Compressibility (1/GPa) = 0.01383683
#
# Stress axis : x y z
#
# Youngs Moduli (GPa) = 86.65501 110.71414 90.96978
#
# Poissons Ratio (x) = 0.23332 0.34900
# Poissons Ratio (y) = 0.18262 0.26565
# Poissons Ratio (z) = 0.33244 0.32331
#
# Static dielectric constant tensor:
#      x y z
#    x 4.133650 0.000000 0.372120 
#    y 0.000000 3.544340 0.000000 
#    z 0.372120 0.000000 4.468370 
# 
# 
# High freq. dielectric constant tensor:
#      x y z
#    x 1.820930 0.000000 0.006460 
#    y 0.000000 1.785890 0.000000 
#    z 0.006460 0.000000 1.841480 
# 
# From -- ./inp_files/6882.got.cif
#   From: 2010.06.25/outbox.cif.g09.slc.cpg/sg11_4_cif.got.tgz:6882.got - 2010.06.27 23:14:04.
