data_PCOD8076393
_publ_section_title
;
Structure prediction by ZEFSAII (Michael W. Deem and Ramdas Pophale) SiO2 
 PCOD8076393
Probable space group: P 21/M
;
_chemical_formula_sum "Si O2"
_cell_formula_units_Z 28
_cell_length_a 7.749293
_cell_length_b 8.970622
_cell_length_c 27.838713
_cell_angle_alpha 90.000000
_cell_angle_beta 134.698842
_cell_angle_gamma 90.000000
_cell_volume 1375.591793
_symmetry_space_group_name_H-M "P 21/M"
_symmetry_group_IT_number 11
_symmetry_cell_setting 'monoclinic'
loop_
_space_group_symop_operation_xyz
x,y,z
-x,1/2+y,-z
-x,-y,-z
x,1/2-y,z
loop_
_atom_site_type_symbol
_atom_site_label
_atom_site_fract_x
_atom_site_fract_y
_atom_site_fract_z
Si Si1 0.454417 0.410479 0.304229
Si Si2 0.162924 0.574261 0.072050
Si Si3 0.718596 0.416219 0.567876
Si Si4 0.958393 0.913281 0.701397
Si Si5 0.881597 0.586947 0.433511
Si Si6 0.073192 0.071834 0.156501
Si Si7 0.724748 0.924888 0.165310
O O1 0.587243 0.250000 0.323337
O O2 0.632812 0.522903 0.364814
O O3 0.220882 0.385208 0.290480
O O4 0.338615 0.468507 0.231575
O O5 0.114197 0.750000 0.065950
O O6 0.439299 0.541330 0.110687
O O7 0.080651 0.500429 0.105778
O O8 0.000000 0.500000 0.000000
O O9 0.500000 0.500000 0.500000
O O10 0.634626 0.250000 0.566625
O O11 0.808771 0.506374 0.630866
O O12 0.937936 0.405623 0.574742
O O13 0.053242 0.750000 0.702171
O O14 0.177289 0.013830 0.764192
O O15 0.821608 0.750000 0.441897
O O16 0.000000 0.500000 0.500000
O O17 0.036942 0.250000 0.146162
O O18 0.849950 0.004520 0.143998
O O19 0.782276 0.750000 0.173422
#
# Coordination Sequence:
#
# PCOD8076393 Si02
#       7
#     4   4   4   4   4   4   4
#     4   9  20  38  59  86 116 149 194 243 296 359
#     4  11  25  43  66  96 131 170 214 264 318 380
#     4  11  24  39  55  81 114 152 198 249 303 364
#     4  10  21  38  61  88 117 154 198 248 303 366
#     4  11  24  38  55  80 112 150 195 245 299 358
#     4  10  22  41  66  96 129 168 212 260 315 379
#     4  10  22  41  65  95 129 167 211 261 316 377
#
# _framework density 20.354875
#
# number of rings (size 3 to 8) (size 9 to 14) (size 15 to 20)
#    0.000    1.714    0.000    4.286    2.000   12.000 
#    0.000    0.000    0.000    0.000    0.000    0.000 
#    0.000    0.000    0.000    0.000    0.000    0.000 
#
# Total GULP energy -347082.190405 kJ/mol
# GULP energy per Si atom -12395.792514 kJ/mol
# Density = 2.030855 g / cm^3
# Si number density = 20.354875 Si / 1000 Ang^3
#
#
#
# Elastic Constant Matrix: (Units=GPa)
#
#
# Indices 1 2 3 4 5 6 
#
# 1 57.3670 30.9831 38.0965 0.0000 -0.6472 0.0000
# 2 30.9831 152.6269 81.1551 0.0000 2.4665 0.0000
# 3 38.0965 81.1551 175.6538 0.0000 -6.4899 0.0000
# 4 0.0000 0.0000 0.0000 9.5538 0.0000 19.5425
# 5 -0.6472 2.4665 -6.4899 0.0000 37.3693 0.0000
# 6 0.0000 0.0000 0.0000 19.5425 0.0000 12.6619
#
#
#
# Elastic Compliance Matrix: (Units=1/GPa)
#
#
# Indices 1 2 3 4 5 6 
#
# 1 0.021031 -0.002441 -0.003436 0.000000 -0.000071 0.000000
# 2 -0.002441 0.009030 -0.003690 0.000000 -0.001279 0.000000
# 3 -0.003436 -0.003690 0.008202 0.000000 0.001609 0.000000
# 4 0.000000 0.000000 0.000000 -0.048525 0.000000 0.074893
# 5 -0.000071 -0.001279 0.001609 0.000000 0.027122 0.000000
# 6 0.000000 0.000000 0.000000 0.074893 0.000000 -0.036613
#
#
# Mechanical properties :
#
#
# Convention : Reuss Voigt Hill
#
# Bulk Modulus (GPa) = 52.27529 76.23524 64.25526
# Shear Modulus (GPa) = 868.22478 27.61120 447.91799
#
# Velocity S-wave (km/s) = 20.67535 3.68705 14.85032
# Velocity P-wave (km/s) = 24.40692 7.46057 18.04658
#
# Compressibility (1/GPa) = 0.01912950
#
# Stress axis : x y z
#
# Youngs Moduli (GPa) = 47.54864 110.74024 121.91415
#
# Poissons Ratio (x) = 0.27033 0.41891
# Poissons Ratio (y) = 0.11607 0.44985
# Poissons Ratio (z) = 0.16338 0.40862
#
# Static dielectric constant tensor:
#      x y z
#    x 3.678710 0.000000 -0.038950 
#    y 0.000000 2.370690 0.000000 
#    z -0.038950 0.000000 3.828380 
# 
# 
# High freq. dielectric constant tensor:
#      x y z
#    x 1.795420 0.000000 -0.004050 
#    y 0.000000 1.814400 0.000000 
#    z -0.004050 0.000000 1.803170 
# 
# From -- ./inp_files/72749.got.cif
#   From: 2010.06.25/outbox.cif.g09.slc.cpg/sg11_37_cif.got.tgz:72749.got - 2010.06.27 23:14:04.
