data_PCOD8076515
_publ_section_title
;
Structure prediction by ZEFSAII (Michael W. Deem and Ramdas Pophale) SiO2 
 PCOD8076515
Probable space group: P 21/M
;
_chemical_formula_sum "Si O2"
_cell_formula_units_Z 20
_cell_length_a 5.160868
_cell_length_b 21.704712
_cell_length_c 10.010936
_cell_angle_alpha 90.000000
_cell_angle_beta 121.236716
_cell_angle_gamma 90.000000
_cell_volume 958.812961
_symmetry_space_group_name_H-M "P 21/M"
_symmetry_group_IT_number 11
_symmetry_cell_setting 'monoclinic'
loop_
_space_group_symop_operation_xyz
x,y,z
-x,1/2+y,-z
-x,-y,-z
x,1/2-y,z
loop_
_atom_site_type_symbol
_atom_site_label
_atom_site_fract_x
_atom_site_fract_y
_atom_site_fract_z
Si Si1 0.219028 0.635376 0.327911
Si Si2 0.558334 0.617353 0.158821
Si Si3 0.969153 0.513909 0.337373
Si Si4 0.491383 0.679431 0.666425
Si Si5 0.116590 0.616809 0.794751
O O1 0.370764 0.648955 0.226811
O O2 0.393976 0.673834 0.486495
O O3 0.868031 0.656727 0.224472
O O4 0.235577 0.561872 0.366689
O O5 0.644662 0.546578 0.219589
O O6 0.376775 0.619038 0.973780
O O7 0.999501 0.452500 0.258382
O O8 0.000000 0.500000 0.500000
O O9 0.483547 0.750000 0.709952
O O10 0.252760 0.642261 0.693014
O O11 0.833195 0.655429 0.772928
#
# Coordination Sequence:
#
# PCOD8076515 Si02
#       5
#     4   4   4   4   4
#     4  10  22  41  65  93 131 162 214 254 312 390
#     4  10  23  39  63 102 128 163 196 262 331 376
#     4  10  21  38  68  99 129 164 205 259 326 380
#     4  12  26  45  65  89 123 178 220 260 304 376
#     4  12  24  41  68  94 134 159 213 265 321 381
#
# _framework density 20.859123
#
# number of rings (size 3 to 8) (size 9 to 14) (size 15 to 20)
#    1.200    0.000    2.000    4.800    2.800    2.400 
#    0.000    6.000    0.000    0.000    0.000    0.000 
#    0.000    0.000    0.000    0.000    0.000    0.000 
#
# Total GULP energy -247979.558048 kJ/mol
# GULP energy per Si atom -12398.977902 kJ/mol
# Density = 2.081165 g / cm^3
# Si number density = 20.859123 Si / 1000 Ang^3
#
#
#
# Elastic Constant Matrix: (Units=GPa)
#
#
# Indices 1 2 3 4 5 6 
#
# 1 111.9439 22.3453 7.8947 0.0000 -4.8566 0.0000
# 2 22.3453 54.9438 3.1383 0.0000 9.3816 0.0000
# 3 7.8947 3.1383 88.0206 0.0000 10.9617 0.0000
# 4 0.0000 0.0000 0.0000 6.9630 0.0000 4.7945
# 5 -4.8566 9.3816 10.9617 0.0000 43.5200 0.0000
# 6 0.0000 0.0000 0.0000 4.7945 0.0000 17.6536
#
#
#
# Elastic Compliance Matrix: (Units=1/GPa)
#
#
# Indices 1 2 3 4 5 6 
#
# 1 0.009984 -0.004398 -0.001028 0.000000 0.002321 0.000000
# 2 -0.004398 0.020836 0.000281 0.000000 -0.005053 0.000000
# 3 -0.001028 0.000281 0.011836 0.000000 -0.003157 0.000000
# 4 0.000000 0.000000 0.000000 0.176650 0.000000 -0.047976
# 5 0.002321 -0.005053 -0.003157 0.000000 0.025121 0.000000
# 6 0.000000 0.000000 0.000000 -0.047976 0.000000 0.069675
#
#
# Mechanical properties :
#
#
# Convention : Reuss Voigt Hill
#
# Bulk Modulus (GPa) = 30.89633 35.74055 33.31844
# Shear Modulus (GPa) = 14.91728 28.39599 21.65664
#
# Velocity S-wave (km/s) = 2.67712 3.69361 3.22566
# Velocity P-wave (km/s) = 4.93964 5.94658 5.46634
#
# Compressibility (1/GPa) = 0.03236630
#
# Stress axis : x y z
#
# Youngs Moduli (GPa) = 100.15885 47.99413 84.48631
#
# Poissons Ratio (x) = 0.21108 0.08683
# Poissons Ratio (y) = 0.44051 -0.02373
# Poissons Ratio (z) = 0.10294 -0.01348
#
# Static dielectric constant tensor:
#      x y z
#    x 3.746140 0.000000 0.053820 
#    y 0.000000 3.704880 0.000000 
#    z 0.053820 0.000000 3.735570 
# 
# 
# High freq. dielectric constant tensor:
#      x y z
#    x 1.822580 0.000000 0.001640 
#    y 0.000000 1.795510 0.000000 
#    z 0.001640 0.000000 1.823960 
# 
# From -- ./inp_files/2545.got.cif
#   From: 2010.06.25/outbox.cif.g09.slc.cpg/sg11_2_cif.got.tgz:2545.got - 2010.06.27 23:14:04.
