data_PCOD8076696
_publ_section_title
;
Structure prediction by ZEFSAII (Michael W. Deem and Ramdas Pophale) SiO2 
 PCOD8076696
Probable space group: P 21/M
;
_chemical_formula_sum "Si O2"
_cell_formula_units_Z 32
_cell_length_a 15.750509
_cell_length_b 8.824500
_cell_length_c 24.213349
_cell_angle_alpha 90.000000
_cell_angle_beta 29.492998
_cell_angle_gamma 90.000000
_cell_volume 1656.855235
_symmetry_space_group_name_H-M "P 21/M"
_symmetry_group_IT_number 11
_symmetry_cell_setting 'monoclinic'
loop_
_space_group_symop_operation_xyz
x,y,z
-x,1/2+y,-z
-x,-y,-z
x,1/2-y,z
loop_
_atom_site_type_symbol
_atom_site_label
_atom_site_fract_x
_atom_site_fract_y
_atom_site_fract_z
Si Si1 0.093392 0.423277 0.654952
Si Si2 0.066341 0.573817 0.138910
Si Si3 0.442407 0.926925 0.477072
Si Si4 0.023775 0.075104 0.567171
Si Si5 0.179269 0.077638 0.895835
Si Si6 0.367850 0.078533 0.904146
Si Si7 0.273546 0.074435 0.330697
Si Si8 0.749335 0.073452 0.250716
O O1 0.160902 0.250000 0.620944
O O2 0.243302 0.543723 0.578790
O O3 0.024047 0.454789 0.632684
O O4 0.955092 0.452744 0.782602
O O5 0.069216 0.750000 0.122898
O O6 0.904446 0.504742 0.196872
O O7 0.251891 0.505644 0.016075
O O8 0.480887 0.750000 0.454420
O O9 0.500000 0.000000 0.500000
O O10 0.559248 0.014768 0.368714
O O11 0.978239 0.250000 0.580383
O O12 0.204532 0.035609 0.432405
O O13 0.875745 0.967976 0.627642
O O14 0.168871 0.250000 0.879603
O O15 0.264636 0.072028 0.906402
O O16 0.268556 0.965983 0.802956
O O17 0.000000 0.000000 0.000000
O O18 0.393491 0.250000 0.910319
O O19 0.554727 0.010856 0.785567
O O20 0.316277 0.250000 0.301390
O O21 0.771360 0.250000 0.249562
#
# Coordination Sequence:
#
# PCOD8076696 Si02
#       8
#     4   4   4   4   4   4   4   4
#     4  10  22  40  62  90 120 157 201 247 302 359
#     4  11  22  38  61  85 119 159 203 250 296 355
#     4  12  24  38  57  84 119 160 205 250 296 353
#     4   9  20  41  66  92 122 153 188 240 303 362
#     4  11  23  38  57  84 118 158 203 249 298 354
#     4  11  24  40  60  87 121 159 202 248 300 358
#     4  10  21  39  65  94 121 153 193 241 300 361
#     4  12  24  38  56  80 117 161 204 251 302 353
#
# _framework density 19.313696
#
# number of rings (size 3 to 8) (size 9 to 14) (size 15 to 20)
#    0.000    1.250    2.500    3.750    1.750    3.000 
#    0.000    0.625    0.000    0.000    0.000    0.000 
#    0.000    0.000    0.000    0.000    0.000    0.000 
#
# Total GULP energy -396461.784469 kJ/mol
# GULP energy per Si atom -12389.430765 kJ/mol
# Density = 1.926974 g / cm^3
# Si number density = 19.313696 Si / 1000 Ang^3
#
#
#
# Elastic Constant Matrix: (Units=GPa)
#
#
# Indices 1 2 3 4 5 6 
#
# 1 74.7637 40.6191 42.3534 0.0000 18.6569 0.0000
# 2 40.6191 132.6186 67.3575 0.0000 6.5833 0.0000
# 3 42.3534 67.3575 155.8124 0.0000 13.9291 0.0000
# 4 0.0000 0.0000 0.0000 37.0705 0.0000 -3.3514
# 5 18.6569 6.5833 13.9291 0.0000 33.0950 0.0000
# 6 0.0000 0.0000 0.0000 -3.3514 0.0000 28.9834
#
#
#
# Elastic Compliance Matrix: (Units=1/GPa)
#
#
# Indices 1 2 3 4 5 6 
#
# 1 0.019376 -0.004128 -0.002680 0.000000 -0.008974 0.000000
# 2 -0.004128 0.010542 -0.003591 0.000000 0.001741 0.000000
# 3 -0.002680 -0.003591 0.008832 0.000000 -0.001492 0.000000
# 4 0.000000 0.000000 0.000000 0.027261 0.000000 0.003152
# 5 -0.008974 0.001741 -0.001492 0.000000 0.035557 0.000000
# 6 0.000000 0.000000 0.000000 0.003152 0.000000 0.034867
#
#
# Mechanical properties :
#
#
# Convention : Reuss Voigt Hill
#
# Bulk Modulus (GPa) = 55.70305 73.76162 64.73234
# Shear Modulus (GPa) = 30.63421 34.02074 32.32748
#
# Velocity S-wave (km/s) = 3.98696 4.20156 4.09566
# Velocity P-wave (km/s) = 7.07801 7.86204 7.48031
#
# Compressibility (1/GPa) = 0.01795234
#
# Stress axis : x y z
#
# Youngs Moduli (GPa) = 51.61096 94.85736 113.22124
#
# Poissons Ratio (x) = 0.39155 0.30345
# Poissons Ratio (y) = 0.21304 0.40658
# Poissons Ratio (z) = 0.13832 0.34063
#
# Static dielectric constant tensor:
#      x y z
#    x 3.345450 0.000000 0.295750 
#    y 0.000000 3.803260 0.000000 
#    z 0.295750 0.000000 3.786100 
# 
# 
# High freq. dielectric constant tensor:
#      x y z
#    x 1.736440 0.000000 0.018890 
#    y 0.000000 1.764890 0.000000 
#    z 0.018890 0.000000 1.766410 
# 
# From -- ./inp_files/69041.got.cif
#   From: 2010.06.25/outbox.cif.g09.slc.cpg/sg11_35_cif.got.tgz:69041.got - 2010.06.27 23:14:04.
