data_PCOD8076457
_publ_section_title
;
Structure prediction by ZEFSAII (Michael W. Deem and Ramdas Pophale) SiO2 
 PCOD8076457
Probable space group: P 21/M
;
_chemical_formula_sum "Si O2"
_cell_formula_units_Z 20
_cell_length_a 11.999034
_cell_length_b 9.235882
_cell_length_c 9.387355
_cell_angle_alpha 90.000000
_cell_angle_beta 77.077970
_cell_angle_gamma 90.000000
_cell_volume 1013.976417
_symmetry_space_group_name_H-M "P 21/M"
_symmetry_group_IT_number 11
_symmetry_cell_setting 'monoclinic'
loop_
_space_group_symop_operation_xyz
x,y,z
-x,1/2+y,-z
-x,-y,-z
x,1/2-y,z
loop_
_atom_site_type_symbol
_atom_site_label
_atom_site_fract_x
_atom_site_fract_y
_atom_site_fract_z
Si Si1 0.912432 0.087790 0.617357
Si Si2 0.725582 0.084881 0.276500
Si Si3 0.950198 0.913844 0.144324
Si Si4 0.663050 0.418289 0.611039
Si Si5 0.514348 0.080419 0.145315
O O1 0.914174 0.250000 0.555561
O O2 0.784560 0.027382 0.638061
O O3 0.948708 0.081624 0.770210
O O4 0.000000 0.000000 0.500000
O O5 0.769669 0.250000 0.261721
O O6 0.658349 0.054358 0.442802
O O7 0.642672 0.055526 0.166516
O O8 0.834539 0.981962 0.237854
O O9 0.922608 0.750000 0.106532
O O10 0.000000 0.000000 0.000000
O O11 0.640241 0.250000 0.654886
O O12 0.569454 0.516960 0.712265
O O13 0.488664 0.250000 0.131769
O O14 0.500000 0.000000 0.000000
#
# Coordination Sequence:
#
# PCOD8076457 Si02
#       5
#     4   4   4   4   4
#     4  10  21  38  62  91 122 156 196 243 295 355
#     4  10  22  42  65  88 119 159 202 248 300 357
#     4  11  24  39  60  92 126 161 200 245 298 357
#     4  10  21  40  65  90 120 157 196 246 302 355
#     4  11  25  42  62  90 121 157 202 250 301 357
#
# _framework density 19.724326000000001
#
# number of rings (size 3 to 8) (size 9 to 14) (size 15 to 20)
#    0.000    1.600    2.000    1.800    2.800    4.000 
#    0.000    0.000    0.000    0.000    0.000    0.000 
#    0.000    0.000    0.000    0.000    0.000    0.000 
#
# Total GULP energy -248060.962808 kJ/mol
# GULP energy per Si atom -12403.048140 kJ/mol
# Density = 1.967943 g / cm^3
# Si number density = 19.724326 Si / 1000 Ang^3
#
#
#
# Elastic Constant Matrix: (Units=GPa)
#
#
# Indices 1 2 3 4 5 6 
#
# 1 80.6780 40.5875 27.2718 0.0000 11.4758 0.0000
# 2 40.5875 107.6961 50.8540 0.0000 -0.3588 0.0000
# 3 27.2718 50.8540 98.7670 0.0000 7.1431 0.0000
# 4 0.0000 0.0000 0.0000 41.1804 0.0000 -6.8870
# 5 11.4758 -0.3588 7.1431 0.0000 34.6836 0.0000
# 6 0.0000 0.0000 0.0000 -6.8870 0.0000 33.6421
#
#
#
# Elastic Compliance Matrix: (Units=1/GPa)
#
#
# Indices 1 2 3 4 5 6 
#
# 1 0.016378 -0.005592 -0.001266 0.000000 -0.005216 0.000000
# 2 -0.005592 0.014250 -0.006027 0.000000 0.003239 0.000000
# 3 -0.001266 -0.006027 0.013757 0.000000 -0.002477 0.000000
# 4 0.000000 0.000000 0.000000 0.025144 0.000000 0.005147
# 5 -0.005216 0.003239 -0.002477 0.000000 0.031102 0.000000
# 6 0.000000 0.000000 0.000000 0.005147 0.000000 0.030778
#
#
# Mechanical properties :
#
#
# Convention : Reuss Voigt Hill
#
# Bulk Modulus (GPa) = 53.72167 58.28530 56.00349
# Shear Modulus (GPa) = 30.60283 33.12973 31.86628
#
# Velocity S-wave (km/s) = 3.94322 4.10278 4.02379
# Velocity P-wave (km/s) = 6.93017 7.21512 7.07408
#
# Compressibility (1/GPa) = 0.01861446
#
# Stress axis : x y z
#
# Youngs Moduli (GPa) = 61.05731 70.17709 72.69140
#
# Poissons Ratio (x) = 0.39243 0.09201
# Poissons Ratio (y) = 0.34144 0.43812
# Poissons Ratio (z) = 0.07729 0.42297
#
# Static dielectric constant tensor:
#      x y z
#    x 4.202410 0.000000 0.212740 
#    y 0.000000 4.551990 0.000000 
#    z 0.212740 0.000000 3.714970 
# 
# 
# High freq. dielectric constant tensor:
#      x y z
#    x 1.778070 0.000000 0.009730 
#    y 0.000000 1.772260 0.000000 
#    z 0.009730 0.000000 1.775900 
# 
# From -- ./inp_files/15903.got.cif
#   From: 2010.06.25/outbox.cif.g09.slc.cpg/sg11_8_cif.got.tgz:15903.got - 2010.06.27 23:14:04.
