data_PCOD8076928
_publ_section_title
;
Structure prediction by ZEFSAII (Michael W. Deem and Ramdas Pophale) SiO2 
 PCOD8076928
Probable space group: P 21/M
;
_chemical_formula_sum "Si O2"
_cell_formula_units_Z 32
_cell_length_a 21.135627
_cell_length_b 9.265683
_cell_length_c 11.375031
_cell_angle_alpha 90.000000
_cell_angle_beta 51.226312
_cell_angle_gamma 90.000000
_cell_volume 1736.725878
_symmetry_space_group_name_H-M "P 21/M"
_symmetry_group_IT_number 11
_symmetry_cell_setting 'monoclinic'
loop_
_space_group_symop_operation_xyz
x,y,z
-x,1/2+y,-z
-x,-y,-z
x,1/2-y,z
loop_
_atom_site_type_symbol
_atom_site_label
_atom_site_fract_x
_atom_site_fract_y
_atom_site_fract_z
Si Si1 0.691855 0.914369 0.790003
Si Si2 0.971346 0.086686 0.207578
Si Si3 0.590652 0.916048 0.123446
Si Si4 0.253389 0.418588 0.683934
Si Si5 0.466552 0.415090 0.149013
Si Si6 0.826904 0.579781 0.469195
Si Si7 0.582887 0.914202 0.395211
Si Si8 0.888739 0.086600 0.050563
O O1 0.709130 0.750000 0.801702
O O2 0.630625 0.925006 0.749092
O O3 0.776813 0.978228 0.642057
O O4 0.655662 0.983768 0.953034
O O5 0.986949 0.250000 0.232657
O O6 0.932627 0.086024 0.124429
O O7 0.910869 0.007200 0.368404
O O8 0.056082 0.000119 0.107120
O O9 0.572660 0.750000 0.109279
O O10 0.622468 0.929880 0.218890
O O11 0.505228 0.004691 0.217008
O O12 0.242286 0.250000 0.726676
O O13 0.227957 0.453954 0.580974
O O14 0.347396 0.465719 0.594946
O O15 0.197718 0.508089 0.839076
O O16 0.495881 0.250000 0.115471
O O17 0.500000 0.500000 0.000000
O O18 0.845870 0.750000 0.453699
O O19 0.559315 0.750000 0.449415
O O20 0.500000 0.000000 0.500000
O O21 0.876312 0.250000 0.020027
#
# Coordination Sequence:
#
# PCOD8076928 Si02
#       8
#     4   4   4   4   4   4   4   4
#     4   8  15  27  45  65  87 117 151 188 231 280
#     4   9  16  26  41  66  97 124 147 178 224 276
#     4   9  18  33  47  64  89 119 159 200 239 282
#     4   9  18  31  46  65  90 122 158 193 234 279
#     4   9  16  27  45  66  88 115 151 193 237 282
#     4   9  16  27  44  66  92 121 153 187 226 280
#     4  10  22  36  50  67  92 126 163 205 244 282
#     4   9  16  27  45  66  91 122 154 185 221 272
#
# _framework density 18.425474999999999
#
# number of rings (size 3 to 8) (size 9 to 14) (size 15 to 20)
#    0.000    3.000    0.000    1.875    1.750    4.000 
#    0.000    3.125    0.000    0.000    0.000    0.875 
#    0.000    0.000    0.000    0.000    0.000    0.000 
#
# Total GULP energy -396476.587612 kJ/mol
# GULP energy per Si atom -12389.893363 kJ/mol
# Density = 1.838354 g / cm^3
# Si number density = 18.425475 Si / 1000 Ang^3
#
#
#
# Elastic Constant Matrix: (Units=GPa)
#
#
# Indices 1 2 3 4 5 6 
#
# 1 33.0909 18.6630 17.5755 0.0000 -12.0057 0.0000
# 2 18.6630 83.2132 39.0361 0.0000 -16.5033 0.0000
# 3 17.5755 39.0361 107.5078 0.0000 -25.5018 0.0000
# 4 0.0000 0.0000 0.0000 25.0776 0.0000 -8.7204
# 5 -12.0057 -16.5033 -25.5018 0.0000 25.9589 0.0000
# 6 0.0000 0.0000 0.0000 -8.7204 0.0000 20.0365
#
#
#
# Elastic Compliance Matrix: (Units=1/GPa)
#
#
# Indices 1 2 3 4 5 6 
#
# 1 0.038769 -0.005506 -0.001194 0.000000 0.013257 0.000000
# 2 -0.005506 0.015841 -0.003999 0.000000 0.003596 0.000000
# 3 -0.001194 -0.003999 0.013318 0.000000 0.009989 0.000000
# 4 0.000000 0.000000 0.000000 0.046988 0.000000 0.020450
# 5 0.013257 0.003596 0.009989 0.000000 0.056753 0.000000
# 6 0.000000 0.000000 0.000000 0.020450 0.000000 0.058809
#
#
# Mechanical properties :
#
#
# Convention : Reuss Voigt Hill
#
# Bulk Modulus (GPa) = 21.49100 41.59567 31.54334
# Shear Modulus (GPa) = 18.69951 24.11708 21.40829
#
# Velocity S-wave (km/s) = 3.18916 3.62180 3.41234
# Velocity P-wave (km/s) = 5.02495 6.33356 5.71682
#
# Compressibility (1/GPa) = 0.04653110
#
# Stress axis : x y z
#
# Youngs Moduli (GPa) = 25.79389 63.12631 75.08400
#
# Poissons Ratio (x) = 0.34755 0.08967
# Poissons Ratio (y) = 0.14201 0.30025
# Poissons Ratio (z) = 0.03080 0.25243
#
# Static dielectric constant tensor:
#      x y z
#    x 3.560240 0.000000 0.026450 
#    y 0.000000 3.492050 0.000000 
#    z 0.026450 0.000000 3.666290 
# 
# 
# High freq. dielectric constant tensor:
#      x y z
#    x 1.668770 0.000000 -0.015990 
#    y 0.000000 1.703140 0.000000 
#    z -0.015990 0.000000 1.714210 
# 
# From -- ./inp_files/42734.got.cif
#   From: 2010.06.25/outbox.cif.g09.slc.cpg/sg11_22_cif.got.tgz:42734.got - 2010.06.27 23:14:04.
