data_PCOD8076007
_publ_section_title
;
Structure prediction by ZEFSAII (Michael W. Deem and Ramdas Pophale) SiO2 
 PCOD8076007
Probable space group: P 21/M
;
_chemical_formula_sum "Si O2"
_cell_formula_units_Z 32
_cell_length_a 16.499700
_cell_length_b 9.042046
_cell_length_c 24.651169
_cell_angle_alpha 90.000000
_cell_angle_beta 27.049844
_cell_angle_gamma 90.000000
_cell_volume 1672.506227
_symmetry_space_group_name_H-M "P 21/M"
_symmetry_group_IT_number 11
_symmetry_cell_setting 'monoclinic'
loop_
_space_group_symop_operation_xyz
x,y,z
-x,1/2+y,-z
-x,-y,-z
x,1/2-y,z
loop_
_atom_site_type_symbol
_atom_site_label
_atom_site_fract_x
_atom_site_fract_y
_atom_site_fract_z
Si Si1 0.683351 0.925437 0.372848
Si Si2 0.426006 0.574560 0.274008
Si Si3 0.809620 0.075497 0.683185
Si Si4 0.813027 0.924675 0.503797
Si Si5 0.765789 0.420911 0.097177
Si Si6 0.166657 0.421180 0.833103
Si Si7 0.680591 0.074887 0.875552
Si Si8 0.054456 0.425085 0.691025
O O1 0.661450 0.750000 0.390822
O O2 0.738953 0.971877 0.278890
O O3 0.840460 0.983933 0.318995
O O4 0.500000 0.000000 0.500000
O O5 0.433876 0.750000 0.269851
O O6 0.295779 0.509098 0.305187
O O7 0.356403 0.513931 0.373165
O O8 0.622940 0.510324 0.146495
O O9 0.796214 0.250000 0.689352
O O10 0.717139 0.019007 0.793017
O O11 0.016957 0.029122 0.560422
O O12 0.776739 0.750000 0.528298
O O13 0.844461 0.978817 0.423536
O O14 0.713159 0.250000 0.130132
O O15 0.759189 0.479898 0.162620
O O16 0.954483 0.446293 0.955327
O O17 0.208152 0.250000 0.821237
O O18 0.658648 0.250000 0.891838
O O19 0.847654 0.021678 0.813632
O O20 0.500000 0.000000 0.000000
O O21 0.052349 0.250000 0.691164
#
# Coordination Sequence:
#
# PCOD8076007 Si02
#       8
#     4   4   4   4   4   4   4   4
#     4  10  21  37  57  83 111 142 180 224 274 325
#     4  11  21  32  50  78 108 138 173 219 269 313
#     4   8  17  33  50  71 105 143 175 210 260 315
#     4   9  17  33  54  74 101 140 181 214 253 316
#     4  10  21  37  57  79 104 141 182 221 270 327
#     4   9  20  39  58  77 107 139 176 227 274 318
#     4   9  17  33  55  77 103 140 178 215 258 312
#     4   8  17  34  54  75 104 141 176 211 264 325
#
# _framework density 19.132961999999999
#
# number of rings (size 3 to 8) (size 9 to 14) (size 15 to 20)
#    0.000    2.750    0.000    2.625    1.750    2.000 
#    0.000    6.250    0.000    0.000    0.000    0.000 
#    0.000    0.000    0.000    0.000    0.000    0.000 
#
# Total GULP energy -396689.422944 kJ/mol
# GULP energy per Si atom -12396.544467 kJ/mol
# Density = 1.908941 g / cm^3
# Si number density = 19.132962 Si / 1000 Ang^3
#
#
#
# Elastic Constant Matrix: (Units=GPa)
#
#
# Indices 1 2 3 4 5 6 
#
# 1 88.1650 24.8002 40.8814 0.0000 -2.0205 0.0000
# 2 24.8002 51.4809 33.7680 0.0000 -1.6895 0.0000
# 3 40.8814 33.7680 117.7439 0.0000 1.0009 0.0000
# 4 0.0000 0.0000 0.0000 35.4569 0.0000 -3.5818
# 5 -2.0205 -1.6895 1.0009 0.0000 26.3713 0.0000
# 6 0.0000 0.0000 0.0000 -3.5818 0.0000 22.1948
#
#
#
# Elastic Compliance Matrix: (Units=1/GPa)
#
#
# Indices 1 2 3 4 5 6 
#
# 1 0.014334 -0.004439 -0.003712 0.000000 0.000955 0.000000
# 2 -0.004439 0.025385 -0.005752 0.000000 0.001505 0.000000
# 3 -0.003712 -0.005752 0.011441 0.000000 -0.001087 0.000000
# 4 0.000000 0.000000 0.000000 0.028671 0.000000 0.004627
# 5 0.000955 0.001505 -0.001087 0.000000 0.038131 0.000000
# 6 0.000000 0.000000 0.000000 0.004627 0.000000 0.045802
#
#
# Mechanical properties :
#
#
# Convention : Reuss Voigt Hill
#
# Bulk Modulus (GPa) = 42.81855 50.69878 46.75867
# Shear Modulus (GPa) = 25.08099 27.33396 26.20747
#
# Velocity S-wave (km/s) = 3.62453 3.78383 3.70504
# Velocity P-wave (km/s) = 6.32016 6.75614 6.54178
#
# Compressibility (1/GPa) = 0.02335436
#
# Stress axis : x y z
#
# Youngs Moduli (GPa) = 69.76360 39.39281 87.40798
#
# Poissons Ratio (x) = 0.17487 0.32445
# Poissons Ratio (y) = 0.30969 0.50275
# Poissons Ratio (z) = 0.25895 0.22658
#
# Static dielectric constant tensor:
#      x y z
#    x 4.002980 0.000000 -0.154200 
#    y 0.000000 3.174290 0.000000 
#    z -0.154200 0.000000 3.558080 
# 
# 
# High freq. dielectric constant tensor:
#      x y z
#    x 1.747020 0.000000 -0.008350 
#    y 0.000000 1.714610 0.000000 
#    z -0.008350 0.000000 1.750750 
# 
# From -- ./inp_files/69031.got.cif
#   From: 2010.06.25/outbox.cif.g09.slc.cpg/sg11_35_cif.got.tgz:69031.got - 2010.06.27 23:14:04.
