data_PCOD8076864
_publ_section_title
;
Structure prediction by ZEFSAII (Michael W. Deem and Ramdas Pophale) SiO2 
 PCOD8076864
Probable space group: P 21/M
;
_chemical_formula_sum "Si O2"
_cell_formula_units_Z 32
_cell_length_a 15.947520
_cell_length_b 17.369311
_cell_length_c 12.224086
_cell_angle_alpha 90.000000
_cell_angle_beta 27.832988
_cell_angle_gamma 90.000000
_cell_volume 1580.928273
_symmetry_space_group_name_H-M "P 21/M"
_symmetry_group_IT_number 11
_symmetry_cell_setting 'monoclinic'
loop_
_space_group_symop_operation_xyz
x,y,z
-x,1/2+y,-z
-x,-y,-z
x,1/2-y,z
loop_
_atom_site_type_symbol
_atom_site_label
_atom_site_fract_x
_atom_site_fract_y
_atom_site_fract_z
Si Si1 0.897393 0.450403 0.393700
Si Si2 0.947075 0.337635 0.521764
Si Si3 0.483891 0.985613 0.145319
Si Si4 0.740051 0.339412 0.184385
Si Si5 0.013988 0.086237 0.026017
Si Si6 0.352935 0.339312 0.715938
Si Si7 0.804485 0.428448 0.888066
Si Si8 0.342029 0.163468 0.980443
O O1 0.849145 0.387516 0.541771
O O2 0.720916 0.503929 0.582096
O O3 0.935171 0.406081 0.238163
O O4 0.065889 0.500096 0.238778
O O5 0.878792 0.250000 0.592404
O O6 0.900095 0.370173 0.695042
O O7 0.160026 0.342849 0.259293
O O8 0.517327 0.895569 0.131037
O O9 0.500000 0.000000 0.000000
O O10 0.617750 0.040670 0.056052
O O11 0.739537 0.250000 0.155880
O O12 0.905213 0.356896 0.073471
O O13 0.556283 0.364672 0.455880
O O14 0.760826 0.385964 0.049761
O O15 0.221688 0.112133 0.788663
O O16 0.000000 0.000000 0.000000
O O17 0.322228 0.250000 0.725585
O O18 0.305296 0.358222 0.896492
O O19 0.422084 0.250000 0.895488
#
# Coordination Sequence:
#
# PCOD8076864 Si02
#       8
#     4   4   4   4   4   4   4   4
#     4  12  24  42  68  98 128 168 218 271 330 378
#     4  11  22  40  68  94 125 171 214 263 329 385
#     4  12  24  40  64  95 124 168 212 264 322 386
#     4  11  26  44  66  95 134 180 219 264 324 393
#     4  12  24  40  65 102 130 169 220 269 324 388
#     4  10  22  43  67  93 130 171 215 271 325 378
#     4  12  24  45  64  92 138 171 216 265 324 395
#     4  10  21  41  66  94 126 163 212 272 330 378
#
# _framework density 20.241273
#
# number of rings (size 3 to 8) (size 9 to 14) (size 15 to 20)
#    0.000    0.750    5.000    2.625    1.750    1.500 
#    0.000    0.000    0.000    1.500    0.000    0.000 
#    0.000    0.000    0.000    0.000    0.000    0.000 
#
# Total GULP energy -396956.396280 kJ/mol
# GULP energy per Si atom -12404.887384 kJ/mol
# Density = 2.019520 g / cm^3
# Si number density = 20.241273 Si / 1000 Ang^3
#
#
#
# Elastic Constant Matrix: (Units=GPa)
#
#
# Indices 1 2 3 4 5 6 
#
# 1 123.3147 48.1976 37.0943 0.0000 0.1637 0.0000
# 2 48.1976 98.0561 21.8674 0.0000 4.3822 0.0000
# 3 37.0943 21.8674 72.2563 0.0000 2.7412 0.0000
# 4 0.0000 0.0000 0.0000 22.6994 0.0000 -5.7885
# 5 0.1637 4.3822 2.7412 0.0000 38.0491 0.0000
# 6 0.0000 0.0000 0.0000 -5.7885 0.0000 26.9969
#
#
#
# Elastic Compliance Matrix: (Units=1/GPa)
#
#
# Indices 1 2 3 4 5 6 
#
# 1 0.011219 -0.004567 -0.004408 0.000000 0.000795 0.000000
# 2 -0.004567 0.012836 -0.001489 0.000000 -0.001351 0.000000
# 3 -0.004408 -0.001489 0.016591 0.000000 -0.001005 0.000000
# 4 0.000000 0.000000 0.000000 0.046602 0.000000 0.009992
# 5 0.000795 -0.001351 -0.001005 0.000000 0.026506 0.000000
# 6 0.000000 0.000000 0.000000 0.009992 0.000000 0.039184
#
#
# Mechanical properties :
#
#
# Convention : Reuss Voigt Hill
#
# Bulk Modulus (GPa) = 50.71251 56.43840 53.57546
# Shear Modulus (GPa) = 27.71038 29.98026 28.84532
#
# Velocity S-wave (km/s) = 3.70402 3.85274 3.77911
# Velocity P-wave (km/s) = 6.58797 6.90904 6.75042
#
# Compressibility (1/GPa) = 0.01971900
#
# Stress axis : x y z
#
# Youngs Moduli (GPa) = 89.13283 77.90883 60.27377
#
# Poissons Ratio (x) = 0.35582 0.26566
# Poissons Ratio (y) = 0.40709 0.08972
# Poissons Ratio (z) = 0.39286 0.11597
#
# Static dielectric constant tensor:
#      x y z
#    x 3.717420 0.000000 0.010950 
#    y 0.000000 3.709900 0.000000 
#    z 0.010950 0.000000 3.802060 
# 
# 
# High freq. dielectric constant tensor:
#      x y z
#    x 1.796870 0.000000 0.000390 
#    y 0.000000 1.793650 0.000000 
#    z 0.000390 0.000000 1.799120 
# 
# From -- ./inp_files/39993.got.cif
#   From: 2010.06.25/outbox.cif.g09.slc.cpg/sg11_20_cif.got.tgz:39993.got - 2010.06.27 23:14:04.
