data_PCOD8076306
_publ_section_title
;
Structure prediction by ZEFSAII (Michael W. Deem and Ramdas Pophale) SiO2 
 PCOD8076306
Probable space group: P 21/M
;
_chemical_formula_sum "Si O2"
_cell_formula_units_Z 28
_cell_length_a 14.994411
_cell_length_b 8.851261
_cell_length_c 22.607826
_cell_angle_alpha 90.000000
_cell_angle_beta 152.241779
_cell_angle_gamma 90.000000
_cell_volume 1397.456488
_symmetry_space_group_name_H-M "P 21/M"
_symmetry_group_IT_number 11
_symmetry_cell_setting 'monoclinic'
loop_
_space_group_symop_operation_xyz
x,y,z
-x,1/2+y,-z
-x,-y,-z
x,1/2-y,z
loop_
_atom_site_type_symbol
_atom_site_label
_atom_site_fract_x
_atom_site_fract_y
_atom_site_fract_z
Si Si1 0.346230 0.924387 0.981398
Si Si2 0.657846 0.071864 0.551037
Si Si3 0.046496 0.424027 0.197796
Si Si4 0.945737 0.573305 0.529528
Si Si5 0.833878 0.928170 0.864003
Si Si6 0.432660 0.427840 0.626190
Si Si7 0.727804 0.071933 0.193569
O O1 0.403222 0.750000 0.009713
O O2 0.269561 0.984738 0.872818
O O3 0.182018 0.950358 0.934112
O O4 0.534676 0.013886 0.112301
O O5 0.627036 0.250000 0.528859
O O6 0.500000 0.000000 0.500000
O O7 0.862476 0.031137 0.699033
O O8 0.642205 0.002178 0.477445
O O9 0.095440 0.250000 0.241722
O O10 0.126683 0.468801 0.181019
O O11 0.978385 0.750000 0.542246
O O12 0.725864 0.537228 0.416907
O O13 0.000000 0.500000 0.500000
O O14 0.086547 0.507818 0.663222
O O15 0.829254 0.750000 0.871929
O O16 0.631859 0.999736 0.764471
O O17 0.000000 0.000000 0.000000
O O18 0.460466 0.250000 0.632448
O O19 0.730091 0.250000 0.197489
#
# Coordination Sequence:
#
# PCOD8076306 Si02
#       7
#     4   4   4   4   4   4   4
#     4   9  18  34  58  84 113 149 188 237 295 353
#     4  12  23  36  60  92 124 157 196 246 304 361
#     4  10  21  38  59  85 118 156 199 245 298 359
#     4  10  23  41  62  87 118 159 203 251 301 356
#     4  11  24  41  61  85 118 159 204 250 301 361
#     4  11  23  42  65  89 122 161 202 251 309 365
#     4   9  18  35  56  82 115 149 188 238 296 351
#
# _framework density 20.036401999999999
#
# number of rings (size 3 to 8) (size 9 to 14) (size 15 to 20)
#    0.000    1.714    1.429    3.000    0.000    6.286 
#    0.000    7.143    0.000    0.000    0.000    0.000 
#    0.000    0.000    0.000    0.000    0.000    0.000 
#
# Total GULP energy -347257.975202 kJ/mol
# GULP energy per Si atom -12402.070543 kJ/mol
# Density = 1.999080 g / cm^3
# Si number density = 20.036402 Si / 1000 Ang^3
#
#
#
# Elastic Constant Matrix: (Units=GPa)
#
#
# Indices 1 2 3 4 5 6 
#
# 1 111.7471 49.3062 51.8557 0.0000 16.8971 0.0000
# 2 49.3062 81.3913 52.7440 0.0000 0.4085 0.0000
# 3 51.8557 52.7440 142.4817 0.0000 14.0927 0.0000
# 4 0.0000 0.0000 0.0000 36.8267 0.0000 2.4657
# 5 16.8971 0.4085 14.0927 0.0000 30.9217 0.0000
# 6 0.0000 0.0000 0.0000 2.4657 0.0000 32.4486
#
#
#
# Elastic Compliance Matrix: (Units=1/GPa)
#
#
# Indices 1 2 3 4 5 6 
#
# 1 0.014007 -0.007344 -0.001709 0.000000 -0.006778 0.000000
# 2 -0.007344 0.020222 -0.005428 0.000000 0.006220 0.000000
# 3 -0.001709 -0.005428 0.010001 0.000000 -0.003553 0.000000
# 4 0.000000 0.000000 0.000000 0.027293 0.000000 -0.002074
# 5 -0.006778 0.006220 -0.003553 0.000000 0.037581 0.000000
# 6 0.000000 0.000000 0.000000 -0.002074 0.000000 0.030976
#
#
# Mechanical properties :
#
#
# Convention : Reuss Voigt Hill
#
# Bulk Modulus (GPa) = 65.49598 71.49246 68.49422
# Shear Modulus (GPa) = 28.71418 32.15367 30.43392
#
# Velocity S-wave (km/s) = 3.78974 4.01029 3.90158
# Velocity P-wave (km/s) = 7.20479 7.56320 7.38617
#
# Compressibility (1/GPa) = 0.01526811
#
# Stress axis : x y z
#
# Youngs Moduli (GPa) = 71.39252 49.45211 99.98928
#
# Poissons Ratio (x) = 0.36318 0.17086
# Poissons Ratio (y) = 0.52431 0.54274
# Poissons Ratio (z) = 0.12199 0.26843
#
# Static dielectric constant tensor:
#      x y z
#    x 3.519590 0.000000 0.202820 
#    y 0.000000 3.700180 0.000000 
#    z 0.202820 0.000000 3.813730 
# 
# 
# High freq. dielectric constant tensor:
#      x y z
#    x 1.782580 0.000000 0.013950 
#    y 0.000000 1.777290 0.000000 
#    z 0.013950 0.000000 1.786870 
# 
# From -- ./inp_files/65448.got.cif
#   From: 2010.06.25/outbox.cif.g09.slc.cpg/sg11_33_cif.got.tgz:65448.got - 2010.06.27 23:14:04.
