data_PCOD8076505
_publ_section_title
;
Structure prediction by ZEFSAII (Michael W. Deem and Ramdas Pophale) SiO2 
 PCOD8076505
Probable space group: P 21/M
;
_chemical_formula_sum "Si O2"
_cell_formula_units_Z 32
_cell_length_a 13.368439
_cell_length_b 13.180771
_cell_length_c 19.858091
_cell_angle_alpha 90.000000
_cell_angle_beta 25.486516
_cell_angle_gamma 90.000000
_cell_volume 1505.667284
_symmetry_space_group_name_H-M "P 21/M"
_symmetry_group_IT_number 11
_symmetry_cell_setting 'monoclinic'
loop_
_space_group_symop_operation_xyz
x,y,z
-x,1/2+y,-z
-x,-y,-z
x,1/2-y,z
loop_
_atom_site_type_symbol
_atom_site_label
_atom_site_fract_x
_atom_site_fract_y
_atom_site_fract_z
Si Si1 0.770010 0.023529 0.836265
Si Si2 0.114720 0.869199 0.365446
Si Si3 0.005581 0.446149 0.829154
Si Si4 0.678215 0.493711 0.647425
Si Si5 0.249105 0.636487 0.897712
Si Si6 0.835342 0.369076 0.426754
Si Si7 0.501847 0.862749 0.491322
Si Si8 0.875330 0.137919 0.176074
O O1 0.911344 0.920495 0.734030
O O2 0.822118 0.110381 0.750230
O O3 0.847215 0.071614 0.860334
O O4 0.500000 0.000000 0.000000
O O5 0.106503 0.750000 0.384647
O O6 0.867180 0.917202 0.533993
O O7 0.306023 0.922508 0.296587
O O8 0.280611 0.438529 0.644662
O O9 0.958796 0.558848 0.886703
O O10 0.938889 0.366139 0.927718
O O11 0.434264 0.549596 0.798923
O O12 0.694739 0.421655 0.572420
O O13 0.357741 0.750000 0.828925
O O14 0.124111 0.612722 0.903141
O O15 0.870075 0.250000 0.420636
O O16 0.695534 0.389598 0.443334
O O17 0.598661 0.750000 0.419028
O O18 0.388274 0.869023 0.634634
O O19 0.977933 0.250000 0.127628
#
# Coordination Sequence:
#
# PCOD8076505 Si02
#       8
#     4   4   4   4   4   4   4   4
#     4  11  25  41  61  91 128 171 219 265 324 388
#     4  10  22  40  62  88 118 162 221 272 311 370
#     4  12  23  40  65  92 133 173 214 270 329 382
#     4  10  21  40  63  90 123 164 215 261 326 384
#     4  11  24  40  61  94 134 170 206 262 331 395
#     4  10  21  40  68  96 126 164 214 271 325 387
#     4  10  21  38  64  98 125 162 217 265 321 391
#     4  10  22  39  63  93 125 166 213 260 322 389
#
# _framework density 21.253036000000002
#
# number of rings (size 3 to 8) (size 9 to 14) (size 15 to 20)
#    0.000    1.500    1.250    3.375    3.500    1.500 
#    0.000    8.125    0.000    0.000    0.000    0.000 
#    0.000    0.000    0.000    0.000    0.000    0.000 
#
# Total GULP energy -396878.045355 kJ/mol
# GULP energy per Si atom -12402.438917 kJ/mol
# Density = 2.120466 g / cm^3
# Si number density = 21.253036 Si / 1000 Ang^3
#
#
#
# Elastic Constant Matrix: (Units=GPa)
#
#
# Indices 1 2 3 4 5 6 
#
# 1 120.4598 38.5205 39.6949 0.0000 24.8622 0.0000
# 2 38.5205 128.4982 16.7016 0.0000 8.3746 0.0000
# 3 39.6949 16.7016 83.6884 0.0000 7.8023 0.0000
# 4 0.0000 0.0000 0.0000 25.7770 0.0000 -0.1112
# 5 24.8622 8.3746 7.8023 0.0000 37.8962 0.0000
# 6 0.0000 0.0000 0.0000 -0.1112 0.0000 31.6701
#
#
#
# Elastic Compliance Matrix: (Units=1/GPa)
#
#
# Indices 1 2 3 4 5 6 
#
# 1 0.011930 -0.002572 -0.004556 0.000000 -0.006320 0.000000
# 2 -0.002572 0.008625 -0.000490 0.000000 -0.000117 0.000000
# 3 -0.004556 -0.000490 0.014192 0.000000 0.000175 0.000000
# 4 0.000000 0.000000 0.000000 0.038795 0.000000 0.000136
# 5 -0.006320 -0.000117 0.000175 0.000000 0.030524 0.000000
# 6 0.000000 0.000000 0.000000 0.000136 0.000000 0.031576
#
#
# Mechanical properties :
#
#
# Convention : Reuss Voigt Hill
#
# Bulk Modulus (GPa) = 51.25766 58.05340 54.65553
# Shear Modulus (GPa) = 31.77006 34.91730 33.34368
#
# Velocity S-wave (km/s) = 3.87052 4.05771 3.96522
# Velocity P-wave (km/s) = 6.64415 7.02339 6.83640
#
# Compressibility (1/GPa) = 0.01950928
#
# Stress axis : x y z
#
# Youngs Moduli (GPa) = 83.82333 115.94657 70.46452
#
# Poissons Ratio (x) = 0.29824 0.32103
# Poissons Ratio (y) = 0.21561 0.03454
# Poissons Ratio (z) = 0.38190 0.05684
#
# Static dielectric constant tensor:
#      x y z
#    x 3.886640 0.000000 0.249480 
#    y 0.000000 3.926520 0.000000 
#    z 0.249480 0.000000 3.706150 
# 
# 
# High freq. dielectric constant tensor:
#      x y z
#    x 1.835990 0.000000 0.020060 
#    y 0.000000 1.847370 0.000000 
#    z 0.020060 0.000000 1.823460 
# 
# From -- ./inp_files/59437.got.cif
#   From: 2010.06.25/outbox.cif.g09.slc.cpg/sg11_30_cif.got.tgz:59437.got - 2010.06.27 23:14:04.
