data_PCOD8076781
_publ_section_title
;
Structure prediction by ZEFSAII (Michael W. Deem and Ramdas Pophale) SiO2 
 PCOD8076781
Probable space group: P 21/M
;
_chemical_formula_sum "Si O2"
_cell_formula_units_Z 24
_cell_length_a 15.031802
_cell_length_b 8.636041
_cell_length_c 10.227608
_cell_angle_alpha 90.000000
_cell_angle_beta 68.390775
_cell_angle_gamma 90.000000
_cell_volume 1234.385136
_symmetry_space_group_name_H-M "P 21/M"
_symmetry_group_IT_number 11
_symmetry_cell_setting 'monoclinic'
loop_
_space_group_symop_operation_xyz
x,y,z
-x,1/2+y,-z
-x,-y,-z
x,1/2-y,z
loop_
_atom_site_type_symbol
_atom_site_label
_atom_site_fract_x
_atom_site_fract_y
_atom_site_fract_z
Si Si1 0.035139 0.567501 0.845613
Si Si2 0.461923 0.067816 0.153989
Si Si3 0.765373 0.931234 0.338476
Si Si4 0.429543 0.933820 0.646225
Si Si5 0.253093 0.431392 0.346883
Si Si6 0.063548 0.568211 0.350519
O O1 0.024407 0.750000 0.852487
O O2 0.144727 0.523329 0.764506
O O3 0.968067 0.500054 0.769729
O O4 0.000000 0.500000 0.000000
O O5 0.459964 0.250000 0.144130
O O6 0.530878 0.015992 0.234023
O O7 0.354753 0.008134 0.239554
O O8 0.500000 0.000000 0.000000
O O9 0.780372 0.750000 0.305944
O O10 0.752378 0.969277 0.497368
O O11 0.673764 0.989400 0.309195
O O12 0.423186 0.750000 0.633654
O O13 0.500000 0.000000 0.500000
O O14 0.237066 0.250000 0.329719
O O15 0.174064 0.528098 0.312217
O O16 0.047250 0.750000 0.357165
O O17 0.000000 0.500000 0.500000
#
# Coordination Sequence:
#
# PCOD8076781 Si02
#       6
#     4   4   4   4   4   4
#     4  12  26  45  67  95 130 169 211 264 324 382
#     4  10  23  42  62  90 127 165 205 259 313 369
#     4  11  22  40  66  95 128 167 211 262 318 380
#     4  11  22  39  63  93 127 165 214 265 317 379
#     4  10  21  40  64  91 127 167 213 262 312 375
#     4  12  24  40  65  97 129 167 214 263 316 380
#
# _framework density 19.442876999999999
#
# number of rings (size 3 to 8) (size 9 to 14) (size 15 to 20)
#    0.000    1.000    3.333    4.000    0.000    4.000 
#    0.000    3.333    0.000    0.000    0.000    0.000 
#    0.000    0.000    0.000    0.000    0.000    0.000 
#
# Total GULP energy -297740.516364 kJ/mol
# GULP energy per Si atom -12405.854849 kJ/mol
# Density = 1.939862 g / cm^3
# Si number density = 19.442877 Si / 1000 Ang^3
#
#
#
# Elastic Constant Matrix: (Units=GPa)
#
#
# Indices 1 2 3 4 5 6 
#
# 1 170.3854 63.3850 77.7101 0.0000 9.4024 0.0000
# 2 63.3850 119.3444 64.7508 0.0000 6.3628 0.0000
# 3 77.7101 64.7508 163.1916 0.0000 5.8250 0.0000
# 4 0.0000 0.0000 0.0000 36.4215 0.0000 -1.0684
# 5 9.4024 6.3628 5.8250 0.0000 36.8373 0.0000
# 6 0.0000 0.0000 0.0000 -1.0684 0.0000 38.2394
#
#
#
# Elastic Compliance Matrix: (Units=1/GPa)
#
#
# Indices 1 2 3 4 5 6 
#
# 1 0.008243 -0.002814 -0.002766 0.000000 -0.001180 0.000000
# 2 -0.002814 0.011690 -0.003270 0.000000 -0.000784 0.000000
# 3 -0.002766 -0.003270 0.008747 0.000000 -0.000112 0.000000
# 4 0.000000 0.000000 0.000000 0.027479 0.000000 0.000768
# 5 -0.001180 -0.000784 -0.000112 0.000000 0.027601 0.000000
# 6 0.000000 0.000000 0.000000 0.000768 0.000000 0.026173
#
#
# Mechanical properties :
#
#
# Convention : Reuss Voigt Hill
#
# Bulk Modulus (GPa) = 91.09280 96.06812 93.58046
# Shear Modulus (GPa) = 38.08308 38.77132 38.42720
#
# Velocity S-wave (km/s) = 4.43054 4.47040 4.45051
# Velocity P-wave (km/s) = 8.55138 8.72718 8.63973
#
# Compressibility (1/GPa) = 0.01097782
#
# Stress axis : x y z
#
# Youngs Moduli (GPa) = 121.31908 85.54541 114.32868
#
# Poissons Ratio (x) = 0.24072 0.31629
# Poissons Ratio (y) = 0.34138 0.37389
# Poissons Ratio (z) = 0.33563 0.27976
#
# Static dielectric constant tensor:
#      x y z
#    x 4.439270 0.000000 -0.048380 
#    y 0.000000 3.578720 0.000000 
#    z -0.048380 0.000000 3.580790 
# 
# 
# High freq. dielectric constant tensor:
#      x y z
#    x 1.777870 0.000000 0.002190 
#    y 0.000000 1.765950 0.000000 
#    z 0.002190 0.000000 1.760260 
# 
# From -- ./inp_files/20344.got.cif
#   From: 2010.06.25/outbox.cif.g09.slc.cpg/sg11_11_cif.got.tgz:20344.got - 2010.06.27 23:14:04.
