data_PCOD8076006
_publ_section_title
;
Structure prediction by ZEFSAII (Michael W. Deem and Ramdas Pophale) SiO2 
 PCOD8076006
Probable space group: P 21/M
;
_chemical_formula_sum "Si O2"
_cell_formula_units_Z 32
_cell_length_a 7.608797
_cell_length_b 24.474141
_cell_length_c 10.935818
_cell_angle_alpha 90.000000
_cell_angle_beta 59.641910
_cell_angle_gamma 90.000000
_cell_volume 1757.223233
_symmetry_space_group_name_H-M "P 21/M"
_symmetry_group_IT_number 11
_symmetry_cell_setting 'monoclinic'
loop_
_space_group_symop_operation_xyz
x,y,z
-x,1/2+y,-z
-x,-y,-z
x,1/2-y,z
loop_
_atom_site_type_symbol
_atom_site_label
_atom_site_fract_x
_atom_site_fract_y
_atom_site_fract_z
Si Si1 0.691452 0.538425 0.442062
Si Si2 0.026281 0.462415 0.216571
Si Si3 0.301173 0.097158 0.800223
Si Si4 0.444677 0.687541 0.863710
Si Si5 0.625157 0.687999 0.057427
Si Si6 0.632643 0.916394 0.726294
Si Si7 0.034365 0.634708 0.924992
Si Si8 0.350260 0.994989 0.941107
O O1 0.500000 0.500000 0.500000
O O2 0.677142 0.589198 0.352541
O O3 0.709473 0.564657 0.568128
O O4 0.885040 0.500221 0.348454
O O5 0.203163 0.436240 0.234590
O O6 0.903982 0.412392 0.195201
O O7 0.121611 0.501150 0.075911
O O8 0.432170 0.148888 0.806485
O O9 0.063252 0.105727 0.920179
O O10 0.392473 0.043355 0.831117
O O11 0.494281 0.750000 0.811449
O O12 0.607439 0.649076 0.736361
O O13 0.218541 0.673195 0.899226
O O14 0.467177 0.678406 0.001839
O O15 0.616420 0.750000 0.107090
O O16 0.854066 0.672694 0.930591
O O17 0.407224 0.939747 0.846099
O O18 0.500000 0.000000 0.000000
#
# Coordination Sequence:
#
# PCOD8076006 Si02
#       8
#     4   4   4   4   4   4   4   4
#     4  12  23  36  54  84 125 163 198 236 289 371
#     4  10  21  37  56  87 120 160 197 243 301 353
#     4   9  20  36  51  84 117 156 188 236 300 347
#     4  11  21  36  62  90 114 151 201 254 302 351
#     4   9  18  36  58  85 115 146 197 252 294 341
#     4  11  21  38  56  86 123 160 197 246 296 364
#     4   9  19  35  57  87 118 142 194 243 299 341
#     4   9  17  32  57  80 111 146 190 238 298 348
#
# _framework density 18.210547999999999
#
# number of rings (size 3 to 8) (size 9 to 14) (size 15 to 20)
#    0.750    1.250    2.500    2.250    1.750    1.000 
#    0.000    0.625    0.000    0.000    0.000    0.000 
#    0.000    0.000    0.000    0.000    0.000    0.000 
#
# Total GULP energy -396471.660181 kJ/mol
# GULP energy per Si atom -12389.739381 kJ/mol
# Density = 1.816910 g / cm^3
# Si number density = 18.210548 Si / 1000 Ang^3
#
#
#
# Elastic Constant Matrix: (Units=GPa)
#
#
# Indices 1 2 3 4 5 6 
#
# 1 84.7942 40.5558 28.5569 0.0000 5.3083 0.0000
# 2 40.5558 129.3356 49.9933 0.0000 5.0037 0.0000
# 3 28.5569 49.9933 90.9217 0.0000 8.1154 0.0000
# 4 0.0000 0.0000 0.0000 18.6443 0.0000 1.2259
# 5 5.3083 5.0037 8.1154 0.0000 21.5327 0.0000
# 6 0.0000 0.0000 0.0000 1.2259 0.0000 31.6408
#
#
#
# Elastic Compliance Matrix: (Units=1/GPa)
#
#
# Indices 1 2 3 4 5 6 
#
# 1 0.014403 -0.003505 -0.002434 0.000000 -0.001819 0.000000
# 2 -0.003505 0.010673 -0.004784 0.000000 0.000187 0.000000
# 3 -0.002434 -0.004784 0.014737 0.000000 -0.003842 0.000000
# 4 0.000000 0.000000 0.000000 0.053773 0.000000 -0.002083
# 5 -0.001819 0.000187 -0.003842 0.000000 0.048294 0.000000
# 6 0.000000 0.000000 0.000000 -0.002083 0.000000 0.031686
#
#
# Mechanical properties :
#
#
# Convention : Reuss Voigt Hill
#
# Bulk Modulus (GPa) = 54.44963 60.36261 57.40612
# Shear Modulus (GPa) = 24.85899 26.75993 25.80946
#
# Velocity S-wave (km/s) = 3.69872 3.83753 3.76876
# Velocity P-wave (km/s) = 6.94303 7.27011 7.10845
#
# Compressibility (1/GPa) = 0.01836560
#
# Stress axis : x y z
#
# Youngs Moduli (GPa) = 69.42816 93.69384 67.85820
#
# Poissons Ratio (x) = 0.32842 0.16518
# Poissons Ratio (y) = 0.24336 0.32466
# Poissons Ratio (z) = 0.16900 0.44826
#
# Static dielectric constant tensor:
#      x y z
#    x 3.365540 0.000000 0.069330 
#    y 0.000000 3.431670 0.000000 
#    z 0.069330 0.000000 3.312920 
# 
# 
# High freq. dielectric constant tensor:
#      x y z
#    x 1.718010 0.000000 0.011070 
#    y 0.000000 1.705150 0.000000 
#    z 0.011070 0.000000 1.670010 
# 
# From -- ./inp_files/32993.got.cif
#   From: 2010.06.25/outbox.cif.g09.slc.cpg/sg11_17_cif.got.tgz:32993.got - 2010.06.27 23:14:04.
