data_PCOD8076137
_publ_section_title
;
Structure prediction by ZEFSAII (Michael W. Deem and Ramdas Pophale) SiO2 
 PCOD8076137
Probable space group: P 21/M
;
_chemical_formula_sum "Si O2"
_cell_formula_units_Z 24
_cell_length_a 12.001611
_cell_length_b 13.524297
_cell_length_c 14.526668
_cell_angle_alpha 90.000000
_cell_angle_beta 150.212960
_cell_angle_gamma 90.000000
_cell_volume 1171.338230
_symmetry_space_group_name_H-M "P 21/M"
_symmetry_group_IT_number 11
_symmetry_cell_setting 'monoclinic'
loop_
_space_group_symop_operation_xyz
x,y,z
-x,1/2+y,-z
-x,-y,-z
x,1/2-y,z
loop_
_atom_site_type_symbol
_atom_site_label
_atom_site_fract_x
_atom_site_fract_y
_atom_site_fract_z
Si Si1 0.342854 0.516158 0.214758
Si Si2 0.926618 0.362471 0.407383
Si Si3 0.315295 0.362679 0.826698
Si Si4 0.918252 0.635605 0.859912
Si Si5 0.460039 0.031892 0.099144
Si Si6 0.212439 0.135951 0.437932
O O1 0.284505 0.430138 0.245324
O O2 0.369622 0.460554 0.136779
O O3 0.566853 0.569359 0.408213
O O4 0.150154 0.598842 0.070226
O O5 0.850869 0.250000 0.338483
O O6 0.078892 0.374333 0.606752
O O7 0.060250 0.400659 0.413475
O O8 0.711018 0.427732 0.268942
O O9 0.393087 0.250000 0.887612
O O10 0.518466 0.417728 0.918288
O O11 0.291178 0.407469 0.912256
O O12 0.879459 0.750000 0.858855
O O13 0.925726 0.621979 0.755154
O O14 0.284034 0.250000 0.504442
#
# Coordination Sequence:
#
# PCOD8076137 Si02
#       6
#     4   4   4   4   4   4
#     4  11  23  40  64  86 119 157 198 248 295 347
#     4  10  21  37  59  89 122 153 192 243 293 351
#     4  10  22  37  54  86 123 158 196 233 287 350
#     4  10  24  42  61  88 117 154 202 248 297 347
#     4  11  23  36  61  88 121 158 196 240 293 352
#     4  10  21  38  64  91 117 151 197 246 292 350
#
# _framework density 20.489386
#
# number of rings (size 3 to 8) (size 9 to 14) (size 15 to 20)
#    0.000    1.667    1.667    2.000    4.667    2.000 
#    0.000    0.000    0.000    4.000    0.000    0.000 
#    0.000    0.000    0.000    0.000    0.000    0.000 
#
# Total GULP energy -297677.802154 kJ/mol
# GULP energy per Si atom -12403.241756 kJ/mol
# Density = 2.044275 g / cm^3
# Si number density = 20.489386 Si / 1000 Ang^3
#
#
#
# Elastic Constant Matrix: (Units=GPa)
#
#
# Indices 1 2 3 4 5 6 
#
# 1 85.8574 37.9742 17.1398 0.0000 -1.8700 0.0000
# 2 37.9742 109.9715 27.9234 0.0000 -3.2633 0.0000
# 3 17.1398 27.9234 56.6041 0.0000 -9.2975 0.0000
# 4 0.0000 0.0000 0.0000 25.4064 0.0000 -5.8414
# 5 -1.8700 -3.2633 -9.2975 0.0000 31.0601 0.0000
# 6 0.0000 0.0000 0.0000 -5.8414 0.0000 29.9476
#
#
#
# Elastic Compliance Matrix: (Units=1/GPa)
#
#
# Indices 1 2 3 4 5 6 
#
# 1 0.013967 -0.004282 -0.002159 0.000000 -0.000255 0.000000
# 2 -0.004282 0.011715 -0.004546 0.000000 -0.000388 0.000000
# 3 -0.002159 -0.004546 0.021521 0.000000 0.005835 0.000000
# 4 0.000000 0.000000 0.000000 0.041208 0.000000 0.008038
# 5 -0.000255 -0.000388 0.005835 0.000000 0.033886 0.000000
# 6 0.000000 0.000000 0.000000 0.008038 0.000000 0.034959
#
#
# Mechanical properties :
#
#
# Convention : Reuss Voigt Hill
#
# Bulk Modulus (GPa) = 39.63724 46.50087 43.06906
# Shear Modulus (GPa) = 26.64684 28.57586 27.61135
#
# Velocity S-wave (km/s) = 3.61018 3.73857 3.67494
# Velocity P-wave (km/s) = 6.06343 6.43275 6.25082
#
# Compressibility (1/GPa) = 0.02522880
#
# Stress axis : x y z
#
# Youngs Moduli (GPa) = 71.59933 85.36221 46.46594
#
# Poissons Ratio (x) = 0.36555 0.10030
# Poissons Ratio (y) = 0.30661 0.21124
# Poissons Ratio (z) = 0.15455 0.38806
#
# Static dielectric constant tensor:
#      x y z
#    x 3.664550 0.000000 -0.211020 
#    y 0.000000 3.943120 0.000000 
#    z -0.211020 0.000000 3.699190 
# 
# 
# High freq. dielectric constant tensor:
#      x y z
#    x 1.787900 0.000000 -0.014780 
#    y 0.000000 1.812580 0.000000 
#    z -0.014780 0.000000 1.808360 
# 
# From -- ./inp_files/50425.got.cif
#   From: 2010.06.25/outbox.cif.g09.slc.cpg/sg11_26_cif.got.tgz:50425.got - 2010.06.27 23:14:04.
