data_PCOD8076590
_publ_section_title
;
Structure prediction by ZEFSAII (Michael W. Deem and Ramdas Pophale) SiO2 
 PCOD8076590
Probable space group: P 21/M
;
_chemical_formula_sum "Si O2"
_cell_formula_units_Z 24
_cell_length_a 20.211691
_cell_length_b 11.481420
_cell_length_c 5.054803
_cell_angle_alpha 90.000000
_cell_angle_beta 105.265281
_cell_angle_gamma 90.000000
_cell_volume 1131.624867
_symmetry_space_group_name_H-M "P 21/M"
_symmetry_group_IT_number 11
_symmetry_cell_setting 'monoclinic'
loop_
_space_group_symop_operation_xyz
x,y,z
-x,1/2+y,-z
-x,-y,-z
x,1/2-y,z
loop_
_atom_site_type_symbol
_atom_site_label
_atom_site_fract_x
_atom_site_fract_y
_atom_site_fract_z
Si Si1 0.452576 0.012615 0.200288
Si Si2 0.756718 0.008203 0.553210
Si Si3 0.284096 0.250000 0.469608
Si Si4 0.952569 0.879370 0.167239
Si Si5 0.909254 0.491634 0.625619
Si Si6 0.685483 0.387174 0.979741
Si Si7 0.373741 0.250000 0.065350
O O1 0.418767 0.138208 0.169523
O O2 0.500000 0.000000 0.500000
O O3 0.394745 0.912651 0.146734
O O4 0.500000 0.000000 0.000000
O O5 0.759759 0.867414 0.528876
O O6 0.833050 0.057968 0.588278
O O7 0.731209 0.045035 0.814683
O O8 0.705479 0.064738 0.288354
O O9 0.309254 0.250000 0.194158
O O10 0.348546 0.250000 0.736473
O O11 0.931603 0.750000 0.224258
O O12 0.915725 0.966403 0.330810
O O13 0.925201 0.903547 0.844410
O O14 0.035253 0.890430 0.262942
O O15 0.698852 0.250000 0.973613
#
# Coordination Sequence:
#
# PCOD8076590 Si02
#       7
#     4   4   2   4   4   4   2
#     4  12  26  44  67  96 128 172 216 266 327 384
#     4  12  24  45  67 100 129 176 220 265 335 381
#     4  12  22  42  68  96 136 166 210 280 320 390
#     4  10  21  39  61  92 131 166 208 266 317 375
#     4  10  23  40  62  95 126 165 219 259 315 388
#     4  12  27  47  67  97 136 170 219 272 321 395
#     4  12  24  46  66  98 134 168 216 272 326 388
#
# _framework density 21.208441000000001
#
# number of rings (size 3 to 8) (size 9 to 14) (size 15 to 20)
#    0.000    0.667    3.333    4.000    4.667    1.333 
#    0.000    0.000    0.000    0.000    0.000    0.000 
#    0.000    0.000    0.000    0.000    0.000    0.000 
#
# Total GULP energy -297735.619519 kJ/mol
# GULP energy per Si atom -12405.650813 kJ/mol
# Density = 2.116017 g / cm^3
# Si number density = 21.208441 Si / 1000 Ang^3
#
#
#
# Elastic Constant Matrix: (Units=GPa)
#
#
# Indices 1 2 3 4 5 6 
#
# 1 121.4646 -0.0962 17.5861 0.0000 -3.7630 0.0000
# 2 -0.0962 100.4129 11.1938 0.0000 0.2368 0.0000
# 3 17.5861 11.1938 80.2138 0.0000 -13.7306 0.0000
# 4 0.0000 0.0000 0.0000 22.4993 0.0000 -6.9599
# 5 -3.7630 0.2368 -13.7306 0.0000 29.4738 0.0000
# 6 0.0000 0.0000 0.0000 -6.9599 0.0000 19.6767
#
#
#
# Elastic Compliance Matrix: (Units=1/GPa)
#
#
# Indices 1 2 3 4 5 6 
#
# 1 0.008509 0.000215 -0.001858 0.000000 0.000219 0.000000
# 2 0.000215 0.010139 -0.001599 0.000000 -0.000799 0.000000
# 3 -0.001858 -0.001599 0.014190 0.000000 0.006386 0.000000
# 4 0.000000 0.000000 0.000000 0.049906 0.000000 0.017652
# 5 0.000219 -0.000799 0.006386 0.000000 0.036938 0.000000
# 6 0.000000 0.000000 0.000000 0.017652 0.000000 0.057065
#
#
# Mechanical properties :
#
#
# Convention : Reuss Voigt Hill
#
# Bulk Modulus (GPa) = 37.94429 39.93987 38.94208
# Shear Modulus (GPa) = 26.03940 32.55712 29.29826
#
# Velocity S-wave (km/s) = 3.50778 3.92229 3.72081
# Velocity P-wave (km/s) = 5.85969 6.27578 6.07130
#
# Compressibility (1/GPa) = 0.02635442
#
# Stress axis : x y z
#
# Youngs Moduli (GPa) = 117.52521 98.62719 70.47067
#
# Poissons Ratio (x) = -0.02118 0.13093
# Poissons Ratio (y) = -0.02524 0.11266
# Poissons Ratio (z) = 0.21836 0.15768
#
# Static dielectric constant tensor:
#      x y z
#    x 3.922040 0.000000 -0.016160 
#    y 0.000000 4.066970 0.000000 
#    z -0.016160 0.000000 3.957700 
# 
# 
# High freq. dielectric constant tensor:
#      x y z
#    x 1.838580 0.000000 -0.004420 
#    y 0.000000 1.826060 0.000000 
#    z -0.004420 0.000000 1.850280 
# 
# From -- ./inp_files/7739.got.cif
#   From: 2010.06.25/outbox.cif.g09.slc.cpg/sg11_4_cif.got.tgz:7739.got - 2010.06.27 23:14:04.
