data_PCOD8076075
_publ_section_title
;
Structure prediction by ZEFSAII (Michael W. Deem and Ramdas Pophale) SiO2 
 PCOD8076075
Probable space group: P 21/M
;
_chemical_formula_sum "Si O2"
_cell_formula_units_Z 32
_cell_length_a 30.216519
_cell_length_b 9.086457
_cell_length_c 12.638938
_cell_angle_alpha 90.000000
_cell_angle_beta 151.775783
_cell_angle_gamma 90.000000
_cell_volume 1641.119585
_symmetry_space_group_name_H-M "P 21/M"
_symmetry_group_IT_number 11
_symmetry_cell_setting 'monoclinic'
loop_
_space_group_symop_operation_xyz
x,y,z
-x,1/2+y,-z
-x,-y,-z
x,1/2-y,z
loop_
_atom_site_type_symbol
_atom_site_label
_atom_site_fract_x
_atom_site_fract_y
_atom_site_fract_z
Si Si1 0.864792 0.422442 0.962365
Si Si2 0.597371 0.925225 0.226510
Si Si3 0.909169 0.582464 0.845585
Si Si4 0.035858 0.077963 0.471735
Si Si5 0.240444 0.425550 0.839536
Si Si6 0.265430 0.416657 0.661295
Si Si7 0.315973 0.077992 0.368017
Si Si8 0.406346 0.421870 0.339827
O O1 0.849575 0.250000 0.913574
O O2 0.860824 0.503153 0.841921
O O3 0.779694 0.487692 0.852517
O O4 0.963966 0.456117 0.225648
O O5 0.588432 0.750000 0.203318
O O6 0.666093 0.990402 0.280675
O O7 0.635108 0.973770 0.420701
O O8 0.500000 0.000000 0.000000
O O9 0.932675 0.750000 0.926545
O O10 0.840525 0.577032 0.601591
O O11 0.000000 0.500000 0.000000
O O12 0.040995 0.250000 0.506757
O O13 0.138068 0.014499 0.656725
O O14 0.000000 0.000000 0.500000
O O15 0.234716 0.250000 0.821112
O O16 0.268856 0.492174 0.784303
O O17 0.317803 0.479980 0.085834
O O18 0.299717 0.250000 0.745894
O O19 0.289809 0.250000 0.315145
O O20 0.386817 0.042478 0.421496
O O21 0.500000 0.500000 0.500000
O O22 0.420316 0.250000 0.349706
#
# Coordination Sequence:
#
# PCOD8076075 Si02
#       8
#     4   4   4   4   4   4   4   4
#     4  11  22  36  58  89 118 149 192 244 292 343
#     4  10  21  37  58  84 112 149 191 236 291 347
#     4  11  21  36  57  83 118 158 195 237 287 347
#     4  10  21  37  58  84 114 149 192 239 286 344
#     4   9  18  35  57  81 109 146 188 227 276 339
#     4   9  18  35  57  80 112 150 188 229 280 341
#     4  10  21  40  60  83 117 155 192 234 293 356
#     4  10  22  38  60  84 110 147 189 234 286 342
#
# _framework density 19.498884
#
# number of rings (size 3 to 8) (size 9 to 14) (size 15 to 20)
#    0.000    2.000    1.250    2.250    1.750    5.000 
#    0.000    0.625    0.000    2.250    0.000    0.000 
#    0.000    0.000    0.000    0.000    0.000    0.000 
#
# Total GULP energy -396821.444985 kJ/mol
# GULP energy per Si atom -12400.670156 kJ/mol
# Density = 1.945450 g / cm^3
# Si number density = 19.498884 Si / 1000 Ang^3
#
#
#
# Elastic Constant Matrix: (Units=GPa)
#
#
# Indices 1 2 3 4 5 6 
#
# 1 168.4335 37.6568 76.8529 0.0000 2.7256 0.0000
# 2 37.6568 52.8038 37.5455 0.0000 4.9620 0.0000
# 3 76.8529 37.5455 131.2499 0.0000 11.1477 0.0000
# 4 0.0000 0.0000 0.0000 29.8718 0.0000 7.1240
# 5 2.7256 4.9620 11.1477 0.0000 41.0658 0.0000
# 6 0.0000 0.0000 0.0000 7.1240 0.0000 30.0297
#
#
#
# Elastic Compliance Matrix: (Units=1/GPa)
#
#
# Indices 1 2 3 4 5 6 
#
# 1 0.008540 -0.003222 -0.004160 0.000000 0.000952 0.000000
# 2 -0.003222 0.025034 -0.005155 0.000000 -0.001412 0.000000
# 3 -0.004160 -0.005155 0.011723 0.000000 -0.002283 0.000000
# 4 0.000000 0.000000 0.000000 0.035484 0.000000 -0.008418
# 5 0.000952 -0.001412 -0.002283 0.000000 0.025078 0.000000
# 6 0.000000 0.000000 0.000000 -0.008418 0.000000 0.035297
#
#
# Mechanical properties :
#
#
# Convention : Reuss Voigt Hill
#
# Bulk Modulus (GPa) = 49.44576 72.95531 61.20054
# Shear Modulus (GPa) = 28.90667 33.55559 31.23113
#
# Velocity S-wave (km/s) = 3.85447 4.15287 4.00645
# Velocity P-wave (km/s) = 6.72477 7.77763 7.27028
#
# Compressibility (1/GPa) = 0.02022418
#
# Stress axis : x y z
#
# Youngs Moduli (GPa) = 117.09606 39.94641 85.30072
#
# Poissons Ratio (x) = 0.12871 0.35483
# Poissons Ratio (y) = 0.37728 0.43969
# Poissons Ratio (z) = 0.48709 0.20591
#
# Static dielectric constant tensor:
#      x y z
#    x 3.654780 0.000000 0.002150 
#    y 0.000000 3.230030 0.000000 
#    z 0.002150 0.000000 3.550530 
# 
# 
# High freq. dielectric constant tensor:
#      x y z
#    x 1.777430 0.000000 -0.000280 
#    y 0.000000 1.726630 0.000000 
#    z -0.000280 0.000000 1.766880 
# 
# From -- ./inp_files/45250.got.cif
#   From: 2010.06.25/outbox.cif.g09.slc.cpg/sg11_23_cif.got.tgz:45250.got - 2010.06.27 23:14:04.
