data_PCOD8076671
_publ_section_title
;
Structure prediction by ZEFSAII (Michael W. Deem and Ramdas Pophale) SiO2 
 PCOD8076671
Probable space group: P 21/M
;
_chemical_formula_sum "Si O2"
_cell_formula_units_Z 32
_cell_length_a 15.750559
_cell_length_b 16.739539
_cell_length_c 11.941446
_cell_angle_alpha 90.000000
_cell_angle_beta 150.890784
_cell_angle_gamma 90.000000
_cell_volume 1531.643642
_symmetry_space_group_name_H-M "P 21/M"
_symmetry_group_IT_number 11
_symmetry_cell_setting 'monoclinic'
loop_
_space_group_symop_operation_xyz
x,y,z
-x,1/2+y,-z
-x,-y,-z
x,1/2-y,z
loop_
_atom_site_type_symbol
_atom_site_label
_atom_site_fract_x
_atom_site_fract_y
_atom_site_fract_z
Si Si1 0.297409 0.077956 0.958847
Si Si2 0.846025 0.450281 0.769750
Si Si3 0.612628 0.659586 0.149896
Si Si4 0.006006 0.386290 0.330056
Si Si5 0.947792 0.427730 0.650059
Si Si6 0.735545 0.416033 0.197263
Si Si7 0.500275 0.977843 0.371218
Si Si8 0.742297 0.341258 0.852331
O O1 0.407701 0.045523 0.189963
O O2 0.394069 0.142226 0.991746
O O3 0.121214 0.117321 0.805855
O O4 0.247279 0.008936 0.812384
O O5 0.907350 0.402428 0.730333
O O6 0.702928 0.517942 0.568753
O O7 0.768736 0.383347 0.763085
O O8 0.000000 0.500000 0.000000
O O9 0.557371 0.750000 0.103358
O O10 0.802230 0.645128 0.421600
O O11 0.466144 0.609757 0.049401
O O12 0.006890 0.478815 0.300251
O O13 0.873511 0.367565 0.280240
O O14 0.925373 0.340800 0.129882
O O15 0.785036 0.404947 0.384462
O O16 0.404460 0.891918 0.245841
O O17 0.500000 0.000000 0.500000
O O18 0.677628 0.250000 0.760862
#
# Coordination Sequence:
#
# PCOD8076671 Si02
#       8
#     4   4   4   4   4   4   4   4
#     4  11  20  41  65  91 124 166 218 261 316 388
#     4  11  22  39  65  95 128 168 224 264 318 393
#     4  12  26  39  59  97 136 172 211 263 332 391
#     4  11  21  41  66  95 129 167 210 270 325 385
#     4  11  19  38  68  95 119 163 223 267 309 378
#     4  11  22  39  64  93 126 166 217 261 317 388
#     4  10  21  39  64  92 119 167 218 263 309 390
#     4  11  23  42  65  94 132 169 209 276 339 380
#
# _framework density 20.892588
#
# number of rings (size 3 to 8) (size 9 to 14) (size 15 to 20)
#    0.000    1.000    6.250    3.000    1.750    1.000 
#    0.000    6.875    0.000    0.000    0.000    0.000 
#    0.000    0.000    0.000    0.000    0.000    0.000 
#
# Total GULP energy -396677.293240 kJ/mol
# GULP energy per Si atom -12396.165414 kJ/mol
# Density = 2.084504 g / cm^3
# Si number density = 20.892588 Si / 1000 Ang^3
#
#
#
# Elastic Constant Matrix: (Units=GPa)
#
#
# Indices 1 2 3 4 5 6 
#
# 1 111.2823 10.3002 43.4837 0.0000 6.9978 0.0000
# 2 10.3002 61.6951 15.3952 0.0000 9.0784 0.0000
# 3 43.4837 15.3952 138.4578 0.0000 8.1266 0.0000
# 4 0.0000 0.0000 0.0000 13.5983 0.0000 -0.9059
# 5 6.9978 9.0784 8.1266 0.0000 48.1862 0.0000
# 6 0.0000 0.0000 0.0000 -0.9059 0.0000 16.0456
#
#
#
# Elastic Compliance Matrix: (Units=1/GPa)
#
#
# Indices 1 2 3 4 5 6 
#
# 1 0.010327 -0.000829 -0.003103 0.000000 -0.000820 0.000000
# 2 -0.000829 0.017136 -0.001477 0.000000 -0.002859 0.000000
# 3 -0.003103 -0.001477 0.008402 0.000000 -0.000688 0.000000
# 4 0.000000 0.000000 0.000000 0.073816 0.000000 0.004168
# 5 -0.000820 -0.002859 -0.000688 0.000000 0.021527 0.000000
# 6 0.000000 0.000000 0.000000 0.004168 0.000000 0.062558
#
#
# Mechanical properties :
#
#
# Convention : Reuss Voigt Hill
#
# Bulk Modulus (GPa) = 39.92583 49.97706 44.95144
# Shear Modulus (GPa) = 23.48160 31.71643 27.59901
#
# Velocity S-wave (km/s) = 3.35613 3.90047 3.63849
# Velocity P-wave (km/s) = 5.84548 6.65265 6.26209
#
# Compressibility (1/GPa) = 0.02504644
#
# Stress axis : x y z
#
# Youngs Moduli (GPa) = 96.83407 58.35499 119.02575
#
# Poissons Ratio (x) = 0.04838 0.36933
# Poissons Ratio (y) = 0.08029 0.17583
# Poissons Ratio (z) = 0.30047 0.08620
#
# Static dielectric constant tensor:
#      x y z
#    x 4.137430 0.000000 0.149330 
#    y 0.000000 3.441730 0.000000 
#    z 0.149330 0.000000 4.082160 
# 
# 
# High freq. dielectric constant tensor:
#      x y z
#    x 1.831540 0.000000 0.000010 
#    y 0.000000 1.767020 0.000000 
#    z 0.000010 0.000000 1.833580 
# 
# From -- ./inp_files/40043.got.cif
#   From: 2010.06.25/outbox.cif.g09.slc.cpg/sg11_21_cif.got.tgz:40043.got - 2010.06.27 23:14:04.
