data_PCOD8076429
_publ_section_title
;
Structure prediction by ZEFSAII (Michael W. Deem and Ramdas Pophale) SiO2 
 PCOD8076429
Probable space group: P 21/M
;
_chemical_formula_sum "Si O2"
_cell_formula_units_Z 32
_cell_length_a 21.660131
_cell_length_b 15.449833
_cell_length_c 7.866718
_cell_angle_alpha 90.000000
_cell_angle_beta 145.470700
_cell_angle_gamma 90.000000
_cell_volume 1492.208274
_symmetry_space_group_name_H-M "P 21/M"
_symmetry_group_IT_number 11
_symmetry_cell_setting 'monoclinic'
loop_
_space_group_symop_operation_xyz
x,y,z
-x,1/2+y,-z
-x,-y,-z
x,1/2-y,z
loop_
_atom_site_type_symbol
_atom_site_label
_atom_site_fract_x
_atom_site_fract_y
_atom_site_fract_z
Si Si1 0.088093 0.980493 0.339093
Si Si2 0.250353 0.845187 0.554877
Si Si3 0.939665 0.348739 0.447807
Si Si4 0.632281 0.654678 0.758227
Si Si5 0.509232 0.114298 0.881838
Si Si6 0.491718 0.080250 0.212610
Si Si7 0.280880 0.848715 0.237912
Si Si8 0.130190 0.347148 0.616330
O O1 0.188495 0.921202 0.509954
O O2 0.027608 0.923770 0.346319
O O3 0.132963 0.075254 0.488152
O O4 0.000000 0.000000 0.000000
O O5 0.199549 0.750000 0.480682
O O6 0.237135 0.866384 0.326881
O O7 0.376235 0.839634 0.896477
O O8 0.946093 0.250000 0.534699
O O9 0.022077 0.358369 0.480168
O O10 0.816448 0.370563 0.110963
O O11 0.604753 0.750000 0.761938
O O12 0.581514 0.643634 0.456868
O O13 0.588712 0.595136 0.812104
O O14 0.761390 0.641737 0.023911
O O15 0.531236 0.014312 0.905688
O O16 0.474327 0.137122 0.999350
O O17 0.614850 0.091021 0.563910
O O18 0.319480 0.750000 0.304033
O O19 0.129484 0.250000 0.530505
#
# Coordination Sequence:
#
# PCOD8076429 Si02
#       8
#     4   4   4   4   4   4   4   4
#     4  12  25  40  64  97 123 163 212 265 331 388
#     4  10  21  39  62  94 133 165 210 271 324 379
#     4  10  22  42  66  93 122 164 217 264 317 384
#     4  11  23  39  62  88 124 173 214 258 317 386
#     4  10  22  39  62  94 131 169 210 266 324 386
#     4  10  21  38  61  96 128 166 212 265 323 388
#     4   9  19  36  63  92 125 165 208 269 326 372
#     4  10  24  45  62  87 128 171 216 264 320 384
#
# _framework density 21.444728000000001
#
# number of rings (size 3 to 8) (size 9 to 14) (size 15 to 20)
#    0.000    1.750    0.000    3.375    3.500    3.500 
#    6.750    0.000    0.000    0.000    0.000    0.000 
#    0.000    0.000    0.000    0.000    0.000    0.000 
#
# Total GULP energy -396597.673367 kJ/mol
# GULP energy per Si atom -12393.677293 kJ/mol
# Density = 2.139592 g / cm^3
# Si number density = 21.444728 Si / 1000 Ang^3
#
#
#
# Elastic Constant Matrix: (Units=GPa)
#
#
# Indices 1 2 3 4 5 6 
#
# 1 55.4853 27.5279 26.9257 0.0000 -0.1639 0.0000
# 2 27.5279 121.1738 39.0458 0.0000 -5.0690 0.0000
# 3 26.9257 39.0458 115.6811 0.0000 -13.6813 0.0000
# 4 0.0000 0.0000 0.0000 19.9624 0.0000 7.9123
# 5 -0.1639 -5.0690 -13.6813 0.0000 28.2966 0.0000
# 6 0.0000 0.0000 0.0000 7.9123 0.0000 20.8442
#
#
#
# Elastic Compliance Matrix: (Units=1/GPa)
#
#
# Indices 1 2 3 4 5 6 
#
# 1 0.021877 -0.003746 -0.004128 0.000000 -0.002540 0.000000
# 2 -0.003746 0.009902 -0.002400 0.000000 0.000592 0.000000
# 3 -0.004128 -0.002400 0.010990 0.000000 0.004860 0.000000
# 4 0.000000 0.000000 0.000000 0.058966 0.000000 -0.022383
# 5 -0.002540 0.000592 0.004860 0.000000 0.037781 0.000000
# 6 0.000000 0.000000 0.000000 -0.022383 0.000000 0.056471
#
#
# Mechanical properties :
#
#
# Convention : Reuss Voigt Hill
#
# Bulk Modulus (GPa) = 45.00391 53.25991 49.13191
# Shear Modulus (GPa) = 22.32710 27.07670 24.70190
#
# Velocity S-wave (km/s) = 3.23018 3.55720 3.39763
# Velocity P-wave (km/s) = 5.91132 6.46231 6.19294
#
# Compressibility (1/GPa) = 0.02222029
#
# Stress axis : x y z
#
# Youngs Moduli (GPa) = 45.70995 100.99166 90.98997
#
# Poissons Ratio (x) = 0.37832 0.37562
# Poissons Ratio (y) = 0.17123 0.21840
# Poissons Ratio (z) = 0.18870 0.24241
#
# Static dielectric constant tensor:
#      x y z
#    x 3.805860 0.000000 -0.059500 
#    y 0.000000 4.010900 0.000000 
#    z -0.059500 0.000000 3.909910 
# 
# 
# High freq. dielectric constant tensor:
#      x y z
#    x 1.829810 0.000000 0.000570 
#    y 0.000000 1.854610 0.000000 
#    z 0.000570 0.000000 1.842100 
# 
# From -- ./inp_files/27813.got.cif
#   From: 2010.06.25/outbox.cif.g09.slc.cpg/sg11_14_cif.got.tgz:27813.got - 2010.06.27 23:14:04.
