data_PCOD8076087
_publ_section_title
;
Structure prediction by ZEFSAII (Michael W. Deem and Ramdas Pophale) SiO2 
 PCOD8076087
Probable space group: P 21/M
;
_chemical_formula_sum "Si O2"
_cell_formula_units_Z 24
_cell_length_a 16.413330
_cell_length_b 13.696072
_cell_length_c 5.077770
_cell_angle_alpha 90.000000
_cell_angle_beta 94.854007
_cell_angle_gamma 90.000000
_cell_volume 1137.379453
_symmetry_space_group_name_H-M "P 21/M"
_symmetry_group_IT_number 11
_symmetry_cell_setting 'monoclinic'
loop_
_space_group_symop_operation_xyz
x,y,z
-x,1/2+y,-z
-x,-y,-z
x,1/2-y,z
loop_
_atom_site_type_symbol
_atom_site_label
_atom_site_fract_x
_atom_site_fract_y
_atom_site_fract_z
Si Si1 0.966059 0.635519 0.114454
Si Si2 0.807257 0.979320 0.208303
Si Si3 0.931934 0.364310 0.349544
Si Si4 0.703013 0.964263 0.667559
Si Si5 0.570512 0.860776 0.928903
Si Si6 0.569251 0.033332 0.327325
O O1 0.953889 0.750000 0.088738
O O2 0.876531 0.593126 0.126204
O O3 0.025914 0.606969 0.367110
O O4 0.008074 0.594801 0.861399
O O5 0.765982 0.930186 0.456045
O O6 0.844622 0.083145 0.305431
O O7 0.746126 0.998317 0.948009
O O8 0.915342 0.250000 0.314986
O O9 0.636300 0.878372 0.709516
O O10 0.651360 0.055577 0.521032
O O11 0.580745 0.750000 0.035556
O O12 0.473241 0.874567 0.830413
O O13 0.593858 0.943226 0.145826
O O14 0.500000 0.000000 0.500000
#
# Coordination Sequence:
#
# PCOD8076087 Si02
#       6
#     4   4   4   4   4   4
#     4  10  21  37  58  86 118 156 211 259 297 361
#     4  12  22  37  62  88 125 164 196 251 320 366
#     4  10  21  39  60  83 115 161 215 257 296 360
#     4  11  23  39  60  90 130 158 198 251 310 371
#     4  10  21  41  68  93 122 166 209 249 304 365
#     4   9  20  41  64  88 126 162 208 247 297 363
#
# _framework density 21.101137000000001
#
# number of rings (size 3 to 8) (size 9 to 14) (size 15 to 20)
#    0.000    1.667    1.667    3.000    0.000    4.000 
#    0.000    1.667    0.000    4.000    0.000    0.000 
#    0.000    0.000    0.000    0.000    0.000    0.000 
#
# Total GULP energy -297360.512928 kJ/mol
# GULP energy per Si atom -12390.021372 kJ/mol
# Density = 2.105311 g / cm^3
# Si number density = 21.101137 Si / 1000 Ang^3
#
#
#
# Elastic Constant Matrix: (Units=GPa)
#
#
# Indices 1 2 3 4 5 6 
#
# 1 112.7439 45.7581 44.9891 0.0000 6.5441 0.0000
# 2 45.7581 62.6222 34.7932 0.0000 -1.3278 0.0000
# 3 44.9891 34.7932 113.6230 0.0000 3.4344 0.0000
# 4 0.0000 0.0000 0.0000 17.9930 0.0000 -2.4888
# 5 6.5441 -1.3278 3.4344 0.0000 51.5772 0.0000
# 6 0.0000 0.0000 0.0000 -2.4888 0.0000 17.5301
#
#
#
# Elastic Compliance Matrix: (Units=1/GPa)
#
#
# Indices 1 2 3 4 5 6 
#
# 1 0.013443 -0.008353 -0.002712 0.000000 -0.001740 0.000000
# 2 -0.008353 0.024473 -0.004246 0.000000 0.001973 0.000000
# 3 -0.002712 -0.004246 0.011191 0.000000 -0.000510 0.000000
# 4 0.000000 0.000000 0.000000 0.056690 0.000000 0.008048
# 5 -0.001740 0.001973 -0.000510 0.000000 0.019694 0.000000
# 6 0.000000 0.000000 0.000000 0.008048 0.000000 0.058187
#
#
# Mechanical properties :
#
#
# Convention : Reuss Voigt Hill
#
# Bulk Modulus (GPa) = 54.10121 60.00776 57.05449
# Shear Modulus (GPa) = 22.67951 28.31666 25.49808
#
# Velocity S-wave (km/s) = 3.28197 3.66724 3.47994
# Velocity P-wave (km/s) = 6.32902 6.81406 6.57601
#
# Compressibility (1/GPa) = 0.01848387
#
# Stress axis : x y z
#
# Youngs Moduli (GPa) = 74.38792 40.86090 89.35909
#
# Poissons Ratio (x) = 0.34130 0.24238
# Poissons Ratio (y) = 0.62134 0.37946
# Poissons Ratio (z) = 0.20177 0.17351
#
# Static dielectric constant tensor:
#      x y z
#    x 4.532500 0.000000 0.174890 
#    y 0.000000 3.756960 0.000000 
#    z 0.174890 0.000000 4.035070 
# 
# 
# High freq. dielectric constant tensor:
#      x y z
#    x 1.839840 0.000000 -0.002550 
#    y 0.000000 1.786180 0.000000 
#    z -0.002550 0.000000 1.849750 
# 
# From -- ./inp_files/6465.got.cif
#   From: 2010.06.25/outbox.cif.g09.slc.cpg/sg11_4_cif.got.tgz:6465.got - 2010.06.27 23:14:04.
