data_PCOD8076391
_publ_section_title
;
Structure prediction by ZEFSAII (Michael W. Deem and Ramdas Pophale) SiO2 
 PCOD8076391
Probable space group: P 21/M
;
_chemical_formula_sum "Si O2"
_cell_formula_units_Z 28
_cell_length_a 30.835527
_cell_length_b 8.626029
_cell_length_c 30.853204
_cell_angle_alpha 90.000000
_cell_angle_beta 9.567487
_cell_angle_gamma 90.000000
_cell_volume 1364.010266
_symmetry_space_group_name_H-M "P 21/M"
_symmetry_group_IT_number 11
_symmetry_cell_setting 'monoclinic'
loop_
_space_group_symop_operation_xyz
x,y,z
-x,1/2+y,-z
-x,-y,-z
x,1/2-y,z
loop_
_atom_site_type_symbol
_atom_site_label
_atom_site_fract_x
_atom_site_fract_y
_atom_site_fract_z
Si Si1 0.878022 0.571145 0.878370
Si Si2 0.751265 0.067387 0.626720
Si Si3 0.769958 0.431061 0.894435
Si Si4 0.261894 0.932565 0.260976
Si Si5 0.410652 0.570797 0.402323
Si Si6 0.549280 0.568287 0.544967
Si Si7 0.025199 0.433671 0.022838
O O1 0.858452 0.750000 0.883157
O O2 0.146785 0.535073 0.637179
O O3 0.866236 0.464665 0.847904
O O4 0.647521 0.525669 0.137834
O O5 0.762566 0.250000 0.609609
O O6 0.706919 0.017582 0.719934
O O7 0.515646 0.003480 0.830118
O O8 0.027516 0.000467 0.339427
O O9 0.750841 0.250000 0.905269
O O10 0.257384 0.750000 0.260396
O O11 0.000000 0.000000 0.500000
O O12 0.500000 0.000000 0.000000
O O13 0.426698 0.750000 0.401338
O O14 0.423428 0.460349 0.431003
O O15 0.544080 0.750000 0.540267
O O16 0.288491 0.490702 0.784983
O O17 0.788844 0.490831 0.284716
O O18 0.023872 0.250000 0.022052
O O19 0.000000 0.500000 0.000000
#
# Coordination Sequence:
#
# PCOD8076391 Si02
#       7
#     4   4   4   4   4   4   4
#     4  10  21  38  61  87 121 163 204 247 304 371
#     4  11  24  43  64  88 123 167 208 245 302 375
#     4  12  25  40  63  95 126 158 204 261 312 356
#     4  11  24  41  64  92 123 161 204 253 306 365
#     4  10  21  38  61  89 120 161 207 249 300 364
#     4  12  25  42  65  96 130 165 206 257 314 367
#     4  12  25  44  67  93 127 167 211 258 309 370
#
# _framework density 20.527704
#
# number of rings (size 3 to 8) (size 9 to 14) (size 15 to 20)
#    0.000    0.857    0.000    7.714    0.000    9.143 
#    0.000    0.000    0.000    0.000    0.000    0.000 
#    0.000    0.000    0.000    0.000    0.000    0.000 
#
# Total GULP energy -347427.545718 kJ/mol
# GULP energy per Si atom -12408.126633 kJ/mol
# Density = 2.048098 g / cm^3
# Si number density = 20.527704 Si / 1000 Ang^3
#
#
#
# Elastic Constant Matrix: (Units=GPa)
#
#
# Indices 1 2 3 4 5 6 
#
# 1 120.1055 54.3341 49.5418 0.0000 5.0126 0.0000
# 2 54.3341 130.1055 48.6066 0.0000 2.7341 0.0000
# 3 49.5418 48.6066 163.5968 0.0000 1.5696 0.0000
# 4 0.0000 0.0000 0.0000 36.3995 0.0000 -0.3612
# 5 5.0126 2.7341 1.5696 0.0000 32.7847 0.0000
# 6 0.0000 0.0000 0.0000 -0.3612 0.0000 40.8435
#
#
#
# Elastic Compliance Matrix: (Units=1/GPa)
#
#
# Indices 1 2 3 4 5 6 
#
# 1 0.010977 -0.003735 -0.002202 0.000000 -0.001261 0.000000
# 2 -0.003735 0.009928 -0.001817 0.000000 -0.000170 0.000000
# 3 -0.002202 -0.001817 0.007318 0.000000 0.000138 0.000000
# 4 0.000000 0.000000 0.000000 0.027475 0.000000 0.000243
# 5 -0.001261 -0.000170 0.000138 0.000000 0.030702 0.000000
# 6 0.000000 0.000000 0.000000 0.000243 0.000000 0.024486
#
#
# Mechanical properties :
#
#
# Convention : Reuss Voigt Hill
#
# Bulk Modulus (GPa) = 78.65039 79.86367 79.25703
# Shear Modulus (GPa) = 38.27515 39.42724 38.85119
#
# Velocity S-wave (km/s) = 4.32274 4.38732 4.35515
# Velocity P-wave (km/s) = 7.95690 8.04080 7.99896
#
# Compressibility (1/GPa) = 0.01271449
#
# Stress axis : x y z
#
# Youngs Moduli (GPa) = 91.10279 100.72302 136.64768
#
# Poissons Ratio (x) = 0.37617 0.30094
# Poissons Ratio (y) = 0.34025 0.24831
# Poissons Ratio (z) = 0.20064 0.18303
#
# Static dielectric constant tensor:
#      x y z
#    x 3.904870 0.000000 0.016520 
#    y 0.000000 3.789100 0.000000 
#    z 0.016520 0.000000 3.944410 
# 
# 
# High freq. dielectric constant tensor:
#      x y z
#    x 1.819550 0.000000 0.000110 
#    y 0.000000 1.809700 0.000000 
#    z 0.000110 0.000000 1.827230 
# 
# From -- ./inp_files/73847.got.cif
#   From: 2010.06.25/outbox.cif.g09.slc.cpg/sg11_37_cif.got.tgz:73847.got - 2010.06.27 23:14:04.
