data_PCOD8076422
_publ_section_title
;
Structure prediction by ZEFSAII (Michael W. Deem and Ramdas Pophale) SiO2 
 PCOD8076422
Probable space group: P 21/M
;
_chemical_formula_sum "Si O2"
_cell_formula_units_Z 24
_cell_length_a 12.140611
_cell_length_b 15.742956
_cell_length_c 17.301926
_cell_angle_alpha 90.000000
_cell_angle_beta 20.517176
_cell_angle_gamma 90.000000
_cell_volume 1159.029863
_symmetry_space_group_name_H-M "P 21/M"
_symmetry_group_IT_number 11
_symmetry_cell_setting 'monoclinic'
loop_
_space_group_symop_operation_xyz
x,y,z
-x,1/2+y,-z
-x,-y,-z
x,1/2-y,z
loop_
_atom_site_type_symbol
_atom_site_label
_atom_site_fract_x
_atom_site_fract_y
_atom_site_fract_z
Si Si1 0.346766 0.448759 0.355317
Si Si2 0.966708 0.656779 0.202023
Si Si3 0.682413 0.844822 0.767924
Si Si4 0.379663 0.655108 0.697513
Si Si5 0.067101 0.023114 0.092632
Si Si6 0.839242 0.961303 0.790301
O O1 0.182993 0.407391 0.387323
O O2 0.557511 0.374276 0.256006
O O3 0.097492 0.479549 0.580873
O O4 0.582089 0.524119 0.173745
O O5 0.950586 0.750000 0.169817
O O6 0.708514 0.654576 0.437592
O O7 0.920467 0.572928 0.178764
O O8 0.304785 0.645106 0.021087
O O9 0.789025 0.750000 0.678536
O O10 0.836693 0.870519 0.748373
O O11 0.234714 0.750000 0.793640
O O12 0.139026 0.590527 0.816707
O O13 0.075323 0.050859 0.176755
O O14 0.500000 0.000000 0.000000
#
# Coordination Sequence:
#
# PCOD8076422 Si02
#       6
#     4   4   4   4   4   4
#     4  11  22  39  65  86 121 160 208 250 306 361
#     4   9  18  35  61  88 116 156 203 246 294 357
#     4  10  21  38  61  91 121 157 205 252 304 363
#     4  11  22  39  62  91 122 159 207 253 305 364
#     4  11  23  39  63  89 124 162 200 251 312 357
#     4  12  22  40  65  90 122 161 206 250 303 371
#
# _framework density 20.706973999999999
#
# number of rings (size 3 to 8) (size 9 to 14) (size 15 to 20)
#    0.000    1.333    5.000    2.000    0.000    1.333 
#    0.000    1.667    0.000    0.000    0.000    0.000 
#    0.000    0.000    0.000    0.000    0.000    0.000 
#
# Total GULP energy -297473.045454 kJ/mol
# GULP energy per Si atom -12394.710227 kJ/mol
# Density = 2.065984 g / cm^3
# Si number density = 20.706974 Si / 1000 Ang^3
#
#
#
# Elastic Constant Matrix: (Units=GPa)
#
#
# Indices 1 2 3 4 5 6 
#
# 1 77.0100 39.9194 25.9558 0.0000 5.5234 0.0000
# 2 39.9194 129.3931 32.1387 0.0000 -7.6847 0.0000
# 3 25.9558 32.1387 74.4838 0.0000 16.4429 0.0000
# 4 0.0000 0.0000 0.0000 21.6595 0.0000 -5.4328
# 5 5.5234 -7.6847 16.4429 0.0000 20.5717 0.0000
# 6 0.0000 0.0000 0.0000 -5.4328 0.0000 33.5239
#
#
#
# Elastic Compliance Matrix: (Units=1/GPa)
#
#
# Indices 1 2 3 4 5 6 
#
# 1 0.016659 -0.004633 -0.002959 0.000000 -0.003838 0.000000
# 2 -0.004633 0.011032 -0.005258 0.000000 0.009567 0.000000
# 3 -0.002959 -0.005258 0.020623 0.000000 -0.017653 0.000000
# 4 0.000000 0.000000 0.000000 0.048125 0.000000 0.007799
# 5 -0.003838 0.009567 -0.017653 0.000000 0.067325 0.000000
# 6 0.000000 0.000000 0.000000 0.007799 0.000000 0.031093
#
#
# Mechanical properties :
#
#
# Convention : Reuss Voigt Hill
#
# Bulk Modulus (GPa) = 44.21891 52.99052 48.60472
# Shear Modulus (GPa) = 21.92069 27.34255 24.63162
#
# Velocity S-wave (km/s) = 3.25716 3.63774 3.45270
# Velocity P-wave (km/s) = 5.96208 6.57955 6.27841
#
# Compressibility (1/GPa) = 0.02261476
#
# Stress axis : x y z
#
# Youngs Moduli (GPa) = 60.02626 90.64761 48.49035
#
# Poissons Ratio (x) = 0.41993 0.14349
# Poissons Ratio (y) = 0.27808 0.25495
# Poissons Ratio (z) = 0.17763 0.47660
#
# Static dielectric constant tensor:
#      x y z
#    x 3.822740 0.000000 0.142010 
#    y 0.000000 4.215470 0.000000 
#    z 0.142010 0.000000 3.717050 
# 
# 
# High freq. dielectric constant tensor:
#      x y z
#    x 1.797880 0.000000 0.019670 
#    y 0.000000 1.811700 0.000000 
#    z 0.019670 0.000000 1.809160 
# 
# From -- ./inp_files/39579.got.cif
#   From: 2010.06.25/outbox.cif.g09.slc.cpg/sg11_20_cif.got.tgz:39579.got - 2010.06.27 23:14:04.
