data_PCOD8076656
_publ_section_title
;
Structure prediction by ZEFSAII (Michael W. Deem and Ramdas Pophale) SiO2 
 PCOD8076656
Probable space group: P 21/M
;
_chemical_formula_sum "Si O2"
_cell_formula_units_Z 28
_cell_length_a 8.203890
_cell_length_b 8.576587
_cell_length_c 28.637740
_cell_angle_alpha 90.000000
_cell_angle_beta 43.565950
_cell_angle_gamma 90.000000
_cell_volume 1388.709612
_symmetry_space_group_name_H-M "P 21/M"
_symmetry_group_IT_number 11
_symmetry_cell_setting 'monoclinic'
loop_
_space_group_symop_operation_xyz
x,y,z
-x,1/2+y,-z
-x,-y,-z
x,1/2-y,z
loop_
_atom_site_type_symbol
_atom_site_label
_atom_site_fract_x
_atom_site_fract_y
_atom_site_fract_z
Si Si1 0.072219 0.929963 0.348408
Si Si2 0.738499 0.928230 0.932296
Si Si3 0.796467 0.064409 0.574750
Si Si4 0.076903 0.428000 0.200602
Si Si5 0.290612 0.563867 0.649523
Si Si6 0.050983 0.071901 0.939738
Si Si7 0.590269 0.423291 0.803244
O O1 0.002036 0.750000 0.367358
O O2 0.139353 0.996202 0.386015
O O3 0.314057 0.955723 0.268831
O O4 0.843803 0.010436 0.370499
O O5 0.686892 0.750000 0.930968
O O6 0.854694 0.011706 0.862470
O O7 0.921958 0.947897 0.934837
O O8 0.500000 0.000000 0.000000
O O9 0.785726 0.250000 0.576233
O O10 0.552644 0.001438 0.602872
O O11 0.000000 0.000000 0.500000
O O12 0.015440 0.250000 0.203332
O O13 0.308178 0.444030 0.184418
O O14 0.857155 0.501408 0.274875
O O15 0.298536 0.750000 0.646549
O O16 0.954950 0.250000 0.957471
O O17 0.312746 0.066449 0.865548
O O18 0.000000 0.000000 0.000000
O O19 0.676522 0.250000 0.800854
#
# Coordination Sequence:
#
# PCOD8076656 Si02
#       7
#     4   4   4   4   4   4   4
#     4   9  20  40  63  89 120 158 204 249 299 357
#     4  11  23  38  55  79 112 151 195 241 293 351
#     4  11  24  41  64  92 125 162 202 251 303 363
#     4   9  20  37  57  83 114 148 188 238 295 350
#     4  10  21  39  63  92 124 159 201 249 305 364
#     4  11  23  37  55  80 112 150 193 241 295 351
#     4   9  19  36  58  83 110 144 190 240 289 345
#
# _framework density 20.162604000000002
#
# number of rings (size 3 to 8) (size 9 to 14) (size 15 to 20)
#    0.000    2.000    0.000    2.571    2.000    6.857 
#    0.000    0.000    0.000    0.000    0.000    0.000 
#    0.000    0.000    0.000    0.000    0.000    0.000 
#
# Total GULP energy -346874.313105 kJ/mol
# GULP energy per Si atom -12388.368325 kJ/mol
# Density = 2.011671 g / cm^3
# Si number density = 20.162604 Si / 1000 Ang^3
#
#
#
# Elastic Constant Matrix: (Units=GPa)
#
#
# Indices 1 2 3 4 5 6 
#
# 1 130.0396 29.4885 79.4219 0.0000 3.0729 0.0000
# 2 29.4885 54.1922 35.1218 0.0000 -3.8748 0.0000
# 3 79.4219 35.1218 145.3184 0.0000 6.4959 0.0000
# 4 0.0000 0.0000 0.0000 27.9350 0.0000 -2.3132
# 5 3.0729 -3.8748 6.4959 0.0000 38.4211 0.0000
# 6 0.0000 0.0000 0.0000 -2.3132 0.0000 32.2707
#
#
#
# Elastic Compliance Matrix: (Units=1/GPa)
#
#
# Indices 1 2 3 4 5 6 
#
# 1 0.011862 -0.002700 -0.005820 0.000000 -0.000237 0.000000
# 2 -0.002700 0.022873 -0.004197 0.000000 0.003232 0.000000
# 3 -0.005820 -0.004197 0.011159 0.000000 -0.001845 0.000000
# 4 0.000000 0.000000 0.000000 0.036011 0.000000 0.002581
# 5 -0.000237 0.003232 -0.001845 0.000000 0.026684 0.000000
# 6 0.000000 0.000000 0.000000 0.002581 0.000000 0.031173
#
#
# Mechanical properties :
#
#
# Convention : Reuss Voigt Hill
#
# Bulk Modulus (GPa) = 48.87431 68.62386 58.74909
# Shear Modulus (GPa) = 29.06681 32.09324 30.58002
#
# Velocity S-wave (km/s) = 3.80099 3.99397 3.89867
# Velocity P-wave (km/s) = 6.59970 7.44165 7.03328
#
# Compressibility (1/GPa) = 0.02046065
#
# Stress axis : x y z
#
# Youngs Moduli (GPa) = 84.29952 43.71925 89.61197
#
# Poissons Ratio (x) = 0.11804 0.52156
# Poissons Ratio (y) = 0.22760 0.37611
# Poissons Ratio (z) = 0.49064 0.18350
#
# Static dielectric constant tensor:
#      x y z
#    x 3.649660 0.000000 0.162220 
#    y 0.000000 2.504580 0.000000 
#    z 0.162220 0.000000 3.962010 
# 
# 
# High freq. dielectric constant tensor:
#      x y z
#    x 1.784480 0.000000 0.003160 
#    y 0.000000 1.780960 0.000000 
#    z 0.003160 0.000000 1.804080 
# 
# From -- ./inp_files/70814.got.cif
#   From: 2010.06.25/outbox.cif.g09.slc.cpg/sg11_36_cif.got.tgz:70814.got - 2010.06.27 23:14:04.
