data_PCOD8076264
_publ_section_title
;
Structure prediction by ZEFSAII (Michael W. Deem and Ramdas Pophale) SiO2 
 PCOD8076264
Probable space group: P 21/M
;
_chemical_formula_sum "Si O2"
_cell_formula_units_Z 24
_cell_length_a 9.757679
_cell_length_b 9.123434
_cell_length_c 14.368922
_cell_angle_alpha 90.000000
_cell_angle_beta 99.899999
_cell_angle_gamma 90.000000
_cell_volume 1260.124574
_symmetry_space_group_name_H-M "P 21/M"
_symmetry_group_IT_number 11
_symmetry_cell_setting 'monoclinic'
loop_
_space_group_symop_operation_xyz
x,y,z
-x,1/2+y,-z
-x,-y,-z
x,1/2-y,z
loop_
_atom_site_type_symbol
_atom_site_label
_atom_site_fract_x
_atom_site_fract_y
_atom_site_fract_z
Si Si1 0.297470 0.420359 0.418834
Si Si2 0.398545 0.917447 0.605690
Si Si3 0.221172 0.920164 0.763030
Si Si4 0.063582 0.576087 0.276516
Si Si5 0.887017 0.080521 0.926255
Si Si6 0.356912 0.580298 0.969274
O O1 0.257487 0.250000 0.415865
O O2 0.436598 0.450218 0.374955
O O3 0.319691 0.474362 0.526638
O O4 0.171639 0.511110 0.361802
O O5 0.371117 0.750000 0.570679
O O6 0.342837 0.946386 0.702533
O O7 0.177634 0.750000 0.763983
O O8 0.276816 0.978598 0.868631
O O9 0.088110 0.013972 0.717595
O O10 0.061777 0.750000 0.286363
O O11 0.109761 0.524107 0.179062
O O12 0.925707 0.250000 0.935831
O O13 0.734953 0.049465 0.950166
O O14 0.000000 0.000000 0.000000
O O15 0.389982 0.750000 0.959030
O O16 0.500000 0.500000 0.000000
#
# Coordination Sequence:
#
# PCOD8076264 Si02
#       6
#     4   4   4   4   4   4
#     4  10  21  38  61  86 112 148 187 229 284 340
#     4   9  20  39  61  85 113 145 186 235 283 334
#     4  10  21  39  60  83 114 150 188 234 282 331
#     4  11  23  37  57  86 116 150 190 232 277 331
#     4  10  21  38  58  82 114 151 189 230 276 327
#     4  10  22  38  57  84 116 150 188 229 278 334
#
# _framework density 19.045736000000002
#
# number of rings (size 3 to 8) (size 9 to 14) (size 15 to 20)
#    0.000    2.000    1.667    1.000    2.333    4.000 
#    0.000    0.000    0.000    0.000    0.000    0.000 
#    0.000    0.000    0.000    0.000    0.000    0.000 
#
# Total GULP energy -297701.980099 kJ/mol
# GULP energy per Si atom -12404.249171 kJ/mol
# Density = 1.900239 g / cm^3
# Si number density = 19.045736 Si / 1000 Ang^3
#
#
#
# Elastic Constant Matrix: (Units=GPa)
#
#
# Indices 1 2 3 4 5 6 
#
# 1 94.5549 38.8518 27.8179 0.0000 12.3516 0.0000
# 2 38.8518 63.6981 23.4748 0.0000 9.9977 0.0000
# 3 27.8179 23.4748 59.1919 0.0000 2.9848 0.0000
# 4 0.0000 0.0000 0.0000 30.3934 0.0000 5.5999
# 5 12.3516 9.9977 2.9848 0.0000 38.8826 0.0000
# 6 0.0000 0.0000 0.0000 5.5999 0.0000 36.2914
#
#
#
# Elastic Compliance Matrix: (Units=1/GPa)
#
#
# Indices 1 2 3 4 5 6 
#
# 1 0.015119 -0.007311 -0.004075 0.000000 -0.002610 0.000000
# 2 -0.007311 0.022625 -0.005382 0.000000 -0.003082 0.000000
# 3 -0.004075 -0.005382 0.020889 0.000000 0.001075 0.000000
# 4 0.000000 0.000000 0.000000 0.033865 0.000000 -0.005225
# 5 -0.002610 -0.003082 0.001075 0.000000 0.027258 0.000000
# 6 0.000000 0.000000 0.000000 -0.005225 0.000000 0.028361
#
#
# Mechanical properties :
#
#
# Convention : Reuss Voigt Hill
#
# Bulk Modulus (GPa) = 39.84075 44.19266 42.01671
# Shear Modulus (GPa) = 26.31331 29.60016 27.95674
#
# Velocity S-wave (km/s) = 3.72100 3.94656 3.83544
# Velocity P-wave (km/s) = 6.27893 6.63483 6.45933
#
# Compressibility (1/GPa) = 0.02509993
#
# Stress axis : x y z
#
# Youngs Moduli (GPa) = 66.13997 44.19860 47.87144
#
# Poissons Ratio (x) = 0.32312 0.19506
# Poissons Ratio (y) = 0.48352 0.25763
# Poissons Ratio (z) = 0.26950 0.23787
#
# Static dielectric constant tensor:
#      x y z
#    x 3.476240 0.000000 -0.198790 
#    y 0.000000 3.491350 0.000000 
#    z -0.198790 0.000000 3.634070 
# 
# 
# High freq. dielectric constant tensor:
#      x y z
#    x 1.746450 0.000000 -0.004840 
#    y 0.000000 1.739950 0.000000 
#    z -0.004840 0.000000 1.742700 
# 
# From -- ./inp_files/25927.got.cif
#   From: 2010.06.25/outbox.cif.g09.slc.cpg/sg11_13_cif.got.tgz:25927.got - 2010.06.27 23:14:04.
