data_PCOD8076375
_publ_section_title
;
Structure prediction by ZEFSAII (Michael W. Deem and Ramdas Pophale) SiO2 
 PCOD8076375
Probable space group: P 21/M
;
_chemical_formula_sum "Si O2"
_cell_formula_units_Z 32
_cell_length_a 12.544866
_cell_length_b 13.289683
_cell_length_c 9.671914
_cell_angle_alpha 90.000000
_cell_angle_beta 95.499552
_cell_angle_gamma 90.000000
_cell_volume 1605.053006
_symmetry_space_group_name_H-M "P 21/M"
_symmetry_group_IT_number 11
_symmetry_cell_setting 'monoclinic'
loop_
_space_group_symop_operation_xyz
x,y,z
-x,1/2+y,-z
-x,-y,-z
x,1/2-y,z
loop_
_atom_site_type_symbol
_atom_site_label
_atom_site_fract_x
_atom_site_fract_y
_atom_site_fract_z
Si Si1 0.528978 0.364266 0.405360
Si Si2 0.034374 0.965586 0.655514
Si Si3 0.898074 0.635827 0.135926
Si Si4 0.479210 0.867706 0.284241
Si Si5 0.865388 0.633415 0.819702
Si Si6 0.642652 0.538232 0.813480
Si Si7 0.258723 0.634111 0.725489
Si Si8 0.670704 0.557217 0.125746
O O1 0.491010 0.250000 0.394726
O O2 0.510127 0.405600 0.556801
O O3 0.456178 0.419909 0.285904
O O4 0.655010 0.374122 0.386615
O O5 0.146046 0.906920 0.655095
O O6 0.949281 0.888133 0.709090
O O7 0.035077 0.061822 0.757553
O O8 0.000000 0.000000 0.500000
O O9 0.937214 0.750000 0.166986
O O10 0.773555 0.627645 0.159436
O O11 0.913819 0.605136 0.976427
O O12 0.463345 0.750000 0.267853
O O13 0.586710 0.905657 0.226267
O O14 0.373324 0.917648 0.201882
O O15 0.833043 0.750000 0.813561
O O16 0.758662 0.569837 0.773136
O O17 0.623781 0.573946 0.967570
O O18 0.248287 0.750000 0.776770
O O19 0.297224 0.560767 0.854173
#
# Coordination Sequence:
#
# PCOD8076375 Si02
#       8
#     4   4   4   4   4   4   4   4
#     4  10  22  38  59  84 117 162 196 236 300 362
#     4  11  24  39  64  92 122 153 201 255 304 356
#     4   9  20  40  63  87 120 159 200 246 302 359
#     4  11  23  36  55  84 122 162 201 244 294 355
#     4  10  22  41  64  88 118 160 202 247 299 360
#     4  11  22  38  61  90 124 155 203 248 297 353
#     4  10  22  40  61  85 120 159 198 246 306 363
#     4  10  21  38  60  92 119 158 199 251 298 354
#
# _framework density 19.937037
#
# number of rings (size 3 to 8) (size 9 to 14) (size 15 to 20)
#    0.000    1.750    1.250    2.250    1.750    4.000 
#    0.000    0.625    0.000    0.000    0.000    0.000 
#    0.000    0.000    0.000    0.000    0.000    0.000 
#
# Total GULP energy -396780.762602 kJ/mol
# GULP energy per Si atom -12399.398831 kJ/mol
# Density = 1.989166 g / cm^3
# Si number density = 19.937037 Si / 1000 Ang^3
#
#
#
# Elastic Constant Matrix: (Units=GPa)
#
#
# Indices 1 2 3 4 5 6 
#
# 1 101.7898 28.1599 52.3362 0.0000 -8.1015 0.0000
# 2 28.1599 73.5160 27.0873 0.0000 -0.5266 0.0000
# 3 52.3362 27.0873 95.2417 0.0000 -13.0903 0.0000
# 4 0.0000 0.0000 0.0000 26.2075 0.0000 -1.5853
# 5 -8.1015 -0.5266 -13.0903 0.0000 23.1687 0.0000
# 6 0.0000 0.0000 0.0000 -1.5853 0.0000 30.3465
#
#
#
# Elastic Compliance Matrix: (Units=1/GPa)
#
#
# Indices 1 2 3 4 5 6 
#
# 1 0.014237 -0.002922 -0.006849 0.000000 0.001042 0.000000
# 2 -0.002922 0.015906 -0.003262 0.000000 -0.002503 0.000000
# 3 -0.006849 -0.003262 0.016102 0.000000 0.006628 0.000000
# 4 0.000000 0.000000 0.000000 0.038278 0.000000 0.002000
# 5 0.001042 -0.002503 0.006628 0.000000 0.047214 0.000000
# 6 0.000000 0.000000 0.000000 0.002000 0.000000 0.033057
#
#
# Mechanical properties :
#
#
# Convention : Reuss Voigt Hill
#
# Bulk Modulus (GPa) = 49.55836 53.96824 51.76330
# Shear Modulus (GPa) = 25.30532 26.80882 26.05707
#
# Velocity S-wave (km/s) = 3.56654 3.67096 3.61912
# Velocity P-wave (km/s) = 6.47083 6.71536 6.59423
#
# Compressibility (1/GPa) = 0.02017823
#
# Stress axis : x y z
#
# Youngs Moduli (GPa) = 70.23920 62.87006 62.10438
#
# Poissons Ratio (x) = 0.18373 0.42535
# Poissons Ratio (y) = 0.20527 0.20258
# Poissons Ratio (z) = 0.48107 0.20507
#
# Static dielectric constant tensor:
#      x y z
#    x 3.541370 0.000000 -0.078860 
#    y 0.000000 3.956840 0.000000 
#    z -0.078860 0.000000 3.611380 
# 
# 
# High freq. dielectric constant tensor:
#      x y z
#    x 1.772830 0.000000 -0.008510 
#    y 0.000000 1.792990 0.000000 
#    z -0.008510 0.000000 1.774590 
# 
# From -- ./inp_files/18064.got.cif
#   From: 2010.06.25/outbox.cif.g09.slc.cpg/sg11_10_cif.got.tgz:18064.got - 2010.06.27 23:14:04.
