data_PCOD8076121
_publ_section_title
;
Structure prediction by ZEFSAII (Michael W. Deem and Ramdas Pophale) SiO2 
 PCOD8076121
Probable space group: P 21/M
;
_chemical_formula_sum "Si O2"
_cell_formula_units_Z 28
_cell_length_a 17.153087
_cell_length_b 12.650968
_cell_length_c 20.028224
_cell_angle_alpha 90.000000
_cell_angle_beta 160.409270
_cell_angle_gamma 90.000000
_cell_volume 1457.273064
_symmetry_space_group_name_H-M "P 21/M"
_symmetry_group_IT_number 11
_symmetry_cell_setting 'monoclinic'
loop_
_space_group_symop_operation_xyz
x,y,z
-x,1/2+y,-z
-x,-y,-z
x,1/2-y,z
loop_
_atom_site_type_symbol
_atom_site_label
_atom_site_fract_x
_atom_site_fract_y
_atom_site_fract_z
Si Si1 0.353451 0.625794 0.448296
Si Si2 0.160160 0.035006 0.188815
Si Si3 0.948186 0.023005 0.684141
Si Si4 0.850784 0.368088 0.048084
Si Si5 0.263644 0.036143 0.721373
Si Si6 0.328662 0.369621 0.633064
Si Si7 0.648170 0.870880 0.065103
O O1 0.311147 0.750000 0.406643
O O2 0.624823 0.598799 0.668344
O O3 0.235741 0.569479 0.289979
O O4 0.247262 0.585133 0.432223
O O5 0.020602 0.114588 0.123162
O O6 0.000000 0.000000 0.000000
O O7 0.119803 0.107051 0.789797
O O8 0.837523 0.952443 0.536881
O O9 0.099531 0.948106 0.852728
O O10 0.891778 0.250000 0.108529
O O11 0.586187 0.382753 0.810187
O O12 0.338146 0.107968 0.719382
O O13 0.298505 0.106298 0.814905
O O14 0.000000 0.000000 0.500000
O O15 0.428926 0.934409 0.859642
O O16 0.238046 0.250000 0.548204
O O17 0.578842 0.750000 0.000303
#
# Coordination Sequence:
#
# PCOD8076121 Si02
#       7
#     4   4   4   4   4   4   4
#     4  10  22  38  60  89 121 159 199 244 300 354
#     4  10  21  39  61  87 121 154 199 251 293 356
#     4  11  21  40  60  86 126 155 200 245 292 359
#     4  10  21  37  59  86 119 157 198 245 299 351
#     4  11  23  44  61  89 122 153 205 253 294 362
#     4  11  22  38  62  89 119 160 202 250 303 350
#     4  11  24  41  64  89 122 162 197 246 307 355
#
# _framework density 19.213968999999999
#
# number of rings (size 3 to 8) (size 9 to 14) (size 15 to 20)
#    0.000    1.429    2.857    2.571    0.000    2.286 
#    0.000    3.571    0.000    0.000    0.000    0.000 
#    0.000    0.000    0.000    0.000    0.000    0.000 
#
# Total GULP energy -347319.378127 kJ/mol
# GULP energy per Si atom -12404.263505 kJ/mol
# Density = 1.917024 g / cm^3
# Si number density = 19.213969 Si / 1000 Ang^3
#
#
#
# Elastic Constant Matrix: (Units=GPa)
#
#
# Indices 1 2 3 4 5 6 
#
# 1 100.7976 36.1258 37.4835 0.0000 10.1864 0.0000
# 2 36.1258 118.2250 32.0735 0.0000 7.4810 0.0000
# 3 37.4835 32.0735 100.2256 0.0000 8.1587 0.0000
# 4 0.0000 0.0000 0.0000 22.1169 0.0000 8.6910
# 5 10.1864 7.4810 8.1587 0.0000 36.2745 0.0000
# 6 0.0000 0.0000 0.0000 8.6910 0.0000 14.2446
#
#
#
# Elastic Compliance Matrix: (Units=1/GPa)
#
#
# Indices 1 2 3 4 5 6 
#
# 1 0.012445 -0.002686 -0.003622 0.000000 -0.002126 0.000000
# 2 -0.002686 0.009900 -0.002097 0.000000 -0.000816 0.000000
# 3 -0.003622 -0.002097 0.012107 0.000000 -0.001273 0.000000
# 4 0.000000 0.000000 0.000000 0.059473 0.000000 -0.036286
# 5 -0.002126 -0.000816 -0.001273 0.000000 0.028619 0.000000
# 6 0.000000 0.000000 0.000000 -0.036286 0.000000 0.092341
#
#
# Mechanical properties :
#
#
# Convention : Reuss Voigt Hill
#
# Bulk Modulus (GPa) = 56.68233 58.95708 57.81970
# Shear Modulus (GPa) = 21.04600 28.76491 24.90545
#
# Velocity S-wave (km/s) = 3.31320 3.87341 3.60421
# Velocity P-wave (km/s) = 6.64838 7.12429 6.89045
#
# Compressibility (1/GPa) = 0.01764218
#
# Stress axis : x y z
#
# Youngs Moduli (GPa) = 80.35252 101.01331 82.59815
#
# Poissons Ratio (x) = 0.27129 0.29916
# Poissons Ratio (y) = 0.21580 0.17322
# Poissons Ratio (z) = 0.29102 0.21184
#
# Static dielectric constant tensor:
#      x y z
#    x 3.606890 0.000000 0.132190 
#    y 0.000000 3.427160 0.000000 
#    z 0.132190 0.000000 3.535680 
# 
# 
# High freq. dielectric constant tensor:
#      x y z
#    x 1.760520 0.000000 0.010460 
#    y 0.000000 1.750310 0.000000 
#    z 0.010460 0.000000 1.755060 
# 
# From -- ./inp_files/61463.got.cif
#   From: 2010.06.25/outbox.cif.g09.slc.cpg/sg11_31_cif.got.tgz:61463.got - 2010.06.27 23:14:04.
