data_PCOD8076826
_publ_section_title
;
Structure prediction by ZEFSAII (Michael W. Deem and Ramdas Pophale) SiO2 
 PCOD8076826
Probable space group: P 21/M
;
_chemical_formula_sum "Si O2"
_cell_formula_units_Z 18
_cell_length_a 7.157451
_cell_length_b 10.000416
_cell_length_c 9.667451
_cell_angle_alpha 90.000000
_cell_angle_beta 98.703786
_cell_angle_gamma 90.000000
_cell_volume 684.003029
_symmetry_space_group_name_H-M "P 21/M"
_symmetry_group_IT_number 11
_symmetry_cell_setting 'monoclinic'
loop_
_space_group_symop_operation_xyz
x,y,z
-x,1/2+y,-z
-x,-y,-z
x,1/2-y,z
loop_
_atom_site_type_symbol
_atom_site_label
_atom_site_fract_x
_atom_site_fract_y
_atom_site_fract_z
Si Si1 0.751090 0.250000 0.851068
Si Si2 0.208029 0.526225 0.959773
Si Si3 0.182967 0.250000 0.997801
Si Si4 0.330268 0.953569 0.677615
Si Si5 0.826697 0.250000 0.552580
Si Si6 0.342369 0.250000 0.294774
Si Si7 0.745592 0.750000 0.405268
O O1 0.705947 0.250000 0.682580
O O2 0.671490 0.118140 0.920518
O O3 0.973342 0.250000 0.913926
O O4 0.211601 0.581683 0.803427
O O5 0.303046 0.378921 0.961922
O O6 0.000000 0.500000 0.000000
O O7 0.174274 0.250000 0.164486
O O8 0.219368 0.884943 0.536922
O O9 0.534708 0.884918 0.708778
O O10 0.355620 0.113797 0.658411
O O11 0.041646 0.250000 0.627872
O O12 0.241196 0.250000 0.429426
#
# Coordination Sequence:
#
# PCOD8076826 Si02
#       7
#     2   4   2   4   2   2   2
#     4  10  21  40  68 105 135 170 224 293 338 396
#     4  10  21  40  70  97 133 170 223 286 336 392
#     4  10  23  39  65  96 135 175 228 257 354 394
#     4  11  25  47  68 104 139 177 231 282 344 405
#     4  11  25  41  74 106 135 172 235 290 345 392
#     4  11  27  43  67  95 146 191 220 273 339 414
#     4  12  24  41  72  98 137 182 231 285 334 404
#
# _framework density 26.315674000000001
#
# number of rings (size 3 to 8) (size 9 to 14) (size 15 to 20)
#    0.000    1.333    0.000    6.000    9.333    0.889 
#    0.000    0.000    0.000    0.000    0.000    0.000 
#    0.000    0.000    0.000    0.000    0.000    0.000 
#
# Total GULP energy -223024.845248 kJ/mol
# GULP energy per Si atom -12390.269180 kJ/mol
# Density = 2.625578 g / cm^3
# Si number density = 26.315674 Si / 1000 Ang^3
#
#
#
# Elastic Constant Matrix: (Units=GPa)
#
#
# Indices 1 2 3 4 5 6 
#
# 1 38.1322 -0.6840 12.5263 0.0000 -8.7516 0.0000
# 2 -0.6840 216.3956 36.5309 0.0000 -7.2248 0.0000
# 3 12.5263 36.5309 209.8285 0.0000 -17.3845 0.0000
# 4 0.0000 0.0000 0.0000 33.4114 0.0000 -4.1610
# 5 -8.7516 -7.2248 -17.3845 0.0000 28.6902 0.0000
# 6 0.0000 0.0000 0.0000 -4.1610 0.0000 4.1648
#
#
#
# Elastic Compliance Matrix: (Units=1/GPa)
#
#
# Indices 1 2 3 4 5 6 
#
# 1 0.028472 0.000551 -0.001121 0.000000 0.008145 0.000000
# 2 0.000551 0.004786 -0.000792 0.000000 0.000893 0.000000
# 3 -0.001121 -0.000792 0.005186 0.000000 0.002601 0.000000
# 4 0.000000 0.000000 0.000000 0.034183 0.000000 0.034152
# 5 0.008145 0.000893 0.002601 0.000000 0.039141 0.000000
# 6 0.000000 0.000000 0.000000 0.034152 0.000000 0.274230
#
#
# Mechanical properties :
#
#
# Convention : Reuss Voigt Hill
#
# Bulk Modulus (GPa) = 27.99503 62.34476 45.16989
# Shear Modulus (GPa) = 12.48038 40.98548 26.73293
#
# Velocity S-wave (km/s) = 2.18011 3.95074 3.19071
# Velocity P-wave (km/s) = 4.12291 6.67486 5.54762
#
# Compressibility (1/GPa) = 0.03572063
#
# Stress axis : x y z
#
# Youngs Moduli (GPa) = 35.12235 208.92218 192.82196
#
# Poissons Ratio (x) = -0.11514 0.21613
# Poissons Ratio (y) = -0.01936 0.15275
# Poissons Ratio (z) = 0.03937 0.16551
#
# Static dielectric constant tensor:
#      x y z
#    x 4.455080 0.000000 -1.007660 
#    y 0.000000 8.951750 0.000000 
#    z -1.007660 0.000000 7.164210 
# 
# 
# High freq. dielectric constant tensor:
#      x y z
#    x 2.024420 0.000000 -0.008340 
#    y 0.000000 2.082650 0.000000 
#    z -0.008340 0.000000 2.070610 
# 
# From -- ./inp_files/11560.got.cif
#   From: 2010.06.25/outbox.cif.g09.slc.cpg/sg11_6_cif.got.tgz:11560.got - 2010.06.27 23:14:04.
