data_PCOD8076660
_publ_section_title
;
Structure prediction by ZEFSAII (Michael W. Deem and Ramdas Pophale) SiO2 
 PCOD8076660
Probable space group: P 21/M
;
_chemical_formula_sum "Si O2"
_cell_formula_units_Z 24
_cell_length_a 12.182937
_cell_length_b 8.743379
_cell_length_c 11.459144
_cell_angle_alpha 90.000000
_cell_angle_beta 69.675521
_cell_angle_gamma 90.000000
_cell_volume 1144.632862
_symmetry_space_group_name_H-M "P 21/M"
_symmetry_group_IT_number 11
_symmetry_cell_setting 'monoclinic'
loop_
_space_group_symop_operation_xyz
x,y,z
-x,1/2+y,-z
-x,-y,-z
x,1/2-y,z
loop_
_atom_site_type_symbol
_atom_site_label
_atom_site_fract_x
_atom_site_fract_y
_atom_site_fract_z
Si Si1 0.276820 0.072360 0.392330
Si Si2 0.546759 0.426117 0.274620
Si Si3 0.180244 0.569279 0.197903
Si Si4 0.753414 0.076262 0.361031
Si Si5 0.388566 0.071142 0.980133
Si Si6 0.977140 0.071618 0.134412
O O1 0.260066 0.250000 0.372069
O O2 0.413061 0.024919 0.344033
O O3 0.208627 0.979271 0.319046
O O4 0.222011 0.032617 0.538047
O O5 0.554860 0.250000 0.229295
O O6 0.621218 0.450834 0.364576
O O7 0.604404 0.537726 0.159018
O O8 0.179214 0.750000 0.190029
O O9 0.273361 0.504861 0.072908
O O10 0.055183 0.504513 0.206177
O O11 0.769332 0.250000 0.398287
O O12 0.843415 0.041146 0.222621
O O13 0.384412 0.250000 0.007365
O O14 0.500000 0.000000 0.000000
O O15 0.006539 0.250000 0.115410
O O16 0.000000 0.000000 0.000000
#
# Coordination Sequence:
#
# PCOD8076660 Si02
#       6
#     4   4   4   4   4   4
#     4  11  23  39  63  94 129 167 211 262 316 381
#     4  10  21  39  63  93 130 168 210 262 316 375
#     4  12  25  42  65  92 128 170 213 265 319 374
#     4  10  23  42  64  91 126 168 211 258 316 379
#     4  12  23  37  61  93 127 164 207 257 315 377
#     4  11  24  44  69  96 127 165 212 265 318 379
#
# _framework density 20.967423
#
# number of rings (size 3 to 8) (size 9 to 14) (size 15 to 20)
#    0.000    1.000    1.667    5.500    0.000    4.667 
#    0.000    0.000    0.000    0.000    0.000    0.000 
#    0.000    0.000    0.000    0.000    0.000    0.000 
#
# Total GULP energy -297736.119671 kJ/mol
# GULP energy per Si atom -12405.671653 kJ/mol
# Density = 2.091970 g / cm^3
# Si number density = 20.967423 Si / 1000 Ang^3
#
#
#
# Elastic Constant Matrix: (Units=GPa)
#
#
# Indices 1 2 3 4 5 6 
#
# 1 110.0993 47.4430 28.1086 0.0000 13.8036 0.0000
# 2 47.4430 134.1340 46.2088 0.0000 8.2886 0.0000
# 3 28.1086 46.2088 114.4165 0.0000 13.5784 0.0000
# 4 0.0000 0.0000 0.0000 38.0799 0.0000 3.9740
# 5 13.8036 8.2886 13.5784 0.0000 23.6219 0.0000
# 6 0.0000 0.0000 0.0000 3.9740 0.0000 32.1158
#
#
#
# Elastic Compliance Matrix: (Units=1/GPa)
#
#
# Indices 1 2 3 4 5 6 
#
# 1 0.011400 -0.003442 -0.000819 0.000000 -0.004983 0.000000
# 2 -0.003442 0.009726 -0.003130 0.000000 0.000398 0.000000
# 3 -0.000819 -0.003130 0.010752 0.000000 -0.004603 0.000000
# 4 0.000000 0.000000 0.000000 0.026604 0.000000 -0.003292
# 5 -0.004983 0.000398 -0.004603 0.000000 0.047752 0.000000
# 6 0.000000 0.000000 0.000000 -0.003292 0.000000 0.031545
#
#
# Mechanical properties :
#
#
# Convention : Reuss Voigt Hill
#
# Bulk Modulus (GPa) = 58.49339 66.90784 62.70061
# Shear Modulus (GPa) = 31.59388 34.55615 33.07502
#
# Velocity S-wave (km/s) = 3.88597 4.06407 3.97602
# Velocity P-wave (km/s) = 6.93486 7.34860 7.14472
#
# Compressibility (1/GPa) = 0.01709595
#
# Stress axis : x y z
#
# Youngs Moduli (GPa) = 87.72118 102.81446 93.01021
#
# Poissons Ratio (x) = 0.35389 0.07619
# Poissons Ratio (y) = 0.30193 0.29109
# Poissons Ratio (z) = 0.07185 0.32178
#
# Static dielectric constant tensor:
#      x y z
#    x 3.785980 0.000000 0.145770 
#    y 0.000000 3.830800 0.000000 
#    z 0.145770 0.000000 3.553220 
# 
# 
# High freq. dielectric constant tensor:
#      x y z
#    x 1.829400 0.000000 0.004180 
#    y 0.000000 1.826580 0.000000 
#    z 0.004180 0.000000 1.824760 
# 
# From -- ./inp_files/33732.got.cif
#   From: 2010.06.25/outbox.cif.g09.slc.cpg/sg11_17_cif.got.tgz:33732.got - 2010.06.27 23:14:04.
