data_PCOD8076670
_publ_section_title
;
Structure prediction by ZEFSAII (Michael W. Deem and Ramdas Pophale) SiO2 
 PCOD8076670
Probable space group: P 21/M
;
_chemical_formula_sum "Si O2"
_cell_formula_units_Z 24
_cell_length_a 14.641993
_cell_length_b 8.720259
_cell_length_c 14.919980
_cell_angle_alpha 90.000000
_cell_angle_beta 40.120381
_cell_angle_gamma 90.000000
_cell_volume 1227.581804
_symmetry_space_group_name_H-M "P 21/M"
_symmetry_group_IT_number 11
_symmetry_cell_setting 'monoclinic'
loop_
_space_group_symop_operation_xyz
x,y,z
-x,1/2+y,-z
-x,-y,-z
x,1/2-y,z
loop_
_atom_site_type_symbol
_atom_site_label
_atom_site_fract_x
_atom_site_fract_y
_atom_site_fract_z
Si Si1 0.335063 0.070754 0.846790
Si Si2 0.154485 0.929110 0.134472
Si Si3 0.827092 0.927849 0.372880
Si Si4 0.349137 0.072888 0.132867
Si Si5 0.622020 0.574583 0.685704
Si Si6 0.352917 0.929693 0.642113
O O1 0.325250 0.250000 0.835968
O O2 0.485833 0.032490 0.777760
O O3 0.311936 0.984442 0.771274
O O4 0.211265 0.020279 0.006331
O O5 0.184444 0.750000 0.097784
O O6 0.989701 0.966888 0.268785
O O7 0.229023 0.983559 0.169222
O O8 0.804290 0.750000 0.367334
O O9 0.741023 0.976383 0.525938
O O10 0.773498 0.025309 0.329199
O O11 0.351444 0.250000 0.101213
O O12 0.312210 0.054767 0.265217
O O13 0.500000 0.000000 0.000000
O O14 0.573801 0.750000 0.705602
O O15 0.373252 0.750000 0.627746
O O16 0.500000 0.000000 0.500000
#
# Coordination Sequence:
#
# PCOD8076670 Si02
#       6
#     4   4   4   4   4   4
#     4  12  24  39  64  94 123 164 212 258 309 374
#     4  11  24  42  63  91 129 168 206 261 319 370
#     4  10  23  43  65  91 126 166 210 259 315 370
#     4  11  22  37  62  93 126 164 211 260 311 373
#     4  10  21  39  64  91 123 163 208 261 310 365
#     4  12  24  40  65  95 127 163 207 258 310 372
#
# _framework density 19.550630999999999
#
# number of rings (size 3 to 8) (size 9 to 14) (size 15 to 20)
#    0.000    1.000    3.333    4.000    0.000    3.333 
#    0.000    0.000    0.000    0.000    0.000    0.000 
#    0.000    0.000    0.000    0.000    0.000    0.000 
#
# Total GULP energy -297765.844186 kJ/mol
# GULP energy per Si atom -12406.910174 kJ/mol
# Density = 1.950613 g / cm^3
# Si number density = 19.550631 Si / 1000 Ang^3
#
#
#
# Elastic Constant Matrix: (Units=GPa)
#
#
# Indices 1 2 3 4 5 6 
#
# 1 115.4990 37.6571 27.9026 0.0000 1.4703 0.0000
# 2 37.6571 101.5127 18.9217 0.0000 -8.7175 0.0000
# 3 27.9026 18.9217 82.8043 0.0000 -0.8345 0.0000
# 4 0.0000 0.0000 0.0000 22.7461 0.0000 4.5449
# 5 1.4703 -8.7175 -0.8345 0.0000 37.1256 0.0000
# 6 0.0000 0.0000 0.0000 4.5449 0.0000 36.8990
#
#
#
# Elastic Compliance Matrix: (Units=1/GPa)
#
#
# Indices 1 2 3 4 5 6 
#
# 1 0.010474 -0.003485 -0.002746 0.000000 -0.001295 0.000000
# 2 -0.003485 0.011660 -0.001462 0.000000 0.002843 0.000000
# 3 -0.002746 -0.001462 0.013337 0.000000 0.000065 0.000000
# 4 0.000000 0.000000 0.000000 0.045073 0.000000 -0.005552
# 5 -0.001295 0.002843 0.000065 0.000000 0.027656 0.000000
# 6 0.000000 0.000000 0.000000 -0.005552 0.000000 0.027785
#
#
# Mechanical properties :
#
#
# Convention : Reuss Voigt Hill
#
# Bulk Modulus (GPa) = 49.78597 52.08654 50.93626
# Shear Modulus (GPa) = 31.63246 33.70977 32.67112
#
# Velocity S-wave (km/s) = 4.02677 4.15689 4.09235
# Velocity P-wave (km/s) = 6.86588 7.05261 6.95987
#
# Compressibility (1/GPa) = 0.02008598
#
# Stress axis : x y z
#
# Youngs Moduli (GPa) = 95.47277 85.76113 74.98103
#
# Poissons Ratio (x) = 0.29886 0.20592
# Poissons Ratio (y) = 0.33270 0.10959
# Poissons Ratio (z) = 0.26219 0.12535
#
# Static dielectric constant tensor:
#      x y z
#    x 3.637360 0.000000 0.222830 
#    y 0.000000 3.531180 0.000000 
#    z 0.222830 0.000000 3.685180 
# 
# 
# High freq. dielectric constant tensor:
#      x y z
#    x 1.769400 0.000000 0.011600 
#    y 0.000000 1.770610 0.000000 
#    z 0.011600 0.000000 1.767140 
# 
# From -- ./inp_files/51485.got.cif
#   From: 2010.06.25/outbox.cif.g09.slc.cpg/sg11_26_cif.got.tgz:51485.got - 2010.06.27 23:14:04.
