data_PCOD8076441
_publ_section_title
;
Structure prediction by ZEFSAII (Michael W. Deem and Ramdas Pophale) SiO2 
 PCOD8076441
Probable space group: P 21/M
;
_chemical_formula_sum "Si O2"
_cell_formula_units_Z 24
_cell_length_a 5.173677
_cell_length_b 17.754891
_cell_length_c 12.452077
_cell_angle_alpha 90.000000
_cell_angle_beta 67.927271
_cell_angle_gamma 90.000000
_cell_volume 1059.990182
_symmetry_space_group_name_H-M "P 21/M"
_symmetry_group_IT_number 11
_symmetry_cell_setting 'monoclinic'
loop_
_space_group_symop_operation_xyz
x,y,z
-x,1/2+y,-z
-x,-y,-z
x,1/2-y,z
loop_
_atom_site_type_symbol
_atom_site_label
_atom_site_fract_x
_atom_site_fract_y
_atom_site_fract_z
Si Si1 0.628150 0.662379 0.667336
Si Si2 0.083904 0.336419 0.953661
Si Si3 0.159047 0.339824 0.596043
Si Si4 0.811533 0.024928 0.930652
Si Si5 0.015564 0.890027 0.794599
Si Si6 0.452669 0.838445 0.277649
O O1 0.547732 0.750000 0.674739
O O2 0.751718 0.633020 0.535912
O O3 0.348611 0.616238 0.736108
O O4 0.864623 0.650586 0.719753
O O5 0.008693 0.250000 0.939712
O O6 0.388773 0.358408 0.858174
O O7 0.851666 0.384399 0.922443
O O8 0.090474 0.350623 0.079369
O O9 0.147234 0.250000 0.602305
O O10 0.375832 0.372479 0.648596
O O11 0.855385 0.374320 0.673050
O O12 0.929852 0.978709 0.809230
O O13 0.500000 0.000000 0.000000
O O14 0.000000 0.000000 0.000000
O O15 0.429506 0.750000 0.297945
#
# Coordination Sequence:
#
# PCOD8076441 Si02
#       6
#     4   4   4   4   4   4
#     4  11  21  35  58  85 116 154 196 240 279 333
#     4  10  21  38  62  90 116 145 191 242 284 335
#     4   9  18  33  52  78 111 149 191 231 280 330
#     4  10  22  40  58  80 118 160 185 219 286 355
#     4  11  22  36  57  87 120 151 185 232 295 347
#     4   9  18  32  53  80 110 144 185 237 283 325
#
# _framework density 22.641719999999999
#
# number of rings (size 3 to 8) (size 9 to 14) (size 15 to 20)
#    0.000    2.000    0.000    4.500    0.000    6.667 
#    0.000   10.833    0.000    6.000    0.000    0.000 
#    0.000    0.000    0.000    0.000    0.000    0.000 
#
# Total GULP energy -297522.795115 kJ/mol
# GULP energy per Si atom -12396.783130 kJ/mol
# Density = 2.259019 g / cm^3
# Si number density = 22.641720 Si / 1000 Ang^3
#
#
#
# Elastic Constant Matrix: (Units=GPa)
#
#
# Indices 1 2 3 4 5 6 
#
# 1 125.3149 -1.1731 42.4318 0.0000 -13.5679 0.0000
# 2 -1.1731 71.0764 9.1015 0.0000 -8.3020 0.0000
# 3 42.4318 9.1015 138.3721 0.0000 -10.5528 0.0000
# 4 0.0000 0.0000 0.0000 8.2108 0.0000 -6.3695
# 5 -13.5679 -8.3020 -10.5528 0.0000 36.0903 0.0000
# 6 0.0000 0.0000 0.0000 -6.3695 0.0000 22.4112
#
#
#
# Elastic Compliance Matrix: (Units=1/GPa)
#
#
# Indices 1 2 3 4 5 6 
#
# 1 0.009198 0.000827 -0.002656 0.000000 0.002872 0.000000
# 2 0.000827 0.014601 -0.000956 0.000000 0.003390 0.000000
# 3 -0.002656 -0.000956 0.008194 0.000000 0.001178 0.000000
# 4 0.000000 0.000000 0.000000 0.156237 0.000000 0.044404
# 5 0.002872 0.003390 0.001178 0.000000 0.029912 0.000000
# 6 0.000000 0.000000 0.000000 0.044404 0.000000 0.057241
#
#
# Mechanical properties :
#
#
# Convention : Reuss Voigt Hill
#
# Bulk Modulus (GPa) = 37.84308 48.38709 43.11509
# Shear Modulus (GPa) = 17.25569 32.30268 24.77919
#
# Velocity S-wave (km/s) = 2.76365 3.78125 3.31177
# Velocity P-wave (km/s) = 5.18978 6.36247 5.80581
#
# Compressibility (1/GPa) = 0.02642491
#
# Stress axis : x y z
#
# Youngs Moduli (GPa) = 108.72103 68.48665 122.04058
#
# Poissons Ratio (x) = -0.05666 0.32413
# Poissons Ratio (y) = -0.08995 0.11662
# Poissons Ratio (z) = 0.28876 0.06544
#
# Static dielectric constant tensor:
#      x y z
#    x 4.182590 0.000000 -0.098210 
#    y 0.000000 4.649650 0.000000 
#    z -0.098210 0.000000 4.195550 
# 
# 
# High freq. dielectric constant tensor:
#      x y z
#    x 1.904260 0.000000 -0.003800 
#    y 0.000000 1.864940 0.000000 
#    z -0.003800 0.000000 1.897330 
# 
# From -- ./inp_files/29861.got.cif
#   From: 2010.06.25/outbox.cif.g09.slc.cpg/sg11_15_cif.got.tgz:29861.got - 2010.06.27 23:14:04.
