data_PCOD8076286
_publ_section_title
;
Structure prediction by ZEFSAII (Michael W. Deem and Ramdas Pophale) SiO2 
 PCOD8076286
Probable space group: P 21/M
;
_chemical_formula_sum "Si O2"
_cell_formula_units_Z 32
_cell_length_a 14.107712
_cell_length_b 9.014220
_cell_length_c 23.677473
_cell_angle_alpha 90.000000
_cell_angle_beta 32.987230
_cell_angle_gamma 90.000000
_cell_volume 1639.380502
_symmetry_space_group_name_H-M "P 21/M"
_symmetry_group_IT_number 11
_symmetry_cell_setting 'monoclinic'
loop_
_space_group_symop_operation_xyz
x,y,z
-x,1/2+y,-z
-x,-y,-z
x,1/2-y,z
loop_
_atom_site_type_symbol
_atom_site_label
_atom_site_fract_x
_atom_site_fract_y
_atom_site_fract_z
Si Si1 0.319484 0.579043 0.480744
Si Si2 0.164599 0.925676 0.889178
Si Si3 0.527765 0.577502 0.199766
Si Si4 0.827113 0.423276 0.565301
Si Si5 0.275709 0.421336 0.725247
Si Si6 0.138995 0.424511 0.672201
Si Si7 0.770995 0.922203 0.851322
Si Si8 0.507195 0.920247 0.079841
O O1 0.284107 0.750000 0.513836
O O2 0.210946 0.529400 0.480065
O O3 0.520763 0.552726 0.366477
O O4 0.266120 0.478902 0.559731
O O5 0.145350 0.750000 0.901623
O O6 0.338816 0.975965 0.833440
O O7 0.169490 0.977250 0.821793
O O8 0.000000 0.000000 0.000000
O O9 0.561837 0.750000 0.198131
O O10 0.333384 0.530148 0.314485
O O11 0.555298 0.546078 0.120068
O O12 0.858574 0.250000 0.553717
O O13 0.000000 0.500000 0.500000
O O14 0.225673 0.250000 0.760324
O O15 0.223054 0.474144 0.689216
O O16 0.122023 0.250000 0.676290
O O17 0.950172 0.492450 0.759606
O O18 0.808856 0.750000 0.823920
O O19 0.652042 0.976457 0.859039
O O20 0.677175 0.956802 0.957648
O O21 0.449669 0.750000 0.099967
#
# Coordination Sequence:
#
# PCOD8076286 Si02
#       8
#     4   4   4   4   4   4   4   4
#     4  10  21  41  64  87 121 160 199 250 311 363
#     4  12  26  42  65  95 127 165 208 255 307 371
#     4  10  21  42  66  91 124 163 206 255 311 366
#     4  10  22  39  62  90 126 165 202 253 307 364
#     4  10  22  44  66  88 121 159 202 254 308 362
#     4  11  24  38  61  91 120 156 202 252 303 363
#     4  10  21  38  58  87 123 158 199 249 301 360
#     4   9  20  38  62  87 118 159 201 246 302 360
#
# _framework density 19.519568
#
# number of rings (size 3 to 8) (size 9 to 14) (size 15 to 20)
#    0.000    1.750    1.250    2.250    3.500    3.500 
#    0.000    0.000    0.000    0.000    0.000    0.000 
#    0.000    0.000    0.000    0.000    0.000    0.000 
#
# Total GULP energy -396968.092033 kJ/mol
# GULP energy per Si atom -12405.252876 kJ/mol
# Density = 1.947514 g / cm^3
# Si number density = 19.519568 Si / 1000 Ang^3
#
#
#
# Elastic Constant Matrix: (Units=GPa)
#
#
# Indices 1 2 3 4 5 6 
#
# 1 63.3592 32.6670 32.4156 0.0000 20.0307 0.0000
# 2 32.6670 84.1221 48.5261 0.0000 13.3522 0.0000
# 3 32.4156 48.5261 95.8656 0.0000 9.2549 0.0000
# 4 0.0000 0.0000 0.0000 28.4860 0.0000 5.5325
# 5 20.0307 13.3522 9.2549 0.0000 25.6782 0.0000
# 6 0.0000 0.0000 0.0000 5.5325 0.0000 29.6560
#
#
#
# Elastic Compliance Matrix: (Units=1/GPa)
#
#
# Indices 1 2 3 4 5 6 
#
# 1 0.025655 -0.004696 -0.004767 0.000000 -0.015852 0.000000
# 2 -0.004696 0.018550 -0.007485 0.000000 -0.003285 0.000000
# 3 -0.004767 -0.007485 0.015641 0.000000 0.001973 0.000000
# 4 0.000000 0.000000 0.000000 0.036425 0.000000 -0.006795
# 5 -0.015852 -0.003285 0.001973 0.000000 0.052306 0.000000
# 6 0.000000 0.000000 0.000000 -0.006795 0.000000 0.034988
#
#
# Mechanical properties :
#
#
# Convention : Reuss Voigt Hill
#
# Bulk Modulus (GPa) = 38.53583 52.28493 45.41038
# Shear Modulus (GPa) = 22.11290 25.41324 23.76307
#
# Velocity S-wave (km/s) = 3.36945 3.61215 3.49291
# Velocity P-wave (km/s) = 5.90953 6.65138 6.29140
#
# Compressibility (1/GPa) = 0.02594988
#
# Stress axis : x y z
#
# Youngs Moduli (GPa) = 38.97859 53.90772 63.93271
#
# Poissons Ratio (x) = 0.25318 0.30478
# Poissons Ratio (y) = 0.18306 0.47852
# Poissons Ratio (z) = 0.18582 0.40349
#
# Static dielectric constant tensor:
#      x y z
#    x 3.699720 0.000000 0.165610 
#    y 0.000000 3.488990 0.000000 
#    z 0.165610 0.000000 3.120590 
# 
# 
# High freq. dielectric constant tensor:
#      x y z
#    x 1.770430 0.000000 0.004330 
#    y 0.000000 1.756570 0.000000 
#    z 0.004330 0.000000 1.771320 
# 
# From -- ./inp_files/55667.got.cif
#   From: 2010.06.25/outbox.cif.g09.slc.cpg/sg11_28_cif.got.tgz:55667.got - 2010.06.27 23:14:04.
