data_PCOD8076679
_publ_section_title
;
Structure prediction by ZEFSAII (Michael W. Deem and Ramdas Pophale) SiO2 
 PCOD8076679
Probable space group: P 21/M
;
_chemical_formula_sum "Si O2"
_cell_formula_units_Z 24
_cell_length_a 14.498026
_cell_length_b 13.601289
_cell_length_c 9.199745
_cell_angle_alpha 90.000000
_cell_angle_beta 41.134556
_cell_angle_gamma 90.000000
_cell_volume 1193.378342
_symmetry_space_group_name_H-M "P 21/M"
_symmetry_group_IT_number 11
_symmetry_cell_setting 'monoclinic'
loop_
_space_group_symop_operation_xyz
x,y,z
-x,1/2+y,-z
-x,-y,-z
x,1/2-y,z
loop_
_atom_site_type_symbol
_atom_site_label
_atom_site_fract_x
_atom_site_fract_y
_atom_site_fract_z
Si Si1 0.190675 0.535292 0.500768
Si Si2 0.546612 0.134297 0.317993
Si Si3 0.438422 0.862772 0.038662
Si Si4 0.096369 0.363181 0.135751
Si Si5 0.278639 0.485456 0.715228
Si Si6 0.250418 0.361813 0.249940
O O1 0.319837 0.575212 0.255715
O O2 0.228727 0.530286 0.623481
O O3 0.160852 0.427021 0.469938
O O4 0.058432 0.605051 0.632488
O O5 0.558322 0.250000 0.337530
O O6 0.400344 0.095176 0.554879
O O7 0.674097 0.078166 0.244155
O O8 0.552921 0.110518 0.140720
O O9 0.399830 0.750000 0.107227
O O10 0.585480 0.889323 0.939559
O O11 0.093553 0.250000 0.089560
O O12 0.201649 0.379488 0.144111
O O13 0.146649 0.431216 0.944076
O O14 0.225830 0.250000 0.329633
#
# Coordination Sequence:
#
# PCOD8076679 Si02
#       6
#     4   4   4   4   4   4
#     4  12  23  40  65  93 126 161 207 258 308 365
#     4  10  22  40  63  93 125 160 208 259 308 363
#     4  10  21  39  64  93 121 157 207 262 309 358
#     4  11  25  43  61  89 128 169 206 249 308 374
#     4  11  24  39  63  91 126 167 205 250 315 368
#     4  10  22  39  63  91 121 163 210 254 308 362
#
# _framework density 20.110975
#
# number of rings (size 3 to 8) (size 9 to 14) (size 15 to 20)
#    0.000    1.333    1.667    3.500    4.667    2.000 
#    0.000    2.500    0.000    0.000    0.000    0.000 
#    0.000    0.000    0.000    0.000    0.000    0.000 
#
# Total GULP energy -297740.461724 kJ/mol
# GULP energy per Si atom -12405.852572 kJ/mol
# Density = 2.006520 g / cm^3
# Si number density = 20.110975 Si / 1000 Ang^3
#
#
#
# Elastic Constant Matrix: (Units=GPa)
#
#
# Indices 1 2 3 4 5 6 
#
# 1 74.6886 54.8421 75.1203 0.0000 -0.1371 0.0000
# 2 54.8421 120.5843 108.0139 0.0000 0.2282 0.0000
# 3 75.1203 108.0139 3388.5589 0.0000 98.8120 0.0000
# 4 0.0000 0.0000 0.0000 33.1577 0.0000 -1.8430
# 5 -0.1371 0.2282 98.8120 0.0000 23.1611 0.0000
# 6 0.0000 0.0000 0.0000 -1.8430 0.0000 30.6511
#
#
#
# Elastic Compliance Matrix: (Units=1/GPa)
#
#
# Indices 1 2 3 4 5 6 
#
# 1 0.020206 -0.009022 -0.000190 0.000000 0.001020 0.000000
# 2 -0.009022 0.012595 -0.000224 0.000000 0.000779 0.000000
# 3 -0.000190 -0.000224 0.000350 0.000000 -0.001492 0.000000
# 4 0.000000 0.000000 0.000000 0.030260 0.000000 0.001819
# 5 0.001020 0.000779 -0.001492 0.000000 0.049540 0.000000
# 6 0.000000 0.000000 0.000000 0.001819 0.000000 0.032735
#
#
# Mechanical properties :
#
#
# Convention : Reuss Voigt Hill
#
# Bulk Modulus (GPa) = 70.02838 451.08715 260.55776
# Shear Modulus (GPa) = 29.53031 240.45102 134.99067
#
# Velocity S-wave (km/s) = 3.83609 10.94631 8.20174
# Velocity P-wave (km/s) = 7.38358 19.60990 14.81664
#
# Compressibility (1/GPa) = 0.01427993
#
# Stress axis : x y z
#
# Youngs Moduli (GPa) = 49.48956 79.39458 2857.30136
#
# Poissons Ratio (x) = 0.71626 0.54320
# Poissons Ratio (y) = 0.44647 0.64063
# Poissons Ratio (z) = 0.00941 0.01780
#
# Static dielectric constant tensor:
#      x y z
#    x 3.701030 0.000000 0.012610 
#    y 0.000000 3.944080 0.000000 
#    z 0.012610 0.000000 3.553870 
# 
# 
# High freq. dielectric constant tensor:
#      x y z
#    x 1.791020 0.000000 0.004940 
#    y 0.000000 1.804710 0.000000 
#    z 0.004940 0.000000 1.779410 
# 
# From -- ./inp_files/22013.got.cif
#   From: 2010.06.25/outbox.cif.g09.slc.cpg/sg11_12_cif.got.tgz:22013.got - 2010.06.27 23:14:04.
