data_PCOD8076144
_publ_section_title
;
Structure prediction by ZEFSAII (Michael W. Deem and Ramdas Pophale) SiO2 
 PCOD8076144
Probable space group: P 21/M
;
_chemical_formula_sum "Si O2"
_cell_formula_units_Z 32
_cell_length_a 10.075611
_cell_length_b 13.781096
_cell_length_c 12.032597
_cell_angle_alpha 90.000000
_cell_angle_beta 71.940673
_cell_angle_gamma 90.000000
_cell_volume 1588.453391
_symmetry_space_group_name_H-M "P 21/M"
_symmetry_group_IT_number 11
_symmetry_cell_setting 'monoclinic'
loop_
_space_group_symop_operation_xyz
x,y,z
-x,1/2+y,-z
-x,-y,-z
x,1/2-y,z
loop_
_atom_site_type_symbol
_atom_site_label
_atom_site_fract_x
_atom_site_fract_y
_atom_site_fract_z
Si Si1 0.883472 0.358088 0.925012
Si Si2 0.680311 0.142471 0.165772
Si Si3 0.576860 0.966109 0.711801
Si Si4 0.844202 0.859162 0.020948
Si Si5 0.176610 0.030275 0.193272
Si Si6 0.197771 0.045001 0.527068
Si Si7 0.011649 0.865225 0.579071
Si Si8 0.701093 0.949163 0.259579
O O1 0.909860 0.250000 0.872495
O O2 0.899661 0.428282 0.814270
O O3 0.995897 0.384523 0.991142
O O4 0.732556 0.367283 0.024477
O O5 0.717269 0.250000 0.202013
O O6 0.512674 0.125395 0.217233
O O7 0.756111 0.059607 0.220383
O O8 0.680959 0.998553 0.782069
O O9 0.664064 0.937894 0.580840
O O10 0.468732 0.051260 0.703441
O O11 0.828452 0.750000 0.984485
O O12 0.752065 0.874435 0.154275
O O13 0.788414 0.923769 0.934836
O O14 0.079963 0.100653 0.291346
O O15 0.073840 0.112413 0.511631
O O16 0.237838 0.082920 0.638407
O O17 0.152163 0.930776 0.538170
O O18 0.045943 0.750000 0.578756
#
# Coordination Sequence:
#
# PCOD8076144 Si02
#       8
#     4   4   4   4   4   4   4   4
#     4  10  21  37  59  91 123 158 198 241 302 358
#     4   9  20  36  59  88 117 152 200 242 286 353
#     4   9  22  38  59  82 117 152 202 239 300 344
#     4  11  23  36  56  89 123 157 198 244 298 356
#     4  11  20  39  61  88 122 158 191 250 296 353
#     4  10  21  41  63  85 119 156 193 254 299 346
#     4  10  23  39  62  93 117 153 202 244 298 357
#     4  10  21  39  60  83 120 156 200 244 294 353
#
# _framework density 20.145382000000001
#
# number of rings (size 3 to 8) (size 9 to 14) (size 15 to 20)
#    0.750    1.250    1.250    1.875    1.750    5.500 
#    0.000   10.625    0.000    0.000    0.000    0.000 
#    0.000    0.000    0.000    0.000    0.000    0.000 
#
# Total GULP energy -396555.224002 kJ/mol
# GULP energy per Si atom -12392.350750 kJ/mol
# Density = 2.009953 g / cm^3
# Si number density = 20.145382 Si / 1000 Ang^3
#
#
#
# Elastic Constant Matrix: (Units=GPa)
#
#
# Indices 1 2 3 4 5 6 
#
# 1 66.3298 13.5783 31.1596 0.0000 6.6946 0.0000
# 2 13.5783 75.7888 17.5608 0.0000 8.4929 0.0000
# 3 31.1596 17.5608 84.3192 0.0000 21.8127 0.0000
# 4 0.0000 0.0000 0.0000 25.2332 0.0000 -1.4044
# 5 6.6946 8.4929 21.8127 0.0000 40.1851 0.0000
# 6 0.0000 0.0000 0.0000 -1.4044 0.0000 22.3427
#
#
#
# Elastic Compliance Matrix: (Units=1/GPa)
#
#
# Indices 1 2 3 4 5 6 
#
# 1 0.018509 -0.001871 -0.006695 0.000000 0.000946 0.000000
# 2 -0.001871 0.014140 -0.001816 0.000000 -0.001691 0.000000
# 3 -0.006695 -0.001816 0.016664 0.000000 -0.007546 0.000000
# 4 0.000000 0.000000 0.000000 0.039769 0.000000 0.002500
# 5 0.000946 -0.001691 -0.007546 0.000000 0.029181 0.000000
# 6 0.000000 0.000000 0.000000 0.002500 0.000000 0.044915
#
#
# Mechanical properties :
#
#
# Convention : Reuss Voigt Hill
#
# Bulk Modulus (GPa) = 35.02707 39.00393 37.01550
# Shear Modulus (GPa) = 25.84545 28.49479 27.17012
#
# Velocity S-wave (km/s) = 3.58571 3.76501 3.67645
# Velocity P-wave (km/s) = 5.87945 6.18899 6.03621
#
# Compressibility (1/GPa) = 0.02854935
#
# Stress axis : x y z
#
# Youngs Moduli (GPa) = 54.02863 70.72121 60.00911
#
# Poissons Ratio (x) = 0.13230 0.40175
# Poissons Ratio (y) = 0.10108 0.10898
# Poissons Ratio (z) = 0.36171 0.12844
#
# Static dielectric constant tensor:
#      x y z
#    x 3.634550 0.000000 -0.028700 
#    y 0.000000 3.568520 0.000000 
#    z -0.028700 0.000000 3.587990 
# 
# 
# High freq. dielectric constant tensor:
#      x y z
#    x 1.776480 0.000000 -0.003760 
#    y 0.000000 1.772110 0.000000 
#    z -0.003760 0.000000 1.787790 
# 
# From -- ./inp_files/35476.got.cif
#   From: 2010.06.25/outbox.cif.g09.slc.cpg/sg11_18_cif.got.tgz:35476.got - 2010.06.27 23:14:04.
