data_PCOD8076722
_publ_section_title
;
Structure prediction by ZEFSAII (Michael W. Deem and Ramdas Pophale) SiO2 
 PCOD8076722
Probable space group: P 21/M
;
_chemical_formula_sum "Si O2"
_cell_formula_units_Z 32
_cell_length_a 12.088364
_cell_length_b 8.725488
_cell_length_c 15.548894
_cell_angle_alpha 90.000000
_cell_angle_beta 89.737953
_cell_angle_gamma 90.000000
_cell_volume 1640.031596
_symmetry_space_group_name_H-M "P 21/M"
_symmetry_group_IT_number 11
_symmetry_cell_setting 'monoclinic'
loop_
_space_group_symop_operation_xyz
x,y,z
-x,1/2+y,-z
-x,-y,-z
x,1/2-y,z
loop_
_atom_site_type_symbol
_atom_site_label
_atom_site_fract_x
_atom_site_fract_y
_atom_site_fract_z
Si Si1 0.623075 0.068477 0.502154
Si Si2 0.278639 0.070662 0.152721
Si Si3 0.728439 0.931746 0.159873
Si Si4 0.772855 0.931294 0.350633
Si Si5 0.498417 0.929902 0.092277
Si Si6 0.763327 0.574494 0.652071
Si Si7 0.121771 0.431709 0.997563
Si Si8 0.991582 0.072417 0.408575
O O1 0.613613 0.250000 0.496994
O O2 0.500000 0.000000 0.500000
O O3 0.693657 0.009873 0.420797
O O4 0.684651 0.025649 0.590962
O O5 0.300732 0.250000 0.139724
O O6 0.243507 0.027667 0.248711
O O7 0.391472 0.979794 0.143649
O O8 0.188367 0.014855 0.082872
O O9 0.735282 0.750000 0.158310
O O10 0.748582 0.993739 0.255415
O O11 0.606542 0.992641 0.139654
O O12 0.815275 0.994248 0.088094
O O13 0.756606 0.750000 0.360257
O O14 0.899984 0.975701 0.359828
O O15 0.503322 0.750000 0.083791
O O16 0.500000 0.000000 0.000000
O O17 0.728856 0.750000 0.635836
O O18 0.891413 0.547081 0.635312
O O19 0.112283 0.250000 0.995922
O O20 0.000000 0.500000 0.000000
O O21 0.956941 0.250000 0.413013
O O22 0.000000 0.000000 0.500000
#
# Coordination Sequence:
#
# PCOD8076722 Si02
#       8
#     4   4   4   4   4   4   4   4
#     4  12  26  44  65  90 124 164 205 253 309 373
#     4  10  22  41  63  89 124 162 202 255 308 357
#     4   9  21  40  61  86 122 162 199 247 308 360
#     4  11  23  41  64  91 124 162 206 259 309 365
#     4  11  21  39  64  90 120 159 206 255 306 366
#     4  10  23  42  64  91 124 163 206 253 309 366
#     4  10  21  40  61  86 123 162 199 246 300 358
#     4  11  22  39  64  91 122 161 206 256 308 368
#
# _framework density 19.511818000000002
#
# number of rings (size 3 to 8) (size 9 to 14) (size 15 to 20)
#    0.000    1.500    2.500    2.250    3.500    1.500 
#    0.000    2.500    0.000    0.000    0.000    0.000 
#    0.000    0.000    0.000    0.000    0.000    0.000 
#
# Total GULP energy -396753.948838 kJ/mol
# GULP energy per Si atom -12398.560901 kJ/mol
# Density = 1.946741 g / cm^3
# Si number density = 19.511818 Si / 1000 Ang^3
#
#
#
# Elastic Constant Matrix: (Units=GPa)
#
#
# Indices 1 2 3 4 5 6 
#
# 1 159.5711 48.7221 90.9492 0.0000 5.9915 0.0000
# 2 48.7221 72.2624 48.0877 0.0000 -0.5962 0.0000
# 3 90.9492 48.0877 173.5331 0.0000 9.5948 0.0000
# 4 0.0000 0.0000 0.0000 15.8111 0.0000 0.6282
# 5 5.9915 -0.5962 9.5948 0.0000 38.1444 0.0000
# 6 0.0000 0.0000 0.0000 0.6282 0.0000 38.5637
#
#
#
# Elastic Compliance Matrix: (Units=1/GPa)
#
#
# Indices 1 2 3 4 5 6 
#
# 1 0.009767 -0.003930 -0.003997 0.000000 -0.000590 0.000000
# 2 -0.003930 0.018630 -0.003197 0.000000 0.001713 0.000000
# 3 -0.003997 -0.003197 0.008835 0.000000 -0.001644 0.000000
# 4 0.000000 0.000000 0.000000 0.063288 0.000000 -0.001031
# 5 -0.000590 0.001713 -0.001644 0.000000 0.026749 0.000000
# 6 0.000000 0.000000 0.000000 -0.001031 0.000000 0.025948
#
#
# Mechanical properties :
#
#
# Convention : Reuss Voigt Hill
#
# Bulk Modulus (GPa) = 66.74664 86.76494 76.75579
# Shear Modulus (GPa) = 27.70678 33.01100 30.35889
#
# Velocity S-wave (km/s) = 3.77238 4.11767 3.94880
# Velocity P-wave (km/s) = 7.29774 8.19581 7.75978
#
# Compressibility (1/GPa) = 0.01498203
#
# Stress axis : x y z
#
# Youngs Moduli (GPa) = 102.38223 53.67585 113.19179
#
# Poissons Ratio (x) = 0.21096 0.45246
# Poissons Ratio (y) = 0.40239 0.36193
# Poissons Ratio (z) = 0.40925 0.17163
#
# Static dielectric constant tensor:
#      x y z
#    x 3.671510 0.000000 0.061180 
#    y 0.000000 3.494090 0.000000 
#    z 0.061180 0.000000 3.828830 
# 
# 
# High freq. dielectric constant tensor:
#      x y z
#    x 1.776900 0.000000 0.000440 
#    y 0.000000 1.750160 0.000000 
#    z 0.000440 0.000000 1.776950 
# 
# From -- ./inp_files/45112.got.cif
#   From: 2010.06.25/outbox.cif.g09.slc.cpg/sg11_23_cif.got.tgz:45112.got - 2010.06.27 23:14:04.
