data_PCOD8076911
_publ_section_title
;
Structure prediction by ZEFSAII (Michael W. Deem and Ramdas Pophale) SiO2 
 PCOD8076911
Probable space group: P 21/M
;
_chemical_formula_sum "Si O2"
_cell_formula_units_Z 26
_cell_length_a 10.391875
_cell_length_b 18.123357
_cell_length_c 16.192414
_cell_angle_alpha 90.000000
_cell_angle_beta 23.737918
_cell_angle_gamma 90.000000
_cell_volume 1227.631285
_symmetry_space_group_name_H-M "P 21/M"
_symmetry_group_IT_number 11
_symmetry_cell_setting 'monoclinic'
loop_
_space_group_symop_operation_xyz
x,y,z
-x,1/2+y,-z
-x,-y,-z
x,1/2-y,z
loop_
_atom_site_type_symbol
_atom_site_label
_atom_site_fract_x
_atom_site_fract_y
_atom_site_fract_z
Si Si1 0.322979 0.250000 0.877882
Si Si2 0.196725 0.018410 0.624769
Si Si3 0.338111 0.447078 0.369201
Si Si4 0.258242 0.616475 0.010018
Si Si5 0.269282 0.609878 0.364929
Si Si6 0.197665 0.250000 0.757221
Si Si7 0.885269 0.627565 0.741843
Si Si8 0.887057 0.250000 0.276595
O O1 0.495382 0.173723 0.807794
O O2 0.283492 0.250000 0.802971
O O3 0.975375 0.250000 0.127268
O O4 0.337555 0.069899 0.467866
O O5 0.943596 0.049435 0.837296
O O6 0.500000 0.000000 0.500000
O O7 0.998234 0.954143 0.697236
O O8 0.433851 0.533556 0.298721
O O9 0.983848 0.420755 0.552312
O O10 0.593851 0.400201 0.166981
O O11 0.010012 0.680962 0.144789
O O12 0.520477 0.632909 0.926107
O O13 0.101090 0.653713 0.538546
O O14 0.510337 0.250000 0.515329
O O15 0.941572 0.678777 0.786441
#
# Coordination Sequence:
#
# PCOD8076911 Si02
#       8
#     2   4   4   4   4   2   4   2
#     4  12  26  39  74  95 133 181 221 274 349 404
#     4  11  24  40  67 104 138 172 218 283 335 393
#     4   9  22  41  68 100 136 169 227 272 334 403
#     4  11  25  43  70  92 136 184 220 278 328 410
#     4   9  19  43  68 101 134 173 219 285 327 400
#     4  12  27  48  59  98 138 174 230 279 341 393
#     4  10  21  43  69  97 134 177 223 267 340 403
#     4  12  25  41  69  97 135 175 221 283 334 405
#
# _framework density 21.178998
#
# number of rings (size 3 to 8) (size 9 to 14) (size 15 to 20)
#    0.000    1.538    1.538    2.769    6.462    4.923 
#    0.000    0.000    0.000    0.000    0.000    0.000 
#    0.000    0.000    0.000    0.000    0.000    0.000 
#
# Total GULP energy -322143.868362 kJ/mol
# GULP energy per Si atom -12390.148783 kJ/mol
# Density = 2.113079 g / cm^3
# Si number density = 21.178998 Si / 1000 Ang^3
#
#
#
# Elastic Constant Matrix: (Units=GPa)
#
#
# Indices 1 2 3 4 5 6 
#
# 1 96.8676 22.8955 53.2470 0.0000 -2.2918 0.0000
# 2 22.8955 77.2807 34.0389 0.0000 -15.1476 0.0000
# 3 53.2470 34.0389 142.0242 0.0000 -5.3936 0.0000
# 4 0.0000 0.0000 0.0000 12.9784 0.0000 -3.9583
# 5 -2.2918 -15.1476 -5.3936 0.0000 33.3656 0.0000
# 6 0.0000 0.0000 0.0000 -3.9583 0.0000 32.7808
#
#
#
# Elastic Compliance Matrix: (Units=1/GPa)
#
#
# Indices 1 2 3 4 5 6 
#
# 1 0.013277 -0.002101 -0.004504 0.000000 -0.000770 0.000000
# 2 -0.002101 0.016122 -0.002821 0.000000 0.006719 0.000000
# 3 -0.004504 -0.002821 0.009403 0.000000 -0.000070 0.000000
# 4 0.000000 0.000000 0.000000 0.079997 0.000000 0.009660
# 5 -0.000770 0.006719 -0.000070 0.000000 0.032957 0.000000
# 6 0.000000 0.000000 0.000000 0.009660 0.000000 0.031672
#
#
# Mechanical properties :
#
#
# Convention : Reuss Voigt Hill
#
# Bulk Modulus (GPa) = 50.12279 59.61501 54.86890
# Shear Modulus (GPa) = 23.93151 29.55771 26.74461
#
# Velocity S-wave (km/s) = 3.36514 3.73984 3.55743
# Velocity P-wave (km/s) = 6.23029 6.84528 6.54501
#
# Compressibility (1/GPa) = 0.01995100
#
# Stress axis : x y z
#
# Youngs Moduli (GPa) = 75.31668 62.02799 106.34925
#
# Poissons Ratio (x) = 0.13031 0.47895
# Poissons Ratio (y) = 0.15823 0.30002
# Poissons Ratio (z) = 0.33919 0.17499
#
# Static dielectric constant tensor:
#      x y z
#    x 3.846050 0.000000 0.152190 
#    y 0.000000 3.889940 0.000000 
#    z 0.152190 0.000000 3.922940 
# 
# 
# High freq. dielectric constant tensor:
#      x y z
#    x 1.830360 0.000000 0.007350 
#    y 0.000000 1.826150 0.000000 
#    z 0.007350 0.000000 1.838740 
# 
# From -- ./inp_files/59667.got.cif
#   From: 2010.06.25/outbox.cif.g09.slc.cpg/sg11_30_cif.got.tgz:59667.got - 2010.06.27 23:14:04.
