data_PCOD8076245
_publ_section_title
;
Structure prediction by ZEFSAII (Michael W. Deem and Ramdas Pophale) SiO2 
 PCOD8076245
Probable space group: P 21/M
;
_chemical_formula_sum "Si O2"
_cell_formula_units_Z 32
_cell_length_a 15.812634
_cell_length_b 8.800919
_cell_length_c 25.475553
_cell_angle_alpha 90.000000
_cell_angle_beta 150.261520
_cell_angle_gamma 90.000000
_cell_volume 1758.629092
_symmetry_space_group_name_H-M "P 21/M"
_symmetry_group_IT_number 11
_symmetry_cell_setting 'monoclinic'
loop_
_space_group_symop_operation_xyz
x,y,z
-x,1/2+y,-z
-x,-y,-z
x,1/2-y,z
loop_
_atom_site_type_symbol
_atom_site_label
_atom_site_fract_x
_atom_site_fract_y
_atom_site_fract_z
Si Si1 0.904187 0.570674 0.795060
Si Si2 0.474367 0.424421 0.225381
Si Si3 0.226439 0.430329 0.477530
Si Si4 0.020290 0.930330 0.271378
Si Si5 0.146116 0.927690 0.544124
Si Si6 0.727410 0.424425 0.976397
Si Si7 0.340144 0.927692 0.942136
Si Si8 0.576802 0.570674 0.685931
O O1 0.913773 0.750000 0.788189
O O2 0.881797 0.483944 0.728205
O O3 0.748569 0.526852 0.748570
O O4 0.078020 0.514610 0.916842
O O5 0.429492 0.250000 0.196844
O O6 0.676082 0.454925 0.329858
O O7 0.379814 0.500013 0.126607
O O8 0.405510 0.485375 0.244333
O O9 0.216772 0.250000 0.470701
O O10 0.116473 0.500019 0.372160
O O11 0.148023 0.489850 0.489434
O O12 0.421021 0.483929 0.574616
O O13 0.021417 0.750000 0.275343
O O14 0.827750 0.989866 0.169159
O O15 0.112055 0.750000 0.516633
O O16 0.000000 0.000000 0.500000
O O17 0.731570 0.250000 0.964217
O O18 0.637407 0.454942 0.983632
O O19 0.325804 0.750000 0.921226
O O20 0.500000 0.000000 0.000000
O O21 0.537008 0.750000 0.662595
#
# Coordination Sequence:
#
# PCOD8076245 Si02
#       8
#     4   4   4   4   4   4   4   4
#     4   9  19  37  57  78 108 143 179 223 272 321
#     4   9  19  34  53  78 108 141 176 217 264 315
#     4  11  22  37  57  81 109 142 181 225 272 323
#     4  11  22  37  57  81 109 142 181 225 272 323
#     4  10  21  38  57  80 110 143 181 224 271 321
#     4   9  19  34  53  78 108 141 176 217 264 315
#     4  10  21  38  57  80 110 143 181 224 271 321
#     4   9  19  37  57  78 108 143 179 223 272 321
#
# _framework density 18.195989999999998
#
# number of rings (size 3 to 8) (size 9 to 14) (size 15 to 20)
#    0.000    2.250    0.000    4.500    0.000    7.500 
#    0.000    2.500    0.000    0.000    0.000    0.000 
#    0.000    0.000    0.000    0.000    0.000    0.000 
#
# Total GULP energy -396825.364186 kJ/mol
# GULP energy per Si atom -12400.792631 kJ/mol
# Density = 1.815458 g / cm^3
# Si number density = 18.195990 Si / 1000 Ang^3
#
#
#
# Elastic Constant Matrix: (Units=GPa)
#
#
# Indices 1 2 3 4 5 6 
#
# 1 113.4120 55.4542 62.9914 0.0000 17.9075 0.0000
# 2 55.4542 106.8899 58.2120 0.0000 -1.7810 0.0000
# 3 62.9914 58.2120 110.7260 0.0000 -16.1744 0.0000
# 4 0.0000 0.0000 0.0000 37.1220 0.0000 -2.2206
# 5 17.9075 -1.7810 -16.1744 0.0000 33.1759 0.0000
# 6 0.0000 0.0000 0.0000 -2.2206 0.0000 33.6654
#
#
#
# Elastic Compliance Matrix: (Units=1/GPa)
#
#
# Indices 1 2 3 4 5 6 
#
# 1 0.019952 -0.004380 -0.011472 0.000000 -0.016598 0.000000
# 2 -0.004380 0.014327 -0.004934 0.000000 0.000727 0.000000
# 3 -0.011472 -0.004934 0.020476 0.000000 0.015910 0.000000
# 4 0.000000 0.000000 0.000000 0.027045 0.000000 0.001784
# 5 -0.016598 0.000727 0.015910 0.000000 0.046897 0.000000
# 6 0.000000 0.000000 0.000000 0.001784 0.000000 0.029822
#
#
# Mechanical properties :
#
#
# Convention : Reuss Voigt Hill
#
# Bulk Modulus (GPa) = 75.86059 76.03812 75.94935
# Shear Modulus (GPa) = 24.45164 31.08400 27.76782
#
# Velocity S-wave (km/s) = 3.66976 4.13763 3.91070
# Velocity P-wave (km/s) = 7.72900 8.04399 7.88807
#
# Compressibility (1/GPa) = 0.01318208
#
# Stress axis : x y z
#
# Youngs Moduli (GPa) = 50.12125 69.79901 48.83730
#
# Poissons Ratio (x) = 0.30569 0.56028
# Poissons Ratio (y) = 0.21951 0.24098
# Poissons Ratio (z) = 0.57501 0.34441
#
# Static dielectric constant tensor:
#      x y z
#    x 3.562660 0.000000 -0.082700 
#    y 0.000000 3.357030 0.000000 
#    z -0.082700 0.000000 3.692760 
# 
# 
# High freq. dielectric constant tensor:
#      x y z
#    x 1.710780 0.000000 0.000530 
#    y 0.000000 1.710060 0.000000 
#    z 0.000530 0.000000 1.709950 
# 
# From -- ./inp_files/55622.got.cif
#   From: 2010.06.25/outbox.cif.g09.slc.cpg/sg11_28_cif.got.tgz:55622.got - 2010.06.27 23:14:04.
