data_PCOD8076248
_publ_section_title
;
Structure prediction by ZEFSAII (Michael W. Deem and Ramdas Pophale) SiO2 
 PCOD8076248
Probable space group: P 21/M
;
_chemical_formula_sum "Si O2"
_cell_formula_units_Z 28
_cell_length_a 11.884665
_cell_length_b 9.195049
_cell_length_c 15.732556
_cell_angle_alpha 90.000000
_cell_angle_beta 120.914341
_cell_angle_gamma 90.000000
_cell_volume 1475.011285
_symmetry_space_group_name_H-M "P 21/M"
_symmetry_group_IT_number 11
_symmetry_cell_setting 'monoclinic'
loop_
_space_group_symop_operation_xyz
x,y,z
-x,1/2+y,-z
-x,-y,-z
x,1/2-y,z
loop_
_atom_site_type_symbol
_atom_site_label
_atom_site_fract_x
_atom_site_fract_y
_atom_site_fract_z
Si Si1 0.961514 0.418843 0.570064
Si Si2 0.901962 0.920944 0.026357
Si Si3 0.413918 0.921753 0.896769
Si Si4 0.684067 0.081790 0.531430
Si Si5 0.628795 0.579558 0.849410
Si Si6 0.407763 0.421270 0.350294
Si Si7 0.861119 0.920893 0.201652
O O1 0.985117 0.250000 0.563132
O O2 0.809915 0.456891 0.524778
O O3 0.000000 0.500000 0.500000
O O4 0.041690 0.468259 0.684891
O O5 0.916679 0.750000 0.015358
O O6 0.928166 0.957891 0.136164
O O7 0.754284 0.978969 0.950290
O O8 0.000000 0.000000 0.000000
O O9 0.405700 0.750000 0.912328
O O10 0.489920 0.955977 0.838817
O O11 0.270158 0.987915 0.835684
O O12 0.500000 0.000000 0.000000
O O13 0.681208 0.250000 0.555554
O O14 0.557530 0.035203 0.428379
O O15 0.691178 0.992708 0.621459
O O16 0.645495 0.750000 0.847327
O O17 0.627029 0.511123 0.754736
O O18 0.387678 0.250000 0.346029
O O19 0.826355 0.750000 0.191001
#
# Coordination Sequence:
#
# PCOD8076248 Si02
#       7
#     4   4   4   4   4   4   4
#     4  10  23  40  59  83 115 153 194 240 289 343
#     4  10  21  38  57  81 116 151 188 231 284 343
#     4  11  21  37  61  85 114 150 191 233 281 340
#     4   9  19  36  56  79 109 144 183 228 286 341
#     4   9  19  35  56  81 109 143 180 230 284 331
#     4   9  18  34  57  81 106 139 183 232 280 335
#     4  10  22  41  59  82 119 156 190 241 296 340
#
# _framework density 18.982904000000001
#
# number of rings (size 3 to 8) (size 9 to 14) (size 15 to 20)
#    0.000    2.286    1.429    0.429    4.000    1.714 
#    0.000    1.429    0.000    0.000    0.000    0.000 
#    0.000    0.000    0.000    0.000    0.000    0.000 
#
# Total GULP energy -347137.335709 kJ/mol
# GULP energy per Si atom -12397.761990 kJ/mol
# Density = 1.893970 g / cm^3
# Si number density = 18.982904 Si / 1000 Ang^3
#
#
#
# Elastic Constant Matrix: (Units=GPa)
#
#
# Indices 1 2 3 4 5 6 
#
# 1 120.3513 45.0378 56.2113 0.0000 -14.4119 0.0000
# 2 45.0378 47.4617 39.0912 0.0000 -6.2939 0.0000
# 3 56.2113 39.0912 136.5760 0.0000 -25.3371 0.0000
# 4 0.0000 0.0000 0.0000 26.6955 0.0000 -3.4579
# 5 -14.4119 -6.2939 -25.3371 0.0000 32.6994 0.0000
# 6 0.0000 0.0000 0.0000 -3.4579 0.0000 36.8779
#
#
#
# Elastic Compliance Matrix: (Units=1/GPa)
#
#
# Indices 1 2 3 4 5 6 
#
# 1 0.013641 -0.010948 -0.002051 0.000000 0.002316 0.000000
# 2 -0.010948 0.036380 -0.006427 0.000000 -0.002803 0.000000
# 3 -0.002051 -0.006427 0.011222 0.000000 0.006554 0.000000
# 4 0.000000 0.000000 0.000000 0.037920 0.000000 0.003556
# 5 0.002316 -0.002803 0.006554 0.000000 0.036141 0.000000
# 6 0.000000 0.000000 0.000000 0.003556 0.000000 0.027450
#
#
# Mechanical properties :
#
#
# Convention : Reuss Voigt Hill
#
# Bulk Modulus (GPa) = 44.66127 65.00773 54.83450
# Shear Modulus (GPa) = 23.91537 30.19113 27.05325
#
# Velocity S-wave (km/s) = 3.55327 3.99236 3.77919
# Velocity P-wave (km/s) = 6.35708 7.45464 6.92763
#
# Compressibility (1/GPa) = 0.02239076
#
# Stress axis : x y z
#
# Youngs Moduli (GPa) = 73.30643 27.48731 89.11411
#
# Poissons Ratio (x) = 0.30094 0.18280
# Poissons Ratio (y) = 0.80257 0.57273
# Poissons Ratio (z) = 0.15037 0.17666
#
# Static dielectric constant tensor:
#      x y z
#    x 8.880980 0.000000 0.089480 
#    y 0.000000 3.330630 0.000000 
#    z 0.089480 0.000000 4.046950 
# 
# 
# High freq. dielectric constant tensor:
#      x y z
#    x 1.745690 0.000000 -0.004530 
#    y 0.000000 1.717320 0.000000 
#    z -0.004530 0.000000 1.747880 
# 
# From -- ./inp_files/37663.got.cif
#   From: 2010.06.25/outbox.cif.g09.slc.cpg/sg11_19_cif.got.tgz:37663.got - 2010.06.27 23:14:04.
