data_PCOD8076993
_publ_section_title
;
Structure prediction by ZEFSAII (Michael W. Deem and Ramdas Pophale) SiO2 
 PCOD8076993
Probable space group: P 21/M
;
_chemical_formula_sum "Si O2"
_cell_formula_units_Z 32
_cell_length_a 6.493754
_cell_length_b 26.912991
_cell_length_c 8.808770
_cell_angle_alpha 90.000000
_cell_angle_beta 91.453979
_cell_angle_gamma 90.000000
_cell_volume 1538.980851
_symmetry_space_group_name_H-M "P 21/M"
_symmetry_group_IT_number 11
_symmetry_cell_setting 'monoclinic'
loop_
_space_group_symop_operation_xyz
x,y,z
-x,1/2+y,-z
-x,-y,-z
x,1/2-y,z
loop_
_atom_site_type_symbol
_atom_site_label
_atom_site_fract_x
_atom_site_fract_y
_atom_site_fract_z
Si Si1 0.304759 0.972589 0.921582
Si Si2 0.656433 0.639130 0.184498
Si Si3 0.017172 0.442843 0.833022
Si Si4 0.030564 0.696056 0.736799
Si Si5 0.370727 0.618572 0.715727
Si Si6 0.961339 0.694273 0.395595
Si Si7 0.720632 0.388859 0.629015
Si Si8 0.374459 0.305786 0.115961
O O1 0.399582 0.930481 0.816241
O O2 0.160379 0.008645 0.817093
O O3 0.155249 0.948155 0.041816
O O4 0.500000 0.000000 0.000000
O O5 0.827776 0.601721 0.121477
O O6 0.468786 0.608978 0.257158
O O7 0.756475 0.674528 0.311737
O O8 0.564927 0.671724 0.045807
O O9 0.891233 0.430925 0.675524
O O10 0.147692 0.750000 0.740317
O O11 0.171083 0.648596 0.766769
O O12 0.915141 0.690808 0.573518
O O13 0.870874 0.696500 0.872074
O O14 0.362739 0.601313 0.541329
O O15 0.553509 0.657576 0.747663
O O16 0.002607 0.750000 0.340608
O O17 0.168972 0.664519 0.358030
O O18 0.467889 0.250000 0.132164
#
# Coordination Sequence:
#
# PCOD8076993 Si02
#       8
#     4   4   4   4   4   4   4   4
#     4  11  23  41  64  87 114 148 189 241 297 351
#     4  11  21  38  58  84 121 153 191 238 287 344
#     4  10  22  41  62  84 113 149 192 241 293 349
#     4   9  19  37  57  81 115 151 191 234 275 330
#     4  11  22  38  60  85 115 152 191 235 287 341
#     4   9  19  35  56  82 114 154 193 231 280 335
#     4  10  22  38  59  85 115 152 193 238 286 342
#     4  11  22  34  55  86 117 153 192 231 278 333
#
# _framework density 20.79298
#
# number of rings (size 3 to 8) (size 9 to 14) (size 15 to 20)
#    0.000    1.750    0.000    4.500    0.000    4.000 
#    0.000    2.500    0.000    0.000    0.000    0.000 
#    0.000    0.000    0.000    0.000    0.000    0.000 
#
# Total GULP energy -396699.764442 kJ/mol
# GULP energy per Si atom -12396.867639 kJ/mol
# Density = 2.074565 g / cm^3
# Si number density = 20.792980 Si / 1000 Ang^3
#
#
#
# Elastic Constant Matrix: (Units=GPa)
#
#
# Indices 1 2 3 4 5 6 
#
# 1 99.7334 45.8322 42.9812 0.0000 0.5407 0.0000
# 2 45.8322 130.9806 51.8619 0.0000 6.3840 0.0000
# 3 42.9812 51.8619 86.2709 0.0000 5.0800 0.0000
# 4 0.0000 0.0000 0.0000 78.0996 0.0000 31.3042
# 5 0.5407 6.3840 5.0800 0.0000 32.3392 0.0000
# 6 0.0000 0.0000 0.0000 31.3042 0.0000 47.3958
#
#
#
# Elastic Compliance Matrix: (Units=1/GPa)
#
#
# Indices 1 2 3 4 5 6 
#
# 1 0.013497 -0.002741 -0.005142 0.000000 0.001123 0.000000
# 2 -0.002741 0.010611 -0.004938 0.000000 -0.001273 0.000000
# 3 -0.005142 -0.004938 0.017219 0.000000 -0.001644 0.000000
# 4 0.000000 0.000000 0.000000 0.017414 0.000000 -0.011502
# 5 0.001123 -0.001273 -0.001644 0.000000 0.031413 0.000000
# 6 0.000000 0.000000 0.000000 -0.011502 0.000000 0.028696
#
#
# Mechanical properties :
#
#
# Convention : Reuss Voigt Hill
#
# Bulk Modulus (GPa) = 63.76399 66.48172 65.12286
# Shear Modulus (GPa) = 33.39535 43.32091 38.35813
#
# Velocity S-wave (km/s) = 4.01195 4.56942 4.29973
# Velocity P-wave (km/s) = 7.22452 7.73835 7.48584
#
# Compressibility (1/GPa) = 0.01568283
#
# Stress axis : x y z
#
# Youngs Moduli (GPa) = 74.09304 94.23899 58.07587
#
# Poissons Ratio (x) = 0.25834 0.29865
# Poissons Ratio (y) = 0.20311 0.28680
# Poissons Ratio (z) = 0.38101 0.46538
#
# Static dielectric constant tensor:
#      x y z
#    x 3.741100 0.000000 0.175080 
#    y 0.000000 3.883510 0.000000 
#    z 0.175080 0.000000 3.628980 
# 
# 
# High freq. dielectric constant tensor:
#      x y z
#    x 1.814690 0.000000 0.009020 
#    y 0.000000 1.818800 0.000000 
#    z 0.009020 0.000000 1.804920 
# 
# From -- ./inp_files/3402.got.cif
#   From: 2010.06.25/outbox.cif.g09.slc.cpg/sg11_2_cif.got.tgz:3402.got - 2010.06.27 23:14:04.
