data_PCOD8076664
_publ_section_title
;
Structure prediction by ZEFSAII (Michael W. Deem and Ramdas Pophale) SiO2 
 PCOD8076664
Probable space group: P 21/M
;
_chemical_formula_sum "Si O2"
_cell_formula_units_Z 20
_cell_length_a 5.291238
_cell_length_b 13.525728
_cell_length_c 13.441617
_cell_angle_alpha 90.000000
_cell_angle_beta 97.269870
_cell_angle_gamma 90.000000
_cell_volume 954.254277
_symmetry_space_group_name_H-M "P 21/M"
_symmetry_group_IT_number 11
_symmetry_cell_setting 'monoclinic'
loop_
_space_group_symop_operation_xyz
x,y,z
-x,1/2+y,-z
-x,-y,-z
x,1/2-y,z
loop_
_atom_site_type_symbol
_atom_site_label
_atom_site_fract_x
_atom_site_fract_y
_atom_site_fract_z
Si Si1 0.476187 0.864342 0.595642
Si Si2 0.828672 0.465816 0.579915
Si Si3 0.494421 0.250000 0.062346
Si Si4 0.087714 0.556969 0.202642
Si Si5 0.603552 0.435953 0.201993
Si Si6 0.047581 0.750000 0.069422
O O1 0.552055 0.750000 0.603281
O O2 0.363818 0.888465 0.480969
O O3 0.308433 0.895589 0.683928
O O4 0.723360 0.931865 0.619493
O O5 0.000000 0.500000 0.500000
O O6 0.950948 0.412884 0.682030
O O7 0.514993 0.346003 0.130801
O O8 0.713587 0.250000 0.991644
O O9 0.216138 0.250000 0.001677
O O10 0.851932 0.484923 0.163351
O O11 0.366530 0.511754 0.195404
O O12 0.060933 0.654536 0.138222
#
# Coordination Sequence:
#
# PCOD8076664 Si02
#       6
#     4   4   2   4   4   2
#     4  10  21  39  63  97 130 170 214 266 321 384
#     4  10  21  40  61  96 133 169 212 256 322 399
#     4  12  26  46  71  99 126 170 232 276 330 399
#     4  11  25  44  67  98 138 174 213 275 329 395
#     4  11  23  44  71  97 132 169 223 281 325 378
#     4  12  28  46  65  99 132 174 224 268 340 401
#
# _framework density 20.958773999999998
#
# number of rings (size 3 to 8) (size 9 to 14) (size 15 to 20)
#    0.000    1.200    3.000    2.400    1.400    5.600 
#    1.800    0.000    0.000    0.000    0.000    0.000 
#    0.000    0.000    0.000    0.000    0.000    0.000 
#
# Total GULP energy -247847.370884 kJ/mol
# GULP energy per Si atom -12392.368544 kJ/mol
# Density = 2.091107 g / cm^3
# Si number density = 20.958774 Si / 1000 Ang^3
#
#
#
# Elastic Constant Matrix: (Units=GPa)
#
#
# Indices 1 2 3 4 5 6 
#
# 1 106.7183 25.5469 35.7704 0.0000 5.0909 0.0000
# 2 25.5469 132.2988 63.9719 0.0000 4.6882 0.0000
# 3 35.7704 63.9719 123.6363 0.0000 3.4885 0.0000
# 4 0.0000 0.0000 0.0000 33.1367 0.0000 -3.2664
# 5 5.0909 4.6882 3.4885 0.0000 37.2332 0.0000
# 6 0.0000 0.0000 0.0000 -3.2664 0.0000 29.7953
#
#
#
# Elastic Compliance Matrix: (Units=1/GPa)
#
#
# Indices 1 2 3 4 5 6 
#
# 1 0.010475 -0.000711 -0.002632 0.000000 -0.001096 0.000000
# 2 -0.000711 0.010152 -0.005027 0.000000 -0.000710 0.000000
# 3 -0.002632 -0.005027 0.011453 0.000000 -0.000080 0.000000
# 4 0.000000 0.000000 0.000000 0.030508 0.000000 0.003344
# 5 -0.001096 -0.000710 -0.000080 0.000000 0.027105 0.000000
# 6 0.000000 0.000000 0.000000 0.003344 0.000000 0.033929
#
#
# Mechanical properties :
#
#
# Convention : Reuss Voigt Hill
#
# Bulk Modulus (GPa) = 65.18901 68.13687 66.66294
# Shear Modulus (GPa) = 34.37028 35.85733 35.11380
#
# Velocity S-wave (km/s) = 4.05396 4.14073 4.09757
# Velocity P-wave (km/s) = 7.28586 7.44590 7.36631
#
# Compressibility (1/GPa) = 0.01534001
#
# Stress axis : x y z
#
# Youngs Moduli (GPa) = 95.46410 98.50356 87.31383
#
# Poissons Ratio (x) = 0.07008 0.22978
# Poissons Ratio (y) = 0.06791 0.43892
# Poissons Ratio (z) = 0.25123 0.49517
#
# Static dielectric constant tensor:
#      x y z
#    x 3.920720 0.000000 0.328080 
#    y 0.000000 3.609020 0.000000 
#    z 0.328080 0.000000 3.036900 
# 
# 
# High freq. dielectric constant tensor:
#      x y z
#    x 1.820580 0.000000 -0.002490 
#    y 0.000000 1.818190 0.000000 
#    z -0.002490 0.000000 1.841970 
# 
# From -- ./inp_files/6150.got.cif
#   From: 2010.06.25/outbox.cif.g09.slc.cpg/sg11_4_cif.got.tgz:6150.got - 2010.06.27 23:14:04.
