data_PCOD8076300
_publ_section_title
;
Structure prediction by ZEFSAII (Michael W. Deem and Ramdas Pophale) SiO2 
 PCOD8076300
Probable space group: P 21/M
;
_chemical_formula_sum "Si O2"
_cell_formula_units_Z 20
_cell_length_a 9.890886
_cell_length_b 10.504002
_cell_length_c 19.254704
_cell_angle_alpha 90.000000
_cell_angle_beta 29.570247
_cell_angle_gamma 90.000000
_cell_volume 987.200675
_symmetry_space_group_name_H-M "P 21/M"
_symmetry_group_IT_number 11
_symmetry_cell_setting 'monoclinic'
loop_
_space_group_symop_operation_xyz
x,y,z
-x,1/2+y,-z
-x,-y,-z
x,1/2-y,z
loop_
_atom_site_type_symbol
_atom_site_label
_atom_site_fract_x
_atom_site_fract_y
_atom_site_fract_z
Si Si1 0.616067 0.605660 0.661122
Si Si2 0.080531 0.894045 0.832854
Si Si3 0.726121 0.392310 0.403379
Si Si4 0.496882 0.396465 0.940187
Si Si5 0.065573 0.978520 0.359558
O O1 0.575328 0.750000 0.703621
O O2 0.330423 0.537241 0.762580
O O3 0.719515 0.527438 0.680271
O O4 0.834449 0.605980 0.500330
O O5 0.140828 0.750000 0.825862
O O6 0.087480 0.913758 0.747067
O O7 0.767368 0.932117 0.991147
O O8 0.500000 0.500000 0.500000
O O9 0.595712 0.250000 0.462485
O O10 0.913185 0.406028 0.388249
O O11 0.464970 0.250000 0.982883
O O12 0.768665 0.398231 0.771807
O O13 0.500000 0.500000 0.000000
#
# Coordination Sequence:
#
# PCOD8076300 Si02
#       5
#     4   4   4   4   4
#     4  10  21  38  59  84 118 160 199 242 301 359
#     4   9  19  37  58  83 119 157 193 239 301 356
#     4  11  21  36  60  89 121 157 200 250 300 352
#     4  11  23  39  62  91 124 158 200 250 301 356
#     4  11  22  36  60  90 119 155 202 251 294 354
#
# _framework density 20.259305000000001
#
# number of rings (size 3 to 8) (size 9 to 14) (size 15 to 20)
#    0.000    1.600    4.000    1.200    0.000    2.400 
#    0.000    0.000    0.000    0.000    0.000    0.000 
#    0.000    0.000    0.000    0.000    0.000    0.000 
#
# Total GULP energy -247762.991019 kJ/mol
# GULP energy per Si atom -12388.149551 kJ/mol
# Density = 2.021319 g / cm^3
# Si number density = 20.259305 Si / 1000 Ang^3
#
#
#
# Elastic Constant Matrix: (Units=GPa)
#
#
# Indices 1 2 3 4 5 6 
#
# 1 120.3793 27.7637 23.9460 0.0000 -19.6755 0.0000
# 2 27.7637 88.5353 24.8883 0.0000 -5.8972 0.0000
# 3 23.9460 24.8883 83.3797 0.0000 -14.7955 0.0000
# 4 0.0000 0.0000 0.0000 24.7662 0.0000 -5.5772
# 5 -19.6755 -5.8972 -14.7955 0.0000 32.2598 0.0000
# 6 0.0000 0.0000 0.0000 -5.5772 0.0000 20.0574
#
#
#
# Elastic Compliance Matrix: (Units=1/GPa)
#
#
# Indices 1 2 3 4 5 6 
#
# 1 0.009939 -0.002434 -0.001231 0.000000 0.005052 0.000000
# 2 -0.002434 0.012937 -0.003273 0.000000 -0.000621 0.000000
# 3 -0.001231 -0.003273 0.014244 0.000000 0.005183 0.000000
# 4 0.000000 0.000000 0.000000 0.043075 0.000000 0.011978
# 5 0.005052 -0.000621 0.005183 0.000000 0.036344 0.000000
# 6 0.000000 0.000000 0.000000 0.011978 0.000000 0.053187
#
#
# Mechanical properties :
#
#
# Convention : Reuss Voigt Hill
#
# Bulk Modulus (GPa) = 43.02305 49.49892 46.26098
# Shear Modulus (GPa) = 26.13017 29.79643 27.96330
#
# Velocity S-wave (km/s) = 3.59526 3.83920 3.71923
# Velocity P-wave (km/s) = 6.20619 6.64367 6.42865
#
# Compressibility (1/GPa) = 0.02324336
#
# Stress axis : x y z
#
# Youngs Moduli (GPa) = 100.61180 77.29835 70.20696
#
# Poissons Ratio (x) = 0.18816 0.08645
# Poissons Ratio (y) = 0.24490 0.22976
# Poissons Ratio (z) = 0.12389 0.25297
#
# Static dielectric constant tensor:
#      x y z
#    x 4.045360 0.000000 -0.686620 
#    y 0.000000 3.432970 0.000000 
#    z -0.686620 0.000000 4.779370 
# 
# 
# High freq. dielectric constant tensor:
#      x y z
#    x 1.798650 0.000000 -0.021160 
#    y 0.000000 1.765140 0.000000 
#    z -0.021160 0.000000 1.793680 
# 
# From -- ./inp_files/11867.got.cif
#   From: 2010.06.25/outbox.cif.g09.slc.cpg/sg11_6_cif.got.tgz:11867.got - 2010.06.27 23:14:04.
