data_PCOD8076091
_publ_section_title
;
Structure prediction by ZEFSAII (Michael W. Deem and Ramdas Pophale) SiO2 
 PCOD8076091
Probable space group: P 21/M
;
_chemical_formula_sum "Si O2"
_cell_formula_units_Z 28
_cell_length_a 12.466688
_cell_length_b 8.755605
_cell_length_c 15.818434
_cell_angle_alpha 90.000000
_cell_angle_beta 56.186748
_cell_angle_gamma 90.000000
_cell_volume 1434.585325
_symmetry_space_group_name_H-M "P 21/M"
_symmetry_group_IT_number 11
_symmetry_cell_setting 'monoclinic'
loop_
_space_group_symop_operation_xyz
x,y,z
-x,1/2+y,-z
-x,-y,-z
x,1/2-y,z
loop_
_atom_site_type_symbol
_atom_site_label
_atom_site_fract_x
_atom_site_fract_y
_atom_site_fract_z
Si Si1 0.950312 0.571077 0.712316
Si Si2 0.440771 0.076657 0.445194
Si Si3 0.837126 0.926136 0.492480
Si Si4 0.515558 0.070188 0.230096
Si Si5 0.263324 0.930060 0.292308
Si Si6 0.986239 0.927272 0.140971
Si Si7 0.807637 0.426876 0.088520
O O1 0.924124 0.750000 0.722192
O O2 0.815459 0.481805 0.756391
O O3 0.048860 0.527663 0.594712
O O4 0.009531 0.523976 0.775845
O O5 0.484423 0.250000 0.430598
O O6 0.286501 0.057431 0.514370
O O7 0.499163 0.007358 0.333023
O O8 0.500000 0.000000 0.500000
O O9 0.881537 0.750000 0.479020
O O10 0.802454 0.984941 0.600271
O O11 0.484302 0.250000 0.239982
O O12 0.659005 0.031502 0.135207
O O13 0.412264 0.982645 0.216506
O O14 0.256127 0.750000 0.307683
O O15 0.977090 0.750000 0.168549
O O16 0.859386 0.973827 0.143996
O O17 0.113587 0.965645 0.030631
O O18 0.823415 0.250000 0.106636
#
# Coordination Sequence:
#
# PCOD8076091 Si02
#       7
#     4   4   4   4   4   4   4
#     4  12  24  38  58  82 112 151 192 235 282 334
#     4   9  19  32  49  76 112 145 180 223 267 323
#     4  10  21  38  56  80 113 151 189 230 279 330
#     4   9  19  37  58  80 109 150 189 227 278 335
#     4  11  22  38  58  84 114 148 189 233 280 335
#     4  10  21  37  58  87 117 145 186 238 283 334
#     4   9  19  38  62  85 114 150 187 230 285 339
#
# _framework density 19.517835999999999
#
# number of rings (size 3 to 8) (size 9 to 14) (size 15 to 20)
#    0.000    2.000    0.000    4.714    2.000    4.000 
#    0.000    0.714    0.000    0.000    0.000    0.000 
#    0.000    0.000    0.000    0.000    0.000    0.000 
#
# Total GULP energy -347281.178090 kJ/mol
# GULP energy per Si atom -12402.899218 kJ/mol
# Density = 1.947341 g / cm^3
# Si number density = 19.517836 Si / 1000 Ang^3
#
#
#
# Elastic Constant Matrix: (Units=GPa)
#
#
# Indices 1 2 3 4 5 6 
#
# 1 88.8551 36.4004 25.0327 0.0000 -11.3442 0.0000
# 2 36.4004 80.8357 16.1175 0.0000 -2.5592 0.0000
# 3 25.0327 16.1175 43.6191 0.0000 -12.1022 0.0000
# 4 0.0000 0.0000 0.0000 25.8429 0.0000 1.1506
# 5 -11.3442 -2.5592 -12.1022 0.0000 28.6884 0.0000
# 6 0.0000 0.0000 0.0000 1.1506 0.0000 38.2991
#
#
#
# Elastic Compliance Matrix: (Units=1/GPa)
#
#
# Indices 1 2 3 4 5 6 
#
# 1 0.015719 -0.005780 -0.006007 0.000000 0.003166 0.000000
# 2 -0.005780 0.015506 -0.003016 0.000000 -0.002175 0.000000
# 3 -0.006007 -0.003016 0.030300 0.000000 0.010138 0.000000
# 4 0.000000 0.000000 0.000000 0.038747 0.000000 -0.001164
# 5 0.003166 -0.002175 0.010138 0.000000 0.040192 0.000000
# 6 0.000000 0.000000 0.000000 -0.001164 0.000000 0.026145
#
#
# Mechanical properties :
#
#
# Convention : Reuss Voigt Hill
#
# Bulk Modulus (GPa) = 31.32863 40.93457 36.13160
# Shear Modulus (GPa) = 24.17166 27.61669 25.89418
#
# Velocity S-wave (km/s) = 3.52296 3.76566 3.64633
# Velocity P-wave (km/s) = 5.71266 6.31865 6.02328
#
# Compressibility (1/GPa) = 0.03191968
#
# Stress axis : x y z
#
# Youngs Moduli (GPa) = 63.61877 64.49089 33.00339
#
# Poissons Ratio (x) = 0.37277 0.19824
# Poissons Ratio (y) = 0.36773 0.09953
# Poissons Ratio (z) = 0.38213 0.19448
#
# Static dielectric constant tensor:
#      x y z
#    x 3.794740 0.000000 -0.088680 
#    y 0.000000 3.546320 0.000000 
#    z -0.088680 0.000000 3.511460 
# 
# 
# High freq. dielectric constant tensor:
#      x y z
#    x 1.771400 0.000000 -0.005840 
#    y 0.000000 1.762030 0.000000 
#    z -0.005840 0.000000 1.739370 
# 
# From -- ./inp_files/49114.got.cif
#   From: 2010.06.25/outbox.cif.g09.slc.cpg/sg11_25_cif.got.tgz:49114.got - 2010.06.27 23:14:04.
