data_PCOD8076982
_publ_section_title
;
Structure prediction by ZEFSAII (Michael W. Deem and Ramdas Pophale) SiO2 
 PCOD8076982
Probable space group: P 21/M
;
_chemical_formula_sum "Si O2"
_cell_formula_units_Z 28
_cell_length_a 15.159682
_cell_length_b 9.353742
_cell_length_c 20.532681
_cell_angle_alpha 90.000000
_cell_angle_beta 28.844940
_cell_angle_gamma 90.000000
_cell_volume 1404.640606
_symmetry_space_group_name_H-M "P 21/M"
_symmetry_group_IT_number 11
_symmetry_cell_setting 'monoclinic'
loop_
_space_group_symop_operation_xyz
x,y,z
-x,1/2+y,-z
-x,-y,-z
x,1/2-y,z
loop_
_atom_site_type_symbol
_atom_site_label
_atom_site_fract_x
_atom_site_fract_y
_atom_site_fract_z
Si Si1 0.450828 0.919604 0.844693
Si Si2 0.279372 0.590592 0.591624
Si Si3 0.352346 0.583619 0.056304
Si Si4 0.163675 0.592228 0.923500
Si Si5 0.836280 0.420003 0.567487
Si Si6 0.019990 0.089928 0.313017
Si Si7 0.588634 0.094540 0.359205
O O1 0.490296 0.750000 0.809143
O O2 0.282997 0.971751 0.906400
O O3 0.639389 0.006925 0.710186
O O4 0.374633 0.952833 0.965818
O O5 0.353126 0.750000 0.539559
O O6 0.078389 0.579385 0.693054
O O7 0.285370 0.534245 0.662628
O O8 0.414368 0.502061 0.458650
O O9 0.372563 0.750000 0.056022
O O10 0.167819 0.532851 0.210515
O O11 0.500000 0.500000 0.000000
O O12 0.087899 0.750000 0.991501
O O13 0.304172 0.605709 0.775364
O O14 0.000000 0.500000 0.000000
O O15 0.829213 0.250000 0.590063
O O16 0.881057 0.440235 0.462146
O O17 0.000000 0.500000 0.500000
O O18 0.105315 0.250000 0.266463
O O19 0.515442 0.250000 0.426769
#
# Coordination Sequence:
#
# PCOD8076982 Si02
#       7
#     4   4   4   4   4   4   4
#     4  10  23  42  61  87 125 161 198 250 303 355
#     4   9  18  33  54  80 109 142 180 228 278 329
#     4  11  24  41  61  86 117 155 198 243 298 356
#     4  10  22  38  57  83 117 156 198 241 287 344
#     4  11  23  39  62  91 119 154 198 246 304 365
#     4  10  22  38  58  85 117 148 189 241 291 346
#     4   9  18  33  53  79 110 144 184 227 275 328
#
# _framework density 19.933924999999999
#
# number of rings (size 3 to 8) (size 9 to 14) (size 15 to 20)
#    0.000    2.000    0.000    2.571    2.000    7.429 
#    0.000    0.000    0.000    0.000    0.000    0.000 
#    0.000    0.000    0.000    0.000    0.000    0.000 
#
# Total GULP energy -346882.015151 kJ/mol
# GULP energy per Si atom -12388.643398 kJ/mol
# Density = 1.988855 g / cm^3
# Si number density = 19.933925 Si / 1000 Ang^3
#
#
#
# Elastic Constant Matrix: (Units=GPa)
#
#
# Indices 1 2 3 4 5 6 
#
# 1 119.0005 53.3713 31.7872 0.0000 -10.7518 0.0000
# 2 53.3713 91.1536 40.2459 0.0000 -9.2165 0.0000
# 3 31.7872 40.2459 64.8680 0.0000 0.0511 0.0000
# 4 0.0000 0.0000 0.0000 36.6184 0.0000 -4.2997
# 5 -10.7518 -9.2165 0.0511 0.0000 30.4835 0.0000
# 6 0.0000 0.0000 0.0000 -4.2997 0.0000 31.0081
#
#
#
# Elastic Compliance Matrix: (Units=1/GPa)
#
#
# Indices 1 2 3 4 5 6 
#
# 1 0.011758 -0.005636 -0.002267 0.000000 0.002447 0.000000
# 2 -0.005636 0.018480 -0.008706 0.000000 0.003614 0.000000
# 3 -0.002267 -0.008706 0.021931 0.000000 -0.003469 0.000000
# 4 0.000000 0.000000 0.000000 0.027761 0.000000 0.003849
# 5 0.002447 0.003614 -0.003469 0.000000 0.034766 0.000000
# 6 0.000000 0.000000 0.000000 0.003849 0.000000 0.032783
#
#
# Mechanical properties :
#
#
# Convention : Reuss Voigt Hill
#
# Bulk Modulus (GPa) = 52.76992 58.42568 55.59780
# Shear Modulus (GPa) = 26.73594 29.59651 28.16623
#
# Velocity S-wave (km/s) = 3.66625 3.85740 3.76304
# Velocity P-wave (km/s) = 6.66722 7.01518 6.84341
#
# Compressibility (1/GPa) = 0.01895019
#
# Stress axis : x y z
#
# Youngs Moduli (GPa) = 85.05124 54.11288 45.59715
#
# Poissons Ratio (x) = 0.30498 0.10336
# Poissons Ratio (y) = 0.47935 0.39699
# Poissons Ratio (z) = 0.19279 0.47113
#
# Static dielectric constant tensor:
#      x y z
#    x 3.541800 0.000000 0.139980 
#    y 0.000000 5.476500 0.000000 
#    z 0.139980 0.000000 3.377010 
# 
# 
# High freq. dielectric constant tensor:
#      x y z
#    x 1.797670 0.000000 0.004250 
#    y 0.000000 1.779490 0.000000 
#    z 0.004250 0.000000 1.766790 
# 
# From -- ./inp_files/65361.got.cif
#   From: 2010.06.25/outbox.cif.g09.slc.cpg/sg11_33_cif.got.tgz:65361.got - 2010.06.27 23:14:04.
