data_PCOD8076584
_publ_section_title
;
Structure prediction by ZEFSAII (Michael W. Deem and Ramdas Pophale) SiO2 
 PCOD8076584
Probable space group: P 21/M
;
_chemical_formula_sum "Si O2"
_cell_formula_units_Z 28
_cell_length_a 17.146297
_cell_length_b 14.681339
_cell_length_c 6.573827
_cell_angle_alpha 90.000000
_cell_angle_beta 53.636576
_cell_angle_gamma 90.000000
_cell_volume 1332.591761
_symmetry_space_group_name_H-M "P 21/M"
_symmetry_group_IT_number 11
_symmetry_cell_setting 'monoclinic'
loop_
_space_group_symop_operation_xyz
x,y,z
-x,1/2+y,-z
-x,-y,-z
x,1/2-y,z
loop_
_atom_site_type_symbol
_atom_site_label
_atom_site_fract_x
_atom_site_fract_y
_atom_site_fract_z
Si Si1 0.917833 0.916738 0.719849
Si Si2 0.438532 0.858785 0.564943
Si Si3 0.440328 0.009473 0.889506
Si Si4 0.859363 0.650844 0.205861
Si Si5 0.960510 0.398805 0.822331
Si Si6 0.769190 0.988070 0.625773
Si Si7 0.235385 0.853114 0.668168
O O1 0.850847 0.972208 0.666649
O O2 0.998463 0.862449 0.461075
O O3 0.964985 0.991303 0.799086
O O4 0.858632 0.850144 0.959780
O O5 0.456694 0.750000 0.565201
O O6 0.520185 0.904004 0.296831
O O7 0.333495 0.879630 0.632696
O O8 0.445236 0.911939 0.768127
O O9 0.331018 0.033182 0.112218
O O10 0.500000 0.000000 0.000000
O O11 0.824664 0.750000 0.331110
O O12 0.783110 0.579880 0.413773
O O13 0.969471 0.634169 0.107352
O O14 0.852373 0.365292 0.036071
O O15 0.776304 0.088777 0.519607
O O16 0.239756 0.750000 0.584942
#
# Coordination Sequence:
#
# PCOD8076584 Si02
#       7
#     4   4   4   4   4   4   4
#     4  10  22  38  66  86 126 171 210 259 316 371
#     4  10  24  44  68 100 130 161 209 264 318 384
#     4  11  23  43  71  95 128 169 206 259 323 383
#     4  11  24  41  62  91 129 170 218 264 305 368
#     4  10  21  39  61  90 123 166 213 259 313 370
#     4  11  24  41  67  93 128 164 213 257 319 377
#     4  11  22  40  65  94 130 164 205 262 318 377
#
# _framework density 21.011687999999999
#
# number of rings (size 3 to 8) (size 9 to 14) (size 15 to 20)
#    0.000    1.429    2.857    1.714    4.000    4.571 
#    0.000    2.857    0.000    0.000    0.000    0.000 
#    0.000    0.000    0.000    0.000    0.000    0.000 
#
# Total GULP energy -347094.596633 kJ/mol
# GULP energy per Si atom -12396.235594 kJ/mol
# Density = 2.096386 g / cm^3
# Si number density = 21.011688 Si / 1000 Ang^3
#
#
#
# Elastic Constant Matrix: (Units=GPa)
#
#
# Indices 1 2 3 4 5 6 
#
# 1 62.3025 51.8693 51.4956 0.0000 -4.5448 0.0000
# 2 51.8693 130.2395 60.2859 0.0000 1.9174 0.0000
# 3 51.4956 60.2859 158.0733 0.0000 -16.1218 0.0000
# 4 0.0000 0.0000 0.0000 12.3811 0.0000 -3.1247
# 5 -4.5448 1.9174 -16.1218 0.0000 44.0497 0.0000
# 6 0.0000 0.0000 0.0000 -3.1247 0.0000 16.5227
#
#
#
# Elastic Compliance Matrix: (Units=1/GPa)
#
#
# Indices 1 2 3 4 5 6 
#
# 1 0.027956 -0.008488 -0.005753 0.000000 0.001148 0.000000
# 2 -0.008488 0.012036 -0.002044 0.000000 -0.002148 0.000000
# 3 -0.005753 -0.002044 0.009275 0.000000 0.002890 0.000000
# 4 0.000000 0.000000 0.000000 0.084817 0.000000 0.016040
# 5 0.001148 -0.002148 0.002890 0.000000 0.023971 0.000000
# 6 0.000000 0.000000 0.000000 0.016040 0.000000 0.063556
#
#
# Mechanical properties :
#
#
# Convention : Reuss Voigt Hill
#
# Bulk Modulus (GPa) = 59.89188 75.32410 67.60799
# Shear Modulus (GPa) = 19.24947 27.05499 23.15223
#
# Velocity S-wave (km/s) = 3.03005 3.59223 3.32305
# Velocity P-wave (km/s) = 6.38808 7.28917 6.85345
#
# Compressibility (1/GPa) = 0.01669675
#
# Stress axis : x y z
#
# Youngs Moduli (GPa) = 35.77059 83.08097 107.81857
#
# Poissons Ratio (x) = 0.70516 0.62029
# Poissons Ratio (y) = 0.30361 0.22043
# Poissons Ratio (z) = 0.20579 0.16986
#
# Static dielectric constant tensor:
#      x y z
#    x 2.670340 0.000000 0.895150 
#    y 0.000000 3.757600 0.000000 
#    z 0.895150 0.000000 3.193900 
# 
# 
# High freq. dielectric constant tensor:
#      x y z
#    x 1.813340 0.000000 -0.000630 
#    y 0.000000 1.816830 0.000000 
#    z -0.000630 0.000000 1.841550 
# 
# From -- ./inp_files/8021.got.cif
#   From: 2010.06.25/outbox.cif.g09.slc.cpg/sg11_5_cif.got.tgz:8021.got - 2010.06.27 23:14:04.
