data_PCOD8076101
_publ_section_title
;
Structure prediction by ZEFSAII (Michael W. Deem and Ramdas Pophale) SiO2 
 PCOD8076101
Probable space group: P 21/M
;
_chemical_formula_sum "Si O2"
_cell_formula_units_Z 32
_cell_length_a 12.088699
_cell_length_b 13.931919
_cell_length_c 17.186373
_cell_angle_alpha 90.000000
_cell_angle_beta 32.119860
_cell_angle_gamma 90.000000
_cell_volume 1538.987208
_symmetry_space_group_name_H-M "P 21/M"
_symmetry_group_IT_number 11
_symmetry_cell_setting 'monoclinic'
loop_
_space_group_symop_operation_xyz
x,y,z
-x,1/2+y,-z
-x,-y,-z
x,1/2-y,z
loop_
_atom_site_type_symbol
_atom_site_label
_atom_site_fract_x
_atom_site_fract_y
_atom_site_fract_z
Si Si1 0.537574 0.360608 0.064471
Si Si2 0.969510 0.527499 0.398791
Si Si3 0.988386 0.140226 0.124562
Si Si4 0.676479 0.520085 0.330800
Si Si5 0.367084 0.138662 0.793315
Si Si6 0.853835 0.859645 0.801158
Si Si7 0.988547 0.860698 0.242203
Si Si8 0.341466 0.982962 0.284026
O O1 0.527433 0.250000 0.098355
O O2 0.386810 0.377283 0.079771
O O3 0.474357 0.427465 0.173821
O O4 0.769516 0.390122 0.902440
O O5 0.782163 0.524625 0.569599
O O6 0.993462 0.424887 0.341501
O O7 0.905057 0.609630 0.376414
O O8 0.183674 0.557165 0.313380
O O9 0.916619 0.250000 0.171489
O O10 0.118750 0.113128 0.124766
O O11 0.776333 0.080081 0.243703
O O12 0.131084 0.122583 0.963672
O O13 0.500000 0.500000 0.500000
O O14 0.581461 0.575353 0.313401
O O15 0.864560 0.584433 0.249731
O O16 0.409890 0.250000 0.749422
O O17 0.516626 0.105649 0.774221
O O18 0.919253 0.750000 0.745537
O O19 0.950210 0.750000 0.249629
#
# Coordination Sequence:
#
# PCOD8076101 Si02
#       8
#     4   4   4   4   4   4   4   4
#     4   9  20  37  62  92 126 166 204 247 308 369
#     4  10  21  37  58  91 127 162 200 251 305 369
#     4  10  22  40  66  95 123 159 209 260 311 364
#     4  12  25  45  66  87 124 164 213 256 310 366
#     4  11  25  42  63  92 124 163 208 258 309 363
#     4   9  18  35  62  93 126 162 205 250 302 372
#     4  11  23  39  62  91 120 160 205 254 306 361
#     4  10  22  38  59  89 126 165 205 245 311 366
#
# _framework density 20.792894
#
# number of rings (size 3 to 8) (size 9 to 14) (size 15 to 20)
#    0.000    1.750    1.250    2.250    1.750    3.500 
#    0.000    4.375    0.000    0.000    0.000    0.000 
#    0.000    0.000    0.000    0.000    0.000    0.000 
#
# Total GULP energy -396890.639212 kJ/mol
# GULP energy per Si atom -12402.832475 kJ/mol
# Density = 2.074557 g / cm^3
# Si number density = 20.792894 Si / 1000 Ang^3
#
#
#
# Elastic Constant Matrix: (Units=GPa)
#
#
# Indices 1 2 3 4 5 6 
#
# 1 75.5312 39.7010 13.5222 0.0000 9.4045 0.0000
# 2 39.7010 93.1752 38.2000 0.0000 -1.2130 0.0000
# 3 13.5222 38.2000 60.8704 0.0000 7.8546 0.0000
# 4 0.0000 0.0000 0.0000 15.5810 0.0000 2.3284
# 5 9.4045 -1.2130 7.8546 0.0000 31.7671 0.0000
# 6 0.0000 0.0000 0.0000 2.3284 0.0000 36.2468
#
#
#
# Elastic Compliance Matrix: (Units=1/GPa)
#
#
# Indices 1 2 3 4 5 6 
#
# 1 0.018233 -0.008783 0.002274 0.000000 -0.006295 0.000000
# 2 -0.008783 0.018942 -0.010707 0.000000 0.005971 0.000000
# 3 0.002274 -0.010707 0.023533 0.000000 -0.006901 0.000000
# 4 0.000000 0.000000 0.000000 0.064803 0.000000 -0.004163
# 5 -0.006295 0.005971 -0.006901 0.000000 0.035277 0.000000
# 6 0.000000 0.000000 0.000000 -0.004163 0.000000 0.027856
#
#
# Mechanical properties :
#
#
# Convention : Reuss Voigt Hill
#
# Bulk Modulus (GPa) = 38.05747 45.82479 41.94113
# Shear Modulus (GPa) = 21.56713 25.92921 23.74817
#
# Velocity S-wave (km/s) = 3.22411 3.53515 3.38321
# Velocity P-wave (km/s) = 5.67474 6.22492 5.95618
#
# Compressibility (1/GPa) = 0.02627605
#
# Stress axis : x y z
#
# Youngs Moduli (GPa) = 54.84587 52.79247 42.49391
#
# Poissons Ratio (x) = 0.46368 -0.09663
# Poissons Ratio (y) = 0.48171 0.45497
# Poissons Ratio (z) = -0.12471 0.56523
#
# Static dielectric constant tensor:
#      x y z
#    x 3.851970 0.000000 -0.004500 
#    y 0.000000 3.798610 0.000000 
#    z -0.004500 0.000000 3.675540 
# 
# 
# High freq. dielectric constant tensor:
#      x y z
#    x 1.815420 0.000000 0.002160 
#    y 0.000000 1.818620 0.000000 
#    z 0.002160 0.000000 1.809930 
# 
# From -- ./inp_files/59467.got.cif
#   From: 2010.06.25/outbox.cif.g09.slc.cpg/sg11_30_cif.got.tgz:59467.got - 2010.06.27 23:14:04.
