data_PCOD8076333
_publ_section_title
;
Structure prediction by ZEFSAII (Michael W. Deem and Ramdas Pophale) SiO2 
 PCOD8076333
Probable space group: P 21/M
;
_chemical_formula_sum "Si O2"
_cell_formula_units_Z 32
_cell_length_a 31.699869
_cell_length_b 9.000493
_cell_length_c 12.129388
_cell_angle_alpha 90.000000
_cell_angle_beta 28.465476
_cell_angle_gamma 90.000000
_cell_volume 1649.465519
_symmetry_space_group_name_H-M "P 21/M"
_symmetry_group_IT_number 11
_symmetry_cell_setting 'monoclinic'
loop_
_space_group_symop_operation_xyz
x,y,z
-x,1/2+y,-z
-x,-y,-z
x,1/2-y,z
loop_
_atom_site_type_symbol
_atom_site_label
_atom_site_fract_x
_atom_site_fract_y
_atom_site_fract_z
Si Si1 0.351236 0.074198 0.528624
Si Si2 0.025603 0.421536 0.778195
Si Si3 0.061219 0.423933 0.448614
Si Si4 0.311712 0.425987 0.377622
Si Si5 0.138048 0.921879 0.696270
Si Si6 0.550601 0.421514 0.089088
Si Si7 0.412407 0.922263 0.745907
Si Si8 0.738042 0.926379 0.045147
O O1 0.352000 0.250000 0.525393
O O2 0.314313 0.013714 0.497305
O O3 0.450491 0.017156 0.322524
O O4 0.288582 0.018091 0.771365
O O5 0.053213 0.250000 0.730852
O O6 0.024775 0.467473 0.652580
O O7 0.096433 0.522865 0.677706
O O8 0.928257 0.451849 0.049978
O O9 0.056292 0.250000 0.438599
O O10 0.000000 0.500000 0.500000
O O11 0.162022 0.479425 0.205826
O O12 0.308353 0.250000 0.381432
O O13 0.226637 0.488730 0.512572
O O14 0.399209 0.480121 0.115382
O O15 0.161749 0.750000 0.629287
O O16 0.553746 0.250000 0.044482
O O17 0.594437 0.442165 0.107436
O O18 0.416889 0.750000 0.702174
O O19 0.500000 0.000000 0.500000
O O20 0.324572 0.996422 0.899874
O O21 0.726980 0.750000 0.057413
#
# Coordination Sequence:
#
# PCOD8076333 Si02
#       8
#     4   4   4   4   4   4   4   4
#     4   9  19  38  59  81 115 155 193 238 288 346
#     4   9  20  40  60  85 118 150 193 241 288 346
#     4  10  23  40  63  91 122 157 194 244 298 355
#     4  11  23  36  58  87 115 149 198 243 287 350
#     4  10  21  38  60  84 115 153 191 240 298 346
#     4  10  21  39  59  82 119 156 194 242 292 341
#     4  11  22  38  62  90 121 158 199 246 295 354
#     4  10  21  40  62  87 120 159 199 242 297 354
#
# _framework density 19.400224000000001
#
# number of rings (size 3 to 8) (size 9 to 14) (size 15 to 20)
#    0.000    2.000    1.250    1.500    3.500    2.500 
#    0.000    1.875    0.000    0.000    0.000    0.000 
#    0.000    0.000    0.000    0.000    0.000    0.000 
#
# Total GULP energy -396913.303001 kJ/mol
# GULP energy per Si atom -12403.540719 kJ/mol
# Density = 1.935607 g / cm^3
# Si number density = 19.400224 Si / 1000 Ang^3
#
#
#
# Elastic Constant Matrix: (Units=GPa)
#
#
# Indices 1 2 3 4 5 6 
#
# 1 106.4865 38.3347 43.8311 0.0000 0.5602 0.0000
# 2 38.3347 63.4839 30.6739 0.0000 -2.2194 0.0000
# 3 43.8311 30.6739 93.9368 0.0000 -3.5338 0.0000
# 4 0.0000 0.0000 0.0000 28.8172 0.0000 -1.8804
# 5 0.5602 -2.2194 -3.5338 0.0000 34.3770 0.0000
# 6 0.0000 0.0000 0.0000 -1.8804 0.0000 32.3034
#
#
#
# Elastic Compliance Matrix: (Units=1/GPa)
#
#
# Indices 1 2 3 4 5 6 
#
# 1 0.013328 -0.006009 -0.004296 0.000000 -0.001047 0.000000
# 2 -0.006009 0.021424 -0.004152 0.000000 0.001054 0.000000
# 3 -0.004296 -0.004152 0.014053 0.000000 0.001246 0.000000
# 4 0.000000 0.000000 0.000000 0.034834 0.000000 0.002028
# 5 -0.001047 0.001054 0.001246 0.000000 0.029303 0.000000
# 6 0.000000 0.000000 0.000000 0.002028 0.000000 0.031075
#
#
# Mechanical properties :
#
#
# Convention : Reuss Voigt Hill
#
# Bulk Modulus (GPa) = 50.27670 54.39852 52.33761
# Shear Modulus (GPa) = 27.84598 29.17068 28.50833
#
# Velocity S-wave (km/s) = 3.79270 3.88187 3.83754
# Velocity P-wave (km/s) = 6.71947 6.94211 6.83170
#
# Compressibility (1/GPa) = 0.01988993
#
# Stress axis : x y z
#
# Youngs Moduli (GPa) = 75.03091 46.67766 71.16048
#
# Poissons Ratio (x) = 0.28048 0.30571
# Poissons Ratio (y) = 0.45085 0.29547
# Poissons Ratio (z) = 0.32234 0.19381
#
# Static dielectric constant tensor:
#      x y z
#    x 3.693360 0.000000 0.111020 
#    y 0.000000 3.436920 0.000000 
#    z 0.111020 0.000000 3.718830 
# 
# 
# High freq. dielectric constant tensor:
#      x y z
#    x 1.765540 0.000000 0.002690 
#    y 0.000000 1.742370 0.000000 
#    z 0.002690 0.000000 1.764100 
# 
# From -- ./inp_files/45106.got.cif
#   From: 2010.06.25/outbox.cif.g09.slc.cpg/sg11_23_cif.got.tgz:45106.got - 2010.06.27 23:14:04.
