data_PCOD8076018
_publ_section_title
;
Structure prediction by ZEFSAII (Michael W. Deem and Ramdas Pophale) SiO2 
 PCOD8076018
Probable space group: P 21/M
;
_chemical_formula_sum "Si O2"
_cell_formula_units_Z 28
_cell_length_a 20.818855
_cell_length_b 9.288280
_cell_length_c 15.941576
_cell_angle_alpha 90.000000
_cell_angle_beta 28.248609
_cell_angle_gamma 90.000000
_cell_volume 1459.010175
_symmetry_space_group_name_H-M "P 21/M"
_symmetry_group_IT_number 11
_symmetry_cell_setting 'monoclinic'
loop_
_space_group_symop_operation_xyz
x,y,z
-x,1/2+y,-z
-x,-y,-z
x,1/2-y,z
loop_
_atom_site_type_symbol
_atom_site_label
_atom_site_fract_x
_atom_site_fract_y
_atom_site_fract_z
Si Si1 0.929810 0.416206 0.656032
Si Si2 0.808254 0.081556 0.394387
Si Si3 0.637121 0.412914 0.926359
Si Si4 0.660914 0.917152 0.236383
Si Si5 0.647598 0.418735 0.420598
Si Si6 0.621455 0.419203 0.755682
Si Si7 0.920539 0.918048 0.834958
O O1 0.977930 0.250000 0.600439
O O2 0.769085 0.427993 0.830719
O O3 0.964743 0.489830 0.703878
O O4 0.000000 0.500000 0.500000
O O5 0.779889 0.250000 0.423601
O O6 0.743780 0.016627 0.383364
O O7 0.730854 0.017773 0.564642
O O8 0.968479 0.048658 0.219670
O O9 0.582481 0.250000 0.987559
O O10 0.669474 0.463212 0.793819
O O11 0.523937 0.512572 0.098336
O O12 0.677298 0.750000 0.239699
O O13 0.510155 0.951652 0.375252
O O14 0.691581 0.004257 0.285086
O O15 0.772013 0.962962 0.039145
O O16 0.670290 0.250000 0.380871
O O17 0.605668 0.250000 0.763705
O O18 0.925906 0.750000 0.803450
#
# Coordination Sequence:
#
# PCOD8076018 Si02
#       7
#     4   4   4   4   4   4   4
#     4  11  23  38  56  79 110 147 185 225 272 321
#     4   9  18  33  54  79 107 143 180 222 274 324
#     4   9  19  34  50  74 105 138 175 222 271 312
#     4   9  19  35  55  81 109 140 182 226 271 326
#     4   9  18  34  56  79 107 144 182 223 273 327
#     4   9  17  31  53  75 101 136 178 218 262 321
#     4  10  21  37  57  81 111 145 183 227 273 324
#
# _framework density 19.191094
#
# number of rings (size 3 to 8) (size 9 to 14) (size 15 to 20)
#    0.000    2.571    0.000    1.286    2.000    4.571 
#    0.000    5.000    0.000    0.000    0.000    0.000 
#    0.000    0.000    0.000    0.000    0.000    0.000 
#
# Total GULP energy -347170.826551 kJ/mol
# GULP energy per Si atom -12398.958091 kJ/mol
# Density = 1.914741 g / cm^3
# Si number density = 19.191094 Si / 1000 Ang^3
#
#
#
# Elastic Constant Matrix: (Units=GPa)
#
#
# Indices 1 2 3 4 5 6 
#
# 1 112.5892 35.7683 35.9194 0.0000 0.1776 0.0000
# 2 35.7683 53.0797 38.1375 0.0000 3.3212 0.0000
# 3 35.9194 38.1375 93.7219 0.0000 6.2364 0.0000
# 4 0.0000 0.0000 0.0000 26.9621 0.0000 2.5733
# 5 0.1776 3.3212 6.2364 0.0000 23.4841 0.0000
# 6 0.0000 0.0000 0.0000 2.5733 0.0000 27.6272
#
#
#
# Elastic Compliance Matrix: (Units=1/GPa)
#
#
# Indices 1 2 3 4 5 6 
#
# 1 0.011547 -0.006530 -0.001857 0.000000 0.001329 0.000000
# 2 -0.006530 0.030335 -0.009731 0.000000 -0.001656 0.000000
# 3 -0.001857 -0.009731 0.015523 0.000000 -0.002732 0.000000
# 4 0.000000 0.000000 0.000000 0.037422 0.000000 -0.003486
# 5 0.001329 -0.001656 -0.002732 0.000000 0.043532 0.000000
# 6 0.000000 0.000000 0.000000 -0.003486 0.000000 0.036521
#
#
# Mechanical properties :
#
#
# Convention : Reuss Voigt Hill
#
# Bulk Modulus (GPa) = 47.23793 53.22677 50.23235
# Shear Modulus (GPa) = 22.91776 25.58573 24.25175
#
# Velocity S-wave (km/s) = 3.45945 3.65527 3.55871
# Velocity P-wave (km/s) = 6.37377 6.75352 6.56639
#
# Compressibility (1/GPa) = 0.02116943
#
# Stress axis : x y z
#
# Youngs Moduli (GPa) = 86.60606 32.96477 64.42037
#
# Poissons Ratio (x) = 0.21526 0.11960
# Poissons Ratio (y) = 0.56554 0.62689
# Poissons Ratio (z) = 0.16078 0.32079
#
# Static dielectric constant tensor:
#      x y z
#    x 3.592740 0.000000 -0.065630 
#    y 0.000000 3.342230 0.000000 
#    z -0.065630 0.000000 3.509850 
# 
# 
# High freq. dielectric constant tensor:
#      x y z
#    x 1.749220 0.000000 -0.006180 
#    y 0.000000 1.724420 0.000000 
#    z -0.006180 0.000000 1.745430 
# 
# From -- ./inp_files/54447.got.cif
#   From: 2010.06.25/outbox.cif.g09.slc.cpg/sg11_28_cif.got.tgz:54447.got - 2010.06.27 23:14:04.
