data_PCOD8076668
_publ_section_title
;
Structure prediction by ZEFSAII (Michael W. Deem and Ramdas Pophale) SiO2 
 PCOD8076668
Probable space group: P 21/M
;
_chemical_formula_sum "Si O2"
_cell_formula_units_Z 32
_cell_length_a 10.664667
_cell_length_b 9.172588
_cell_length_c 19.226502
_cell_angle_alpha 90.000000
_cell_angle_beta 118.720259
_cell_angle_gamma 90.000000
_cell_volume 1649.405069
_symmetry_space_group_name_H-M "P 21/M"
_symmetry_group_IT_number 11
_symmetry_cell_setting 'monoclinic'
loop_
_space_group_symop_operation_xyz
x,y,z
-x,1/2+y,-z
-x,-y,-z
x,1/2-y,z
loop_
_atom_site_type_symbol
_atom_site_label
_atom_site_fract_x
_atom_site_fract_y
_atom_site_fract_z
Si Si1 0.812085 0.583979 0.165881
Si Si2 0.919731 0.583018 0.539692
Si Si3 0.400076 0.418006 0.527388
Si Si4 0.327604 0.423102 0.164199
Si Si5 0.782148 0.580713 0.008983
Si Si6 0.187028 0.583551 0.695975
Si Si7 0.425603 0.418469 0.691388
Si Si8 0.930592 0.412785 0.855231
O O1 0.769658 0.750000 0.174893
O O2 0.774593 0.474853 0.217396
O O3 0.982771 0.577920 0.194758
O O4 0.727941 0.532238 0.072267
O O5 0.900617 0.750000 0.510035
O O6 0.762648 0.518767 0.515990
O O7 0.000000 0.500000 0.500000
O O8 0.018082 0.571623 0.634927
O O9 0.500000 0.500000 0.500000
O O10 0.397221 0.250000 0.504146
O O11 0.468049 0.437942 0.622133
O O12 0.342684 0.250000 0.169912
O O13 0.297592 0.490414 0.078553
O O14 0.470642 0.494065 0.230312
O O15 0.195455 0.469394 0.177917
O O16 0.751140 0.750000 0.994219
O O17 0.954335 0.554446 0.052198
O O18 0.239948 0.750000 0.705451
O O19 0.268643 0.486431 0.660426
O O20 0.425094 0.250000 0.712740
O O21 0.865184 0.250000 0.846463
#
# Coordination Sequence:
#
# PCOD8076668 Si02
#       8
#     4   4   4   4   4   4   4   4
#     4   8  17  34  55  78 111 151 188 231 283 341
#     4  10  21  39  64  91 117 151 197 242 291 353
#     4  10  23  43  65  91 124 158 194 241 296 357
#     4  11  20  32  54  84 116 151 193 242 294 339
#     4   7  15  32  53  79 112 151 193 238 285 344
#     4  11  22  37  60  89 115 142 192 253 298 342
#     4  11  24  41  59  81 115 156 196 235 289 364
#     4   8  16  32  53  78 110 147 191 234 284 350
#
# _framework density 19.400935
#
# number of rings (size 3 to 8) (size 9 to 14) (size 15 to 20)
#    0.750    1.750    1.250    1.500    0.000    3.500 
#    0.000    5.000    0.000    0.000    0.000    0.000 
#    0.000    0.000    0.000    0.000    0.000    0.000 
#
# Total GULP energy -396433.657079 kJ/mol
# GULP energy per Si atom -12388.551784 kJ/mol
# Density = 1.935678 g / cm^3
# Si number density = 19.400935 Si / 1000 Ang^3
#
#
#
# Elastic Constant Matrix: (Units=GPa)
#
#
# Indices 1 2 3 4 5 6 
#
# 1 100.1282 45.7264 44.0436 0.0000 -3.4811 0.0000
# 2 45.7264 93.5383 41.9199 0.0000 -2.5637 0.0000
# 3 44.0436 41.9199 62.0343 0.0000 5.5361 0.0000
# 4 0.0000 0.0000 0.0000 27.1354 0.0000 -0.9596
# 5 -3.4811 -2.5637 5.5361 0.0000 26.1718 0.0000
# 6 0.0000 0.0000 0.0000 -0.9596 0.0000 34.9085
#
#
#
# Elastic Compliance Matrix: (Units=1/GPa)
#
#
# Indices 1 2 3 4 5 6 
#
# 1 0.015729 -0.003495 -0.009135 0.000000 0.003682 0.000000
# 2 -0.003495 0.016484 -0.008929 0.000000 0.003039 0.000000
# 3 -0.009135 -0.008929 0.029381 0.000000 -0.008305 0.000000
# 4 0.000000 0.000000 0.000000 0.036888 0.000000 0.001014
# 5 0.003682 0.003039 -0.008305 0.000000 0.040753 0.000000
# 6 0.000000 0.000000 0.000000 0.001014 0.000000 0.028674
#
#
# Mechanical properties :
#
#
# Convention : Reuss Voigt Hill
#
# Bulk Modulus (GPa) = 54.12131 57.67564 55.89848
# Shear Modulus (GPa) = 23.02177 25.91054 24.46615
#
# Velocity S-wave (km/s) = 3.44849 3.65846 3.55502
# Velocity P-wave (km/s) = 6.61913 6.90207 6.76208
#
# Compressibility (1/GPa) = 0.01847701
#
# Stress axis : x y z
#
# Youngs Moduli (GPa) = 63.57608 60.66434 34.03583
#
# Poissons Ratio (x) = 0.21199 0.31091
# Poissons Ratio (y) = 0.22217 0.30392
# Poissons Ratio (z) = 0.58075 0.54169
#
# Static dielectric constant tensor:
#      x y z
#    x 3.345700 0.000000 0.058400 
#    y 0.000000 3.378310 0.000000 
#    z 0.058400 0.000000 3.656570 
# 
# 
# High freq. dielectric constant tensor:
#      x y z
#    x 1.737230 0.000000 -0.000440 
#    y 0.000000 1.743450 0.000000 
#    z -0.000440 0.000000 1.755400 
# 
# From -- ./inp_files/64223.got.cif
#   From: 2010.06.25/outbox.cif.g09.slc.cpg/sg11_33_cif.got.tgz:64223.got - 2010.06.27 23:14:04.
