data_PCOD8076130
_publ_section_title
;
Structure prediction by ZEFSAII (Michael W. Deem and Ramdas Pophale) SiO2 
 PCOD8076130
Probable space group: P 21/M
;
_chemical_formula_sum "Si O2"
_cell_formula_units_Z 32
_cell_length_a 30.171442
_cell_length_b 8.929950
_cell_length_c 11.019244
_cell_angle_alpha 90.000000
_cell_angle_beta 146.898387
_cell_angle_gamma 90.000000
_cell_volume 1621.397073
_symmetry_space_group_name_H-M "P 21/M"
_symmetry_group_IT_number 11
_symmetry_cell_setting 'monoclinic'
loop_
_space_group_symop_operation_xyz
x,y,z
-x,1/2+y,-z
-x,-y,-z
x,1/2-y,z
loop_
_atom_site_type_symbol
_atom_site_label
_atom_site_fract_x
_atom_site_fract_y
_atom_site_fract_z
Si Si1 0.374066 0.921767 0.479156
Si Si2 0.002579 0.075407 0.136080
Si Si3 0.532203 0.577785 0.692792
Si Si4 0.824055 0.924476 0.364209
Si Si5 0.231162 0.424567 0.029914
Si Si6 0.685601 0.577393 0.423757
Si Si7 0.142622 0.420567 0.068889
Si Si8 0.321417 0.573166 0.842808
O O1 0.351583 0.750000 0.455393
O O2 0.466259 0.937879 0.647651
O O3 0.313763 0.982011 0.236145
O O4 0.366160 0.020077 0.581444
O O5 0.996947 0.250000 0.099942
O O6 0.084218 0.031656 0.394096
O O7 0.000000 0.000000 0.000000
O O8 0.928508 0.027450 0.050836
O O9 0.500000 0.500000 0.500000
O O10 0.551685 0.750000 0.708693
O O11 0.614900 0.497942 0.919022
O O12 0.806404 0.750000 0.348171
O O13 0.767832 0.021188 0.323205
O O14 0.808747 0.967058 0.189281
O O15 0.253977 0.250000 0.092026
O O16 0.167142 0.466588 0.988457
O O17 0.663386 0.750000 0.349366
O O18 0.780973 0.557537 0.667209
O O19 0.659605 0.481215 0.248896
O O20 0.111791 0.250000 0.003134
O O21 0.328165 0.750000 0.864256
#
# Coordination Sequence:
#
# PCOD8076130 Si02
#       8
#     4   4   4   4   4   4   4   4
#     4  10  21  37  59  88 117 146 186 234 281 334
#     4  11  23  37  56  82 112 149 190 235 287 340
#     4  11  24  41  61  86 118 154 192 236 286 339
#     4  10  22  40  59  81 113 152 194 237 285 342
#     4   9  19  37  60  83 112 152 190 228 280 339
#     4  10  21  39  62  85 114 154 192 230 283 341
#     4   9  19  36  58  84 113 146 185 229 281 340
#     4  12  25  39  59  87 116 149 192 240 289 339
#
# _framework density 19.736066000000001
#
# number of rings (size 3 to 8) (size 9 to 14) (size 15 to 20)
#    0.000    1.750    0.000    4.875    0.000   12.000 
#    0.000    0.000    0.000    0.000    0.000    0.000 
#    0.000    0.000    0.000    0.000    0.000    0.000 
#
# Total GULP energy -396992.848494 kJ/mol
# GULP energy per Si atom -12406.026515 kJ/mol
# Density = 1.969115 g / cm^3
# Si number density = 19.736066 Si / 1000 Ang^3
#
#
#
# Elastic Constant Matrix: (Units=GPa)
#
#
# Indices 1 2 3 4 5 6 
#
# 1 69.7971 36.1775 22.6758 0.0000 -5.5236 0.0000
# 2 36.1775 110.0438 40.3679 0.0000 2.5783 0.0000
# 3 22.6758 40.3679 66.9342 0.0000 -6.3660 0.0000
# 4 0.0000 0.0000 0.0000 34.0840 0.0000 1.1663
# 5 -5.5236 2.5783 -6.3660 0.0000 37.1871 0.0000
# 6 0.0000 0.0000 0.0000 1.1663 0.0000 37.0415
#
#
#
# Elastic Compliance Matrix: (Units=1/GPa)
#
#
# Indices 1 2 3 4 5 6 
#
# 1 0.018018 -0.004920 -0.002897 0.000000 0.002521 0.000000
# 2 -0.004920 0.013168 -0.006537 0.000000 -0.002763 0.000000
# 3 -0.002897 -0.006537 0.020195 0.000000 0.003480 0.000000
# 4 0.000000 0.000000 0.000000 0.029371 0.000000 -0.000925
# 5 0.002521 -0.002763 0.003480 0.000000 0.028053 0.000000
# 6 0.000000 0.000000 0.000000 -0.000925 0.000000 0.027026
#
#
# Mechanical properties :
#
#
# Convention : Reuss Voigt Hill
#
# Bulk Modulus (GPa) = 44.10707 49.46861 46.78784
# Shear Modulus (GPa) = 29.05343 31.49944 30.27643
#
# Velocity S-wave (km/s) = 3.84096 3.99937 3.92096
# Velocity P-wave (km/s) = 6.48595 6.81514 6.65258
#
# Compressibility (1/GPa) = 0.02267210
#
# Stress axis : x y z
#
# Youngs Moduli (GPa) = 55.49974 75.94411 49.51670
#
# Poissons Ratio (x) = 0.37363 0.14346
# Poissons Ratio (y) = 0.27305 0.32371
# Poissons Ratio (z) = 0.16079 0.49647
#
# Static dielectric constant tensor:
#      x y z
#    x 3.673390 0.000000 -0.061970 
#    y 0.000000 3.666590 0.000000 
#    z -0.061970 0.000000 3.597350 
# 
# 
# High freq. dielectric constant tensor:
#      x y z
#    x 1.780160 0.000000 -0.003510 
#    y 0.000000 1.774610 0.000000 
#    z -0.003510 0.000000 1.769980 
# 
# From -- ./inp_files/45315.got.cif
#   From: 2010.06.25/outbox.cif.g09.slc.cpg/sg11_23_cif.got.tgz:45315.got - 2010.06.27 23:14:04.
