data_PCOD8076566
_publ_section_title
;
Structure prediction by ZEFSAII (Michael W. Deem and Ramdas Pophale) SiO2 
 PCOD8076566
Probable space group: P 21/M
;
_chemical_formula_sum "Si O2"
_cell_formula_units_Z 24
_cell_length_a 9.537761
_cell_length_b 8.992602
_cell_length_c 14.257160
_cell_angle_alpha 90.000000
_cell_angle_beta 80.589431
_cell_angle_gamma 90.000000
_cell_volume 1206.369694
_symmetry_space_group_name_H-M "P 21/M"
_symmetry_group_IT_number 11
_symmetry_cell_setting 'monoclinic'
loop_
_space_group_symop_operation_xyz
x,y,z
-x,1/2+y,-z
-x,-y,-z
x,1/2-y,z
loop_
_atom_site_type_symbol
_atom_site_label
_atom_site_fract_x
_atom_site_fract_y
_atom_site_fract_z
Si Si1 0.430719 0.421725 0.781715
Si Si2 0.206226 0.576786 0.930895
Si Si3 0.905514 0.576380 0.877661
Si Si4 0.146739 0.420533 0.465698
Si Si5 0.609102 0.918827 0.421979
Si Si6 0.756705 0.078036 0.727218
O O1 0.383781 0.250000 0.796988
O O2 0.348264 0.520646 0.865696
O O3 0.391700 0.485108 0.682798
O O4 0.597645 0.441344 0.783632
O O5 0.220614 0.750000 0.952551
O O6 0.070983 0.544343 0.879604
O O7 0.191747 0.490677 0.029987
O O8 0.872673 0.750000 0.873541
O O9 0.868747 0.497936 0.784244
O O10 0.120938 0.250000 0.439494
O O11 0.233669 0.431708 0.552931
O O12 0.234597 0.501225 0.374716
O O13 0.000000 0.500000 0.500000
O O14 0.555479 0.750000 0.421314
O O15 0.500000 0.000000 0.500000
O O16 0.798035 0.250000 0.711707
#
# Coordination Sequence:
#
# PCOD8076566 Si02
#       6
#     4   4   4   4   4   4
#     4  10  22  39  60  88 120 157 198 243 294 350
#     4  10  22  40  63  91 117 153 198 242 296 355
#     4  10  22  41  63  89 121 155 194 245 296 352
#     4  11  24  40  60  89 122 159 201 246 296 349
#     4  10  21  39  61  86 118 158 199 242 293 345
#     4  11  23  40  62  88 120 158 198 245 297 351
#
# _framework density 19.894399
#
# number of rings (size 3 to 8) (size 9 to 14) (size 15 to 20)
#    0.000    1.667    1.667    2.000    2.333    5.333 
#    0.000    0.000    0.000    0.000    0.000    0.000 
#    0.000    0.000    0.000    0.000    0.000    0.000 
#
# Total GULP energy -297737.338166 kJ/mol
# GULP energy per Si atom -12405.722424 kJ/mol
# Density = 1.984912 g / cm^3
# Si number density = 19.894399 Si / 1000 Ang^3
#
#
#
# Elastic Constant Matrix: (Units=GPa)
#
#
# Indices 1 2 3 4 5 6 
#
# 1 62.2380 31.8255 8.7966 0.0000 -5.4258 0.0000
# 2 31.8255 105.0124 23.6573 0.0000 -2.5351 0.0000
# 3 8.7966 23.6573 52.1557 0.0000 -0.1471 0.0000
# 4 0.0000 0.0000 0.0000 37.6767 0.0000 -4.4215
# 5 -5.4258 -2.5351 -0.1471 0.0000 39.5561 0.0000
# 6 0.0000 0.0000 0.0000 -4.4215 0.0000 34.4722
#
#
#
# Elastic Compliance Matrix: (Units=1/GPa)
#
#
# Indices 1 2 3 4 5 6 
#
# 1 0.019237 -0.005620 -0.000689 0.000000 0.002276 0.000000
# 2 -0.005620 0.012266 -0.004616 0.000000 -0.000002 0.000000
# 3 -0.000689 -0.004616 0.021382 0.000000 -0.000311 0.000000
# 4 0.000000 0.000000 0.000000 0.026947 0.000000 0.003456
# 5 0.002276 -0.000002 -0.000311 0.000000 0.025591 0.000000
# 6 0.000000 0.000000 0.000000 0.003456 0.000000 0.029452
#
#
# Mechanical properties :
#
#
# Convention : Reuss Voigt Hill
#
# Bulk Modulus (GPa) = 32.22093 38.66277 35.44185
# Shear Modulus (GPa) = 29.92757 32.68279 31.30518
#
# Velocity S-wave (km/s) = 3.88277 4.05756 3.97113
# Velocity P-wave (km/s) = 6.02763 6.43645 6.23539
#
# Compressibility (1/GPa) = 0.03103573
#
# Stress axis : x y z
#
# Youngs Moduli (GPa) = 51.98353 81.52859 46.76761
#
# Poissons Ratio (x) = 0.45818 0.03222
# Poissons Ratio (y) = 0.29214 0.21587
# Poissons Ratio (z) = 0.03582 0.37631
#
# Static dielectric constant tensor:
#      x y z
#    x 3.630050 0.000000 0.225410 
#    y 0.000000 3.709970 0.000000 
#    z 0.225410 0.000000 3.885930 
# 
# 
# High freq. dielectric constant tensor:
#      x y z
#    x 1.779050 0.000000 0.004700 
#    y 0.000000 1.783630 0.000000 
#    z 0.004700 0.000000 1.778500 
# 
# From -- ./inp_files/20618.got.cif
#   From: 2010.06.25/outbox.cif.g09.slc.cpg/sg11_11_cif.got.tgz:20618.got - 2010.06.27 23:14:04.
