data_PCOD8076396
_publ_section_title
;
Structure prediction by ZEFSAII (Michael W. Deem and Ramdas Pophale) SiO2 
 PCOD8076396
Probable space group: P 21/M
;
_chemical_formula_sum "Si O2"
_cell_formula_units_Z 32
_cell_length_a 21.567854
_cell_length_b 14.704447
_cell_length_c 15.054280
_cell_angle_alpha 90.000000
_cell_angle_beta 160.543596
_cell_angle_gamma 90.000000
_cell_volume 1590.290922
_symmetry_space_group_name_H-M "P 21/M"
_symmetry_group_IT_number 11
_symmetry_cell_setting 'monoclinic'
loop_
_space_group_symop_operation_xyz
x,y,z
-x,1/2+y,-z
-x,-y,-z
x,1/2-y,z
loop_
_atom_site_type_symbol
_atom_site_label
_atom_site_fract_x
_atom_site_fract_y
_atom_site_fract_z
Si Si1 0.307237 0.856895 0.536647
Si Si2 0.402051 0.357750 0.388745
Si Si3 0.694631 0.855004 0.463277
Si Si4 0.651482 0.643084 0.880886
Si Si5 0.657484 0.145015 0.888846
Si Si6 0.928576 0.857740 0.941895
Si Si7 0.045810 0.001748 0.664572
Si Si8 0.308299 0.998250 0.689530
O O1 0.294528 0.750000 0.538670
O O2 0.496570 0.884093 0.743174
O O3 0.137936 0.889989 0.244721
O O4 0.298157 0.906879 0.617979
O O5 0.395841 0.250000 0.386555
O O6 0.424417 0.390013 0.317618
O O7 0.576012 0.389973 0.683994
O O8 0.208824 0.397030 0.167603
O O9 0.721840 0.750000 0.473939
O O10 0.496959 0.870075 0.243973
O O11 0.706379 0.912222 0.390008
O O12 0.859955 0.889984 0.751974
O O13 0.693647 0.750000 0.937754
O O14 0.841455 0.593136 0.161290
O O15 0.717773 0.250000 0.965680
O O16 0.839203 0.087763 0.155577
O O17 0.914063 0.750000 0.923183
O O18 0.000000 0.000000 0.500000
O O19 0.856268 0.002531 0.462543
O O20 0.500000 0.000000 0.000000
#
# Coordination Sequence:
#
# PCOD8076396 Si02
#       8
#     4   4   4   4   4   4   4   4
#     4  10  21  38  61  88 118 151 189 236 286 337
#     4   8  15  31  57  88 119 150 185 226 278 340
#     4   9  19  38  63  89 119 153 188 232 285 339
#     4  10  21  38  61  88 118 151 189 236 286 337
#     4   9  19  38  63  89 119 153 188 232 285 339
#     4   8  15  31  57  88 119 150 185 226 278 340
#     4  12  26  42  60  82 112 151 196 243 286 338
#     4  12  26  42  60  82 112 151 196 243 286 338
#
# _framework density 20.122104
#
# number of rings (size 3 to 8) (size 9 to 14) (size 15 to 20)
#    0.000    2.250    0.000    4.500    0.000    5.000 
#    0.000    2.500    0.000    0.000    0.000    0.000 
#    0.000    0.000    0.000    0.000    0.000    0.000 
#
# Total GULP energy -396793.691258 kJ/mol
# GULP energy per Si atom -12399.802852 kJ/mol
# Density = 2.007630 g / cm^3
# Si number density = 20.122104 Si / 1000 Ang^3
#
#
#
# Elastic Constant Matrix: (Units=GPa)
#
#
# Indices 1 2 3 4 5 6 
#
# 1 160.9548 56.0451 85.5757 0.0000 -6.9227 0.0000
# 2 56.0451 81.6112 56.4724 0.0000 -0.5969 0.0000
# 3 85.5757 56.4724 168.1095 0.0000 -3.9006 0.0000
# 4 0.0000 0.0000 0.0000 31.8135 0.0000 0.5388
# 5 -6.9227 -0.5969 -3.9006 0.0000 35.4872 0.0000
# 6 0.0000 0.0000 0.0000 0.5388 0.0000 32.1666
#
#
#
# Elastic Compliance Matrix: (Units=1/GPa)
#
#
# Indices 1 2 3 4 5 6 
#
# 1 0.009549 -0.004178 -0.003425 0.000000 0.001416 0.000000
# 2 -0.004178 0.017795 -0.003873 0.000000 -0.000941 0.000000
# 3 -0.003425 -0.003873 0.008999 0.000000 0.000256 0.000000
# 4 0.000000 0.000000 0.000000 0.031442 0.000000 -0.000527
# 5 0.001416 -0.000941 0.000256 0.000000 0.028468 0.000000
# 6 0.000000 0.000000 0.000000 -0.000527 0.000000 0.031097
#
#
# Mechanical properties :
#
#
# Convention : Reuss Voigt Hill
#
# Bulk Modulus (GPa) = 74.66920 89.65134 82.16027
# Shear Modulus (GPa) = 32.30683 34.06562 33.18622
#
# Velocity S-wave (km/s) = 4.01127 4.11901 4.06549
# Velocity P-wave (km/s) = 7.65782 8.20195 7.93455
#
# Compressibility (1/GPa) = 0.01339240
#
# Stress axis : x y z
#
# Youngs Moduli (GPa) = 104.71841 56.19442 111.12402
#
# Poissons Ratio (x) = 0.23476 0.38058
# Poissons Ratio (y) = 0.43748 0.43040
# Poissons Ratio (z) = 0.35865 0.21765
#
# Static dielectric constant tensor:
#      x y z
#    x 3.906780 0.000000 0.021230 
#    y 0.000000 3.537620 0.000000 
#    z 0.021230 0.000000 3.889790 
# 
# 
# High freq. dielectric constant tensor:
#      x y z
#    x 1.786330 0.000000 -0.002500 
#    y 0.000000 1.783170 0.000000 
#    z -0.002500 0.000000 1.787880 
# 
# From -- ./inp_files/55022.got.cif
#   From: 2010.06.25/outbox.cif.g09.slc.cpg/sg11_28_cif.got.tgz:55022.got - 2010.06.27 23:14:04.
