data_PCOD8076463
_publ_section_title
;
Structure prediction by ZEFSAII (Michael W. Deem and Ramdas Pophale) SiO2 
 PCOD8076463
Probable space group: P 21/M
;
_chemical_formula_sum "Si O2"
_cell_formula_units_Z 24
_cell_length_a 22.820861
_cell_length_b 8.741683
_cell_length_c 12.133278
_cell_angle_alpha 90.000000
_cell_angle_beta 152.257188
_cell_angle_gamma 90.000000
_cell_volume 1126.751565
_symmetry_space_group_name_H-M "P 21/M"
_symmetry_group_IT_number 11
_symmetry_cell_setting 'monoclinic'
loop_
_space_group_symop_operation_xyz
x,y,z
-x,1/2+y,-z
-x,-y,-z
x,1/2-y,z
loop_
_atom_site_type_symbol
_atom_site_label
_atom_site_fract_x
_atom_site_fract_y
_atom_site_fract_z
Si Si1 0.012342 0.076485 0.637946
Si Si2 0.385672 0.926524 0.048445
Si Si3 0.137322 0.570432 0.242949
Si Si4 0.339255 0.427542 0.431873
Si Si5 0.197574 0.429834 0.569134
Si Si6 0.301699 0.078179 0.127496
O O1 0.961035 0.250000 0.546776
O O2 0.155100 0.071898 0.914593
O O3 0.000000 0.000000 0.500000
O O4 0.931822 0.981860 0.590899
O O5 0.357331 0.750000 0.977309
O O6 0.534063 0.962349 0.288719
O O7 0.333703 0.962341 0.083610
O O8 0.317337 0.027017 0.842692
O O9 0.120741 0.750000 0.225249
O O10 0.224983 0.530013 0.285129
O O11 0.208848 0.507263 0.469182
O O12 0.000000 0.500000 0.000000
O O13 0.300315 0.250000 0.376557
O O14 0.370335 0.468587 0.355753
O O15 0.195189 0.250000 0.548708
O O16 0.339209 0.250000 0.152209
#
# Coordination Sequence:
#
# PCOD8076463 Si02
#       6
#     4   4   4   4   4   4
#     4  11  21  35  59  92 128 164 206 260 319 379
#     4  11  23  39  63  94 130 169 213 266 320 378
#     4  12  26  46  71  97 126 163 209 262 319 382
#     4  10  23  43  65  93 128 169 216 263 316 379
#     4  12  25  42  65  93 129 171 215 265 318 379
#     4  10  21  38  62  91 128 169 209 261 319 379
#
# _framework density 21.300172
#
# number of rings (size 3 to 8) (size 9 to 14) (size 15 to 20)
#    0.000    1.000    1.667    5.500    0.000    4.667 
#    0.000    0.000    0.000    0.000    0.000    0.000 
#    0.000    0.000    0.000    0.000    0.000    0.000 
#
# Total GULP energy -297735.416543 kJ/mol
# GULP energy per Si atom -12405.642356 kJ/mol
# Density = 2.125169 g / cm^3
# Si number density = 21.300172 Si / 1000 Ang^3
#
#
#
# Elastic Constant Matrix: (Units=GPa)
#
#
# Indices 1 2 3 4 5 6 
#
# 1 79.2078 37.7898 29.2219 0.0000 -5.7697 0.0000
# 2 37.7898 141.1716 42.0924 0.0000 -1.7889 0.0000
# 3 29.2219 42.0924 96.1421 0.0000 -3.5902 0.0000
# 4 0.0000 0.0000 0.0000 28.0627 0.0000 -2.9980
# 5 -5.7697 -1.7889 -3.5902 0.0000 36.3341 0.0000
# 6 0.0000 0.0000 0.0000 -2.9980 0.0000 40.0015
#
#
#
# Elastic Compliance Matrix: (Units=1/GPa)
#
#
# Indices 1 2 3 4 5 6 
#
# 1 0.015470 -0.003147 -0.003250 0.000000 0.001980 0.000000
# 2 -0.003147 0.008787 -0.002904 0.000000 -0.000354 0.000000
# 3 -0.003250 -0.002904 0.012683 0.000000 0.000594 0.000000
# 4 0.000000 0.000000 0.000000 0.035922 0.000000 0.002692
# 5 0.001980 -0.000354 0.000594 0.000000 0.027878 0.000000
# 6 0.000000 0.000000 0.000000 0.002692 0.000000 0.025201
#
#
# Mechanical properties :
#
#
# Convention : Reuss Voigt Hill
#
# Bulk Modulus (GPa) = 54.53257 59.41443 56.97350
# Shear Modulus (GPa) = 33.18829 34.70749 33.94789
#
# Velocity S-wave (km/s) = 3.95159 4.04102 3.99655
# Velocity P-wave (km/s) = 6.81745 7.05178 6.93560
#
# Compressibility (1/GPa) = 0.01833767
#
# Stress axis : x y z
#
# Youngs Moduli (GPa) = 64.64234 113.80027 78.84724
#
# Poissons Ratio (x) = 0.35811 0.25627
# Poissons Ratio (y) = 0.20342 0.22897
# Poissons Ratio (z) = 0.21010 0.33047
#
# Static dielectric constant tensor:
#      x y z
#    x 3.784850 0.000000 0.057570 
#    y 0.000000 3.861950 0.000000 
#    z 0.057570 0.000000 4.121070 
# 
# 
# High freq. dielectric constant tensor:
#      x y z
#    x 1.831220 0.000000 -0.002570 
#    y 0.000000 1.839630 0.000000 
#    z -0.002570 0.000000 1.852310 
# 
# From -- ./inp_files/44022.got.cif
#   From: 2010.06.25/outbox.cif.g09.slc.cpg/sg11_23_cif.got.tgz:44022.got - 2010.06.27 23:14:04.
