data_PCOD8076182
_publ_section_title
;
Structure prediction by ZEFSAII (Michael W. Deem and Ramdas Pophale) SiO2 
 PCOD8076182
Probable space group: P 21/M
;
_chemical_formula_sum "Si O2"
_cell_formula_units_Z 28
_cell_length_a 28.919811
_cell_length_b 9.198342
_cell_length_c 9.623660
_cell_angle_alpha 90.000000
_cell_angle_beta 146.344289
_cell_angle_gamma 90.000000
_cell_volume 1418.772340
_symmetry_space_group_name_H-M "P 21/M"
_symmetry_group_IT_number 11
_symmetry_cell_setting 'monoclinic'
loop_
_space_group_symop_operation_xyz
x,y,z
-x,1/2+y,-z
-x,-y,-z
x,1/2-y,z
loop_
_atom_site_type_symbol
_atom_site_label
_atom_site_fract_x
_atom_site_fract_y
_atom_site_fract_z
Si Si1 0.803728 0.920897 0.987931
Si Si2 0.361922 0.582238 0.820595
Si Si3 0.877730 0.415960 0.421317
Si Si4 0.359924 0.916680 0.502934
Si Si5 0.065182 0.420626 0.915647
Si Si6 0.508886 0.921883 0.669563
Si Si7 0.826057 0.414553 0.603748
O O1 0.794954 0.750000 0.981561
O O2 0.880094 0.965645 0.079810
O O3 0.820063 0.988778 0.178270
O O4 0.718725 0.980446 0.712383
O O5 0.370958 0.750000 0.891125
O O6 0.396054 0.560768 0.749034
O O7 0.265645 0.532316 0.581823
O O8 0.410176 0.480770 0.048833
O O9 0.878520 0.250000 0.370116
O O10 0.834458 0.428853 0.460932
O O11 0.971647 0.479417 0.658803
O O12 0.331661 0.750000 0.411652
O O13 0.429304 0.960883 0.564674
O O14 0.063382 0.250000 0.936891
O O15 0.103093 0.489091 0.148839
O O16 0.518257 0.750000 0.670155
O O17 0.500000 0.000000 0.500000
O O18 0.839974 0.250000 0.688947
#
# Coordination Sequence:
#
# PCOD8076182 Si02
#       7
#     4   4   4   4   4   4   4
#     4  11  23  37  58  89 119 155 202 248 293 344
#     4  10  21  40  64  90 119 154 198 243 289 348
#     4  10  22  38  57  84 121 161 198 243 298 352
#     4  10  22  42  65  87 117 158 198 238 293 354
#     4  10  21  38  58  85 120 156 199 248 295 347
#     4  11  25  42  64  93 123 156 191 237 295 351
#     4  10  21  37  61  88 116 156 200 241 292 351
#
# _framework density 19.735372000000002
#
# number of rings (size 3 to 8) (size 9 to 14) (size 15 to 20)
#    0.000    1.714    1.429    2.143    2.000    4.000 
#    0.000    0.000    0.000    0.000    0.000    0.000 
#    0.000    0.000    0.000    0.000    0.000    0.000 
#
# Total GULP energy -347340.589364 kJ/mol
# GULP energy per Si atom -12405.021049 kJ/mol
# Density = 1.969045 g / cm^3
# Si number density = 19.735372 Si / 1000 Ang^3
#
#
#
# Elastic Constant Matrix: (Units=GPa)
#
#
# Indices 1 2 3 4 5 6 
#
# 1 90.2069 30.5749 30.8323 0.0000 -3.9646 0.0000
# 2 30.5749 62.9526 44.0804 0.0000 -6.8880 0.0000
# 3 30.8323 44.0804 98.1657 0.0000 -13.4397 0.0000
# 4 0.0000 0.0000 0.0000 31.2201 0.0000 1.6216
# 5 -3.9646 -6.8880 -13.4397 0.0000 27.9410 0.0000
# 6 0.0000 0.0000 0.0000 1.6216 0.0000 27.1598
#
#
#
# Elastic Compliance Matrix: (Units=1/GPa)
#
#
# Indices 1 2 3 4 5 6 
#
# 1 0.013509 -0.005243 -0.001930 0.000000 -0.000304 0.000000
# 2 -0.005243 0.025220 -0.009558 0.000000 0.000876 0.000000
# 3 -0.001930 -0.009558 0.015763 0.000000 0.004952 0.000000
# 4 0.000000 0.000000 0.000000 0.032130 0.000000 -0.001918
# 5 -0.000304 0.000876 0.004952 0.000000 0.038344 0.000000
# 6 0.000000 0.000000 0.000000 -0.001918 0.000000 0.036934
#
#
# Mechanical properties :
#
#
# Convention : Reuss Voigt Hill
#
# Bulk Modulus (GPa) = 47.55236 51.36671 49.45954
# Shear Modulus (GPa) = 24.70689 26.98670 25.84679
#
# Velocity S-wave (km/s) = 3.54207 3.70189 3.62286
# Velocity P-wave (km/s) = 6.39341 6.66004 6.52809
#
# Compressibility (1/GPa) = 0.02102945
#
# Stress axis : x y z
#
# Youngs Moduli (GPa) = 74.02463 39.65129 63.43890
#
# Poissons Ratio (x) = 0.20788 0.12247
# Poissons Ratio (y) = 0.38808 0.60636
# Poissons Ratio (z) = 0.14290 0.37900
#
# Static dielectric constant tensor:
#      x y z
#    x 3.757560 0.000000 0.050070 
#    y 0.000000 3.573050 0.000000 
#    z 0.050070 0.000000 3.506080 
# 
# 
# High freq. dielectric constant tensor:
#      x y z
#    x 1.782870 0.000000 -0.001120 
#    y 0.000000 1.764400 0.000000 
#    z -0.001120 0.000000 1.773130 
# 
# From -- ./inp_files/28337.got.cif
#   From: 2010.06.25/outbox.cif.g09.slc.cpg/sg11_15_cif.got.tgz:28337.got - 2010.06.27 23:14:04.
