data_PCOD8076169
_publ_section_title
;
Structure prediction by ZEFSAII (Michael W. Deem and Ramdas Pophale) SiO2 
 PCOD8076169
Probable space group: P 21/M
;
_chemical_formula_sum "Si O2"
_cell_formula_units_Z 32
_cell_length_a 23.649751
_cell_length_b 8.655939
_cell_length_c 14.060293
_cell_angle_alpha 90.000000
_cell_angle_beta 146.580503
_cell_angle_gamma 90.000000
_cell_volume 1585.262929
_symmetry_space_group_name_H-M "P 21/M"
_symmetry_group_IT_number 11
_symmetry_cell_setting 'monoclinic'
loop_
_space_group_symop_operation_xyz
x,y,z
-x,1/2+y,-z
-x,-y,-z
x,1/2-y,z
loop_
_atom_site_type_symbol
_atom_site_label
_atom_site_fract_x
_atom_site_fract_y
_atom_site_fract_z
Si Si1 0.640812 0.069630 0.257036
Si Si2 0.582156 0.928357 0.982338
Si Si3 0.078840 0.428819 0.684501
Si Si4 0.387728 0.431638 0.333890
Si Si5 0.830388 0.066700 0.646252
Si Si6 0.298136 0.930761 0.017775
Si Si7 0.961490 0.571340 0.155957
Si Si8 0.216376 0.568546 0.209852
O O1 0.651640 0.250000 0.247001
O O2 0.734744 0.005212 0.451000
O O3 0.642734 0.974252 0.162478
O O4 0.538196 0.038307 0.173077
O O5 0.603815 0.750000 0.989428
O O6 0.619157 0.032092 0.947112
O O7 0.097536 0.250000 0.687130
O O8 0.186611 0.515934 0.826508
O O9 0.000000 0.500000 0.500000
O O10 0.029153 0.450456 0.718366
O O11 0.500000 0.500000 0.500000
O O12 0.396720 0.250000 0.346796
O O13 0.323353 0.486882 0.334805
O O14 0.329128 0.482674 0.156992
O O15 0.829438 0.250000 0.643510
O O16 0.935437 0.005174 0.747620
O O17 0.821522 0.004819 0.741403
O O18 0.297532 0.750000 0.037990
O O19 0.942115 0.750000 0.101806
O O20 0.867485 0.470082 0.987217
O O21 0.236225 0.750000 0.240764
#
# Coordination Sequence:
#
# PCOD8076169 Si02
#       8
#     4   4   4   4   4   4   4   4
#     4   9  19  38  61  87 122 164 205 255 311 371
#     4  10  21  37  60  90 125 163 205 256 313 372
#     4  11  24  41  64  95 131 169 212 263 320 381
#     4  12  26  45  67  95 129 166 211 263 321 386
#     4   9  20  37  61  91 119 159 210 256 309 368
#     4  12  25  43  67  95 127 169 215 263 321 383
#     4  10  21  40  63  87 123 166 206 255 314 372
#     4  11  22  39  64  92 124 163 208 257 313 375
#
# _framework density 20.185925000000001
#
# number of rings (size 3 to 8) (size 9 to 14) (size 15 to 20)
#    0.000    1.500    1.250    3.750    3.500    1.000 
#    0.000    2.500    0.000    0.000    0.000    0.000 
#    0.000    0.000    0.000    0.000    0.000    0.000 
#
# Total GULP energy -396987.656082 kJ/mol
# GULP energy per Si atom -12405.864253 kJ/mol
# Density = 2.013998 g / cm^3
# Si number density = 20.185925 Si / 1000 Ang^3
#
#
#
# Elastic Constant Matrix: (Units=GPa)
#
#
# Indices 1 2 3 4 5 6 
#
# 1 115.4167 39.1094 30.2373 0.0000 14.9007 0.0000
# 2 39.1094 99.3131 31.2581 0.0000 7.1761 0.0000
# 3 30.2373 31.2581 110.3840 0.0000 11.0655 0.0000
# 4 0.0000 0.0000 0.0000 33.9905 0.0000 1.6549
# 5 14.9007 7.1761 11.0655 0.0000 29.6778 0.0000
# 6 0.0000 0.0000 0.0000 1.6549 0.0000 28.6293
#
#
#
# Elastic Compliance Matrix: (Units=1/GPa)
#
#
# Indices 1 2 3 4 5 6 
#
# 1 0.010761 -0.003456 -0.001570 0.000000 -0.003982 0.000000
# 2 -0.003456 0.012235 -0.002488 0.000000 -0.000295 0.000000
# 3 -0.001570 -0.002488 0.010445 0.000000 -0.002505 0.000000
# 4 0.000000 0.000000 0.000000 0.029503 0.000000 -0.001705
# 5 -0.003982 -0.000295 -0.002505 0.000000 0.036700 0.000000
# 6 0.000000 0.000000 0.000000 -0.001705 0.000000 0.035028
#
#
# Mechanical properties :
#
#
# Convention : Reuss Voigt Hill
#
# Bulk Modulus (GPa) = 54.31130 58.48037 56.39584
# Shear Modulus (GPa) = 32.08504 33.42680 32.75592
#
# Velocity S-wave (km/s) = 3.99115 4.07375 4.03266
# Velocity P-wave (km/s) = 6.94284 7.15269 7.04854
#
# Compressibility (1/GPa) = 0.01841238
#
# Stress axis : x y z
#
# Youngs Moduli (GPa) = 92.93177 81.73588 95.73938
#
# Poissons Ratio (x) = 0.28245 0.15030
# Poissons Ratio (y) = 0.32114 0.23823
# Poissons Ratio (z) = 0.14589 0.20338
#
# Static dielectric constant tensor:
#      x y z
#    x 3.951150 0.000000 0.124060 
#    y 0.000000 3.595300 0.000000 
#    z 0.124060 0.000000 3.809930 
# 
# 
# High freq. dielectric constant tensor:
#      x y z
#    x 1.803180 0.000000 0.003810 
#    y 0.000000 1.781720 0.000000 
#    z 0.003810 0.000000 1.794850 
# 
# From -- ./inp_files/55778.got.cif
#   From: 2010.06.25/outbox.cif.g09.slc.cpg/sg11_28_cif.got.tgz:55778.got - 2010.06.27 23:14:04.
