data_PCOD8076749
_publ_section_title
;
Structure prediction by ZEFSAII (Michael W. Deem and Ramdas Pophale) SiO2 
 PCOD8076749
Probable space group: P 21/M
;
_chemical_formula_sum "Si O2"
_cell_formula_units_Z 24
_cell_length_a 9.387586
_cell_length_b 8.586135
_cell_length_c 15.035730
_cell_angle_alpha 90.000000
_cell_angle_beta 88.659267
_cell_angle_gamma 90.000000
_cell_volume 1211.594367
_symmetry_space_group_name_H-M "P 21/M"
_symmetry_group_IT_number 11
_symmetry_cell_setting 'monoclinic'
loop_
_space_group_symop_operation_xyz
x,y,z
-x,1/2+y,-z
-x,-y,-z
x,1/2-y,z
loop_
_atom_site_type_symbol
_atom_site_label
_atom_site_fract_x
_atom_site_fract_y
_atom_site_fract_z
Si Si1 0.155071 0.932724 0.014225
Si Si2 0.845640 0.068604 0.490556
Si Si3 0.651348 0.569763 0.136354
Si Si4 0.324706 0.071350 0.660053
Si Si5 0.351960 0.934232 0.348128
Si Si6 0.345651 0.067536 0.160730
O O1 0.146513 0.750000 0.033516
O O2 0.253354 0.962734 0.927447
O O3 0.217156 0.020082 0.098835
O O4 0.000000 0.000000 0.000000
O O5 0.857851 0.250000 0.502363
O O6 0.741503 0.002625 0.568631
O O7 0.785018 0.030863 0.394324
O O8 0.000000 0.000000 0.500000
O O9 0.667622 0.750000 0.108499
O O10 0.704741 0.541323 0.235821
O O11 0.486440 0.524709 0.128554
O O12 0.298702 0.250000 0.635191
O O13 0.485059 0.020515 0.633507
O O14 0.338450 0.750000 0.331790
O O15 0.298893 0.022038 0.260873
O O16 0.376381 0.250000 0.153777
#
# Coordination Sequence:
#
# PCOD8076749 Si02
#       6
#     4   4   4   4   4   4
#     4  12  25  41  60  85 118 155 193 237 288 345
#     4  11  23  37  56  82 116 153 190 232 283 341
#     4  10  21  40  63  88 118 153 191 236 286 340
#     4   9  19  37  61  85 112 145 186 235 286 335
#     4   9  20  39  60  84 113 149 190 237 288 338
#     4  11  22  38  62  90 116 149 193 241 287 339
#
# _framework density 19.808610999999999
#
# number of rings (size 3 to 8) (size 9 to 14) (size 15 to 20)
#    0.000    1.667    0.000    6.000    0.000    6.000 
#    0.000    1.667    0.000    0.000    0.000    0.000 
#    0.000    0.000    0.000    0.000    0.000    0.000 
#
# Total GULP energy -297730.008900 kJ/mol
# GULP energy per Si atom -12405.417037 kJ/mol
# Density = 1.976353 g / cm^3
# Si number density = 19.808611 Si / 1000 Ang^3
#
#
#
# Elastic Constant Matrix: (Units=GPa)
#
#
# Indices 1 2 3 4 5 6 
#
# 1 91.0821 18.8904 49.9675 0.0000 27.6732 0.0000
# 2 18.8904 65.8176 31.2512 0.0000 5.7496 0.0000
# 3 49.9675 31.2512 99.3247 0.0000 22.9257 0.0000
# 4 0.0000 0.0000 0.0000 36.7888 0.0000 2.2029
# 5 27.6732 5.7496 22.9257 0.0000 22.8595 0.0000
# 6 0.0000 0.0000 0.0000 2.2029 0.0000 35.0950
#
#
#
# Elastic Compliance Matrix: (Units=1/GPa)
#
#
# Indices 1 2 3 4 5 6 
#
# 1 0.019704 -0.001592 -0.005203 0.000000 -0.018235 0.000000
# 2 -0.001592 0.018030 -0.005556 0.000000 0.002965 0.000000
# 3 -0.005203 -0.005556 0.016470 0.000000 -0.008822 0.000000
# 4 0.000000 0.000000 0.000000 0.027285 0.000000 -0.001713
# 5 -0.018235 0.002965 -0.008822 0.000000 0.073922 0.000000
# 6 0.000000 0.000000 0.000000 -0.001713 0.000000 0.028602
#
#
# Mechanical properties :
#
#
# Convention : Reuss Voigt Hill
#
# Bulk Modulus (GPa) = 33.89679 50.71585 42.30632
# Shear Modulus (GPa) = 22.87847 29.35635 26.11741
#
# Velocity S-wave (km/s) = 3.40218 3.85385 3.63504
# Velocity P-wave (km/s) = 5.70810 6.74251 6.24675
#
# Compressibility (1/GPa) = 0.02950132
#
# Stress axis : x y z
#
# Youngs Moduli (GPa) = 50.75213 55.46430 60.71780
#
# Poissons Ratio (x) = 0.08830 0.31589
# Poissons Ratio (y) = 0.08080 0.33736
# Poissons Ratio (z) = 0.26404 0.30817
#
# Static dielectric constant tensor:
#      x y z
#    x 3.561600 0.000000 -0.043760 
#    y 0.000000 3.611420 0.000000 
#    z -0.043760 0.000000 3.685620 
# 
# 
# High freq. dielectric constant tensor:
#      x y z
#    x 1.769170 0.000000 0.003350 
#    y 0.000000 1.776780 0.000000 
#    z 0.003350 0.000000 1.784130 
# 
# From -- ./inp_files/20511.got.cif
#   From: 2010.06.25/outbox.cif.g09.slc.cpg/sg11_11_cif.got.tgz:20511.got - 2010.06.27 23:14:04.
