data_PCOD8076524
_publ_section_title
;
Structure prediction by ZEFSAII (Michael W. Deem and Ramdas Pophale) SiO2 
 PCOD8076524
Probable space group: P 21/M
;
_chemical_formula_sum "Si O2"
_cell_formula_units_Z 32
_cell_length_a 34.275400
_cell_length_b 8.830677
_cell_length_c 13.820713
_cell_angle_alpha 90.000000
_cell_angle_beta 23.788156
_cell_angle_gamma 90.000000
_cell_volume 1687.313042
_symmetry_space_group_name_H-M "P 21/M"
_symmetry_group_IT_number 11
_symmetry_cell_setting 'monoclinic'
loop_
_space_group_symop_operation_xyz
x,y,z
-x,1/2+y,-z
-x,-y,-z
x,1/2-y,z
loop_
_atom_site_type_symbol
_atom_site_label
_atom_site_fract_x
_atom_site_fract_y
_atom_site_fract_z
Si Si1 0.107303 0.573587 0.953464
Si Si2 0.275186 0.928097 0.712313
Si Si3 0.635859 0.571028 0.312717
Si Si4 0.444172 0.072028 0.827927
Si Si5 0.709695 0.427897 0.950724
Si Si6 0.114054 0.075051 0.536393
Si Si7 0.897741 0.923397 0.222846
Si Si8 0.466888 0.574970 0.173247
O O1 0.108247 0.750000 0.929980
O O2 0.997175 0.519009 0.221335
O O3 0.171936 0.532114 0.899583
O O4 0.155874 0.497968 0.747607
O O5 0.286114 0.750000 0.710935
O O6 0.360287 0.981250 0.446599
O O7 0.282733 0.021585 0.794478
O O8 0.617921 0.750000 0.357837
O O9 0.537028 0.482693 0.557420
O O10 0.671670 0.524419 0.126420
O O11 0.429093 0.250000 0.842557
O O12 0.458320 0.038652 0.909755
O O13 0.351301 0.977803 0.004730
O O14 0.699602 0.250000 0.993632
O O15 0.821686 0.469949 0.678519
O O16 0.122795 0.250000 0.484189
O O17 0.154513 0.056276 0.554859
O O18 0.913288 0.750000 0.162609
O O19 0.000000 0.000000 0.000000
O O20 0.463143 0.750000 0.159294
O O21 0.500000 0.500000 0.000000
#
# Coordination Sequence:
#
# PCOD8076524 Si02
#       8
#     4   4   4   4   4   4   4   4
#     4   9  18  34  57  80 107 143 183 225 270 318
#     4   9  19  37  57  79 107 143 183 223 267 318
#     4  11  22  38  59  82 107 137 176 223 269 322
#     4  10  21  39  59  81 110 143 178 219 266 319
#     4  12  24  37  56  81 107 140 178 222 273 324
#     4   9  19  35  52  77 110 142 177 224 273 316
#     4   9  17  30  50  74 104 139 177 219 264 313
#     4   9  19  34  54  80 113 145 174 213 260 308
#
# _framework density 18.965064000000002
#
# number of rings (size 3 to 8) (size 9 to 14) (size 15 to 20)
#    0.000    2.250    0.000    4.875    0.000    6.500 
#    0.000    3.125    0.000    0.000    0.000    0.000 
#    0.000    0.000    0.000    0.000    0.000    0.000 
#
# Total GULP energy -396731.915000 kJ/mol
# GULP energy per Si atom -12397.872344 kJ/mol
# Density = 1.892190 g / cm^3
# Si number density = 18.965064 Si / 1000 Ang^3
#
#
#
# Elastic Constant Matrix: (Units=GPa)
#
#
# Indices 1 2 3 4 5 6 
#
# 1 92.4265 28.9651 36.7750 0.0000 -3.3985 0.0000
# 2 28.9651 57.6456 16.7891 0.0000 2.4843 0.0000
# 3 36.7750 16.7891 62.8421 0.0000 1.4168 0.0000
# 4 0.0000 0.0000 0.0000 30.5511 0.0000 3.8428
# 5 -3.3985 2.4843 1.4168 0.0000 28.4938 0.0000
# 6 0.0000 0.0000 0.0000 3.8428 0.0000 34.7465
#
#
#
# Elastic Compliance Matrix: (Units=1/GPa)
#
#
# Indices 1 2 3 4 5 6 
#
# 1 0.015838 -0.005813 -0.007778 0.000000 0.002783 0.000000
# 2 -0.005813 0.021000 -0.002154 0.000000 -0.002417 0.000000
# 3 -0.007778 -0.002154 0.021081 0.000000 -0.001788 0.000000
# 4 0.000000 0.000000 0.000000 0.033194 0.000000 -0.003671
# 5 0.002783 -0.002417 -0.001788 0.000000 0.035727 0.000000
# 6 0.000000 0.000000 0.000000 -0.003671 0.000000 0.029186
#
#
# Mechanical properties :
#
#
# Convention : Reuss Voigt Hill
#
# Bulk Modulus (GPa) = 37.83874 41.99698 39.91786
# Shear Modulus (GPa) = 25.46799 27.45060 26.45930
#
# Velocity S-wave (km/s) = 3.66852 3.80864 3.73924
# Velocity P-wave (km/s) = 6.15948 6.44464 6.30367
#
# Compressibility (1/GPa) = 0.02642794
#
# Stress axis : x y z
#
# Youngs Moduli (GPa) = 63.13859 47.61977 47.43711
#
# Poissons Ratio (x) = 0.27680 0.36898
# Poissons Ratio (y) = 0.36701 0.10219
# Poissons Ratio (z) = 0.49111 0.10259
#
# Static dielectric constant tensor:
#      x y z
#    x 3.750340 0.000000 0.023400 
#    y 0.000000 3.561260 0.000000 
#    z 0.023400 0.000000 3.397750 
# 
# 
# High freq. dielectric constant tensor:
#      x y z
#    x 1.739540 0.000000 0.002890 
#    y 0.000000 1.737900 0.000000 
#    z 0.002890 0.000000 1.721560 
# 
# From -- ./inp_files/45236.got.cif
#   From: 2010.06.25/outbox.cif.g09.slc.cpg/sg11_23_cif.got.tgz:45236.got - 2010.06.27 23:14:04.
