data_PCOD8076984
_publ_section_title
;
Structure prediction by ZEFSAII (Michael W. Deem and Ramdas Pophale) SiO2 
 PCOD8076984
Probable space group: P 21/M
;
_chemical_formula_sum "Si O2"
_cell_formula_units_Z 28
_cell_length_a 9.327104
_cell_length_b 8.849347
_cell_length_c 29.096382
_cell_angle_alpha 90.000000
_cell_angle_beta 142.485138
_cell_angle_gamma 90.000000
_cell_volume 1462.483360
_symmetry_space_group_name_H-M "P 21/M"
_symmetry_group_IT_number 11
_symmetry_cell_setting 'monoclinic'
loop_
_space_group_symop_operation_xyz
x,y,z
-x,1/2+y,-z
-x,-y,-z
x,1/2-y,z
loop_
_atom_site_type_symbol
_atom_site_label
_atom_site_fract_x
_atom_site_fract_y
_atom_site_fract_z
Si Si1 0.812275 0.425331 0.360360
Si Si2 0.744006 0.570252 0.930417
Si Si3 0.425494 0.573162 0.933793
Si Si4 0.654152 0.927112 0.500087
Si Si5 0.485757 0.578132 0.627197
Si Si6 0.890449 0.925711 0.798119
Si Si7 0.589066 0.071825 0.797735
O O1 0.788366 0.250000 0.340000
O O2 0.721143 0.449145 0.388856
O O3 0.662090 0.524912 0.286955
O O4 0.078611 0.485018 0.426570
O O5 0.763659 0.750000 0.933471
O O6 0.590468 0.514331 0.934754
O O7 0.614356 0.510860 0.852474
O O8 0.000000 0.500000 0.000000
O O9 0.453927 0.750000 0.947007
O O10 0.156603 0.529564 0.853883
O O11 0.500000 0.500000 0.000000
O O12 0.645353 0.750000 0.503851
O O13 0.500000 0.000000 0.500000
O O14 0.550552 0.967467 0.424298
O O15 0.483211 0.750000 0.608524
O O16 0.736163 0.538278 0.713896
O O17 0.861590 0.750000 0.804424
O O18 0.802534 0.023168 0.818875
O O19 0.599608 0.250000 0.807828
#
# Coordination Sequence:
#
# PCOD8076984 Si02
#       7
#     4   4   4   4   4   4   4
#     4   9  20  39  60  81 109 149 188 225 275 335
#     4  11  23  39  58  83 115 151 189 229 276 331
#     4  10  22  38  58  82 109 144 186 228 272 324
#     4  11  23  37  55  81 114 149 186 230 281 331
#     4   9  18  35  59  83 108 141 184 229 277 333
#     4   9  19  38  60  82 111 147 182 224 279 336
#     4  11  22  36  58  88 115 143 183 231 278 328
#
# _framework density 19.145517000000002
#
# number of rings (size 3 to 8) (size 9 to 14) (size 15 to 20)
#    0.000    2.000    0.000    4.286    0.000    8.571 
#    0.000    2.857    0.000    0.000    0.000    0.000 
#    0.000    0.000    0.000    0.000    0.000    0.000 
#
# Total GULP energy -347306.850087 kJ/mol
# GULP energy per Si atom -12403.816075 kJ/mol
# Density = 1.910194 g / cm^3
# Si number density = 19.145517 Si / 1000 Ang^3
#
#
#
# Elastic Constant Matrix: (Units=GPa)
#
#
# Indices 1 2 3 4 5 6 
#
# 1 152.5524 50.8381 95.7491 0.0000 10.9510 0.0000
# 2 50.8381 69.8463 47.6892 0.0000 -1.2431 0.0000
# 3 95.7491 47.6892 128.9214 0.0000 6.8604 0.0000
# 4 0.0000 0.0000 0.0000 37.3821 0.0000 -4.1159
# 5 10.9510 -1.2431 6.8604 0.0000 38.0707 0.0000
# 6 0.0000 0.0000 0.0000 -4.1159 0.0000 31.4762
#
#
#
# Elastic Compliance Matrix: (Units=1/GPa)
#
#
# Indices 1 2 3 4 5 6 
#
# 1 0.013230 -0.004086 -0.008183 0.000000 -0.002464 0.000000
# 2 -0.004086 0.020557 -0.004713 0.000000 0.002696 0.000000
# 3 -0.008183 -0.004713 0.015610 0.000000 -0.000613 0.000000
# 4 0.000000 0.000000 0.000000 0.027142 0.000000 0.003549
# 5 -0.002464 0.002696 -0.000613 0.000000 0.027174 0.000000
# 6 0.000000 0.000000 0.000000 0.003549 0.000000 0.032234
#
#
# Mechanical properties :
#
#
# Convention : Reuss Voigt Hill
#
# Bulk Modulus (GPa) = 64.79714 82.20811 73.50262
# Shear Modulus (GPa) = 28.56232 31.85537 30.20884
#
# Velocity S-wave (km/s) = 3.86664 4.08346 3.97653
# Velocity P-wave (km/s) = 7.33843 8.07866 7.71742
#
# Compressibility (1/GPa) = 0.01543278
#
# Stress axis : x y z
#
# Youngs Moduli (GPa) = 75.58692 48.64484 64.06067
#
# Poissons Ratio (x) = 0.19877 0.52421
# Poissons Ratio (y) = 0.30885 0.30192
# Poissons Ratio (z) = 0.61853 0.22927
#
# Static dielectric constant tensor:
#      x y z
#    x 3.628630 0.000000 0.125590 
#    y 0.000000 3.441820 0.000000 
#    z 0.125590 0.000000 3.034270 
# 
# 
# High freq. dielectric constant tensor:
#      x y z
#    x 1.746870 0.000000 0.004200 
#    y 0.000000 1.741420 0.000000 
#    z 0.004200 0.000000 1.757850 
# 
# From -- ./inp_files/70804.got.cif
#   From: 2010.06.25/outbox.cif.g09.slc.cpg/sg11_36_cif.got.tgz:70804.got - 2010.06.27 23:14:04.
