data_PCOD8076302
_publ_section_title
;
Structure prediction by ZEFSAII (Michael W. Deem and Ramdas Pophale) SiO2 
 PCOD8076302
Probable space group: P 21/M
;
_chemical_formula_sum "Si O2"
_cell_formula_units_Z 32
_cell_length_a 21.189223
_cell_length_b 13.753584
_cell_length_c 16.281612
_cell_angle_alpha 90.000000
_cell_angle_beta 18.610754
_cell_angle_gamma 90.000000
_cell_volume 1514.278435
_symmetry_space_group_name_H-M "P 21/M"
_symmetry_group_IT_number 11
_symmetry_cell_setting 'monoclinic'
loop_
_space_group_symop_operation_xyz
x,y,z
-x,1/2+y,-z
-x,-y,-z
x,1/2-y,z
loop_
_atom_site_type_symbol
_atom_site_label
_atom_site_fract_x
_atom_site_fract_y
_atom_site_fract_z
Si Si1 0.282422 0.032580 0.249756
Si Si2 0.093182 0.361113 0.634841
Si Si3 0.649445 0.856312 0.999029
Si Si4 0.056739 0.644676 0.581207
Si Si5 0.050021 0.638620 0.896058
Si Si6 0.288782 0.356854 0.561197
Si Si7 0.530259 0.051106 0.629334
Si Si8 0.883107 0.545802 0.941589
O O1 0.191977 0.105957 0.427788
O O2 0.280588 0.084486 0.165350
O O3 0.161660 0.932143 0.392281
O O4 0.500000 0.000000 0.000000
O O5 0.015339 0.250000 0.721781
O O6 0.260428 0.367907 0.498593
O O7 0.911375 0.431671 0.884506
O O8 0.563330 0.750000 0.080036
O O9 0.835066 0.840430 0.827319
O O10 0.492778 0.914393 0.247684
O O11 0.166750 0.750000 0.443547
O O12 0.046109 0.604801 0.687238
O O13 0.058042 0.750000 0.855248
O O14 0.269510 0.602073 0.649182
O O15 0.925210 0.628280 0.133100
O O16 0.938318 0.571343 0.966789
O O17 0.373689 0.250000 0.478006
O O18 0.446063 0.434761 0.399406
O O19 0.344431 0.075594 0.798975
#
# Coordination Sequence:
#
# PCOD8076302 Si02
#       8
#     4   4   4   4   4   4   4   4
#     4  11  22  35  57  89 117 154 196 243 295 354
#     4  10  21  40  60  84 123 164 202 249 303 357
#     4  10  21  38  59  85 115 151 198 244 290 352
#     4   9  20  38  57  82 118 154 192 243 295 347
#     4  11  23  40  63  90 122 161 200 248 305 356
#     4  10  22  41  62  87 123 161 202 249 299 361
#     4  11  22  40  64  91 122 157 200 250 306 356
#     4  10  22  38  64  91 121 158 202 251 299 360
#
# _framework density 21.132176999999999
#
# number of rings (size 3 to 8) (size 9 to 14) (size 15 to 20)
#    0.000    1.750    1.250    2.625    1.750    3.500 
#    0.000    0.625    0.000    0.000    0.000    0.000 
#    0.000    0.000    0.000    0.000    0.000    0.000 
#
# Total GULP energy -396684.390587 kJ/mol
# GULP energy per Si atom -12396.387206 kJ/mol
# Density = 2.108408 g / cm^3
# Si number density = 21.132177 Si / 1000 Ang^3
#
#
#
# Elastic Constant Matrix: (Units=GPa)
#
#
# Indices 1 2 3 4 5 6 
#
# 1 42.6370 10.9249 4.6079 0.0000 -4.7897 0.0000
# 2 10.9249 163.8220 36.8834 0.0000 2.4067 0.0000
# 3 4.6079 36.8834 53.6235 0.0000 -6.8962 0.0000
# 4 0.0000 0.0000 0.0000 31.4243 0.0000 5.9304
# 5 -4.7897 2.4067 -6.8962 0.0000 30.9367 0.0000
# 6 0.0000 0.0000 0.0000 5.9304 0.0000 20.4203
#
#
#
# Elastic Compliance Matrix: (Units=1/GPa)
#
#
# Indices 1 2 3 4 5 6 
#
# 1 0.024334 -0.001558 -0.000535 0.000000 0.003769 0.000000
# 2 -0.001558 0.007412 -0.005219 0.000000 -0.001981 0.000000
# 3 -0.000535 -0.005219 0.022985 0.000000 0.005447 0.000000
# 4 0.000000 0.000000 0.000000 0.033668 0.000000 -0.009778
# 5 0.003769 -0.001981 0.005447 0.000000 0.034276 0.000000
# 6 0.000000 0.000000 0.000000 -0.009778 0.000000 0.051810
#
#
# Mechanical properties :
#
#
# Convention : Reuss Voigt Hill
#
# Bulk Modulus (GPa) = 24.93287 40.54609 32.73948
# Shear Modulus (GPa) = 24.69399 30.40069 27.54734
#
# Velocity S-wave (km/s) = 3.42211 3.79700 3.61442
# Velocity P-wave (km/s) = 5.23819 6.20093 5.73978
#
# Compressibility (1/GPa) = 0.04010769
#
# Stress axis : x y z
#
# Youngs Moduli (GPa) = 41.09446 134.91178 43.50684
#
# Poissons Ratio (x) = 0.21016 0.02327
# Poissons Ratio (y) = 0.06401 0.22707
# Poissons Ratio (z) = 0.02198 0.70414
#
# Static dielectric constant tensor:
#      x y z
#    x 3.414490 0.000000 0.075840 
#    y 0.000000 4.363500 0.000000 
#    z 0.075840 0.000000 3.661280 
# 
# 
# High freq. dielectric constant tensor:
#      x y z
#    x 1.815610 0.000000 0.010910 
#    y 0.000000 1.850020 0.000000 
#    z 0.010910 0.000000 1.818180 
# 
# From -- ./inp_files/55010.got.cif
#   From: 2010.06.25/outbox.cif.g09.slc.cpg/sg11_28_cif.got.tgz:55010.got - 2010.06.27 23:14:04.
