data_PCOD8076583
_publ_section_title
;
Structure prediction by ZEFSAII (Michael W. Deem and Ramdas Pophale) SiO2 
 PCOD8076583
Probable space group: P 21/M
;
_chemical_formula_sum "Si O2"
_cell_formula_units_Z 24
_cell_length_a 14.931914
_cell_length_b 13.686854
_cell_length_c 12.116026
_cell_angle_alpha 90.000000
_cell_angle_beta 149.996789
_cell_angle_gamma 90.000000
_cell_volume 1238.201909
_symmetry_space_group_name_H-M "P 21/M"
_symmetry_group_IT_number 11
_symmetry_cell_setting 'monoclinic'
loop_
_space_group_symop_operation_xyz
x,y,z
-x,1/2+y,-z
-x,-y,-z
x,1/2-y,z
loop_
_atom_site_type_symbol
_atom_site_label
_atom_site_fract_x
_atom_site_fract_y
_atom_site_fract_z
Si Si1 0.418733 0.641290 0.842669
Si Si2 0.104832 0.968492 0.905987
Si Si3 0.245654 0.364412 0.451307
Si Si4 0.696285 0.012628 0.661975
Si Si5 0.152898 0.639886 0.364246
Si Si6 0.582346 0.453343 0.933241
O O1 0.504066 0.750000 0.932045
O O2 0.243738 0.638268 0.580463
O O3 0.567219 0.565018 0.958538
O O4 0.357684 0.614699 0.901461
O O5 0.029904 0.078732 0.818975
O O6 0.950518 0.890411 0.710067
O O7 0.168073 0.953365 0.098896
O O8 0.268865 0.948700 0.001167
O O9 0.280133 0.250000 0.485380
O O10 0.251708 0.407368 0.333626
O O11 0.393371 0.416066 0.684968
O O12 0.710167 0.093001 0.579192
O O13 0.500000 0.000000 0.500000
O O14 0.105782 0.750000 0.277346
#
# Coordination Sequence:
#
# PCOD8076583 Si02
#       6
#     4   4   4   4   4   4
#     4  10  21  40  65  91 123 162 204 252 306 364
#     4  11  23  40  64  89 125 159 205 252 307 359
#     4  11  23  40  61  93 126 162 206 248 305 365
#     4  11  21  40  61  89 124 160 202 251 304 358
#     4  10  21  39  61  90 123 160 204 250 304 364
#     4  11  22  42  66  88 127 161 202 258 303 359
#
# _framework density 19.382946
#
# number of rings (size 3 to 8) (size 9 to 14) (size 15 to 20)
#    0.000    1.333    5.000    2.500    0.000    6.000 
#    0.000    0.000    0.000    0.000    0.000    0.000 
#    0.000    0.000    0.000    0.000    0.000    0.000 
#
# Total GULP energy -297576.800286 kJ/mol
# GULP energy per Si atom -12399.033345 kJ/mol
# Density = 1.933883 g / cm^3
# Si number density = 19.382946 Si / 1000 Ang^3
#
#
#
# Elastic Constant Matrix: (Units=GPa)
#
#
# Indices 1 2 3 4 5 6 
#
# 1 91.8601 44.9317 55.2060 0.0000 -21.2970 0.0000
# 2 44.9317 146.7352 39.1632 0.0000 -2.4970 0.0000
# 3 55.2060 39.1632 107.6207 0.0000 -7.5871 0.0000
# 4 0.0000 0.0000 0.0000 23.2885 0.0000 -4.4990
# 5 -21.2970 -2.4970 -7.5871 0.0000 28.1199 0.0000
# 6 0.0000 0.0000 0.0000 -4.4990 0.0000 15.2477
#
#
#
# Elastic Compliance Matrix: (Units=1/GPa)
#
#
# Indices 1 2 3 4 5 6 
#
# 1 0.020904 -0.003946 -0.008355 0.000000 0.013227 0.000000
# 2 -0.003946 0.008293 -0.001175 0.000000 -0.002569 0.000000
# 3 -0.008355 -0.001175 0.013814 0.000000 -0.002704 0.000000
# 4 0.000000 0.000000 0.000000 0.045535 0.000000 0.013436
# 5 0.013227 -0.002569 -0.002704 0.000000 0.044622 0.000000
# 6 0.000000 0.000000 0.000000 0.013436 0.000000 0.069548
#
#
# Mechanical properties :
#
#
# Convention : Reuss Voigt Hill
#
# Bulk Modulus (GPa) = 62.26441 69.42421 65.84431
# Shear Modulus (GPa) = 21.27468 27.12554 24.20011
#
# Velocity S-wave (km/s) = 3.31660 3.74499 3.53728
# Velocity P-wave (km/s) = 6.84540 7.38883 7.12230
#
# Compressibility (1/GPa) = 0.01606054
#
# Stress axis : x y z
#
# Youngs Moduli (GPa) = 47.83826 120.58143 72.38856
#
# Poissons Ratio (x) = 0.47582 0.60477
# Poissons Ratio (y) = 0.18877 0.08504
# Poissons Ratio (z) = 0.39966 0.14166
#
# Static dielectric constant tensor:
#      x y z
#    x 3.503790 0.000000 -0.207710 
#    y 0.000000 3.750100 0.000000 
#    z -0.207710 0.000000 3.682880 
# 
# 
# High freq. dielectric constant tensor:
#      x y z
#    x 1.750580 0.000000 -0.014510 
#    y 0.000000 1.757120 0.000000 
#    z -0.014510 0.000000 1.761150 
# 
# From -- ./inp_files/39700.got.cif
#   From: 2010.06.25/outbox.cif.g09.slc.cpg/sg11_20_cif.got.tgz:39700.got - 2010.06.27 23:14:04.
