data_PCOD8076278
_publ_section_title
;
Structure prediction by ZEFSAII (Michael W. Deem and Ramdas Pophale) SiO2 
 PCOD8076278
Probable space group: P 21/M
;
_chemical_formula_sum "Si O2"
_cell_formula_units_Z 32
_cell_length_a 11.971197
_cell_length_b 9.011046
_cell_length_c 14.256874
_cell_angle_alpha 90.000000
_cell_angle_beta 92.876636
_cell_angle_gamma 90.000000
_cell_volume 1535.993926
_symmetry_space_group_name_H-M "P 21/M"
_symmetry_group_IT_number 11
_symmetry_cell_setting 'monoclinic'
loop_
_space_group_symop_operation_xyz
x,y,z
-x,1/2+y,-z
-x,-y,-z
x,1/2-y,z
loop_
_atom_site_type_symbol
_atom_site_label
_atom_site_fract_x
_atom_site_fract_y
_atom_site_fract_z
Si Si1 0.116576 0.921058 0.515486
Si Si2 0.806047 0.425406 0.276840
Si Si3 0.508711 0.578742 0.596704
Si Si4 0.841634 0.579760 0.945041
Si Si5 0.957407 0.921294 0.142684
Si Si6 0.414458 0.074453 0.760953
Si Si7 0.281604 0.583887 0.355193
Si Si8 0.343713 0.916428 0.154301
O O1 0.089784 0.750000 0.526603
O O2 0.184859 0.972116 0.612016
O O3 0.179743 0.952710 0.419839
O O4 0.000000 0.000000 0.500000
O O5 0.794928 0.250000 0.264641
O O6 0.917794 0.484069 0.230540
O O7 0.703218 0.501470 0.213886
O O8 0.500000 0.500000 0.500000
O O9 0.474669 0.750000 0.592883
O O10 0.422683 0.491218 0.657483
O O11 0.635044 0.554056 0.633123
O O12 0.853240 0.750000 0.914335
O O13 0.713981 0.524217 0.923822
O O14 0.923221 0.480952 0.885436
O O15 0.867927 0.559831 0.055416
O O16 0.970672 0.750000 0.172817
O O17 0.402276 0.250000 0.759171
O O18 0.527677 0.028107 0.821957
O O19 0.329547 0.750000 0.383598
O O20 0.261504 0.584342 0.242475
O O21 0.350172 0.750000 0.113688
#
# Coordination Sequence:
#
# PCOD8076278 Si02
#       8
#     4   4   4   4   4   4   4   4
#     4  10  23  39  55  80 115 153 195 239 287 343
#     4  11  23  39  60  88 121 156 196 245 293 346
#     4  11  20  31  51  77 105 143 190 241 289 335
#     4  10  21  38  62  91 119 147 193 249 298 351
#     4  10  22  40  62  87 117 157 196 239 298 357
#     4  10  21  38  58  84 116 155 197 236 289 357
#     4   9  19  36  53  76 110 148 189 233 282 342
#     4   9  19  35  59  88 119 154 193 239 294 351
#
# _framework density 20.833417000000001
#
# number of rings (size 3 to 8) (size 9 to 14) (size 15 to 20)
#    0.000    2.000    0.000    4.125    1.750    6.500 
#    0.000    0.625    0.000    0.000    0.000    0.000 
#    0.000    0.000    0.000    0.000    0.000    0.000 
#
# Total GULP energy -396477.457485 kJ/mol
# GULP energy per Si atom -12389.920546 kJ/mol
# Density = 2.078600 g / cm^3
# Si number density = 20.833417 Si / 1000 Ang^3
#
#
#
# Elastic Constant Matrix: (Units=GPa)
#
#
# Indices 1 2 3 4 5 6 
#
# 1 79.4594 34.9322 14.4172 0.0000 10.8939 0.0000
# 2 34.9322 89.4144 19.8802 0.0000 13.0179 0.0000
# 3 14.4172 19.8802 32.0947 0.0000 8.2048 0.0000
# 4 0.0000 0.0000 0.0000 30.0345 0.0000 0.7451
# 5 10.8939 13.0179 8.2048 0.0000 32.8006 0.0000
# 6 0.0000 0.0000 0.0000 0.7451 0.0000 39.8191
#
#
#
# Elastic Compliance Matrix: (Units=1/GPa)
#
#
# Indices 1 2 3 4 5 6 
#
# 1 0.015741 -0.005063 -0.003325 0.000000 -0.002387 0.000000
# 2 -0.005063 0.014953 -0.006304 0.000000 -0.002676 0.000000
# 3 -0.003325 -0.006304 0.038069 0.000000 -0.005916 0.000000
# 4 0.000000 0.000000 0.000000 0.033310 0.000000 -0.000623
# 5 -0.002387 -0.002676 -0.005916 0.000000 0.033822 0.000000
# 6 0.000000 0.000000 0.000000 -0.000623 0.000000 0.025125
#
#
# Mechanical properties :
#
#
# Convention : Reuss Voigt Hill
#
# Bulk Modulus (GPa) = 25.39371 37.71420 31.55395
# Shear Modulus (GPa) = 24.56631 29.31344 26.93988
#
# Velocity S-wave (km/s) = 3.43764 3.75512 3.59988
# Velocity P-wave (km/s) = 5.28885 6.07810 5.69716
#
# Compressibility (1/GPa) = 0.03937984
#
# Stress axis : x y z
#
# Youngs Moduli (GPa) = 63.52676 66.87571 26.26838
#
# Poissons Ratio (x) = 0.33860 0.08734
# Poissons Ratio (y) = 0.32164 0.16559
# Poissons Ratio (z) = 0.21121 0.42157
#
# Static dielectric constant tensor:
#      x y z
#    x 3.641810 0.000000 -0.046210 
#    y 0.000000 3.849530 0.000000 
#    z -0.046210 0.000000 3.698330 
# 
# 
# High freq. dielectric constant tensor:
#      x y z
#    x 1.813570 0.000000 0.002750 
#    y 0.000000 1.816610 0.000000 
#    z 0.002750 0.000000 1.803710 
# 
# From -- ./inp_files/49324.got.cif
#   From: 2010.06.25/outbox.cif.g09.slc.cpg/sg11_25_cif.got.tgz:49324.got - 2010.06.27 23:14:04.
