data_PCOD8076104
_publ_section_title
;
Structure prediction by ZEFSAII (Michael W. Deem and Ramdas Pophale) SiO2 
 PCOD8076104
Probable space group: P 21/M
;
_chemical_formula_sum "Si O2"
_cell_formula_units_Z 32
_cell_length_a 25.312372
_cell_length_b 9.487217
_cell_length_c 22.906904
_cell_angle_alpha 90.000000
_cell_angle_beta 18.092746
_cell_angle_gamma 90.000000
_cell_volume 1708.354984
_symmetry_space_group_name_H-M "P 21/M"
_symmetry_group_IT_number 11
_symmetry_cell_setting 'monoclinic'
loop_
_space_group_symop_operation_xyz
x,y,z
-x,1/2+y,-z
-x,-y,-z
x,1/2-y,z
loop_
_atom_site_type_symbol
_atom_site_label
_atom_site_fract_x
_atom_site_fract_y
_atom_site_fract_z
Si Si1 0.416333 0.412456 0.454732
Si Si2 0.766849 0.413557 0.913840
Si Si3 0.360713 0.587946 0.074376
Si Si4 0.685021 0.089137 0.748325
Si Si5 0.578192 0.594712 0.367212
Si Si6 0.903684 0.084641 0.411604
Si Si7 0.385103 0.086125 0.353333
Si Si8 0.151233 0.098466 0.829793
O O1 0.468230 0.250000 0.410011
O O2 0.573776 0.512344 0.309426
O O3 0.359973 0.440442 0.448272
O O4 0.269421 0.461966 0.653778
O O5 0.804093 0.250000 0.889807
O O6 0.771497 0.441119 0.839070
O O7 0.913795 0.508587 0.789365
O O8 0.579054 0.456959 0.133797
O O9 0.417025 0.750000 0.014452
O O10 0.275365 0.545605 0.226033
O O11 0.532796 0.502594 0.881943
O O12 0.622936 0.250000 0.810556
O O13 0.852973 0.066827 0.533029
O O14 0.500000 0.500000 0.500000
O O15 0.491158 0.750000 0.452907
O O16 0.768328 0.615198 0.190314
O O17 0.918571 0.250000 0.378881
O O18 0.754749 0.011922 0.530444
O O19 0.353641 0.250000 0.369622
O O20 0.085959 0.250000 0.876302
O O21 0.000000 0.000000 0.000000
#
# Coordination Sequence:
#
# PCOD8076104 Si02
#       8
#     4   4   4   4   4   4   4   4
#     4   9  19  36  57  80 105 138 182 226 271 320
#     4  10  21  37  59  83 108 146 193 237 283 338
#     4   9  17  32  55  81 107 141 187 233 282 341
#     4   9  18  32  52  80 112 143 179 230 291 344
#     4   9  17  31  52  77 105 137 174 213 258 314
#     4  11  23  37  56  83 116 151 186 233 292 346
#     4  10  21  41  63  81 109 150 197 242 280 330
#     4   9  18  32  51  79 111 139 168 210 262 314
#
# _framework density 18.731470000000002
#
# number of rings (size 3 to 8) (size 9 to 14) (size 15 to 20)
#    0.000    2.500    1.250    1.500    0.000    5.000 
#    2.250    0.000    0.000    0.000    0.000    0.000 
#    0.000    0.000    0.000    0.000    0.000    0.000 
#
# Total GULP energy -396465.287514 kJ/mol
# GULP energy per Si atom -12389.540235 kJ/mol
# Density = 1.868884 g / cm^3
# Si number density = 18.731470 Si / 1000 Ang^3
#
#
#
# Elastic Constant Matrix: (Units=GPa)
#
#
# Indices 1 2 3 4 5 6 
#
# 1 98.6698 56.6489 51.7954 0.0000 -2.8668 0.0000
# 2 56.6489 105.4358 51.1594 0.0000 -16.0686 0.0000
# 3 51.7954 51.1594 89.5189 0.0000 -13.6326 0.0000
# 4 0.0000 0.0000 0.0000 29.7020 0.0000 -5.7602
# 5 -2.8668 -16.0686 -13.6326 0.0000 22.6183 0.0000
# 6 0.0000 0.0000 0.0000 -5.7602 0.0000 32.0711
#
#
#
# Elastic Compliance Matrix: (Units=1/GPa)
#
#
# Indices 1 2 3 4 5 6 
#
# 1 0.017897 -0.007141 -0.007379 0.000000 -0.007252 0.000000
# 2 -0.007141 0.016573 -0.004057 0.000000 0.008424 0.000000
# 3 -0.007379 -0.004057 0.018913 0.000000 0.007582 0.000000
# 4 0.000000 0.000000 0.000000 0.034883 0.000000 0.006265
# 5 -0.007252 0.008424 0.007582 0.000000 0.053847 0.000000
# 6 0.000000 0.000000 0.000000 0.006265 0.000000 0.032306
#
#
# Mechanical properties :
#
#
# Convention : Reuss Voigt Hill
#
# Bulk Modulus (GPa) = 61.61137 68.09244 64.85191
# Shear Modulus (GPa) = 23.04322 25.81301 24.42812
#
# Velocity S-wave (km/s) = 3.51121 3.71624 3.61518
# Velocity P-wave (km/s) = 7.02861 7.40573 7.21963
#
# Compressibility (1/GPa) = 0.01623077
#
# Stress axis : x y z
#
# Youngs Moduli (GPa) = 55.87470 60.33738 52.87250
#
# Poissons Ratio (x) = 0.43086 0.39013
# Poissons Ratio (y) = 0.39899 0.21451
# Poissons Ratio (z) = 0.41228 0.24480
#
# Static dielectric constant tensor:
#      x y z
#    x 2.390630 0.000000 -0.585410 
#    y 0.000000 3.905210 0.000000 
#    z -0.585410 0.000000 2.899130 
# 
# 
# High freq. dielectric constant tensor:
#      x y z
#    x 1.727780 0.000000 0.003480 
#    y 0.000000 1.734280 0.000000 
#    z 0.003480 0.000000 1.698050 
# 
# From -- ./inp_files/70327.got.cif
#   From: 2010.06.25/outbox.cif.g09.slc.cpg/sg11_36_cif.got.tgz:70327.got - 2010.06.27 23:14:04.
