data_PCOD8076171
_publ_section_title
;
Structure prediction by ZEFSAII (Michael W. Deem and Ramdas Pophale) SiO2 
 PCOD8076171
Probable space group: P 21/M
;
_chemical_formula_sum "Si O2"
_cell_formula_units_Z 32
_cell_length_a 11.091369
_cell_length_b 19.106849
_cell_length_c 8.915835
_cell_angle_alpha 90.000000
_cell_angle_beta 57.214607
_cell_angle_gamma 90.000000
_cell_volume 1588.472545
_symmetry_space_group_name_H-M "P 21/M"
_symmetry_group_IT_number 11
_symmetry_cell_setting 'monoclinic'
loop_
_space_group_symop_operation_xyz
x,y,z
-x,1/2+y,-z
-x,-y,-z
x,1/2-y,z
loop_
_atom_site_type_symbol
_atom_site_label
_atom_site_fract_x
_atom_site_fract_y
_atom_site_fract_z
Si Si1 0.805438 0.454625 0.433400
Si Si2 0.262064 0.827410 0.317501
Si Si3 0.652959 0.555669 0.028735
Si Si4 0.835862 0.172307 0.946547
Si Si5 0.448035 0.326074 0.724003
Si Si6 0.619345 0.122786 0.326394
Si Si7 0.593409 0.545651 0.744824
Si Si8 0.939633 0.024128 0.885602
O O1 0.819710 0.386075 0.529176
O O2 0.717074 0.436897 0.340219
O O3 0.729216 0.520266 0.560319
O O4 0.965288 0.483823 0.301023
O O5 0.201298 0.750000 0.402916
O O6 0.431365 0.829658 0.229634
O O7 0.247925 0.841382 0.151212
O O8 0.654156 0.582562 0.855389
O O9 0.774091 0.497320 0.974956
O O10 0.670977 0.617467 0.141420
O O11 0.495926 0.523762 0.158020
O O12 0.908988 0.250000 0.896973
O O13 0.727564 0.171973 0.161060
O O14 0.951379 0.109101 0.875899
O O15 0.373188 0.250000 0.769559
O O16 0.525969 0.337349 0.512946
O O17 0.503528 0.095990 0.287336
O O18 0.000000 0.000000 0.000000
#
# Coordination Sequence:
#
# PCOD8076171 Si02
#       8
#     4   4   4   4   4   4   4   4
#     4  11  22  38  61  90 123 165 200 250 296 366
#     4   9  19  36  60  90 123 159 202 252 304 360
#     4  11  22  38  63  88 121 157 206 248 303 359
#     4  11  22  38  61  89 123 159 202 253 304 364
#     4  10  21  37  60  91 125 160 199 250 312 365
#     4  11  20  35  63  91 122 156 202 250 303 359
#     4  11  21  36  62  93 118 154 201 257 301 352
#     4  12  25  41  62  92 124 163 207 251 307 363
#
# _framework density 20.145137999999999
#
# number of rings (size 3 to 8) (size 9 to 14) (size 15 to 20)
#    0.000    1.250    5.000    2.250    1.750    2.500 
#    0.000    1.875    0.000    0.750    0.000    0.000 
#    0.000    0.000    0.000    0.000    0.000    0.000 
#
# Total GULP energy -396593.923728 kJ/mol
# GULP energy per Si atom -12393.560117 kJ/mol
# Density = 2.009929 g / cm^3
# Si number density = 20.145138 Si / 1000 Ang^3
#
#
#
# Elastic Constant Matrix: (Units=GPa)
#
#
# Indices 1 2 3 4 5 6 
#
# 1 57.3106 19.4035 27.7858 0.0000 17.1344 0.0000
# 2 19.4035 120.4598 36.8430 0.0000 -4.9676 0.0000
# 3 27.7858 36.8430 91.1489 0.0000 3.3641 0.0000
# 4 0.0000 0.0000 0.0000 24.8177 0.0000 -1.9545
# 5 17.1344 -4.9676 3.3641 0.0000 32.2359 0.0000
# 6 0.0000 0.0000 0.0000 -1.9545 0.0000 19.8079
#
#
#
# Elastic Compliance Matrix: (Units=1/GPa)
#
#
# Indices 1 2 3 4 5 6 
#
# 1 0.025300 -0.002752 -0.006112 0.000000 -0.013234 0.000000
# 2 -0.002752 0.009885 -0.003280 0.000000 0.003328 0.000000
# 3 -0.006112 -0.003280 0.014113 0.000000 0.001270 0.000000
# 4 0.000000 0.000000 0.000000 0.040609 0.000000 0.004007
# 5 -0.013234 0.003328 0.001270 0.000000 0.038436 0.000000
# 6 0.000000 0.000000 0.000000 0.004007 0.000000 0.050880
#
#
# Mechanical properties :
#
#
# Convention : Reuss Voigt Hill
#
# Bulk Modulus (GPa) = 39.98091 48.55376 44.26734
# Shear Modulus (GPa) = 23.60186 27.69809 25.64998
#
# Velocity S-wave (km/s) = 3.42656 3.71202 3.57215
# Velocity P-wave (km/s) = 5.96193 6.52123 6.24784
#
# Compressibility (1/GPa) = 0.02501194
#
# Stress axis : x y z
#
# Youngs Moduli (GPa) = 39.52529 101.16230 70.85697
#
# Poissons Ratio (x) = 0.27838 0.43306
# Poissons Ratio (y) = 0.10876 0.23238
# Poissons Ratio (z) = 0.24157 0.33177
#
# Static dielectric constant tensor:
#      x y z
#    x 3.595850 0.000000 0.188180 
#    y 0.000000 3.794440 0.000000 
#    z 0.188180 0.000000 3.978300 
# 
# 
# High freq. dielectric constant tensor:
#      x y z
#    x 1.764680 0.000000 0.028070 
#    y 0.000000 1.782730 0.000000 
#    z 0.028070 0.000000 1.790990 
# 
# From -- ./inp_files/19344.got.cif
#   From: 2010.06.25/outbox.cif.g09.slc.cpg/sg11_10_cif.got.tgz:19344.got - 2010.06.27 23:14:04.
