data_PCOD8076847
_publ_section_title
;
Structure prediction by ZEFSAII (Michael W. Deem and Ramdas Pophale) SiO2 
 PCOD8076847
Probable space group: P 21/M
;
_chemical_formula_sum "Si O2"
_cell_formula_units_Z 32
_cell_length_a 11.822326
_cell_length_b 9.080881
_cell_length_c 28.681251
_cell_angle_alpha 90.000000
_cell_angle_beta 30.761651
_cell_angle_gamma 90.000000
_cell_volume 1574.879508
_symmetry_space_group_name_H-M "P 21/M"
_symmetry_group_IT_number 11
_symmetry_cell_setting 'monoclinic'
loop_
_space_group_symop_operation_xyz
x,y,z
-x,1/2+y,-z
-x,-y,-z
x,1/2-y,z
loop_
_atom_site_type_symbol
_atom_site_label
_atom_site_fract_x
_atom_site_fract_y
_atom_site_fract_z
Si Si1 0.941322 0.579620 0.282712
Si Si2 0.474318 0.582750 0.802397
Si Si3 0.582176 0.076861 0.924303
Si Si4 0.786288 0.921833 0.179897
Si Si5 0.645035 0.075621 0.318994
Si Si6 0.259892 0.916293 0.972852
Si Si7 0.140105 0.078022 0.490427
Si Si8 0.908383 0.419816 0.668760
O O1 0.894564 0.750000 0.288603
O O2 0.738387 0.483430 0.335023
O O3 0.168793 0.530003 0.176972
O O4 0.948962 0.550463 0.335404
O O5 0.505756 0.750000 0.773944
O O6 0.416716 0.483616 0.778360
O O7 0.282957 0.572177 0.908988
O O8 0.698424 0.525168 0.745838
O O9 0.565277 0.250000 0.937409
O O10 0.425123 0.030718 0.937713
O O11 0.500000 0.000000 0.000000
O O12 0.749446 0.750000 0.201415
O O13 0.796700 0.004088 0.225380
O O14 0.010948 0.958707 0.073538
O O15 0.666167 0.250000 0.310525
O O16 0.393251 0.023794 0.400075
O O17 0.314474 0.750000 0.970662
O O18 0.124418 0.250000 0.485929
O O19 0.049936 0.038165 0.573402
O O20 0.000000 0.000000 0.500000
O O21 0.829842 0.250000 0.695341
#
# Coordination Sequence:
#
# PCOD8076847 Si02
#       8
#     4   4   4   4   4   4   4   4
#     4  10  22  40  61  87 119 158 203 245 295 360
#     4  11  22  37  59  89 122 154 196 253 305 354
#     4  11  22  36  57  84 117 159 205 251 296 351
#     4  11  23  39  59  84 118 162 204 244 297 363
#     4  11  24  41  61  90 123 154 196 250 302 351
#     4  10  22  38  56  83 118 155 200 248 298 357
#     4  10  23  42  65  92 122 155 196 245 300 360
#     4  10  21  41  65  88 119 161 203 246 298 363
#
# _framework density 20.319013999999999
#
# number of rings (size 3 to 8) (size 9 to 14) (size 15 to 20)
#    0.000    1.500    1.250    3.375    0.000   10.000 
#    0.000    0.000    0.000    0.000    0.000    0.000 
#    0.000    0.000    0.000    0.000    0.000    0.000 
#
# Total GULP energy -396960.130848 kJ/mol
# GULP energy per Si atom -12405.004089 kJ/mol
# Density = 2.027277 g / cm^3
# Si number density = 20.319014 Si / 1000 Ang^3
#
#
#
# Elastic Constant Matrix: (Units=GPa)
#
#
# Indices 1 2 3 4 5 6 
#
# 1 138.1736 58.6454 47.9872 0.0000 -1.2374 0.0000
# 2 58.6454 84.9396 48.4872 0.0000 -6.2295 0.0000
# 3 47.9872 48.4872 98.3620 0.0000 6.6129 0.0000
# 4 0.0000 0.0000 0.0000 24.4554 0.0000 -2.5041
# 5 -1.2374 -6.2295 6.6129 0.0000 35.9463 0.0000
# 6 0.0000 0.0000 0.0000 -2.5041 0.0000 42.1778
#
#
#
# Elastic Compliance Matrix: (Units=1/GPa)
#
#
# Indices 1 2 3 4 5 6 
#
# 1 0.010562 -0.006102 -0.002125 0.000000 -0.000303 0.000000
# 2 -0.006102 0.020619 -0.007506 0.000000 0.004744 0.000000
# 3 -0.002125 -0.007506 0.015183 0.000000 -0.004167 0.000000
# 4 0.000000 0.000000 0.000000 0.041141 0.000000 0.002443
# 5 -0.000303 0.004744 -0.004167 0.000000 0.029398 0.000000
# 6 0.000000 0.000000 0.000000 0.002443 0.000000 0.023854
#
#
# Mechanical properties :
#
#
# Convention : Reuss Voigt Hill
#
# Bulk Modulus (GPa) = 67.11786 70.19053 68.65420
# Shear Modulus (GPa) = 28.21853 31.60626 29.91240
#
# Velocity S-wave (km/s) = 3.73067 3.94826 3.84101
# Velocity P-wave (km/s) = 7.18756 7.44341 7.31660
#
# Compressibility (1/GPa) = 0.01489916
#
# Stress axis : x y z
#
# Youngs Moduli (GPa) = 94.67609 48.49953 65.86211
#
# Poissons Ratio (x) = 0.29594 0.13993
# Poissons Ratio (y) = 0.57771 0.49436
# Poissons Ratio (z) = 0.20115 0.36403
#
# Static dielectric constant tensor:
#      x y z
#    x 3.696100 0.000000 0.072330 
#    y 0.000000 3.655170 0.000000 
#    z 0.072330 0.000000 3.759630 
# 
# 
# High freq. dielectric constant tensor:
#      x y z
#    x 1.803640 0.000000 0.006800 
#    y 0.000000 1.794350 0.000000 
#    z 0.006800 0.000000 1.794610 
# 
# From -- ./inp_files/73127.got.cif
#   From: 2010.06.25/outbox.cif.g09.slc.cpg/sg11_37_cif.got.tgz:73127.got - 2010.06.27 23:14:04.
