data_PCOD8076661
_publ_section_title
;
Structure prediction by ZEFSAII (Michael W. Deem and Ramdas Pophale) SiO2 
 PCOD8076661
Probable space group: P 21/M
;
_chemical_formula_sum "Si O2"
_cell_formula_units_Z 28
_cell_length_a 9.383367
_cell_length_b 24.463667
_cell_length_c 8.503925
_cell_angle_alpha 90.000000
_cell_angle_beta 43.030764
_cell_angle_gamma 90.000000
_cell_volume 1332.088070
_symmetry_space_group_name_H-M "P 21/M"
_symmetry_group_IT_number 11
_symmetry_cell_setting 'monoclinic'
loop_
_space_group_symop_operation_xyz
x,y,z
-x,1/2+y,-z
-x,-y,-z
x,1/2-y,z
loop_
_atom_site_type_symbol
_atom_site_label
_atom_site_fract_x
_atom_site_fract_y
_atom_site_fract_z
Si Si1 0.700433 0.984213 0.944082
Si Si2 0.072639 0.590031 0.580132
Si Si3 0.187262 0.896926 0.141890
Si Si4 0.472088 0.553658 0.424363
Si Si5 0.445609 0.650936 0.670252
Si Si6 0.870660 0.690113 0.279216
Si Si7 0.960247 0.189570 0.178854
O O1 0.627795 0.948266 0.150491
O O2 0.868988 0.947707 0.711604
O O3 0.500000 0.000000 0.000000
O O4 0.818163 0.039433 0.907200
O O5 0.202957 0.603608 0.317768
O O6 0.229848 0.558517 0.569048
O O7 0.000046 0.647060 0.714170
O O8 0.983796 0.862384 0.261539
O O9 0.384781 0.869994 0.894131
O O10 0.500000 0.500000 0.500000
O O11 0.533555 0.603029 0.488044
O O12 0.637039 0.692202 0.536357
O O13 0.255014 0.680980 0.741027
O O14 0.972581 0.750000 0.238425
O O15 0.860431 0.683721 0.097876
O O16 0.960868 0.250000 0.254488
#
# Coordination Sequence:
#
# PCOD8076661 Si02
#       7
#     4   4   4   4   4   4   4
#     4  12  25  41  62  88 128 171 205 254 308 374
#     4  11  25  40  62  91 126 167 203 256 307 369
#     4  11  24  38  63  89 127 162 201 250 310 367
#     4  11  23  38  60  92 124 159 212 249 308 367
#     4  10  21  39  63  94 121 161 202 255 306 372
#     4  10  22  40  65  90 119 158 204 254 305 363
#     4   9  20  42  64  89 120 157 203 254 307 362
#
# _framework density 21.019629999999999
#
# number of rings (size 3 to 8) (size 9 to 14) (size 15 to 20)
#    0.000    1.429    2.857    1.714    4.000    1.714 
#    0.000    0.000    0.000    0.000    0.000    0.000 
#    0.000    0.000    0.000    0.000    0.000    0.000 
#
# Total GULP energy -347084.475397 kJ/mol
# GULP energy per Si atom -12395.874121 kJ/mol
# Density = 2.097179 g / cm^3
# Si number density = 21.019630 Si / 1000 Ang^3
#
#
#
# Elastic Constant Matrix: (Units=GPa)
#
#
# Indices 1 2 3 4 5 6 
#
# 1 62.3140 39.0623 34.5205 0.0000 3.0562 0.0000
# 2 39.0623 126.4707 53.3939 0.0000 -2.6515 0.0000
# 3 34.5205 53.3939 134.2057 0.0000 8.6446 0.0000
# 4 0.0000 0.0000 0.0000 31.5800 0.0000 0.4479
# 5 3.0562 -2.6515 8.6446 0.0000 30.8481 0.0000
# 6 0.0000 0.0000 0.0000 0.4479 0.0000 26.9641
#
#
#
# Elastic Compliance Matrix: (Units=1/GPa)
#
#
# Indices 1 2 3 4 5 6 
#
# 1 0.021204 -0.005198 -0.003281 0.000000 -0.001628 0.000000
# 2 -0.005198 0.010889 -0.003146 0.000000 0.002332 0.000000
# 3 -0.003281 -0.003146 0.009719 0.000000 -0.002669 0.000000
# 4 0.000000 0.000000 0.000000 0.031673 0.000000 -0.000526
# 5 -0.001628 0.002332 -0.002669 0.000000 0.033527 0.000000
# 6 0.000000 0.000000 0.000000 -0.000526 0.000000 0.037095
#
#
# Mechanical properties :
#
#
# Convention : Reuss Voigt Hill
#
# Bulk Modulus (GPa) = 53.87262 64.10489 58.98875
# Shear Modulus (GPa) = 28.81129 30.94602 29.87866
#
# Velocity S-wave (km/s) = 3.70629 3.84115 3.77432
# Velocity P-wave (km/s) = 6.63331 7.08776 6.86430
#
# Compressibility (1/GPa) = 0.01856231
#
# Stress axis : x y z
#
# Youngs Moduli (GPa) = 47.16156 91.83295 102.89547
#
# Poissons Ratio (x) = 0.47734 0.33762
# Poissons Ratio (y) = 0.24514 0.32366
# Poissons Ratio (z) = 0.15474 0.28887
#
# Static dielectric constant tensor:
#      x y z
#    x 3.610030 0.000000 0.257610 
#    y 0.000000 6.065770 0.000000 
#    z 0.257610 0.000000 4.181860 
# 
# 
# High freq. dielectric constant tensor:
#      x y z
#    x 1.787040 0.000000 0.005270 
#    y 0.000000 1.835840 0.000000 
#    z 0.005270 0.000000 1.840350 
# 
# From -- ./inp_files/15259.got.cif
#   From: 2010.06.25/outbox.cif.g09.slc.cpg/sg11_8_cif.got.tgz:15259.got - 2010.06.27 23:14:04.
