data_PCOD8076739
_publ_section_title
;
Structure prediction by ZEFSAII (Michael W. Deem and Ramdas Pophale) SiO2 
 PCOD8076739
Probable space group: P 21/M
;
_chemical_formula_sum "Si O2"
_cell_formula_units_Z 28
_cell_length_a 13.592422
_cell_length_b 8.523888
_cell_length_c 13.656528
_cell_angle_alpha 90.000000
_cell_angle_beta 60.206289
_cell_angle_gamma 90.000000
_cell_volume 1373.107494
_symmetry_space_group_name_H-M "P 21/M"
_symmetry_group_IT_number 11
_symmetry_cell_setting 'monoclinic'
loop_
_space_group_symop_operation_xyz
x,y,z
-x,1/2+y,-z
-x,-y,-z
x,1/2-y,z
loop_
_atom_site_type_symbol
_atom_site_label
_atom_site_fract_x
_atom_site_fract_y
_atom_site_fract_z
Si Si1 0.171509 0.067037 0.663225
Si Si2 0.547299 0.066053 0.762179
Si Si3 0.301454 0.064855 0.948485
Si Si4 0.115497 0.566007 0.900341
Si Si5 0.732997 0.931366 0.809832
Si Si6 0.983568 0.934535 0.615678
Si Si7 0.594669 0.065724 0.524063
O O1 0.197776 0.250000 0.642276
O O2 0.141904 0.024196 0.788058
O O3 0.281556 0.973816 0.575449
O O4 0.067480 0.023693 0.645874
O O5 0.539136 0.250000 0.755636
O O6 0.426384 0.003125 0.859200
O O7 0.577096 0.992573 0.641338
O O8 0.643448 0.028205 0.792346
O O9 0.284830 0.250000 0.937031
O O10 0.214958 0.965144 0.927443
O O11 0.278211 0.021472 0.071980
O O12 0.103478 0.750000 0.884912
O O13 0.000000 0.500000 0.000000
O O14 0.705725 0.750000 0.806840
O O15 0.857647 0.975288 0.712284
O O16 0.008744 0.750000 0.606681
O O17 0.000000 0.000000 0.500000
O O18 0.580062 0.250000 0.534871
O O19 0.500000 0.000000 0.500000
#
# Coordination Sequence:
#
# PCOD8076739 Si02
#       7
#     4   4   4   4   4   4   4
#     4  12  25  42  64  91 123 163 207 256 310 367
#     4  10  22  38  60  88 121 158 200 249 303 359
#     4  10  21  40  62  89 123 159 200 251 304 360
#     4  12  25  42  65  93 123 160 203 252 307 369
#     4  10  22  38  60  87 119 157 199 247 303 363
#     4  11  23  40  61  89 122 161 207 257 312 372
#     4  11  23  40  62  91 124 162 206 256 310 370
#
# _framework density 20.391701000000001
#
# number of rings (size 3 to 8) (size 9 to 14) (size 15 to 20)
#    0.000    1.143    0.000    6.429    0.000    8.000 
#    0.000    0.000    0.000    0.000    0.000    0.000 
#    0.000    0.000    0.000    0.000    0.000    0.000 
#
# Total GULP energy -347368.361923 kJ/mol
# GULP energy per Si atom -12406.012926 kJ/mol
# Density = 2.034529 g / cm^3
# Si number density = 20.391701 Si / 1000 Ang^3
#
#
#
# Elastic Constant Matrix: (Units=GPa)
#
#
# Indices 1 2 3 4 5 6 
#
# 1 134.9516 22.6127 62.5774 0.0000 5.3250 0.0000
# 2 22.6127 54.8976 16.0591 0.0000 1.7498 0.0000
# 3 62.5774 16.0591 171.8716 0.0000 1.0719 0.0000
# 4 0.0000 0.0000 0.0000 29.7112 0.0000 1.4030
# 5 5.3250 1.7498 1.0719 0.0000 37.3898 0.0000
# 6 0.0000 0.0000 0.0000 1.4030 0.0000 42.0879
#
#
#
# Elastic Compliance Matrix: (Units=1/GPa)
#
#
# Indices 1 2 3 4 5 6 
#
# 1 0.009400 -0.002917 -0.003143 0.000000 -0.001112 0.000000
# 2 -0.002917 0.019658 -0.000772 0.000000 -0.000482 0.000000
# 3 -0.003143 -0.000772 0.007033 0.000000 0.000282 0.000000
# 4 0.000000 0.000000 0.000000 0.033710 0.000000 -0.001124
# 5 -0.001112 -0.000482 0.000282 0.000000 0.026918 0.000000
# 6 0.000000 0.000000 0.000000 -0.001124 0.000000 0.023797
#
#
# Mechanical properties :
#
#
# Convention : Reuss Voigt Hill
#
# Bulk Modulus (GPa) = 44.58736 62.69103 53.63920
# Shear Modulus (GPa) = 35.29650 39.20256 37.24953
#
# Velocity S-wave (km/s) = 4.16495 4.38936 4.27863
# Velocity P-wave (km/s) = 6.71133 7.51657 7.12534
#
# Compressibility (1/GPa) = 0.02242788
#
# Stress axis : x y z
#
# Youngs Moduli (GPa) = 106.38085 50.86874 142.18666
#
# Poissons Ratio (x) = 0.14839 0.44690
# Poissons Ratio (y) = 0.31033 0.10973
# Poissons Ratio (z) = 0.33436 0.03926
#
# Static dielectric constant tensor:
#      x y z
#    x 3.835600 0.000000 -0.070490 
#    y 0.000000 3.697170 0.000000 
#    z -0.070490 0.000000 4.196190 
# 
# 
# High freq. dielectric constant tensor:
#      x y z
#    x 1.815440 0.000000 -0.000010 
#    y 0.000000 1.795820 0.000000 
#    z -0.000010 0.000000 1.822080 
# 
# From -- ./inp_files/49117.got.cif
#   From: 2010.06.25/outbox.cif.g09.slc.cpg/sg11_25_cif.got.tgz:49117.got - 2010.06.27 23:14:04.
