data_PCOD8076575
_publ_section_title
;
Structure prediction by ZEFSAII (Michael W. Deem and Ramdas Pophale) SiO2 
 PCOD8076575
Probable space group: P 21/M
;
_chemical_formula_sum "Si O2"
_cell_formula_units_Z 24
_cell_length_a 21.565790
_cell_length_b 9.049819
_cell_length_c 10.981387
_cell_angle_alpha 90.000000
_cell_angle_beta 32.431988
_cell_angle_gamma 90.000000
_cell_volume 1149.393449
_symmetry_space_group_name_H-M "P 21/M"
_symmetry_group_IT_number 11
_symmetry_cell_setting 'monoclinic'
loop_
_space_group_symop_operation_xyz
x,y,z
-x,1/2+y,-z
-x,-y,-z
x,1/2-y,z
loop_
_atom_site_type_symbol
_atom_site_label
_atom_site_fract_x
_atom_site_fract_y
_atom_site_fract_z
Si Si1 0.470681 0.581967 0.375005
Si Si2 0.673121 0.420607 0.146228
Si Si3 0.262370 0.920491 0.568686
Si Si4 0.066772 0.081359 0.994747
Si Si5 0.124018 0.074663 0.305887
Si Si6 0.152065 0.919711 0.499702
O O1 0.516539 0.750000 0.306575
O O2 0.579965 0.473681 0.198946
O O3 0.381185 0.550450 0.632355
O O4 0.398752 0.554717 0.369061
O O5 0.702510 0.250000 0.073950
O O6 0.790667 0.515986 0.941278
O O7 0.227490 0.750000 0.639046
O O8 0.227336 0.974930 0.491358
O O9 0.192207 0.004831 0.792796
O O10 0.085154 0.250000 0.927831
O O11 0.987149 0.067435 0.247052
O O12 0.000000 0.000000 0.000000
O O13 0.111628 0.250000 0.317580
O O14 0.182296 0.025762 0.337346
O O15 0.000000 0.000000 0.500000
O O16 0.183587 0.750000 0.415806
#
# Coordination Sequence:
#
# PCOD8076575 Si02
#       6
#     4   4   4   4   4   4
#     4   9  19  37  62  90 118 151 190 236 289 340
#     4  10  21  39  61  88 119 152 193 239 285 339
#     4   9  18  33  56  85 116 149 189 237 287 340
#     4   9  17  29  48  76 111 148 185 230 279 332
#     4  12  26  42  61  83 114 154 196 239 288 349
#     4   9  19  36  54  80 116 151 190 238 287 340
#
# _framework density 20.880576999999999
#
# number of rings (size 3 to 8) (size 9 to 14) (size 15 to 20)
#    0.000    2.333    0.000    3.500    2.333    4.667 
#    0.000    0.833    0.000    0.000    0.000    0.000 
#    0.000    0.000    0.000    0.000    0.000    0.000 
#
# Total GULP energy -297500.184201 kJ/mol
# GULP energy per Si atom -12395.841008 kJ/mol
# Density = 2.083305 g / cm^3
# Si number density = 20.880577 Si / 1000 Ang^3
#
#
#
# Elastic Constant Matrix: (Units=GPa)
#
#
# Indices 1 2 3 4 5 6 
#
# 1 69.7266 23.8852 14.4385 0.0000 -14.5004 0.0000
# 2 23.8852 113.2481 38.8480 0.0000 -6.6483 0.0000
# 3 14.4385 38.8480 65.2291 0.0000 -11.8907 0.0000
# 4 0.0000 0.0000 0.0000 37.7108 0.0000 -3.3406
# 5 -14.5004 -6.6483 -11.8907 0.0000 29.1338 0.0000
# 6 0.0000 0.0000 0.0000 -3.3406 0.0000 29.8389
#
#
#
# Elastic Compliance Matrix: (Units=1/GPa)
#
#
# Indices 1 2 3 4 5 6 
#
# 1 0.017051 -0.002929 -0.000653 0.000000 0.007551 0.000000
# 2 -0.002929 0.011601 -0.006530 0.000000 -0.001475 0.000000
# 3 -0.000653 -0.006530 0.020563 0.000000 0.006577 0.000000
# 4 0.000000 0.000000 0.000000 0.026783 0.000000 0.002999
# 5 0.007551 -0.001475 0.006577 0.000000 0.040431 0.000000
# 6 0.000000 0.000000 0.000000 0.002999 0.000000 0.033849
#
#
# Mechanical properties :
#
#
# Convention : Reuss Voigt Hill
#
# Bulk Modulus (GPa) = 34.49346 44.72747 39.61047
# Shear Modulus (GPa) = 27.75221 30.73884 29.24552
#
# Velocity S-wave (km/s) = 3.64963 3.84099 3.74653
# Velocity P-wave (km/s) = 5.85790 6.41390 6.14219
#
# Compressibility (1/GPa) = 0.02899100
#
# Stress axis : x y z
#
# Youngs Moduli (GPa) = 58.64864 86.19757 48.63056
#
# Poissons Ratio (x) = 0.25245 0.03177
# Poissons Ratio (y) = 0.17177 0.31756
# Poissons Ratio (z) = 0.03832 0.56287
#
# Static dielectric constant tensor:
#      x y z
#    x 3.819970 0.000000 -0.109860 
#    y 0.000000 3.941430 0.000000 
#    z -0.109860 0.000000 3.845470 
# 
# 
# High freq. dielectric constant tensor:
#      x y z
#    x 1.815840 0.000000 -0.010720 
#    y 0.000000 1.814230 0.000000 
#    z -0.010720 0.000000 1.798730 
# 
# From -- ./inp_files/43878.got.cif
#   From: 2010.06.25/outbox.cif.g09.slc.cpg/sg11_22_cif.got.tgz:43878.got - 2010.06.27 23:14:04.
