data_PCOD8076835
_publ_section_title
;
Structure prediction by ZEFSAII (Michael W. Deem and Ramdas Pophale) SiO2 
 PCOD8076835
Probable space group: P 21/M
;
_chemical_formula_sum "Si O2"
_cell_formula_units_Z 32
_cell_length_a 11.581158
_cell_length_b 13.922497
_cell_length_c 9.934366
_cell_angle_alpha 90.000000
_cell_angle_beta 83.082154
_cell_angle_gamma 90.000000
_cell_volume 1590.142307
_symmetry_space_group_name_H-M "P 21/M"
_symmetry_group_IT_number 11
_symmetry_cell_setting 'monoclinic'
loop_
_space_group_symop_operation_xyz
x,y,z
-x,1/2+y,-z
-x,-y,-z
x,1/2-y,z
loop_
_atom_site_type_symbol
_atom_site_label
_atom_site_fract_x
_atom_site_fract_y
_atom_site_fract_z
Si Si1 0.064321 0.564484 0.380332
Si Si2 0.203063 0.856203 0.591422
Si Si3 0.702351 0.637937 0.078961
Si Si4 0.311320 0.145775 0.418395
Si Si5 0.463051 0.891445 0.482794
Si Si6 0.737467 0.977977 0.819446
Si Si7 0.171857 0.439912 0.678053
Si Si8 0.558884 0.141888 0.826772
O O1 0.146446 0.639090 0.448729
O O2 0.139849 0.505840 0.262416
O O3 0.000000 0.500000 0.500000
O O4 0.956477 0.609787 0.309732
O O5 0.172218 0.750000 0.654728
O O6 0.341316 0.866376 0.566981
O O7 0.157596 0.943351 0.692788
O O8 0.729121 0.750000 0.058401
O O9 0.753035 0.604017 0.213977
O O10 0.564923 0.616521 0.088738
O O11 0.765101 0.579033 0.952208
O O12 0.249699 0.250000 0.406456
O O13 0.437276 0.170500 0.461019
O O14 0.236376 0.077933 0.526776
O O15 0.329379 0.091597 0.274819
O O16 0.456812 0.864502 0.329257
O O17 0.500000 0.000000 0.500000
O O18 0.657802 0.069915 0.865460
O O19 0.596623 0.250000 0.861353
#
# Coordination Sequence:
#
# PCOD8076835 Si02
#       8
#     4   4   4   4   4   4   4   4
#     4  10  21  41  62  91 124 159 207 262 313 360
#     4  11  21  36  62  94 126 161 206 261 320 372
#     4  11  25  43  64  91 126 168 207 254 316 376
#     4  12  22  35  61  92 122 160 210 260 311 370
#     4  12  18  34  59  90 126 159 201 261 315 367
#     4  12  23  42  63  91 129 162 208 261 312 367
#     4  11  22  42  62  89 126 165 210 261 311 367
#     4  11  21  38  63  89 122 166 207 246 312 388
#
# _framework density 20.123987
#
# number of rings (size 3 to 8) (size 9 to 14) (size 15 to 20)
#    0.000    0.750    7.500    2.250    0.000    1.500 
#    0.000    1.250    0.000    0.000    0.000    0.000 
#    0.000    0.000    0.000    0.000    0.000    0.000 
#
# Total GULP energy -396674.141024 kJ/mol
# GULP energy per Si atom -12396.066907 kJ/mol
# Density = 2.007818 g / cm^3
# Si number density = 20.123987 Si / 1000 Ang^3
#
#
#
# Elastic Constant Matrix: (Units=GPa)
#
#
# Indices 1 2 3 4 5 6 
#
# 1 110.4456 37.6317 15.9920 0.0000 0.2829 0.0000
# 2 37.6317 128.1956 22.7283 0.0000 4.9227 0.0000
# 3 15.9920 22.7283 61.7495 0.0000 -3.6374 0.0000
# 4 0.0000 0.0000 0.0000 22.0310 0.0000 -1.9356
# 5 0.2829 4.9227 -3.6374 0.0000 20.2724 0.0000
# 6 0.0000 0.0000 0.0000 -1.9356 0.0000 3.0531
#
#
#
# Elastic Compliance Matrix: (Units=1/GPa)
#
#
# Indices 1 2 3 4 5 6 
#
# 1 0.010216 -0.002718 -0.001632 0.000000 0.000225 0.000000
# 2 -0.002718 0.009207 -0.002844 0.000000 -0.002708 0.000000
# 3 -0.001632 -0.002844 0.017895 0.000000 0.003924 0.000000
# 4 0.000000 0.000000 0.000000 0.048068 0.000000 0.030474
# 5 0.000225 -0.002708 0.003924 0.000000 0.050687 0.000000
# 6 0.000000 0.000000 0.000000 0.030474 0.000000 0.346860
#
#
# Mechanical properties :
#
#
# Convention : Reuss Voigt Hill
#
# Bulk Modulus (GPa) = 43.61298 50.34386 46.97842
# Shear Modulus (GPa) = 9.90169 24.00720 16.95444
#
# Velocity S-wave (km/s) = 2.22059 3.45768 2.90573
# Velocity P-wave (km/s) = 5.31920 6.40405 5.88667
#
# Compressibility (1/GPa) = 0.02292895
#
# Stress axis : x y z
#
# Youngs Moduli (GPa) = 97.88437 108.61561 55.88091
#
# Poissons Ratio (x) = 0.29524 0.09120
# Poissons Ratio (y) = 0.26607 0.15894
# Poissons Ratio (z) = 0.15975 0.30894
#
# Static dielectric constant tensor:
#      x y z
#    x 4.123400 0.000000 0.156100 
#    y 0.000000 4.118030 0.000000 
#    z 0.156100 0.000000 3.369450 
# 
# 
# High freq. dielectric constant tensor:
#      x y z
#    x 1.792020 0.000000 0.005580 
#    y 0.000000 1.795040 0.000000 
#    z 0.005580 0.000000 1.751240 
# 
# From -- ./inp_files/18088.got.cif
#   From: 2010.06.25/outbox.cif.g09.slc.cpg/sg11_10_cif.got.tgz:18088.got - 2010.06.27 23:14:04.
