data_PCOD8076866
_publ_section_title
;
Structure prediction by ZEFSAII (Michael W. Deem and Ramdas Pophale) SiO2 
 PCOD8076866
Probable space group: P 21/M
;
_chemical_formula_sum "Si O2"
_cell_formula_units_Z 28
_cell_length_a 5.565174
_cell_length_b 31.687962
_cell_length_c 9.128089
_cell_angle_alpha 90.000000
_cell_angle_beta 125.859033
_cell_angle_gamma 90.000000
_cell_volume 1304.622546
_symmetry_space_group_name_H-M "P 21/M"
_symmetry_group_IT_number 11
_symmetry_cell_setting 'monoclinic'
loop_
_space_group_symop_operation_xyz
x,y,z
-x,1/2+y,-z
-x,-y,-z
x,1/2-y,z
loop_
_atom_site_type_symbol
_atom_site_label
_atom_site_fract_x
_atom_site_fract_y
_atom_site_fract_z
Si Si1 0.743391 0.051147 0.697514
Si Si2 0.668287 0.994438 0.208168
Si Si3 0.817444 0.646682 0.796331
Si Si4 0.611595 0.076708 0.357379
Si Si5 0.753470 0.358086 0.793474
Si Si6 0.705055 0.200842 0.499027
Si Si7 0.907872 0.641037 0.499418
O O1 0.553960 0.028987 0.757888
O O2 0.511188 0.057937 0.480018
O O3 0.879042 0.095327 0.803889
O O4 0.015277 0.025693 0.718728
O O5 0.725866 0.041264 0.288654
O O6 0.500000 0.000000 0.000000
O O7 0.644856 0.606168 0.803317
O O8 0.601851 0.686352 0.687061
O O9 0.935407 0.631849 0.681496
O O10 0.080156 0.659371 0.001634
O O11 0.882016 0.107027 0.502577
O O12 0.783013 0.323578 0.676737
O O13 0.403646 0.364236 0.693253
O O14 0.693885 0.250000 0.527178
O O15 0.972770 0.188810 0.485167
#
# Coordination Sequence:
#
# PCOD8076866 Si02
#       7
#     4   4   4   4   4   4   4
#     4  12  24  43  67  98 140 191 236 289 351 415
#     4  12  28  41  65 103 142 186 245 297 346 406
#     4  10  23  41  69  96 135 173 228 277 346 416
#     4  11  23  43  64  96 136 186 231 286 346 409
#     4  11  23  42  69  99 133 179 228 281 347 412
#     4  10  23  45  68  96 135 171 219 282 352 426
#     4  10  21  41  66  98 133 176 225 277 353 411
#
# _framework density 21.462147999999999
#
# number of rings (size 3 to 8) (size 9 to 14) (size 15 to 20)
#    0.000    1.143    4.286    3.000    4.000    5.143 
#    0.000    0.000    0.000    0.000    0.000    0.000 
#    0.000    0.000    0.000    0.000    0.000    0.000 
#
# Total GULP energy -346902.327134 kJ/mol
# GULP energy per Si atom -12389.368826 kJ/mol
# Density = 2.141330 g / cm^3
# Si number density = 21.462148 Si / 1000 Ang^3
#
#
#
# Elastic Constant Matrix: (Units=GPa)
#
#
# Indices 1 2 3 4 5 6 
#
# 1 113.9650 47.7492 46.5010 0.0000 -7.1615 0.0000
# 2 47.7492 141.4732 42.9460 0.0000 -4.4232 0.0000
# 3 46.5010 42.9460 165.7246 0.0000 16.8005 0.0000
# 4 0.0000 0.0000 0.0000 19.1305 0.0000 -6.2550
# 5 -7.1615 -4.4232 16.8005 0.0000 19.2320 0.0000
# 6 0.0000 0.0000 0.0000 -6.2550 0.0000 19.9025
#
#
#
# Elastic Compliance Matrix: (Units=1/GPa)
#
#
# Indices 1 2 3 4 5 6 
#
# 1 0.011649 -0.002752 -0.003216 0.000000 0.006514 0.000000
# 2 -0.002752 0.008590 -0.001701 0.000000 0.002437 0.000000
# 3 -0.003216 -0.001701 0.008271 0.000000 -0.008814 0.000000
# 4 0.000000 0.000000 0.000000 0.058259 0.000000 0.018310
# 5 0.006514 0.002437 -0.008814 0.000000 0.062682 0.000000
# 6 0.000000 0.000000 0.000000 0.018310 0.000000 0.055999
#
#
# Mechanical properties :
#
#
# Convention : Reuss Voigt Hill
#
# Bulk Modulus (GPa) = 75.91618 77.28389 76.60003
# Shear Modulus (GPa) = 22.20461 30.58412 26.39436
#
# Velocity S-wave (km/s) = 3.22000 3.77905 3.51067
# Velocity P-wave (km/s) = 7.01951 7.42490 7.22505
#
# Compressibility (1/GPa) = 0.01317242
#
# Stress axis : x y z
#
# Youngs Moduli (GPa) = 85.84322 116.41778 120.90842
#
# Poissons Ratio (x) = 0.32036 0.38883
# Poissons Ratio (y) = 0.23623 0.20564
# Poissons Ratio (z) = 0.27607 0.19801
#
# Static dielectric constant tensor:
#      x y z
#    x 4.122250 0.000000 -0.043210 
#    y 0.000000 3.571640 0.000000 
#    z -0.043210 0.000000 3.867340 
# 
# 
# High freq. dielectric constant tensor:
#      x y z
#    x 1.848980 0.000000 -0.006460 
#    y 0.000000 1.835350 0.000000 
#    z -0.006460 0.000000 1.841050 
# 
# From -- ./inp_files/10877.got.cif
#   From: 2010.06.25/outbox.cif.g09.slc.cpg/sg11_6_cif.got.tgz:10877.got - 2010.06.27 23:14:04.
