data_PCOD8076507
_publ_section_title
;
Structure prediction by ZEFSAII (Michael W. Deem and Ramdas Pophale) SiO2 
 PCOD8076507
Probable space group: P 21/M
;
_chemical_formula_sum "Si O2"
_cell_formula_units_Z 28
_cell_length_a 9.241429
_cell_length_b 15.053498
_cell_length_c 19.554439
_cell_angle_alpha 90.000000
_cell_angle_beta 29.285488
_cell_angle_gamma 90.000000
_cell_volume 1330.681869
_symmetry_space_group_name_H-M "P 21/M"
_symmetry_group_IT_number 11
_symmetry_cell_setting 'monoclinic'
loop_
_space_group_symop_operation_xyz
x,y,z
-x,1/2+y,-z
-x,-y,-z
x,1/2-y,z
loop_
_atom_site_type_symbol
_atom_site_label
_atom_site_fract_x
_atom_site_fract_y
_atom_site_fract_z
Si Si1 0.624075 0.849452 0.541451
Si Si2 0.209387 0.149096 0.781206
Si Si3 0.160478 0.516032 0.144203
Si Si4 0.702816 0.147860 0.465591
Si Si5 0.033952 0.651490 0.844397
Si Si6 0.901307 0.483682 0.680434
Si Si7 0.256100 0.429951 0.905576
O O1 0.757693 0.750000 0.479368
O O2 0.457401 0.876060 0.539611
O O3 0.393957 0.852536 0.700555
O O4 0.885536 0.918776 0.451160
O O5 0.098568 0.250000 0.819604
O O6 0.478709 0.128964 0.619855
O O7 0.307905 0.130955 0.818122
O O8 0.940357 0.083361 0.873507
O O9 0.076289 0.555985 0.252176
O O10 0.029102 0.417995 0.189403
O O11 0.500000 0.500000 0.000000
O O12 0.811615 0.250000 0.420725
O O13 0.984843 0.085189 0.365304
O O14 0.939994 0.750000 0.858404
O O15 0.855312 0.631890 0.986913
O O16 0.564102 0.480079 0.793882
O O17 0.000000 0.500000 0.000000
#
# Coordination Sequence:
#
# PCOD8076507 Si02
#       7
#     4   4   4   4   4   4   4
#     4  10  21  38  65 102 132 163 215 277 336 385
#     4  11  24  44  66  90 135 181 217 268 329 395
#     4  12  22  40  64 101 129 166 225 272 327 388
#     4  10  21  39  66 101 132 167 216 272 334 392
#     4  11  23  41  66  92 133 172 210 270 330 387
#     4  12  23  39  73  99 131 171 219 281 324 390
#     4  12  26  46  65  92 135 181 224 263 328 393
#
# _framework density 21.041843
#
# number of rings (size 3 to 8) (size 9 to 14) (size 15 to 20)
#    0.000    0.857    5.714    1.714    0.000    2.286 
#    0.000    2.857    0.000    0.000    0.000    0.000 
#    0.000    0.000    0.000    0.000    0.000    0.000 
#
# Total GULP energy -347088.679713 kJ/mol
# GULP energy per Si atom -12396.024275 kJ/mol
# Density = 2.099395 g / cm^3
# Si number density = 21.041843 Si / 1000 Ang^3
#
#
#
# Elastic Constant Matrix: (Units=GPa)
#
#
# Indices 1 2 3 4 5 6 
#
# 1 74.7560 33.3851 45.3678 0.0000 -9.5634 0.0000
# 2 33.3851 133.8083 57.7415 0.0000 -30.9587 0.0000
# 3 45.3678 57.7415 128.9500 0.0000 -13.1029 0.0000
# 4 0.0000 0.0000 0.0000 30.4236 0.0000 8.6172
# 5 -9.5634 -30.9587 -13.1029 0.0000 38.0065 0.0000
# 6 0.0000 0.0000 0.0000 8.6172 0.0000 10.0675
#
#
#
# Elastic Compliance Matrix: (Units=1/GPa)
#
#
# Indices 1 2 3 4 5 6 
#
# 1 0.017515 -0.001868 -0.005215 0.000000 0.001088 0.000000
# 2 -0.001868 0.011214 -0.003610 0.000000 0.007420 0.000000
# 3 -0.005215 -0.003610 0.011165 0.000000 -0.000404 0.000000
# 4 0.000000 0.000000 0.000000 0.043388 0.000000 -0.037137
# 5 0.001088 0.007420 -0.000404 0.000000 0.032490 0.000000
# 6 0.000000 0.000000 0.000000 -0.037137 0.000000 0.131116
#
#
# Mechanical properties :
#
#
# Convention : Reuss Voigt Hill
#
# Bulk Modulus (GPa) = 54.03164 67.83367 60.93266
# Shear Modulus (GPa) = 18.21860 29.10087 23.65973
#
# Velocity S-wave (km/s) = 2.94569 3.72291 3.35687
# Velocity P-wave (km/s) = 6.10765 7.12654 6.63667
#
# Compressibility (1/GPa) = 0.01850768
#
# Stress axis : x y z
#
# Youngs Moduli (GPa) = 57.09302 89.17375 89.56182
#
# Poissons Ratio (x) = 0.16656 0.46710
# Poissons Ratio (y) = 0.10664 0.32335
# Poissons Ratio (z) = 0.29776 0.32195
#
# Static dielectric constant tensor:
#      x y z
#    x 4.033010 0.000000 0.635630 
#    y 0.000000 3.807320 0.000000 
#    z 0.635630 0.000000 4.313280 
# 
# 
# High freq. dielectric constant tensor:
#      x y z
#    x 1.797130 0.000000 0.017740 
#    y 0.000000 1.833250 0.000000 
#    z 0.017740 0.000000 1.839470 
# 
# From -- ./inp_files/63871.got.cif
#   From: 2010.06.25/outbox.cif.g09.slc.cpg/sg11_32_cif.got.tgz:63871.got - 2010.06.27 23:14:04.
