data_PCOD8076773
_publ_section_title
;
Structure prediction by ZEFSAII (Michael W. Deem and Ramdas Pophale) SiO2 
 PCOD8076773
Probable space group: P 21/M
;
_chemical_formula_sum "Si O2"
_cell_formula_units_Z 28
_cell_length_a 11.916845
_cell_length_b 8.555574
_cell_length_c 15.658873
_cell_angle_alpha 90.000000
_cell_angle_beta 56.606322
_cell_angle_gamma 90.000000
_cell_volume 1332.937781
_symmetry_space_group_name_H-M "P 21/M"
_symmetry_group_IT_number 11
_symmetry_cell_setting 'monoclinic'
loop_
_space_group_symop_operation_xyz
x,y,z
-x,1/2+y,-z
-x,-y,-z
x,1/2-y,z
loop_
_atom_site_type_symbol
_atom_site_label
_atom_site_fract_x
_atom_site_fract_y
_atom_site_fract_z
Si Si1 0.869788 0.567090 0.509235
Si Si2 0.142692 0.067952 0.964038
Si Si3 0.683158 0.430997 0.252993
Si Si4 0.141718 0.933468 0.140776
Si Si5 0.404344 0.066832 0.300934
Si Si6 0.125453 0.569646 0.676932
Si Si7 0.602493 0.934966 0.887634
O O1 0.872577 0.750000 0.522883
O O2 0.734853 0.490696 0.607047
O O3 0.869892 0.534469 0.408857
O O4 0.000000 0.500000 0.500000
O O5 0.130580 0.250000 0.990130
O O6 0.243162 0.042464 0.844350
O O7 0.197955 0.977024 0.023747
O O8 0.000000 0.000000 0.000000
O O9 0.705870 0.250000 0.217168
O O10 0.525558 0.476702 0.314745
O O11 0.739840 0.461585 0.324132
O O12 0.118266 0.750000 0.159650
O O13 0.250319 0.991010 0.163518
O O14 0.001831 0.022453 0.212762
O O15 0.380797 0.250000 0.309886
O O16 0.442327 0.013177 0.188808
O O17 0.113356 0.750000 0.655594
O O18 0.610547 0.750000 0.894974
O O19 0.500000 0.000000 0.000000
#
# Coordination Sequence:
#
# PCOD8076773 Si02
#       7
#     4   4   4   4   4   4   4
#     4  11  23  42  67  92 122 160 210 262 316 377
#     4  12  23  37  59  90 127 166 209 256 311 374
#     4  10  21  40  64  90 125 166 209 255 312 379
#     4  12  24  39  61  89 125 166 214 264 316 373
#     4   9  21  41  64  89 121 164 206 257 315 370
#     4  11  23  39  62  92 125 160 205 258 316 378
#     4  11  22  39  63  92 127 164 210 261 318 378
#
# _framework density 21.006233000000002
#
# number of rings (size 3 to 8) (size 9 to 14) (size 15 to 20)
#    0.000    1.143    1.429    5.571    0.000    3.429 
#    0.000    4.286    0.000    0.000    0.000    0.000 
#    0.000    0.000    0.000    0.000    0.000    0.000 
#
# Total GULP energy -347294.294684 kJ/mol
# GULP energy per Si atom -12403.367667 kJ/mol
# Density = 2.095842 g / cm^3
# Si number density = 21.006233 Si / 1000 Ang^3
#
#
#
# Elastic Constant Matrix: (Units=GPa)
#
#
# Indices 1 2 3 4 5 6 
#
# 1 171.8997 38.5844 56.3828 0.0000 -1.6615 0.0000
# 2 38.5844 67.7523 17.4393 0.0000 -2.6776 0.0000
# 3 56.3828 17.4393 108.4004 0.0000 -2.1373 0.0000
# 4 0.0000 0.0000 0.0000 31.5362 0.0000 1.4116
# 5 -1.6615 -2.6776 -2.1373 0.0000 36.4982 0.0000
# 6 0.0000 0.0000 0.0000 1.4116 0.0000 29.9179
#
#
#
# Elastic Compliance Matrix: (Units=1/GPa)
#
#
# Indices 1 2 3 4 5 6 
#
# 1 0.007743 -0.003522 -0.003463 0.000000 -0.000109 0.000000
# 2 -0.003522 0.017035 -0.000888 0.000000 0.001037 0.000000
# 3 -0.003463 -0.000888 0.011178 0.000000 0.000432 0.000000
# 4 0.000000 0.000000 0.000000 0.031777 0.000000 -0.001499
# 5 -0.000109 0.001037 0.000432 0.000000 0.027495 0.000000
# 6 0.000000 0.000000 0.000000 -0.001499 0.000000 0.033496
#
#
# Mechanical properties :
#
#
# Convention : Reuss Voigt Hill
#
# Bulk Modulus (GPa) = 49.48255 63.65170 56.56713
# Shear Modulus (GPa) = 33.06759 35.30017 34.18388
#
# Velocity S-wave (km/s) = 3.97190 4.10379 4.03838
# Velocity P-wave (km/s) = 6.68146 7.26787 6.98082
#
# Compressibility (1/GPa) = 0.02020914
#
# Stress axis : x y z
#
# Youngs Moduli (GPa) = 129.15402 58.70200 89.46538
#
# Poissons Ratio (x) = 0.20677 0.30979
# Poissons Ratio (y) = 0.45493 0.07945
# Poissons Ratio (z) = 0.44722 0.05213
#
# Static dielectric constant tensor:
#      x y z
#    x 4.105880 0.000000 -0.111650 
#    y 0.000000 3.732810 0.000000 
#    z -0.111650 0.000000 4.232550 
# 
# 
# High freq. dielectric constant tensor:
#      x y z
#    x 1.841700 0.000000 0.003240 
#    y 0.000000 1.814650 0.000000 
#    z 0.003240 0.000000 1.819200 
# 
# From -- ./inp_files/49162.got.cif
#   From: 2010.06.25/outbox.cif.g09.slc.cpg/sg11_25_cif.got.tgz:49162.got - 2010.06.27 23:14:04.
