data_PCOD8076052
_publ_section_title
;
Structure prediction by ZEFSAII (Michael W. Deem and Ramdas Pophale) SiO2 
 PCOD8076052
Probable space group: P 21/M
;
_chemical_formula_sum "Si O2"
_cell_formula_units_Z 28
_cell_length_a 10.857611
_cell_length_b 8.868095
_cell_length_c 15.242590
_cell_angle_alpha 90.000000
_cell_angle_beta 68.533858
_cell_angle_gamma 90.000000
_cell_volume 1365.847746
_symmetry_space_group_name_H-M "P 21/M"
_symmetry_group_IT_number 11
_symmetry_cell_setting 'monoclinic'
loop_
_space_group_symop_operation_xyz
x,y,z
-x,1/2+y,-z
-x,-y,-z
x,1/2-y,z
loop_
_atom_site_type_symbol
_atom_site_label
_atom_site_fract_x
_atom_site_fract_y
_atom_site_fract_z
Si Si1 0.077560 0.426566 0.223484
Si Si2 0.326297 0.572661 0.771025
Si Si3 0.692646 0.418407 0.913103
Si Si4 0.588610 0.918302 0.098613
Si Si5 0.640372 0.428747 0.437636
Si Si6 0.065321 0.426710 0.899794
Si Si7 0.922344 0.073327 0.439350
O O1 0.062682 0.250000 0.207918
O O2 0.229365 0.481060 0.179831
O O3 0.008208 0.523824 0.168081
O O4 0.010367 0.468047 0.332751
O O5 0.304688 0.750000 0.780088
O O6 0.445238 0.515156 0.803013
O O7 0.336210 0.518960 0.668426
O O8 0.213494 0.484129 0.852454
O O9 0.754417 0.250000 0.906314
O O10 0.545086 0.404528 0.919309
O O11 0.696085 0.498419 0.007641
O O12 0.640849 0.750000 0.107381
O O13 0.500000 0.500000 0.500000
O O14 0.626019 0.250000 0.447592
O O15 0.768464 0.482064 0.462806
O O16 0.060733 0.250000 0.911962
O O17 0.000000 0.500000 0.000000
O O18 0.918147 0.250000 0.457800
O O19 0.000000 0.000000 0.500000
#
# Coordination Sequence:
#
# PCOD8076052 Si02
#       7
#     4   4   4   4   4   4   4
#     4  11  22  40  62  86 122 160 202 254 312 372
#     4  11  22  40  62  86 122 160 202 254 312 372
#     4  10  21  37  57  85 122 163 208 254 305 369
#     4  10  21  37  57  85 122 163 208 254 305 369
#     4  10  23  44  67  93 127 165 211 268 327 388
#     4  12  24  38  60  90 124 162 204 248 305 372
#     4  10  23  44  67  93 127 165 211 268 327 388
#
# _framework density 20.500088000000002
#
# number of rings (size 3 to 8) (size 9 to 14) (size 15 to 20)
#    0.000    1.429    1.429    3.857    0.000    5.714 
#    0.000    5.714    0.000    0.000    0.000    0.000 
#    0.000    0.000    0.000    0.000    0.000    0.000 
#
# Total GULP energy -347009.456640 kJ/mol
# GULP energy per Si atom -12393.194880 kJ/mol
# Density = 2.045343 g / cm^3
# Si number density = 20.500088 Si / 1000 Ang^3
#
#
#
# Elastic Constant Matrix: (Units=GPa)
#
#
# Indices 1 2 3 4 5 6 
#
# 1 97.5422 42.6180 68.8752 0.0000 7.7772 0.0000
# 2 42.6180 110.0057 64.4444 0.0000 6.7243 0.0000
# 3 68.8752 64.4444 131.3713 0.0000 14.7289 0.0000
# 4 0.0000 0.0000 0.0000 37.5969 0.0000 1.0067
# 5 7.7772 6.7243 14.7289 0.0000 32.7454 0.0000
# 6 0.0000 0.0000 0.0000 1.0067 0.0000 34.5925
#
#
#
# Elastic Compliance Matrix: (Units=1/GPa)
#
#
# Indices 1 2 3 4 5 6 
#
# 1 0.016546 -0.001864 -0.007754 0.000000 -0.000059 0.000000
# 2 -0.001864 0.012968 -0.005408 0.000000 0.000212 0.000000
# 3 -0.007754 -0.005408 0.014742 0.000000 -0.003679 0.000000
# 4 0.000000 0.000000 0.000000 0.026619 0.000000 -0.000775
# 5 -0.000059 0.000212 -0.003679 0.000000 0.032164 0.000000
# 6 0.000000 0.000000 0.000000 -0.000775 0.000000 0.028931
#
#
# Mechanical properties :
#
#
# Convention : Reuss Voigt Hill
#
# Bulk Modulus (GPa) = 70.39817 76.75493 73.57655
# Shear Modulus (GPa) = 29.98399 31.85239 30.91819
#
# Velocity S-wave (km/s) = 3.82858 3.94606 3.88777
# Velocity P-wave (km/s) = 7.34568 7.63442 7.49144
#
# Compressibility (1/GPa) = 0.01420491
#
# Stress axis : x y z
#
# Youngs Moduli (GPa) = 60.43710 77.11448 67.83207
#
# Poissons Ratio (x) = 0.14377 0.52594
# Poissons Ratio (y) = 0.11268 0.36682
# Poissons Ratio (z) = 0.46860 0.41701
#
# Static dielectric constant tensor:
#      x y z
#    x 4.465400 0.000000 -0.145460 
#    y 0.000000 3.878900 0.000000 
#    z -0.145460 0.000000 3.782240 
# 
# 
# High freq. dielectric constant tensor:
#      x y z
#    x 1.815930 0.000000 0.005820 
#    y 0.000000 1.808930 0.000000 
#    z 0.005820 0.000000 1.798640 
# 
# From -- ./inp_files/49179.got.cif
#   From: 2010.06.25/outbox.cif.g09.slc.cpg/sg11_25_cif.got.tgz:49179.got - 2010.06.27 23:14:04.
