data_PCOD8076034
_publ_section_title
;
Structure prediction by ZEFSAII (Michael W. Deem and Ramdas Pophale) SiO2 
 PCOD8076034
Probable space group: P 21/M
;
_chemical_formula_sum "Si O2"
_cell_formula_units_Z 28
_cell_length_a 8.937919
_cell_length_b 8.963474
_cell_length_c 28.690063
_cell_angle_alpha 90.000000
_cell_angle_beta 141.088332
_cell_angle_gamma 90.000000
_cell_volume 1443.736577
_symmetry_space_group_name_H-M "P 21/M"
_symmetry_group_IT_number 11
_symmetry_cell_setting 'monoclinic'
loop_
_space_group_symop_operation_xyz
x,y,z
-x,1/2+y,-z
-x,-y,-z
x,1/2-y,z
loop_
_atom_site_type_symbol
_atom_site_label
_atom_site_fract_x
_atom_site_fract_y
_atom_site_fract_z
Si Si1 0.910027 0.575350 0.431753
Si Si2 0.970767 0.424209 0.719419
Si Si3 0.626483 0.075839 0.720980
Si Si4 0.177559 0.425892 0.141091
Si Si5 0.672420 0.926652 0.004663
Si Si6 0.527412 0.075356 0.143376
Si Si7 0.247922 0.573368 0.430196
O O1 0.934222 0.750000 0.444805
O O2 0.639128 0.529092 0.357040
O O3 0.000000 0.500000 0.500000
O O4 0.067573 0.520390 0.426576
O O5 0.017713 0.250000 0.726423
O O6 0.221172 0.498879 0.789363
O O7 0.793800 0.463275 0.718266
O O8 0.856274 0.485532 0.643992
O O9 0.643220 0.250000 0.739003
O O10 0.701430 0.972167 0.781568
O O11 0.125442 0.250000 0.128243
O O12 0.350884 0.474837 0.141457
O O13 0.935793 0.515120 0.076531
O O14 0.668281 0.750000 0.010281
O O15 0.587804 0.976051 0.933062
O O16 0.500000 0.000000 0.000000
O O17 0.572201 0.250000 0.155142
O O18 0.500000 0.500000 0.500000
O O19 0.281160 0.750000 0.437438
#
# Coordination Sequence:
#
# PCOD8076034 Si02
#       7
#     4   4   4   4   4   4   4
#     4  10  21  37  58  83 113 148 189 233 282 337
#     4  10  21  37  59  84 111 145 187 231 279 333
#     4  10  21  38  59  84 113 148 188 233 283 336
#     4  11  23  39  59  85 115 149 189 232 278 332
#     4  11  23  40  61  86 116 150 188 232 280 333
#     4  10  23  40  58  83 115 149 187 230 278 331
#     4  10  21  37  57  83 112 147 188 231 279 334
#
# _framework density 19.394120000000001
#
# number of rings (size 3 to 8) (size 9 to 14) (size 15 to 20)
#    0.000    1.714    0.000    3.857    0.000    9.143 
#    0.000    0.000    0.000    0.000    0.000    0.000 
#    0.000    0.000    0.000    0.000    0.000    0.000 
#
# Total GULP energy -347346.880634 kJ/mol
# GULP energy per Si atom -12405.245737 kJ/mol
# Density = 1.934998 g / cm^3
# Si number density = 19.394120 Si / 1000 Ang^3
#
#
#
# Elastic Constant Matrix: (Units=GPa)
#
#
# Indices 1 2 3 4 5 6 
#
# 1 167.6573 42.4887 89.6729 0.0000 5.3013 0.0000
# 2 42.4887 38.0184 47.2984 0.0000 3.0912 0.0000
# 3 89.6729 47.2984 169.3744 0.0000 1.7650 0.0000
# 4 0.0000 0.0000 0.0000 40.8177 0.0000 2.4293
# 5 5.3013 3.0912 1.7650 0.0000 44.6971 0.0000
# 6 0.0000 0.0000 0.0000 2.4293 0.0000 33.3291
#
#
#
# Elastic Compliance Matrix: (Units=1/GPa)
#
#
# Indices 1 2 3 4 5 6 
#
# 1 0.009279 -0.006470 -0.003101 0.000000 -0.000531 0.000000
# 2 -0.006470 0.045064 -0.009138 0.000000 -0.001988 0.000000
# 3 -0.003101 -0.009138 0.010091 0.000000 0.000601 0.000000
# 4 0.000000 0.000000 0.000000 0.024606 0.000000 -0.001794
# 5 -0.000531 -0.001988 0.000601 0.000000 0.022550 0.000000
# 6 0.000000 0.000000 0.000000 -0.001794 0.000000 0.030135
#
#
# Mechanical properties :
#
#
# Convention : Reuss Voigt Hill
#
# Bulk Modulus (GPa) = 37.01316 81.55226 59.28271
# Shear Modulus (GPa) = 26.57485 36.80812 31.69149
#
# Velocity S-wave (km/s) = 3.70571 4.36122 4.04676
# Velocity P-wave (km/s) = 6.11849 8.21593 7.24353
#
# Compressibility (1/GPa) = 0.02701741
#
# Stress axis : x y z
#
# Youngs Moduli (GPa) = 107.76659 22.19056 99.09596
#
# Poissons Ratio (x) = 0.14357 0.30725
# Poissons Ratio (y) = 0.69724 0.90556
# Poissons Ratio (z) = 0.33413 0.20278
#
# Static dielectric constant tensor:
#      x y z
#    x 4.133040 0.000000 0.264230 
#    y 0.000000 3.473020 0.000000 
#    z 0.264230 0.000000 4.039920 
# 
# 
# High freq. dielectric constant tensor:
#      x y z
#    x 1.777640 0.000000 -0.000460 
#    y 0.000000 1.748850 0.000000 
#    z -0.000460 0.000000 1.774190 
# 
# From -- ./inp_files/28350.got.cif
#   From: 2010.06.25/outbox.cif.g09.slc.cpg/sg11_15_cif.got.tgz:28350.got - 2010.06.27 23:14:04.
