data_PCOD8076046
_publ_section_title
;
Structure prediction by ZEFSAII (Michael W. Deem and Ramdas Pophale) SiO2 
 PCOD8076046
Probable space group: P 21/M
;
_chemical_formula_sum "Si O2"
_cell_formula_units_Z 32
_cell_length_a 14.210644
_cell_length_b 8.902069
_cell_length_c 24.052965
_cell_angle_alpha 90.000000
_cell_angle_beta 149.352686
_cell_angle_gamma 90.000000
_cell_volume 1551.073219
_symmetry_space_group_name_H-M "P 21/M"
_symmetry_group_IT_number 11
_symmetry_cell_setting 'monoclinic'
loop_
_space_group_symop_operation_xyz
x,y,z
-x,1/2+y,-z
-x,-y,-z
x,1/2-y,z
loop_
_atom_site_type_symbol
_atom_site_label
_atom_site_fract_x
_atom_site_fract_y
_atom_site_fract_z
Si Si1 0.659190 0.073231 0.543974
Si Si2 0.574101 0.073513 0.375692
Si Si3 0.197879 0.071355 0.606594
Si Si4 0.711387 0.071977 0.028292
Si Si5 0.681305 0.574307 0.212343
Si Si6 0.157587 0.418291 0.009019
Si Si7 0.258955 0.918077 0.164635
Si Si8 0.923237 0.925952 0.233799
O O1 0.636552 0.250000 0.538909
O O2 0.639402 0.025090 0.469887
O O3 0.864462 0.021509 0.667184
O O4 0.500000 0.000000 0.500000
O O5 0.600044 0.250000 0.379042
O O6 0.681395 0.980429 0.383840
O O7 0.361234 0.023042 0.261620
O O8 0.179898 0.250000 0.598272
O O9 0.285041 0.009562 0.708793
O O10 0.000000 0.000000 0.500000
O O11 0.720583 0.250000 0.032609
O O12 0.782097 0.014521 0.123227
O O13 0.505903 0.008547 0.910539
O O14 0.848693 0.005552 0.052065
O O15 0.651861 0.750000 0.202321
O O16 0.858859 0.537909 0.264075
O O17 0.236788 0.250000 0.042164
O O18 0.285898 0.509352 0.117336
O O19 0.952252 0.410970 0.926991
O O20 0.344055 0.750000 0.206348
O O21 0.904710 0.750000 0.211393
#
# Coordination Sequence:
#
# PCOD8076046 Si02
#       8
#     4   4   4   4   4   4   4   4
#     4  10  24  43  64  88 119 160 208 260 313 372
#     4  11  23  40  62  90 121 158 203 250 308 373
#     4  11  22  39  64  93 125 163 205 254 312 373
#     4  11  22  36  59  90 122 158 203 254 305 364
#     4   9  20  39  62  87 122 162 201 247 306 367
#     4  10  21  37  57  84 119 160 202 246 301 365
#     4  10  21  37  58  85 118 156 200 251 305 360
#     4  10  21  41  63  84 117 161 205 254 310 370
#
# _framework density 20.630877000000002
#
# number of rings (size 3 to 8) (size 9 to 14) (size 15 to 20)
#    0.000    1.750    0.000    3.750    1.750    6.000 
#    0.000    5.000    0.000    0.000    0.000    0.000 
#    0.000    0.000    0.000    0.000    0.000    0.000 
#
# Total GULP energy -396809.043032 kJ/mol
# GULP energy per Si atom -12400.282595 kJ/mol
# Density = 2.058392 g / cm^3
# Si number density = 20.630877 Si / 1000 Ang^3
#
#
#
# Elastic Constant Matrix: (Units=GPa)
#
#
# Indices 1 2 3 4 5 6 
#
# 1 119.7823 44.9986 58.3850 0.0000 -10.7806 0.0000
# 2 44.9986 81.7488 45.4305 0.0000 -5.8182 0.0000
# 3 58.3850 45.4305 139.5393 0.0000 -11.9518 0.0000
# 4 0.0000 0.0000 0.0000 35.2566 0.0000 -0.5334
# 5 -10.7806 -5.8182 -11.9518 0.0000 29.4501 0.0000
# 6 0.0000 0.0000 0.0000 -0.5334 0.0000 30.7932
#
#
#
# Elastic Compliance Matrix: (Units=1/GPa)
#
#
# Indices 1 2 3 4 5 6 
#
# 1 0.011852 -0.004540 -0.003301 0.000000 0.002102 0.000000
# 2 -0.004540 0.016703 -0.003521 0.000000 0.000209 0.000000
# 3 -0.003301 -0.003521 0.009874 0.000000 0.002103 0.000000
# 4 0.000000 0.000000 0.000000 0.028371 0.000000 0.000491
# 5 0.002102 0.000209 0.002103 0.000000 0.035620 0.000000
# 6 0.000000 0.000000 0.000000 0.000491 0.000000 0.032483
#
#
# Mechanical properties :
#
#
# Convention : Reuss Voigt Hill
#
# Bulk Modulus (GPa) = 63.66938 70.96653 67.31795
# Shear Modulus (GPa) = 30.70087 31.91706 31.30897
#
# Velocity S-wave (km/s) = 3.86178 3.93753 3.89984
# Velocity P-wave (km/s) = 7.12830 7.42597 7.27866
#
# Compressibility (1/GPa) = 0.01570614
#
# Stress axis : x y z
#
# Youngs Moduli (GPa) = 84.37273 59.86943 101.27646
#
# Poissons Ratio (x) = 0.27181 0.33431
# Poissons Ratio (y) = 0.38305 0.35655
# Poissons Ratio (z) = 0.27851 0.21078
#
# Static dielectric constant tensor:
#      x y z
#    x 2.921460 0.000000 -1.370890 
#    y 0.000000 3.259810 0.000000 
#    z -1.370890 0.000000 1.792700 
# 
# 
# High freq. dielectric constant tensor:
#      x y z
#    x 1.813300 0.000000 -0.000020 
#    y 0.000000 1.798250 0.000000 
#    z -0.000020 0.000000 1.817690 
# 
# From -- ./inp_files/69126.got.cif
#   From: 2010.06.25/outbox.cif.g09.slc.cpg/sg11_35_cif.got.tgz:69126.got - 2010.06.27 23:14:04.
