data_PCOD8076798
_publ_section_title
;
Structure prediction by ZEFSAII (Michael W. Deem and Ramdas Pophale) SiO2 
 PCOD8076798
Probable space group: P 21/M
;
_chemical_formula_sum "Si O2"
_cell_formula_units_Z 28
_cell_length_a 13.853314
_cell_length_b 17.008276
_cell_length_c 6.859926
_cell_angle_alpha 90.000000
_cell_angle_beta 121.376030
_cell_angle_gamma 90.000000
_cell_volume 1379.982654
_symmetry_space_group_name_H-M "P 21/M"
_symmetry_group_IT_number 11
_symmetry_cell_setting 'monoclinic'
loop_
_space_group_symop_operation_xyz
x,y,z
-x,1/2+y,-z
-x,-y,-z
x,1/2-y,z
loop_
_atom_site_type_symbol
_atom_site_label
_atom_site_fract_x
_atom_site_fract_y
_atom_site_fract_z
Si Si1 0.878241 0.340395 0.353214
Si Si2 0.303624 0.158552 0.568617
Si Si3 0.590935 0.945499 0.989268
Si Si4 0.888882 0.080175 0.762386
Si Si5 0.061283 0.093466 0.271497
Si Si6 0.705455 0.084640 0.898053
Si Si7 0.483887 0.406616 0.475006
O O1 0.905596 0.250000 0.350607
O O2 0.863689 0.357141 0.567141
O O3 0.982504 0.388477 0.373433
O O4 0.762224 0.360360 0.119393
O O5 0.330717 0.250000 0.628716
O O6 0.339914 0.109788 0.795336
O O7 0.171017 0.148188 0.390123
O O8 0.370713 0.124918 0.454989
O O9 0.526340 0.888157 0.766741
O O10 0.500000 0.000000 0.000000
O O11 0.680104 0.000308 0.968833
O O12 0.783189 0.070128 0.793261
O O13 0.908098 0.997651 0.676223
O O14 0.997192 0.109165 0.999577
O O15 0.592890 0.129507 0.700192
O O16 0.500000 0.500000 0.500000
#
# Coordination Sequence:
#
# PCOD8076798 Si02
#       7
#     4   4   4   4   4   4   4
#     4  11  24  40  62  93 131 169 207 263 326 376
#     4  12  25  40  64  99 137 168 209 270 334 381
#     4  11  22  41  69  91 123 170 216 261 312 382
#     4  10  22  40  69  95 118 170 220 262 314 383
#     4  10  22  42  64  92 126 164 218 265 313 384
#     4  10  22  39  66  95 123 161 220 265 310 381
#     4  10  21  40  65  93 123 170 213 259 316 383
#
# _framework density 20.290109999999999
#
# number of rings (size 3 to 8) (size 9 to 14) (size 15 to 20)
#    0.000    1.429    2.857    3.429    2.000    7.429 
#    0.000    0.000    0.000    0.000    0.000    0.000 
#    0.000    0.000    0.000    0.000    0.000    0.000 
#
# Total GULP energy -347209.028934 kJ/mol
# GULP energy per Si atom -12400.322462 kJ/mol
# Density = 2.024393 g / cm^3
# Si number density = 20.290110 Si / 1000 Ang^3
#
#
#
# Elastic Constant Matrix: (Units=GPa)
#
#
# Indices 1 2 3 4 5 6 
#
# 1 106.1942 27.4107 55.4145 0.0000 -0.9615 0.0000
# 2 27.4107 77.3091 31.4727 0.0000 -10.8622 0.0000
# 3 55.4145 31.4727 133.7512 0.0000 -9.1790 0.0000
# 4 0.0000 0.0000 0.0000 14.3016 0.0000 1.3091
# 5 -0.9615 -10.8622 -9.1790 0.0000 34.5037 0.0000
# 6 0.0000 0.0000 0.0000 1.3091 0.0000 14.6873
#
#
#
# Elastic Compliance Matrix: (Units=1/GPa)
#
#
# Indices 1 2 3 4 5 6 
#
# 1 0.012559 -0.002803 -0.004665 0.000000 -0.001773 0.000000
# 2 -0.002803 0.015404 -0.002176 0.000000 0.004192 0.000000
# 3 -0.004665 -0.002176 0.010049 0.000000 0.001858 0.000000
# 4 0.000000 0.000000 0.000000 0.070497 0.000000 -0.006283
# 5 -0.001773 0.004192 0.001858 0.000000 0.030747 0.000000
# 6 0.000000 0.000000 0.000000 -0.006283 0.000000 0.068646
#
#
# Mechanical properties :
#
#
# Convention : Reuss Voigt Hill
#
# Bulk Modulus (GPa) = 53.40839 60.65006 57.02923
# Shear Modulus (GPa) = 21.41970 26.22898 23.82434
#
# Velocity S-wave (km/s) = 3.25264 3.59931 3.43036
# Velocity P-wave (km/s) = 6.36284 6.87239 6.62252
#
# Compressibility (1/GPa) = 0.01872365
#
# Stress axis : x y z
#
# Youngs Moduli (GPa) = 79.62697 64.92001 99.51270
#
# Poissons Ratio (x) = 0.18195 0.46426
# Poissons Ratio (y) = 0.22317 0.21651
# Poissons Ratio (z) = 0.37149 0.14125
#
# Static dielectric constant tensor:
#      x y z
#    x 3.746380 0.000000 0.147040 
#    y 0.000000 3.457170 0.000000 
#    z 0.147040 0.000000 4.404400 
# 
# 
# High freq. dielectric constant tensor:
#      x y z
#    x 1.800040 0.000000 0.001750 
#    y 0.000000 1.767380 0.000000 
#    z 0.001750 0.000000 1.814070 
# 
# From -- ./inp_files/6881.got.cif
#   From: 2010.06.25/outbox.cif.g09.slc.cpg/sg11_4_cif.got.tgz:6881.got - 2010.06.27 23:14:04.
