data_PCOD8076233
_publ_section_title
;
Structure prediction by ZEFSAII (Michael W. Deem and Ramdas Pophale) SiO2 
 PCOD8076233
Probable space group: P 21/M
;
_chemical_formula_sum "Si O2"
_cell_formula_units_Z 28
_cell_length_a 12.394325
_cell_length_b 8.611671
_cell_length_c 15.896926
_cell_angle_alpha 90.000000
_cell_angle_beta 123.799336
_cell_angle_gamma 90.000000
_cell_volume 1410.002032
_symmetry_space_group_name_H-M "P 21/M"
_symmetry_group_IT_number 11
_symmetry_cell_setting 'monoclinic'
loop_
_space_group_symop_operation_xyz
x,y,z
-x,1/2+y,-z
-x,-y,-z
x,1/2-y,z
loop_
_atom_site_type_symbol
_atom_site_label
_atom_site_fract_x
_atom_site_fract_y
_atom_site_fract_z
Si Si1 0.207312 0.069858 0.081263
Si Si2 0.739193 0.433641 0.291296
Si Si3 0.997948 0.068272 0.126788
Si Si4 0.519633 0.433074 0.770989
Si Si5 0.162139 0.428809 0.493104
Si Si6 0.443250 0.073799 0.557673
Si Si7 0.042685 0.067812 0.714278
O O1 0.243683 0.250000 0.093563
O O2 0.128718 0.027968 0.132064
O O3 0.338214 0.970685 0.133627
O O4 0.122577 0.026140 0.963527
O O5 0.750528 0.250000 0.301951
O O6 0.588883 0.484339 0.218189
O O7 0.806695 0.511571 0.400809
O O8 0.814857 0.496904 0.242069
O O9 0.967122 0.250000 0.107528
O O10 0.018970 0.015242 0.231246
O O11 0.492498 0.250000 0.761750
O O12 0.503343 0.500030 0.668905
O O13 0.116755 0.250000 0.478592
O O14 0.288482 0.445844 0.489290
O O15 0.049029 0.532570 0.404882
O O16 0.487149 0.250000 0.574847
O O17 0.500000 0.000000 0.500000
O O18 0.052764 0.250000 0.734544
#
# Coordination Sequence:
#
# PCOD8076233 Si02
#       7
#     4   4   4   4   4   4   4
#     4  10  21  39  63  89 117 152 192 236 290 348
#     4  11  22  39  60  85 116 154 197 241 288 344
#     4  10  22  40  61  88 119 151 191 241 289 342
#     4  10  21  38  59  84 115 155 193 234 289 346
#     4  10  21  38  56  81 116 156 196 238 288 341
#     4   9  20  34  51  78 114 150 189 234 278 333
#     4  12  24  38  59  86 117 154 196 242 290 343
#
# _framework density 19.858127
#
# number of rings (size 3 to 8) (size 9 to 14) (size 15 to 20)
#    0.000    1.714    0.000    5.571    2.000    5.143 
#    0.000    0.714    0.000    0.000    0.000    0.000 
#    0.000    0.000    0.000    0.000    0.000    0.000 
#
# Total GULP energy -347311.529893 kJ/mol
# GULP energy per Si atom -12403.983210 kJ/mol
# Density = 1.981293 g / cm^3
# Si number density = 19.858127 Si / 1000 Ang^3
#
#
#
# Elastic Constant Matrix: (Units=GPa)
#
#
# Indices 1 2 3 4 5 6 
#
# 1 89.5332 36.6288 27.5019 0.0000 6.3237 0.0000
# 2 36.6288 82.7583 10.0357 0.0000 -2.4594 0.0000
# 3 27.5019 10.0357 45.9530 0.0000 9.3624 0.0000
# 4 0.0000 0.0000 0.0000 33.9660 0.0000 0.4258
# 5 6.3237 -2.4594 9.3624 0.0000 28.5681 0.0000
# 6 0.0000 0.0000 0.0000 0.4258 0.0000 34.6016
#
#
#
# Elastic Compliance Matrix: (Units=1/GPa)
#
#
# Indices 1 2 3 4 5 6 
#
# 1 0.016337 -0.006294 -0.008096 0.000000 -0.001505 0.000000
# 2 -0.006294 0.014955 -0.000049 0.000000 0.002697 0.000000
# 3 -0.008096 -0.000049 0.028132 0.000000 -0.007431 0.000000
# 4 0.000000 0.000000 0.000000 0.029446 0.000000 -0.000362
# 5 -0.001505 0.002697 -0.007431 0.000000 0.038005 0.000000
# 6 0.000000 0.000000 0.000000 -0.000362 0.000000 0.028905
#
#
# Mechanical properties :
#
#
# Convention : Reuss Voigt Hill
#
# Bulk Modulus (GPa) = 32.73747 40.73079 36.73413
# Shear Modulus (GPa) = 25.66228 29.03237 27.34732
#
# Velocity S-wave (km/s) = 3.59873 3.82774 3.71500
# Velocity P-wave (km/s) = 5.81285 6.33174 6.07784
#
# Compressibility (1/GPa) = 0.03054604
#
# Stress axis : x y z
#
# Youngs Moduli (GPa) = 61.21051 66.86718 35.54726
#
# Poissons Ratio (x) = 0.42084 0.28780
# Poissons Ratio (y) = 0.38524 0.00173
# Poissons Ratio (z) = 0.49558 0.00326
#
# Static dielectric constant tensor:
#      x y z
#    x 3.819740 0.000000 0.185750 
#    y 0.000000 3.624490 0.000000 
#    z 0.185750 0.000000 2.487650 
# 
# 
# High freq. dielectric constant tensor:
#      x y z
#    x 1.785160 0.000000 0.002290 
#    y 0.000000 1.784400 0.000000 
#    z 0.002290 0.000000 1.754620 
# 
# From -- ./inp_files/49487.got.cif
#   From: 2010.06.25/outbox.cif.g09.slc.cpg/sg11_25_cif.got.tgz:49487.got - 2010.06.27 23:14:04.
