data_PCOD8076841
_publ_section_title
;
Structure prediction by ZEFSAII (Michael W. Deem and Ramdas Pophale) SiO2 
 PCOD8076841
Probable space group: P 21/M
;
_chemical_formula_sum "Si O2"
_cell_formula_units_Z 32
_cell_length_a 12.439883
_cell_length_b 8.671028
_cell_length_c 14.731026
_cell_angle_alpha 90.000000
_cell_angle_beta 92.071345
_cell_angle_gamma 90.000000
_cell_volume 1587.947053
_symmetry_space_group_name_H-M "P 21/M"
_symmetry_group_IT_number 11
_symmetry_cell_setting 'monoclinic'
loop_
_space_group_symop_operation_xyz
x,y,z
-x,1/2+y,-z
-x,-y,-z
x,1/2-y,z
loop_
_atom_site_type_symbol
_atom_site_label
_atom_site_fract_x
_atom_site_fract_y
_atom_site_fract_z
Si Si1 0.908327 0.426228 0.555595
Si Si2 0.815257 0.568047 0.218411
Si Si3 0.329108 0.574951 0.493212
Si Si4 0.969143 0.569114 0.733477
Si Si5 0.116656 0.431326 0.981727
Si Si6 0.389414 0.934089 0.690274
Si Si7 0.385920 0.565451 0.297006
Si Si8 0.202372 0.931894 0.153051
O O1 0.935732 0.250000 0.582029
O O2 0.798538 0.436132 0.496542
O O3 0.895068 0.526140 0.645740
O O4 0.000000 0.500000 0.500000
O O5 0.811536 0.750000 0.232887
O O6 0.703447 0.496418 0.247427
O O7 0.911210 0.495145 0.281203
O O8 0.839709 0.520476 0.115676
O O9 0.368329 0.750000 0.489489
O O10 0.379160 0.499804 0.585998
O O11 0.363252 0.497775 0.398152
O O12 0.971515 0.750000 0.750674
O O13 0.915752 0.483652 0.816911
O O14 0.107215 0.250000 0.991228
O O15 0.209081 0.494831 0.053070
O O16 0.000000 0.500000 0.000000
O O17 0.385825 0.750000 0.690862
O O18 0.500989 0.998016 0.733732
O O19 0.385702 0.750000 0.297807
O O20 0.295940 0.505849 0.222940
O O21 0.207580 0.750000 0.145900
#
# Coordination Sequence:
#
# PCOD8076841 Si02
#       8
#     4   4   4   4   4   4   4   4
#     4  11  21  36  55  82 122 165 207 251 306 370
#     4  11  24  42  63  88 123 165 203 247 308 376
#     4   9  19  37  59  84 119 160 204 251 300 356
#     4  12  23  36  58  88 123 160 200 251 307 365
#     4  11  23  39  64  94 125 158 200 252 308 373
#     4  11  23  39  62  92 123 158 205 261 307 358
#     4  10  21  41  64  86 120 166 207 250 305 367
#     4  11  22  39  64  91 121 159 202 250 306 365
#
# _framework density 20.151805
#
# number of rings (size 3 to 8) (size 9 to 14) (size 15 to 20)
#    0.000    1.250    2.500    4.125    0.000    3.500 
#    0.000    3.125    0.000    0.000    0.000    0.000 
#    0.000    0.000    0.000    0.000    0.000    0.000 
#
# Total GULP energy -396787.134335 kJ/mol
# GULP energy per Si atom -12399.597948 kJ/mol
# Density = 2.010594 g / cm^3
# Si number density = 20.151805 Si / 1000 Ang^3
#
#
#
# Elastic Constant Matrix: (Units=GPa)
#
#
# Indices 1 2 3 4 5 6 
#
# 1 116.6195 26.3663 45.7422 0.0000 1.0548 0.0000
# 2 26.3663 54.8318 35.1410 0.0000 2.0716 0.0000
# 3 45.7422 35.1410 104.6648 0.0000 9.6549 0.0000
# 4 0.0000 0.0000 0.0000 30.9679 0.0000 0.2878
# 5 1.0548 2.0716 9.6549 0.0000 23.6220 0.0000
# 6 0.0000 0.0000 0.0000 0.2878 0.0000 32.6014
#
#
#
# Elastic Compliance Matrix: (Units=1/GPa)
#
#
# Indices 1 2 3 4 5 6 
#
# 1 0.010701 -0.002701 -0.003894 0.000000 0.001351 0.000000
# 2 -0.002701 0.023952 -0.006941 0.000000 0.000857 0.000000
# 3 -0.003894 -0.006941 0.014044 0.000000 -0.004958 0.000000
# 4 0.000000 0.000000 0.000000 0.032294 0.000000 -0.000285
# 5 0.001351 0.000857 -0.004958 0.000000 0.044224 0.000000
# 6 0.000000 0.000000 0.000000 -0.000285 0.000000 0.030676
#
#
# Mechanical properties :
#
#
# Convention : Reuss Voigt Hill
#
# Bulk Modulus (GPa) = 46.24223 54.51280 50.37752
# Shear Modulus (GPa) = 26.29210 28.69602 27.49406
#
# Velocity S-wave (km/s) = 3.61598 3.77768 3.69771
# Velocity P-wave (km/s) = 6.35850 6.79247 6.57906
#
# Compressibility (1/GPa) = 0.02162525
#
# Stress axis : x y z
#
# Youngs Moduli (GPa) = 93.45067 41.75015 71.20512
#
# Poissons Ratio (x) = 0.11275 0.27731
# Poissons Ratio (y) = 0.25238 0.49420
# Poissons Ratio (z) = 0.36394 0.28977
#
# Static dielectric constant tensor:
#      x y z
#    x 3.648340 0.000000 0.143790 
#    y 0.000000 3.521100 0.000000 
#    z 0.143790 0.000000 4.190270 
# 
# 
# High freq. dielectric constant tensor:
#      x y z
#    x 1.783660 0.000000 0.006590 
#    y 0.000000 1.779340 0.000000 
#    z 0.006590 0.000000 1.791940 
# 
# From -- ./inp_files/49323.got.cif
#   From: 2010.06.25/outbox.cif.g09.slc.cpg/sg11_25_cif.got.tgz:49323.got - 2010.06.27 23:14:04.
