data_PCOD8076498
_publ_section_title
;
Structure prediction by ZEFSAII (Michael W. Deem and Ramdas Pophale) SiO2 
 PCOD8076498
Probable space group: P 21/M
;
_chemical_formula_sum "Si O2"
_cell_formula_units_Z 32
_cell_length_a 12.248979
_cell_length_b 17.380956
_cell_length_c 16.220792
_cell_angle_alpha 90.000000
_cell_angle_beta 26.881275
_cell_angle_gamma 90.000000
_cell_volume 1561.426846
_symmetry_space_group_name_H-M "P 21/M"
_symmetry_group_IT_number 11
_symmetry_cell_setting 'monoclinic'
loop_
_space_group_symop_operation_xyz
x,y,z
-x,1/2+y,-z
-x,-y,-z
x,1/2-y,z
loop_
_atom_site_type_symbol
_atom_site_label
_atom_site_fract_x
_atom_site_fract_y
_atom_site_fract_z
Si Si1 0.317942 0.659552 0.319080
Si Si2 0.070906 0.340422 0.543067
Si Si3 0.739903 0.839867 0.410333
Si Si4 0.897804 0.420483 0.935760
Si Si5 0.468082 0.339549 0.152321
Si Si6 0.213361 0.661965 0.821425
Si Si7 0.081599 0.338516 0.277236
Si Si8 0.157031 0.402487 0.050508
O O1 0.376797 0.750000 0.274589
O O2 0.177801 0.630194 0.330943
O O3 0.152185 0.640667 0.510215
O O4 0.563838 0.612492 0.157989
O O5 0.076565 0.250000 0.523789
O O6 0.094202 0.362475 0.622517
O O7 0.303266 0.371888 0.337746
O O8 0.762887 0.750000 0.374715
O O9 0.463998 0.863555 0.610780
O O10 0.838253 0.888298 0.266849
O O11 0.711055 0.389311 0.992535
O O12 0.833137 0.391664 0.069667
O O13 0.907554 0.511624 0.931310
O O14 0.536724 0.250000 0.116538
O O15 0.329023 0.353009 0.160368
O O16 0.231457 0.750000 0.839788
O O17 0.001980 0.654854 0.897185
O O18 0.067993 0.250000 0.258558
O O19 0.090224 0.391237 0.191042
#
# Coordination Sequence:
#
# PCOD8076498 Si02
#       8
#     4   4   4   4   4   4   4   4
#     4   9  19  38  63  89 119 161 210 252 291 350
#     4   8  15  33  61  90 117 150 204 262 297 331
#     4  10  21  38  64  92 114 154 212 260 299 344
#     4  12  25  39  60  93 129 161 194 249 313 367
#     4   9  17  36  63  88 119 158 206 259 298 340
#     4  11  24  45  67  85 114 157 214 263 293 347
#     4   9  20  39  62  88 120 161 209 256 295 346
#     4  12  26  40  59  92 131 167 193 235 313 384
#
# _framework density 20.494076
#
# number of rings (size 3 to 8) (size 9 to 14) (size 15 to 20)
#    0.000    2.000    1.250    4.125    1.750    3.000 
#    0.000    2.500    0.000    0.000    0.000    0.000 
#    0.000    0.000    0.000    0.000    0.000    0.000 
#
# Total GULP energy -396824.567771 kJ/mol
# GULP energy per Si atom -12400.767743 kJ/mol
# Density = 2.044743 g / cm^3
# Si number density = 20.494076 Si / 1000 Ang^3
#
#
#
# Elastic Constant Matrix: (Units=GPa)
#
#
# Indices 1 2 3 4 5 6 
#
# 1 73.5649 10.6922 33.3995 0.0000 -11.9272 0.0000
# 2 10.6922 56.1612 28.3027 0.0000 2.8462 0.0000
# 3 33.3995 28.3027 110.5123 0.0000 -11.4604 0.0000
# 4 0.0000 0.0000 0.0000 15.5766 0.0000 8.9169
# 5 -11.9272 2.8462 -11.4604 0.0000 21.4339 0.0000
# 6 0.0000 0.0000 0.0000 8.9169 0.0000 16.9695
#
#
#
# Elastic Compliance Matrix: (Units=1/GPa)
#
#
# Indices 1 2 3 4 5 6 
#
# 1 0.016809 -0.001620 -0.003888 0.000000 0.007489 0.000000
# 2 -0.001620 0.021315 -0.005671 0.000000 -0.006764 0.000000
# 3 -0.003888 -0.005671 0.012207 0.000000 0.005116 0.000000
# 4 0.000000 0.000000 0.000000 0.091819 0.000000 -0.048248
# 5 0.007489 -0.006764 0.005116 0.000000 0.054456 0.000000
# 6 0.000000 0.000000 0.000000 -0.048248 0.000000 0.084282
#
#
# Mechanical properties :
#
#
# Convention : Reuss Voigt Hill
#
# Bulk Modulus (GPa) = 35.75006 42.78078 39.26542
# Shear Modulus (GPa) = 15.99645 21.98558 18.99102
#
# Velocity S-wave (km/s) = 2.79685 3.27888 3.04741
# Velocity P-wave (km/s) = 5.28316 5.93757 5.61990
#
# Compressibility (1/GPa) = 0.02797198
#
# Stress axis : x y z
#
# Youngs Moduli (GPa) = 59.49353 46.91564 81.92186
#
# Poissons Ratio (x) = 0.07601 0.31854
# Poissons Ratio (y) = 0.09639 0.46455
# Poissons Ratio (z) = 0.23133 0.26604
#
# Static dielectric constant tensor:
#      x y z
#    x 3.747200 0.000000 -0.089820 
#    y 0.000000 3.343810 0.000000 
#    z -0.089820 0.000000 3.748180 
# 
# 
# High freq. dielectric constant tensor:
#      x y z
#    x 1.801590 0.000000 -0.002540 
#    y 0.000000 1.769140 0.000000 
#    z -0.002540 0.000000 1.812060 
# 
# From -- ./inp_files/39958.got.cif
#   From: 2010.06.25/outbox.cif.g09.slc.cpg/sg11_20_cif.got.tgz:39958.got - 2010.06.27 23:14:04.
