data_PCOD8076501
_publ_section_title
;
Structure prediction by ZEFSAII (Michael W. Deem and Ramdas Pophale) SiO2 
 PCOD8076501
Probable space group: P 21/M
;
_chemical_formula_sum "Si O2"
_cell_formula_units_Z 28
_cell_length_a 11.689705
_cell_length_b 13.387376
_cell_length_c 9.383686
_cell_angle_alpha 90.000000
_cell_angle_beta 112.742568
_cell_angle_gamma 90.000000
_cell_volume 1354.321189
_symmetry_space_group_name_H-M "P 21/M"
_symmetry_group_IT_number 11
_symmetry_cell_setting 'monoclinic'
loop_
_space_group_symop_operation_xyz
x,y,z
-x,1/2+y,-z
-x,-y,-z
x,1/2-y,z
loop_
_atom_site_type_symbol
_atom_site_label
_atom_site_fract_x
_atom_site_fract_y
_atom_site_fract_z
Si Si1 0.030856 0.639339 0.032550
Si Si2 0.566726 0.524233 0.681001
Si Si3 0.614005 0.362307 0.202822
Si Si4 0.035327 0.985639 0.311657
Si Si5 0.199913 0.138772 0.290002
Si Si6 0.696023 0.134873 0.928732
Si Si7 0.887844 0.361527 0.398976
O O1 0.040580 0.750000 0.106305
O O2 0.014465 0.555262 0.143981
O O3 0.155576 0.618088 0.002044
O O4 0.909253 0.633881 0.878213
O O5 0.500000 0.500000 0.500000
O O6 0.474406 0.561024 0.759343
O O7 0.667138 0.611814 0.710548
O O8 0.632558 0.424443 0.768978
O O9 0.557494 0.250000 0.173615
O O10 0.741437 0.360657 0.352491
O O11 0.641735 0.399765 0.055290
O O12 0.160485 0.054540 0.386676
O O13 0.920978 0.058347 0.293324
O O14 0.045136 0.892538 0.422410
O O15 0.208817 0.250000 0.360724
O O16 0.663036 0.250000 0.887226
O O17 0.933519 0.250000 0.376429
#
# Coordination Sequence:
#
# PCOD8076501 Si02
#       7
#     4   4   4   4   4   4   4
#     4  10  21  38  64  95 124 157 203 258 316 377
#     4  12  25  41  62  91 125 169 213 257 313 371
#     4  10  22  41  62  88 120 164 211 253 305 371
#     4  11  20  36  60  90 125 158 203 254 318 375
#     4  11  23  38  60  91 123 158 201 258 316 368
#     4  10  22  41  66  92 121 161 213 262 309 372
#     4  10  22  37  59  88 123 163 205 254 311 375
#
# _framework density 20.674564
#
# number of rings (size 3 to 8) (size 9 to 14) (size 15 to 20)
#    0.000    1.429    1.429    3.857    2.000    3.429 
#    0.000    0.000    0.000    0.857    0.000    0.000 
#    0.000    0.000    0.000    0.000    0.000    0.000 
#
# Total GULP energy -347117.940533 kJ/mol
# GULP energy per Si atom -12397.069305 kJ/mol
# Density = 2.062751 g / cm^3
# Si number density = 20.674564 Si / 1000 Ang^3
#
#
#
# Elastic Constant Matrix: (Units=GPa)
#
#
# Indices 1 2 3 4 5 6 
#
# 1 113.8004 42.4012 35.0013 0.0000 1.5317 0.0000
# 2 42.4012 109.7903 35.9220 0.0000 2.6925 0.0000
# 3 35.0013 35.9220 93.8319 0.0000 2.3234 0.0000
# 4 0.0000 0.0000 0.0000 14.2373 0.0000 -6.3536
# 5 1.5317 2.6925 2.3234 0.0000 28.1655 0.0000
# 6 0.0000 0.0000 0.0000 -6.3536 0.0000 35.0996
#
#
#
# Elastic Compliance Matrix: (Units=1/GPa)
#
#
# Indices 1 2 3 4 5 6 
#
# 1 0.010871 -0.003282 -0.002798 0.000000 -0.000047 0.000000
# 2 -0.003282 0.011416 -0.003130 0.000000 -0.000655 0.000000
# 3 -0.002798 -0.003130 0.012914 0.000000 -0.000614 0.000000
# 4 0.000000 0.000000 0.000000 0.076411 0.000000 0.013832
# 5 -0.000047 -0.000655 -0.000614 0.000000 0.035620 0.000000
# 6 0.000000 0.000000 0.000000 0.013832 0.000000 0.030994
#
#
# Mechanical properties :
#
#
# Convention : Reuss Voigt Hill
#
# Bulk Modulus (GPa) = 59.58597 60.45239 60.01918
# Shear Modulus (GPa) = 24.72313 29.10701 26.91507
#
# Velocity S-wave (km/s) = 3.46182 3.75622 3.61202
# Velocity P-wave (km/s) = 6.69794 6.93655 6.81829
#
# Compressibility (1/GPa) = 0.01678247
#
# Stress axis : x y z
#
# Youngs Moduli (GPa) = 91.98580 87.59694 77.43322
#
# Poissons Ratio (x) = 0.28749 0.21663
# Poissons Ratio (y) = 0.30190 0.24236
# Poissons Ratio (z) = 0.25734 0.27417
#
# Static dielectric constant tensor:
#      x y z
#    x 3.805150 0.000000 -0.060190 
#    y 0.000000 4.207250 0.000000 
#    z -0.060190 0.000000 3.494910 
# 
# 
# High freq. dielectric constant tensor:
#      x y z
#    x 1.810170 0.000000 -0.006420 
#    y 0.000000 1.828100 0.000000 
#    z -0.006420 0.000000 1.791570 
# 
# From -- ./inp_files/18156.got.cif
#   From: 2010.06.25/outbox.cif.g09.slc.cpg/sg11_10_cif.got.tgz:18156.got - 2010.06.27 23:14:04.
