data_PCOD8076844
_publ_section_title
;
Structure prediction by ZEFSAII (Michael W. Deem and Ramdas Pophale) SiO2 
 PCOD8076844
Probable space group: P 21/M
;
_chemical_formula_sum "Si O2"
_cell_formula_units_Z 32
_cell_length_a 23.037248
_cell_length_b 13.701083
_cell_length_c 15.553592
_cell_angle_alpha 90.000000
_cell_angle_beta 160.999499
_cell_angle_gamma 90.000000
_cell_volume 1598.339909
_symmetry_space_group_name_H-M "P 21/M"
_symmetry_group_IT_number 11
_symmetry_cell_setting 'monoclinic'
loop_
_space_group_symop_operation_xyz
x,y,z
-x,1/2+y,-z
-x,-y,-z
x,1/2-y,z
loop_
_atom_site_type_symbol
_atom_site_label
_atom_site_fract_x
_atom_site_fract_y
_atom_site_fract_z
Si Si1 0.297986 0.484551 0.244053
Si Si2 0.339488 0.469915 0.663934
Si Si3 0.972329 0.096474 0.517203
Si Si4 0.556708 0.510861 0.381041
Si Si5 0.971564 0.365670 0.189573
Si Si6 0.301943 0.139726 0.091338
Si Si7 0.342363 0.632889 0.803661
Si Si8 0.781127 0.146718 0.092071
O O1 0.500000 0.500000 0.500000
O O2 0.306942 0.445644 0.355603
O O3 0.183836 0.584457 0.084710
O O4 0.220822 0.408923 0.065297
O O5 0.340430 0.494019 0.564260
O O6 0.366601 0.574460 0.748224
O O7 0.157205 0.416560 0.430419
O O8 0.494314 0.393376 0.904815
O O9 0.838135 0.089080 0.409323
O O10 0.159865 0.134060 0.814966
O O11 0.882234 0.169251 0.322884
O O12 0.000000 0.000000 0.500000
O O13 0.376866 0.571835 0.119105
O O14 0.488300 0.405678 0.318700
O O15 0.981164 0.250000 0.183594
O O16 0.924632 0.390094 0.223142
O O17 0.344223 0.250000 0.174385
O O18 0.334141 0.750000 0.776381
O O19 0.699795 0.250000 0.946682
#
# Coordination Sequence:
#
# PCOD8076844 Si02
#       8
#     4   4   4   4   4   4   4   4
#     4  10  21  41  64  90 123 160 209 265 317 367
#     4  11  24  41  63  92 132 174 216 260 313 389
#     4  12  20  37  62  91 130 160 209 267 322 375
#     4  11  23  42  63  92 127 166 210 268 312 370
#     4  11  23  41  65  93 126 166 213 263 319 382
#     4  11  22  37  61  94 126 164 210 264 322 375
#     4  11  23  39  61  91 133 179 213 259 324 385
#     4  11  21  36  63  93 119 160 211 260 315 373
#
# _framework density 20.020772000000001
#
# number of rings (size 3 to 8) (size 9 to 14) (size 15 to 20)
#    0.000    1.000    5.000    3.000    0.000    5.000 
#    0.000    0.000    0.000    0.000    0.000    0.000 
#    0.000    0.000    0.000    0.000    0.000    0.000 
#
# Total GULP energy -396587.605920 kJ/mol
# GULP energy per Si atom -12393.362685 kJ/mol
# Density = 1.997520 g / cm^3
# Si number density = 20.020772 Si / 1000 Ang^3
#
#
#
# Elastic Constant Matrix: (Units=GPa)
#
#
# Indices 1 2 3 4 5 6 
#
# 1 122.9469 32.1500 10.2722 0.0000 -14.4662 0.0000
# 2 32.1500 121.0414 22.7068 0.0000 0.1937 0.0000
# 3 10.2722 22.7068 64.9706 0.0000 -7.2509 0.0000
# 4 0.0000 0.0000 0.0000 10.6878 0.0000 3.8871
# 5 -14.4662 0.1937 -7.2509 0.0000 39.7072 0.0000
# 6 0.0000 0.0000 0.0000 3.8871 0.0000 17.4633
#
#
#
# Elastic Compliance Matrix: (Units=1/GPa)
#
#
# Indices 1 2 3 4 5 6 
#
# 1 0.009169 -0.002395 -0.000243 0.000000 0.003308 0.000000
# 2 -0.002395 0.009482 -0.003101 0.000000 -0.001485 0.000000
# 3 -0.000243 -0.003101 0.016849 0.000000 0.003003 0.000000
# 4 0.000000 0.000000 0.000000 0.101807 0.000000 -0.022661
# 5 0.003308 -0.001485 0.003003 0.000000 0.026945 0.000000
# 6 0.000000 0.000000 0.000000 -0.022661 0.000000 0.062307
#
#
# Mechanical properties :
#
#
# Convention : Reuss Voigt Hill
#
# Bulk Modulus (GPa) = 41.62978 48.80188 45.21583
# Shear Modulus (GPa) = 20.32147 29.82698 25.07423
#
# Velocity S-wave (km/s) = 3.18939 3.86398 3.54278
# Velocity P-wave (km/s) = 5.86527 6.65850 6.27444
#
# Compressibility (1/GPa) = 0.02402126
#
# Stress axis : x y z
#
# Youngs Moduli (GPa) = 109.05769 105.46398 59.35076
#
# Poissons Ratio (x) = 0.25260 0.01445
# Poissons Ratio (y) = 0.26121 0.18404
# Poissons Ratio (z) = 0.02655 0.32704
#
# Static dielectric constant tensor:
#      x y z
#    x 4.515290 0.000000 -0.615890 
#    y 0.000000 3.737770 0.000000 
#    z -0.615890 0.000000 3.964760 
# 
# 
# High freq. dielectric constant tensor:
#      x y z
#    x 1.782010 0.000000 -0.011870 
#    y 0.000000 1.782110 0.000000 
#    z -0.011870 0.000000 1.778110 
# 
# From -- ./inp_files/55050.got.cif
#   From: 2010.06.25/outbox.cif.g09.slc.cpg/sg11_28_cif.got.tgz:55050.got - 2010.06.27 23:14:04.
