data_PCOD8076237
_publ_section_title
;
Structure prediction by ZEFSAII (Michael W. Deem and Ramdas Pophale) SiO2 
 PCOD8076237
Probable space group: P 21/M
;
_chemical_formula_sum "Si O2"
_cell_formula_units_Z 32
_cell_length_a 26.025705
_cell_length_b 8.793665
_cell_length_c 20.212653
_cell_angle_alpha 90.000000
_cell_angle_beta 21.547712
_cell_angle_gamma 90.000000
_cell_volume 1698.979571
_symmetry_space_group_name_H-M "P 21/M"
_symmetry_group_IT_number 11
_symmetry_cell_setting 'monoclinic'
loop_
_space_group_symop_operation_xyz
x,y,z
-x,1/2+y,-z
-x,-y,-z
x,1/2-y,z
loop_
_atom_site_type_symbol
_atom_site_label
_atom_site_fract_x
_atom_site_fract_y
_atom_site_fract_z
Si Si1 0.351478 0.428782 0.692347
Si Si2 0.574699 0.074516 0.001546
Si Si3 0.423945 0.573367 0.851636
Si Si4 0.279742 0.569762 0.530506
Si Si5 0.299621 0.928870 0.281267
Si Si6 0.911358 0.069465 0.361400
Si Si7 0.772727 0.569454 0.019147
Si Si8 0.847610 0.930054 0.186933
O O1 0.500000 0.500000 0.500000
O O2 0.368969 0.250000 0.667846
O O3 0.300598 0.481173 0.825284
O O4 0.238096 0.484211 0.774776
O O5 0.537741 0.250000 0.032967
O O6 0.632589 0.048110 0.005842
O O7 0.433347 0.981430 0.162390
O O8 0.689192 0.019816 0.809303
O O9 0.456494 0.750000 0.798804
O O10 0.562465 0.476059 0.674484
O O11 0.301619 0.514795 0.951683
O O12 0.271214 0.750000 0.550149
O O13 0.177546 0.511063 0.594864
O O14 0.234479 0.489109 0.651550
O O15 0.294884 0.750000 0.292871
O O16 0.160806 0.992542 0.484223
O O17 0.914421 0.250000 0.355946
O O18 0.068613 0.007476 0.169146
O O19 0.765526 0.750000 0.017175
O O20 0.861195 0.750000 0.173574
O O21 0.000000 0.000000 0.000000
#
# Coordination Sequence:
#
# PCOD8076237 Si02
#       8
#     4   4   4   4   4   4   4   4
#     4  10  22  39  58  78 105 140 184 229 273 323
#     4   9  18  31  51  79 113 143 175 223 274 320
#     4  11  22  36  52  80 115 146 179 224 275 326
#     4  11  21  36  59  85 109 140 183 231 275 326
#     4   9  16  31  55  81 106 141 183 223 268 322
#     4   9  18  34  57  82 108 140 185 230 271 321
#     4  10  21  38  57  77 104 143 184 226 270 322
#     4  11  23  39  58  84 114 144 178 226 280 333
#
# _framework density 18.834835000000002
#
# number of rings (size 3 to 8) (size 9 to 14) (size 15 to 20)
#    0.000    2.000    1.250    2.625    0.000    6.000 
#    0.000    3.750    0.000    0.000    0.000    0.000 
#    0.000    0.000    0.000    0.000    0.000    0.000 
#
# Total GULP energy -396766.367005 kJ/mol
# GULP energy per Si atom -12398.948969 kJ/mol
# Density = 1.879197 g / cm^3
# Si number density = 18.834835 Si / 1000 Ang^3
#
#
#
# Elastic Constant Matrix: (Units=GPa)
#
#
# Indices 1 2 3 4 5 6 
#
# 1 151.8614 31.0852 73.5697 0.0000 5.4583 0.0000
# 2 31.0852 30.1729 23.3840 0.0000 1.4022 0.0000
# 3 73.5697 23.3840 123.4482 0.0000 5.4506 0.0000
# 4 0.0000 0.0000 0.0000 22.8479 0.0000 -1.9756
# 5 5.4583 1.4022 5.4506 0.0000 38.4385 0.0000
# 6 0.0000 0.0000 0.0000 -1.9756 0.0000 26.7573
#
#
#
# Elastic Compliance Matrix: (Units=1/GPa)
#
#
# Indices 1 2 3 4 5 6 
#
# 1 0.010364 -0.006896 -0.004846 0.000000 -0.000533 0.000000
# 2 -0.006896 0.043439 -0.004118 0.000000 -0.000021 0.000000
# 3 -0.004846 -0.004118 0.011806 0.000000 -0.000836 0.000000
# 4 0.000000 0.000000 0.000000 0.044049 0.000000 0.003252
# 5 -0.000533 -0.000021 -0.000836 0.000000 0.026211 0.000000
# 6 0.000000 0.000000 0.000000 0.003252 0.000000 0.037613
#
#
# Mechanical properties :
#
#
# Convention : Reuss Voigt Hill
#
# Bulk Modulus (GPa) = 29.50894 62.39557 45.95226
# Shear Modulus (GPa) = 23.09496 29.43832 26.26664
#
# Velocity S-wave (km/s) = 3.50549 3.95773 3.73846
# Velocity P-wave (km/s) = 5.66444 7.35422 6.56393
#
# Compressibility (1/GPa) = 0.03388803
#
# Stress axis : x y z
#
# Youngs Moduli (GPa) = 96.49182 23.02064 84.70499
#
# Poissons Ratio (x) = 0.15876 0.41051
# Poissons Ratio (y) = 0.66543 0.34879
# Poissons Ratio (z) = 0.46764 0.09479
#
# Static dielectric constant tensor:
#      x y z
#    x 3.530250 0.000000 0.118690 
#    y 0.000000 3.343960 0.000000 
#    z 0.118690 0.000000 3.693060 
# 
# 
# High freq. dielectric constant tensor:
#      x y z
#    x 1.740010 0.000000 0.016110 
#    y 0.000000 1.718580 0.000000 
#    z 0.016110 0.000000 1.737290 
# 
# From -- ./inp_files/66939.got.cif
#   From: 2010.06.25/outbox.cif.g09.slc.cpg/sg11_34_cif.got.tgz:66939.got - 2010.06.27 23:14:04.
