data_PCOD8076465
_publ_section_title
;
Structure prediction by ZEFSAII (Michael W. Deem and Ramdas Pophale) SiO2 
 PCOD8076465
Probable space group: P 21/M
;
_chemical_formula_sum "Si O2"
_cell_formula_units_Z 32
_cell_length_a 11.635965
_cell_length_b 18.417694
_cell_length_c 14.028645
_cell_angle_alpha 90.000000
_cell_angle_beta 147.493020
_cell_angle_gamma 90.000000
_cell_volume 1615.671059
_symmetry_space_group_name_H-M "P 21/M"
_symmetry_group_IT_number 11
_symmetry_cell_setting 'monoclinic'
loop_
_space_group_symop_operation_xyz
x,y,z
-x,1/2+y,-z
-x,-y,-z
x,1/2-y,z
loop_
_atom_site_type_symbol
_atom_site_label
_atom_site_fract_x
_atom_site_fract_y
_atom_site_fract_z
Si Si1 0.257800 0.332393 0.635535
Si Si2 0.125734 0.833584 0.765333
Si Si3 0.388899 0.072261 0.294169
Si Si4 0.392744 0.334121 0.937759
Si Si5 0.412389 0.588663 0.263823
Si Si6 0.144036 0.096648 0.932554
Si Si7 0.013130 0.934564 0.858866
Si Si8 0.694097 0.334180 0.622320
O O1 0.334858 0.250000 0.670773
O O2 0.255943 0.348623 0.746640
O O3 0.424541 0.385247 0.701991
O O4 0.018841 0.344973 0.429588
O O5 0.127350 0.750000 0.800015
O O6 0.025602 0.879709 0.780224
O O7 0.363945 0.859821 0.908498
O O8 0.586116 0.123748 0.458752
O O9 0.224539 0.069147 0.266817
O O10 0.482342 0.991924 0.343167
O O11 0.277506 0.104182 0.122636
O O12 0.384250 0.250000 0.962435
O O13 0.297906 0.383657 0.953532
O O14 0.415149 0.641970 0.355381
O O15 0.173331 0.587688 0.055145
O O16 0.946532 0.151638 0.798996
O O17 0.060610 0.015545 0.856797
O O18 0.649582 0.250000 0.575918
#
# Coordination Sequence:
#
# PCOD8076465 Si02
#       8
#     4   4   4   4   4   4   4   4
#     4  10  21  38  62  92 122 158 208 261 309 360
#     4  10  22  39  63  92 121 160 207 260 314 362
#     4  11  24  43  63  91 130 165 198 254 314 364
#     4  10  22  42  62  85 124 165 203 258 311 357
#     4  11  20  40  65  91 124 163 201 254 311 366
#     4  11  24  43  63  90 126 167 207 250 302 372
#     4  11  21  41  67  91 126 164 203 251 317 367
#     4  12  25  39  64  96 123 165 209 246 307 375
#
# _framework density 19.806011999999999
#
# number of rings (size 3 to 8) (size 9 to 14) (size 15 to 20)
#    0.000    1.250    3.750    2.625    1.750    4.500 
#    0.000    1.875    0.000    0.000    0.000    0.000 
#    0.000    0.000    0.000    0.000    0.000    0.000 
#
# Total GULP energy -397015.237791 kJ/mol
# GULP energy per Si atom -12406.726181 kJ/mol
# Density = 1.976093 g / cm^3
# Si number density = 19.806012 Si / 1000 Ang^3
#
#
#
# Elastic Constant Matrix: (Units=GPa)
#
#
# Indices 1 2 3 4 5 6 
#
# 1 116.3016 55.8986 28.0408 0.0000 -10.0915 0.0000
# 2 55.8986 105.4444 44.7549 0.0000 -5.8108 0.0000
# 3 28.0408 44.7549 80.4093 0.0000 -11.6381 0.0000
# 4 0.0000 0.0000 0.0000 25.2362 0.0000 -3.1236
# 5 -10.0915 -5.8108 -11.6381 0.0000 12.4638 0.0000
# 6 0.0000 0.0000 0.0000 -3.1236 0.0000 30.4792
#
#
#
# Elastic Compliance Matrix: (Units=1/GPa)
#
#
# Indices 1 2 3 4 5 6 
#
# 1 0.012106 -0.006116 0.000218 0.000000 0.007154 0.000000
# 2 -0.006116 0.015513 -0.007136 0.000000 -0.004383 0.000000
# 3 0.000218 -0.007136 0.018357 0.000000 0.013990 0.000000
# 4 0.000000 0.000000 0.000000 0.040135 0.000000 0.004113
# 5 0.007154 -0.004383 0.013990 0.000000 0.097045 0.000000
# 6 0.000000 0.000000 0.000000 0.004113 0.000000 0.033231
#
#
# Mechanical properties :
#
#
# Convention : Reuss Voigt Hill
#
# Bulk Modulus (GPa) = 50.23079 62.17155 56.20117
# Shear Modulus (GPa) = 20.07294 25.19990 22.63642
#
# Velocity S-wave (km/s) = 3.18697 3.57085 3.38436
# Velocity P-wave (km/s) = 6.24170 6.96130 6.61130
#
# Compressibility (1/GPa) = 0.01990811
#
# Stress axis : x y z
#
# Youngs Moduli (GPa) = 82.60303 64.46138 54.47464
#
# Poissons Ratio (x) = 0.39424 -0.01186
# Poissons Ratio (y) = 0.50519 0.38873
# Poissons Ratio (z) = -0.01799 0.46000
#
# Static dielectric constant tensor:
#      x y z
#    x 3.483270 0.000000 -0.070740 
#    y 0.000000 3.583410 0.000000 
#    z -0.070740 0.000000 3.831890 
# 
# 
# High freq. dielectric constant tensor:
#      x y z
#    x 1.765200 0.000000 -0.005170 
#    y 0.000000 1.771370 0.000000 
#    z -0.005170 0.000000 1.788730 
# 
# From -- ./inp_files/50680.got.cif
#   From: 2010.06.25/outbox.cif.g09.slc.cpg/sg11_26_cif.got.tgz:50680.got - 2010.06.27 23:14:04.
