data_PCOD8076890
_publ_section_title
;
Structure prediction by ZEFSAII (Michael W. Deem and Ramdas Pophale) SiO2 
 PCOD8076890
Probable space group: P 21/M
;
_chemical_formula_sum "Si O2"
_cell_formula_units_Z 20
_cell_length_a 5.422506
_cell_length_b 26.107153
_cell_length_c 7.502708
_cell_angle_alpha 90.000000
_cell_angle_beta 66.744686
_cell_angle_gamma 90.000000
_cell_volume 975.836648
_symmetry_space_group_name_H-M "P 21/M"
_symmetry_group_IT_number 11
_symmetry_cell_setting 'monoclinic'
loop_
_space_group_symop_operation_xyz
x,y,z
-x,1/2+y,-z
-x,-y,-z
x,1/2-y,z
loop_
_atom_site_type_symbol
_atom_site_label
_atom_site_fract_x
_atom_site_fract_y
_atom_site_fract_z
Si Si1 0.242156 0.604453 0.084051
Si Si2 0.601616 0.425569 0.335261
Si Si3 0.093901 0.307367 0.715686
Si Si4 0.668026 0.347325 0.594133
Si Si5 0.120268 0.025399 0.638866
O O1 0.423863 0.619990 0.203185
O O2 0.026285 0.650624 0.111597
O O3 0.096859 0.550840 0.170492
O O4 0.422975 0.596082 0.858074
O O5 0.768324 0.385782 0.409768
O O6 0.729441 0.482037 0.289881
O O7 0.312143 0.429054 0.512987
O O8 0.045047 0.250000 0.803035
O O9 0.414056 0.314496 0.598211
O O10 0.929648 0.313455 0.574251
O O11 0.000000 0.000000 0.500000
#
# Coordination Sequence:
#
# PCOD8076890 Si02
#       5
#     4   4   4   4   4
#     4  10  23  39  63  90 127 169 208 264 318 362
#     4  11  22  39  63  91 130 167 213 256 315 383
#     4  10  21  42  67  89 125 164 208 269 323 371
#     4  10  21  42  63  91 126 163 208 261 317 377
#     4  11  21  39  59  93 131 168 214 254 311 384
#
# _framework density 20.495234
#
# number of rings (size 3 to 8) (size 9 to 14) (size 15 to 20)
#    1.200    0.400    4.000    1.200    0.000    2.400 
#    0.000    2.000    0.000    0.000    0.000    0.000 
#    0.000    0.000    0.000    0.000    0.000    0.000 
#
# Total GULP energy -247798.340898 kJ/mol
# GULP energy per Si atom -12389.917045 kJ/mol
# Density = 2.044859 g / cm^3
# Si number density = 20.495234 Si / 1000 Ang^3
#
#
#
# Elastic Constant Matrix: (Units=GPa)
#
#
# Indices 1 2 3 4 5 6 
#
# 1 104.2662 19.0478 21.3159 0.0000 0.7422 0.0000
# 2 19.0478 96.5527 30.2159 0.0000 5.3055 0.0000
# 3 21.3159 30.2159 96.9185 0.0000 20.0250 0.0000
# 4 0.0000 0.0000 0.0000 16.1215 0.0000 2.2270
# 5 0.7422 5.3055 20.0250 0.0000 25.5643 0.0000
# 6 0.0000 0.0000 0.0000 2.2270 0.0000 25.2376
#
#
#
# Elastic Compliance Matrix: (Units=1/GPa)
#
#
# Indices 1 2 3 4 5 6 
#
# 1 0.010285 -0.001446 -0.002161 0.000000 0.001694 0.000000
# 2 -0.001446 0.011685 -0.003380 0.000000 0.000264 0.000000
# 3 -0.002161 -0.003380 0.013946 0.000000 -0.010160 0.000000
# 4 0.000000 0.000000 0.000000 0.062795 0.000000 -0.005541
# 5 0.001694 0.000264 -0.010160 0.000000 0.046972 0.000000
# 6 0.000000 0.000000 0.000000 -0.005541 0.000000 0.040112
#
#
# Mechanical properties :
#
#
# Convention : Reuss Voigt Hill
#
# Bulk Modulus (GPa) = 45.57306 48.76630 47.16968
# Shear Modulus (GPa) = 24.14495 28.52854 26.33674
#
# Velocity S-wave (km/s) = 3.43604 3.73494 3.58860
# Velocity P-wave (km/s) = 6.16652 6.51501 6.34316
#
# Compressibility (1/GPa) = 0.02194279
#
# Stress axis : x y z
#
# Youngs Moduli (GPa) = 97.23138 85.57686 71.70381
#
# Poissons Ratio (x) = 0.12372 0.15498
# Poissons Ratio (y) = 0.14056 0.24234
# Poissons Ratio (z) = 0.21015 0.28923
#
# Static dielectric constant tensor:
#      x y z
#    x 3.670740 0.000000 0.032270 
#    y 0.000000 3.815820 0.000000 
#    z 0.032270 0.000000 3.243610 
# 
# 
# High freq. dielectric constant tensor:
#      x y z
#    x 1.798800 0.000000 0.007860 
#    y 0.000000 1.804390 0.000000 
#    z 0.007860 0.000000 1.759970 
# 
# From -- ./inp_files/953.got.cif
#   From: 2010.06.25/outbox.cif.g09.slc.cpg/sg11_1_cif.got.tgz:953.got - 2010.06.27 23:14:04.
