data_PCOD8076733
_publ_section_title
;
Structure prediction by ZEFSAII (Michael W. Deem and Ramdas Pophale) SiO2 
 PCOD8076733
Probable space group: P 21/M
;
_chemical_formula_sum "Si O2"
_cell_formula_units_Z 32
_cell_length_a 14.910054
_cell_length_b 9.118832
_cell_length_c 23.743440
_cell_angle_alpha 90.000000
_cell_angle_beta 150.417670
_cell_angle_gamma 90.000000
_cell_volume 1593.683422
_symmetry_space_group_name_H-M "P 21/M"
_symmetry_group_IT_number 11
_symmetry_cell_setting 'monoclinic'
loop_
_space_group_symop_operation_xyz
x,y,z
-x,1/2+y,-z
-x,-y,-z
x,1/2-y,z
loop_
_atom_site_type_symbol
_atom_site_label
_atom_site_fract_x
_atom_site_fract_y
_atom_site_fract_z
Si Si1 0.529353 0.411216 0.071167
Si Si2 0.903686 0.087563 0.319297
Si Si3 0.708710 0.422061 0.971684
Si Si4 0.809769 0.424150 0.595632
Si Si5 0.445887 0.918933 0.230911
Si Si6 0.175964 0.078880 0.618830
Si Si7 0.575836 0.921508 0.664197
Si Si8 0.095800 0.422081 0.236356
O O1 0.438709 0.250000 0.018486
O O2 0.746981 0.392219 0.188134
O O3 0.445705 0.492912 0.078984
O O4 0.500000 0.500000 0.000000
O O5 0.973688 0.250000 0.377401
O O6 0.790424 0.999020 0.303912
O O7 0.071417 0.992763 0.389298
O O8 0.669434 0.250000 0.957465
O O9 0.686473 0.464563 0.893389
O O10 0.906963 0.465163 0.103231
O O11 0.835395 0.250000 0.611111
O O12 0.603771 0.470404 0.468221
O O13 0.875292 0.489653 0.690467
O O14 0.416383 0.750000 0.229449
O O15 0.654764 0.950741 0.329327
O O16 0.399131 0.007969 0.261094
O O17 0.140575 0.250000 0.608342
O O18 0.000000 0.000000 0.500000
O O19 0.571424 0.750000 0.672546
O O20 0.746156 0.969700 0.719782
O O21 0.103567 0.250000 0.254996
#
# Coordination Sequence:
#
# PCOD8076733 Si02
#       8
#     4   4   4   4   4   4   4   4
#     4  11  23  37  57  85 118 156 196 241 292 351
#     4  11  23  38  57  85 118 155 196 236 290 353
#     4  10  21  40  62  86 120 158 199 247 300 357
#     4  11  23  39  61  90 123 157 199 252 305 362
#     4  10  22  39  60  87 120 158 199 247 299 354
#     4  11  22  37  58  85 119 157 197 243 291 348
#     4  10  23  41  61  88 120 157 200 250 307 359
#     4  10  22  41  64  88 118 157 200 251 307 361
#
# _framework density 20.079270000000001
#
# number of rings (size 3 to 8) (size 9 to 14) (size 15 to 20)
#    0.000    1.500    1.250    3.375    0.000   10.500 
#    0.000    0.000    0.000    0.000    0.000    0.000 
#    0.000    0.000    0.000    0.000    0.000    0.000 
#
# Total GULP energy -396723.265404 kJ/mol
# GULP energy per Si atom -12397.602044 kJ/mol
# Density = 2.003357 g / cm^3
# Si number density = 20.079270 Si / 1000 Ang^3
#
#
#
# Elastic Constant Matrix: (Units=GPa)
#
#
# Indices 1 2 3 4 5 6 
#
# 1 88.3659 40.4568 28.2122 0.0000 -0.9408 0.0000
# 2 40.4568 82.7760 35.9006 0.0000 -2.0711 0.0000
# 3 28.2122 35.9006 113.3079 0.0000 0.2203 0.0000
# 4 0.0000 0.0000 0.0000 28.8830 0.0000 -6.4924
# 5 -0.9408 -2.0711 0.2203 0.0000 36.5669 0.0000
# 6 0.0000 0.0000 0.0000 -6.4924 0.0000 39.2493
#
#
#
# Elastic Compliance Matrix: (Units=1/GPa)
#
#
# Indices 1 2 3 4 5 6 
#
# 1 0.014830 -0.006546 -0.001619 0.000000 0.000021 0.000000
# 2 -0.006546 0.016919 -0.003732 0.000000 0.000812 0.000000
# 3 -0.001619 -0.003732 0.010412 0.000000 -0.000316 0.000000
# 4 0.000000 0.000000 0.000000 0.035959 0.000000 0.005948
# 5 0.000021 0.000812 -0.000316 0.000000 0.027396 0.000000
# 6 0.000000 0.000000 0.000000 0.005948 0.000000 0.026462
#
#
# Mechanical properties :
#
#
# Convention : Reuss Voigt Hill
#
# Bulk Modulus (GPa) = 54.44393 54.84323 54.64358
# Shear Modulus (GPa) = 30.88421 32.93184 31.90803
#
# Velocity S-wave (km/s) = 3.92613 4.05420 3.99068
# Velocity P-wave (km/s) = 6.90841 7.02054 6.96470
#
# Compressibility (1/GPa) = 0.01836752
#
# Stress axis : x y z
#
# Youngs Moduli (GPa) = 67.42865 59.10447 96.04551
#
# Poissons Ratio (x) = 0.38689 0.15546
# Poissons Ratio (y) = 0.44138 0.35848
# Poissons Ratio (z) = 0.10914 0.22060
#
# Static dielectric constant tensor:
#      x y z
#    x 3.688560 0.000000 0.069400 
#    y 0.000000 3.743970 0.000000 
#    z 0.069400 0.000000 3.547750 
# 
# 
# High freq. dielectric constant tensor:
#      x y z
#    x 1.784370 0.000000 -0.004250 
#    y 0.000000 1.787880 0.000000 
#    z -0.004250 0.000000 1.798790 
# 
# From -- ./inp_files/55654.got.cif
#   From: 2010.06.25/outbox.cif.g09.slc.cpg/sg11_28_cif.got.tgz:55654.got - 2010.06.27 23:14:04.
