data_PCOD8076029
_publ_section_title
;
Structure prediction by ZEFSAII (Michael W. Deem and Ramdas Pophale) SiO2 
 PCOD8076029
Probable space group: P 21/M
;
_chemical_formula_sum "Si O2"
_cell_formula_units_Z 28
_cell_length_a 22.508121
_cell_length_b 8.793878
_cell_length_c 9.187602
_cell_angle_alpha 90.000000
_cell_angle_beta 52.340271
_cell_angle_gamma 90.000000
_cell_volume 1439.649593
_symmetry_space_group_name_H-M "P 21/M"
_symmetry_group_IT_number 11
_symmetry_cell_setting 'monoclinic'
loop_
_space_group_symop_operation_xyz
x,y,z
-x,1/2+y,-z
-x,-y,-z
x,1/2-y,z
loop_
_atom_site_type_symbol
_atom_site_label
_atom_site_fract_x
_atom_site_fract_y
_atom_site_fract_z
Si Si1 0.068157 0.921557 0.976886
Si Si2 0.066319 0.579945 0.318701
Si Si3 0.369096 0.929484 0.046615
Si Si4 0.500197 0.430947 0.659459
Si Si5 0.769353 0.071267 0.946065
Si Si6 0.776614 0.925184 0.236776
Si Si7 0.632036 0.573373 0.636673
O O1 0.074598 0.750000 0.911143
O O2 0.049926 0.929601 0.173447
O O3 0.146646 0.000961 0.821807
O O4 0.000000 0.000000 0.000000
O O5 0.066490 0.750000 0.377648
O O6 0.148855 0.508068 0.226540
O O7 0.000000 0.500000 0.500000
O O8 0.379571 0.750000 0.056408
O O9 0.289855 0.967409 0.090080
O O10 0.372759 0.018061 0.191487
O O11 0.433840 0.991236 0.847257
O O12 0.500000 0.500000 0.500000
O O13 0.489182 0.250000 0.669495
O O14 0.578183 0.470805 0.619260
O O15 0.775439 0.250000 0.968934
O O16 0.745082 0.996338 0.134555
O O17 0.792085 0.750000 0.183057
O O18 0.716106 0.950686 0.453843
O O19 0.607673 0.750000 0.664290
#
# Coordination Sequence:
#
# PCOD8076029 Si02
#       7
#     4   4   4   4   4   4   4
#     4  10  21  37  57  82 114 149 190 237 286 341
#     4   9  19  35  54  80 111 145 185 230 278 332
#     4  11  23  40  62  88 118 154 194 238 290 344
#     4  12  25  42  64  89 118 153 193 237 287 346
#     4   9  20  38  58  81 112 149 191 235 282 340
#     4  10  21  37  59  85 113 148 192 237 285 340
#     4  11  24  41  60  87 121 154 192 240 289 341
#
# _framework density 19.449176999999999
#
# number of rings (size 3 to 8) (size 9 to 14) (size 15 to 20)
#    0.000    1.714    0.000    5.143    0.000    9.714 
#    0.000    2.857    0.000    0.000    0.000    0.000 
#    0.000    0.000    0.000    0.000    0.000    0.000 
#
# Total GULP energy -347260.508038 kJ/mol
# GULP energy per Si atom -12402.161001 kJ/mol
# Density = 1.940491 g / cm^3
# Si number density = 19.449177 Si / 1000 Ang^3
#
#
#
# Elastic Constant Matrix: (Units=GPa)
#
#
# Indices 1 2 3 4 5 6 
#
# 1 116.5476 27.9787 37.7771 0.0000 -4.9549 0.0000
# 2 27.9787 63.4686 29.7186 0.0000 -8.1542 0.0000
# 3 37.7771 29.7186 122.5299 0.0000 -5.3341 0.0000
# 4 0.0000 0.0000 0.0000 36.6572 0.0000 1.4017
# 5 -4.9549 -8.1542 -5.3341 0.0000 26.7075 0.0000
# 6 0.0000 0.0000 0.0000 1.4017 0.0000 36.5022
#
#
#
# Elastic Compliance Matrix: (Units=1/GPa)
#
#
# Indices 1 2 3 4 5 6 
#
# 1 0.010145 -0.003344 -0.002299 0.000000 0.000402 0.000000
# 2 -0.003344 0.019457 -0.003487 0.000000 0.004624 0.000000
# 3 -0.002299 -0.003487 0.009736 0.000000 0.000453 0.000000
# 4 0.000000 0.000000 0.000000 0.027320 0.000000 -0.001049
# 5 0.000402 0.004624 0.000453 0.000000 0.039019 0.000000
# 6 0.000000 0.000000 0.000000 -0.001049 0.000000 0.027436
#
#
# Mechanical properties :
#
#
# Convention : Reuss Voigt Hill
#
# Bulk Modulus (GPa) = 47.44444 54.83275 51.13860
# Shear Modulus (GPa) = 31.56588 33.77816 32.67202
#
# Velocity S-wave (km/s) = 4.03301 4.17194 4.10306
# Velocity P-wave (km/s) = 6.79219 7.17362 6.98551
#
# Compressibility (1/GPa) = 0.02107729
#
# Stress axis : x y z
#
# Youngs Moduli (GPa) = 98.56736 51.39635 102.71589
#
# Poissons Ratio (x) = 0.17187 0.23618
# Poissons Ratio (y) = 0.32961 0.35815
# Poissons Ratio (z) = 0.22664 0.17921
#
# Static dielectric constant tensor:
#      x y z
#    x 3.815500 0.000000 -0.185810 
#    y 0.000000 3.728700 0.000000 
#    z -0.185810 0.000000 3.548070 
# 
# 
# High freq. dielectric constant tensor:
#      x y z
#    x 1.767300 0.000000 -0.008650 
#    y 0.000000 1.767660 0.000000 
#    z -0.008650 0.000000 1.764050 
# 
# From -- ./inp_files/26077.got.cif
#   From: 2010.06.25/outbox.cif.g09.slc.cpg/sg11_14_cif.got.tgz:26077.got - 2010.06.27 23:14:04.
