data_PCOD8076321
_publ_section_title
;
Structure prediction by ZEFSAII (Michael W. Deem and Ramdas Pophale) SiO2 
 PCOD8076321
Probable space group: P 21/M
;
_chemical_formula_sum "Si O2"
_cell_formula_units_Z 24
_cell_length_a 11.275353
_cell_length_b 8.774604
_cell_length_c 12.098147
_cell_angle_alpha 90.000000
_cell_angle_beta 73.910751
_cell_angle_gamma 90.000000
_cell_volume 1150.068252
_symmetry_space_group_name_H-M "P 21/M"
_symmetry_group_IT_number 11
_symmetry_cell_setting 'monoclinic'
loop_
_space_group_symop_operation_xyz
x,y,z
-x,1/2+y,-z
-x,-y,-z
x,1/2-y,z
loop_
_atom_site_type_symbol
_atom_site_label
_atom_site_fract_x
_atom_site_fract_y
_atom_site_fract_z
Si Si1 0.162308 0.568104 0.250142
Si Si2 0.022899 0.927291 0.874908
Si Si3 0.761526 0.569681 0.551057
Si Si4 0.499224 0.423797 0.664410
Si Si5 0.426146 0.919901 0.113180
Si Si6 0.754329 0.073626 0.331957
O O1 0.159877 0.750000 0.260382
O O2 0.150132 0.499042 0.376458
O O3 0.292215 0.505897 0.168131
O O4 0.057153 0.509694 0.197136
O O5 0.987727 0.750000 0.889945
O O6 0.164713 0.951314 0.800138
O O7 0.000000 0.000000 0.000000
O O8 0.758804 0.750000 0.563247
O O9 0.623665 0.502474 0.591055
O O10 0.815984 0.519481 0.417896
O O11 0.495066 0.250000 0.621478
O O12 0.491874 0.426391 0.798353
O O13 0.383916 0.516686 0.649739
O O14 0.403336 0.750000 0.077896
O O15 0.500000 0.000000 0.000000
O O16 0.751529 0.250000 0.365585
#
# Coordination Sequence:
#
# PCOD8076321 Si02
#       6
#     4   4   4   4   4   4
#     4  10  22  42  64  89 123 161 204 255 307 362
#     4  11  26  45  65  90 122 164 210 255 307 363
#     4  11  22  39  65  95 125 161 203 253 311 367
#     4  10  21  38  59  90 127 163 202 251 308 365
#     4   9  20  35  56  86 118 156 199 246 300 357
#     4  11  24  41  62  90 124 165 208 253 305 367
#
# _framework density 20.868324999999999
#
# number of rings (size 3 to 8) (size 9 to 14) (size 15 to 20)
#    0.000    1.667    0.000    5.000    2.333    7.333 
#    0.000    0.000    0.000    0.000    0.000    0.000 
#    0.000    0.000    0.000    0.000    0.000    0.000 
#
# Total GULP energy -297619.020719 kJ/mol
# GULP energy per Si atom -12400.792530 kJ/mol
# Density = 2.082083 g / cm^3
# Si number density = 20.868325 Si / 1000 Ang^3
#
#
#
# Elastic Constant Matrix: (Units=GPa)
#
#
# Indices 1 2 3 4 5 6 
#
# 1 62.6888 32.0117 32.7228 0.0000 21.7924 0.0000
# 2 32.0117 124.7622 51.4249 0.0000 0.3303 0.0000
# 3 32.7228 51.4249 119.0158 0.0000 -1.1953 0.0000
# 4 0.0000 0.0000 0.0000 41.9847 0.0000 3.9697
# 5 21.7924 0.3303 -1.1953 0.0000 26.0520 0.0000
# 6 0.0000 0.0000 0.0000 3.9697 0.0000 33.0741
#
#
#
# Elastic Compliance Matrix: (Units=1/GPa)
#
#
# Indices 1 2 3 4 5 6 
#
# 1 0.031221 -0.005224 -0.006591 0.000000 -0.026352 0.000000
# 2 -0.005224 0.010629 -0.003115 0.000000 0.004092 0.000000
# 3 -0.006591 -0.003115 0.011622 0.000000 0.006086 0.000000
# 4 0.000000 0.000000 0.000000 0.024092 0.000000 -0.002892
# 5 -0.026352 0.004092 0.006086 0.000000 0.060656 0.000000
# 6 0.000000 0.000000 0.000000 -0.002892 0.000000 0.030582
#
#
# Mechanical properties :
#
#
# Convention : Reuss Voigt Hill
#
# Bulk Modulus (GPa) = 42.35475 59.86508 51.10992
# Shear Modulus (GPa) = 24.20931 32.90933 28.55932
#
# Velocity S-wave (km/s) = 3.40972 3.97545 3.70340
# Velocity P-wave (km/s) = 5.98680 7.05844 6.54459
#
# Compressibility (1/GPa) = 0.02361010
#
# Stress axis : x y z
#
# Youngs Moduli (GPa) = 32.02981 94.08385 86.04621
#
# Poissons Ratio (x) = 0.49150 0.56717
# Poissons Ratio (y) = 0.16733 0.26804
# Poissons Ratio (z) = 0.21112 0.29308
#
# Static dielectric constant tensor:
#      x y z
#    x 3.494080 0.000000 -0.092780 
#    y 0.000000 3.826380 0.000000 
#    z -0.092780 0.000000 4.398610 
# 
# 
# High freq. dielectric constant tensor:
#      x y z
#    x 1.810780 0.000000 0.001580 
#    y 0.000000 1.826620 0.000000 
#    z 0.001580 0.000000 1.830610 
# 
# From -- ./inp_files/33807.got.cif
#   From: 2010.06.25/outbox.cif.g09.slc.cpg/sg11_17_cif.got.tgz:33807.got - 2010.06.27 23:14:04.
