data_PCOD8076923
_publ_section_title
;
Structure prediction by ZEFSAII (Michael W. Deem and Ramdas Pophale) SiO2 
 PCOD8076923
Probable space group: P 21/M
;
_chemical_formula_sum "Si O2"
_cell_formula_units_Z 20
_cell_length_a 14.723529
_cell_length_b 8.961833
_cell_length_c 19.737945
_cell_angle_alpha 90.000000
_cell_angle_beta 152.669341
_cell_angle_gamma 90.000000
_cell_volume 1195.753409
_symmetry_space_group_name_H-M "P 21/M"
_symmetry_group_IT_number 11
_symmetry_cell_setting 'monoclinic'
loop_
_space_group_symop_operation_xyz
x,y,z
-x,1/2+y,-z
-x,-y,-z
x,1/2-y,z
loop_
_atom_site_type_symbol
_atom_site_label
_atom_site_fract_x
_atom_site_fract_y
_atom_site_fract_z
Si Si1 0.034524 0.075790 0.272955
Si Si2 0.674091 0.581055 0.076864
Si Si3 0.789047 0.072415 0.874212
Si Si4 0.477931 0.423206 0.556945
Si Si5 0.209277 0.419522 0.989733
O O1 0.987441 0.250000 0.235761
O O2 0.260171 0.044825 0.443489
O O3 0.885034 0.002611 0.229577
O O4 0.992483 0.998321 0.171632
O O5 0.690678 0.750000 0.114543
O O6 0.632351 0.577539 0.967608
O O7 0.500000 0.500000 0.000000
O O8 0.805094 0.250000 0.887426
O O9 0.637533 0.016694 0.716315
O O10 0.706199 0.011089 0.890763
O O11 0.000000 0.000000 0.000000
O O12 0.500000 0.500000 0.500000
O O13 0.509412 0.250000 0.564858
O O14 0.158846 0.250000 0.978140
#
# Coordination Sequence:
#
# PCOD8076923 Si02
#       5
#     4   4   4   4   4
#     4   9  17  32  52  74 102 134 169 211 259 303
#     4   9  18  31  53  81 107 133 171 216 258 306
#     4  11  22  35  51  73 103 138 176 215 257 307
#     4  10  22  35  50  73 102 137 175 214 257 306
#     4   9  19  33  50  76 104 131 170 212 254 305
#
# _framework density 16.725857000000001
#
# number of rings (size 3 to 8) (size 9 to 14) (size 15 to 20)
#    1.200    1.200    0.000    3.000    0.000    6.400 
#    0.000    0.000    0.000    1.200    0.000    0.000 
#    0.000    0.000    0.000    0.000    0.000    0.000 
#
# Total GULP energy -247814.952645 kJ/mol
# GULP energy per Si atom -12390.747632 kJ/mol
# Density = 1.668779 g / cm^3
# Si number density = 16.725857 Si / 1000 Ang^3
#
#
#
# Elastic Constant Matrix: (Units=GPa)
#
#
# Indices 1 2 3 4 5 6 
#
# 1 90.7558 49.2456 56.2163 0.0000 9.7282 0.0000
# 2 49.2456 110.6631 57.4290 0.0000 6.6329 0.0000
# 3 56.2163 57.4290 129.2564 0.0000 3.0637 0.0000
# 4 0.0000 0.0000 0.0000 24.0068 0.0000 -0.4060
# 5 9.7282 6.6329 3.0637 0.0000 25.3587 0.0000
# 6 0.0000 0.0000 0.0000 -0.4060 0.0000 33.3304
#
#
#
# Elastic Compliance Matrix: (Units=1/GPa)
#
#
# Indices 1 2 3 4 5 6 
#
# 1 0.017396 -0.004661 -0.005381 0.000000 -0.004804 0.000000
# 2 -0.004661 0.013147 -0.003786 0.000000 -0.001193 0.000000
# 3 -0.005381 -0.003786 0.011720 0.000000 0.001639 0.000000
# 4 0.000000 0.000000 0.000000 0.041663 0.000000 0.000508
# 5 -0.004804 -0.001193 0.001639 0.000000 0.041391 0.000000
# 6 0.000000 0.000000 0.000000 0.000508 0.000000 0.030009
#
#
# Mechanical properties :
#
#
# Convention : Reuss Voigt Hill
#
# Bulk Modulus (GPa) = 68.45891 72.93966 70.69928
# Shear Modulus (GPa) = 26.61696 27.72483 27.17089
#
# Velocity S-wave (km/s) = 3.99352 4.07578 4.03486
# Velocity P-wave (km/s) = 7.89197 8.11498 8.00425
#
# Compressibility (1/GPa) = 0.01460730
#
# Stress axis : x y z
#
# Youngs Moduli (GPa) = 57.48555 76.06526 85.32342
#
# Poissons Ratio (x) = 0.35451 0.45914
# Poissons Ratio (y) = 0.26792 0.32302
# Poissons Ratio (z) = 0.30934 0.28797
#
# Static dielectric constant tensor:
#      x y z
#    x 3.034520 0.000000 -0.009790 
#    y 0.000000 3.294790 0.000000 
#    z -0.009790 0.000000 3.142760 
# 
# 
# High freq. dielectric constant tensor:
#      x y z
#    x 1.632200 0.000000 0.004610 
#    y 0.000000 1.662980 0.000000 
#    z 0.004610 0.000000 1.619290 
# 
# From -- ./inp_files/20260.got.cif
#   From: 2010.06.25/outbox.cif.g09.slc.cpg/sg11_11_cif.got.tgz:20260.got - 2010.06.27 23:14:04.
