data_PCOD8076938
_publ_section_title
;
Structure prediction by ZEFSAII (Michael W. Deem and Ramdas Pophale) SiO2 
 PCOD8076938
Probable space group: P 21/M
;
_chemical_formula_sum "Si O2"
_cell_formula_units_Z 28
_cell_length_a 28.989423
_cell_length_b 9.078407
_cell_length_c 9.025841
_cell_angle_alpha 90.000000
_cell_angle_beta 141.111689
_cell_angle_gamma 90.000000
_cell_volume 1491.286777
_symmetry_space_group_name_H-M "P 21/M"
_symmetry_group_IT_number 11
_symmetry_cell_setting 'monoclinic'
loop_
_space_group_symop_operation_xyz
x,y,z
-x,1/2+y,-z
-x,-y,-z
x,1/2-y,z
loop_
_atom_site_type_symbol
_atom_site_label
_atom_site_fract_x
_atom_site_fract_y
_atom_site_fract_z
Si Si1 0.999998 0.419335 0.347429
Si Si2 0.562725 0.422262 0.250061
Si Si3 0.158809 0.423278 0.738667
Si Si4 0.293597 0.580097 0.581700
Si Si5 0.158816 0.923279 0.055344
Si Si6 0.293601 0.080082 0.886275
Si Si7 0.562738 0.922278 0.563615
O O1 0.000011 0.250000 0.388950
O O2 0.077832 0.457638 0.461982
O O3 0.000000 0.500000 0.500000
O O4 0.922156 0.457626 0.072820
O O5 0.544069 0.250000 0.223103
O O6 0.639732 0.446852 0.362410
O O7 0.568007 0.500026 0.420009
O O8 0.500000 0.500000 0.000000
O O9 0.170784 0.250000 0.794463
O O10 0.219807 0.484498 0.777940
O O11 0.167814 0.499989 0.919513
O O12 0.283127 0.750000 0.593842
O O13 0.219820 0.515495 0.321062
O O14 0.310605 0.499992 0.776492
O O15 0.170780 0.750000 0.059372
O O16 0.283173 0.250000 0.821918
O O17 0.360257 0.053033 0.163717
O O18 0.544114 0.750000 0.497444
O O19 0.500000 0.000000 0.500000
#
# Coordination Sequence:
#
# PCOD8076938 Si02
#       7
#     4   4   4   4   4   4   4
#     4   8  14  26  47  72 100 130 164 208 255 302
#     4  11  23  39  59  83 109 139 174 215 261 311
#     4   9  17  31  51  76 102 132 170 212 257 306
#     4  10  22  37  53  75 105 139 175 213 257 306
#     4   9  17  31  51  76 102 132 170 212 257 306
#     4  10  22  37  53  75 105 139 175 213 257 306
#     4  11  23  39  59  83 109 139 174 215 261 311
#
# _framework density 18.775732000000001
#
# number of rings (size 3 to 8) (size 9 to 14) (size 15 to 20)
#    0.000    2.286    0.000    2.571    0.000    5.714 
#    0.000    0.714    0.000    0.000    0.000    0.000 
#    0.000    0.000    0.000    0.000    0.000    0.000 
#
# Total GULP energy -347010.718338 kJ/mol
# GULP energy per Si atom -12393.239941 kJ/mol
# Density = 1.873300 g / cm^3
# Si number density = 18.775732 Si / 1000 Ang^3
#
#
#
# Elastic Constant Matrix: (Units=GPa)
#
#
# Indices 1 2 3 4 5 6 
#
# 1 120.6430 60.2007 62.6168 0.0000 3.8203 0.0000
# 2 60.2007 74.7018 60.4867 0.0000 0.3981 0.0000
# 3 62.6168 60.4867 127.5511 0.0000 8.1544 0.0000
# 4 0.0000 0.0000 0.0000 27.0208 0.0000 -3.2690
# 5 3.8203 0.3981 8.1544 0.0000 37.7614 0.0000
# 6 0.0000 0.0000 0.0000 -3.2690 0.0000 28.8783
#
#
#
# Elastic Compliance Matrix: (Units=1/GPa)
#
#
# Indices 1 2 3 4 5 6 
#
# 1 0.014376 -0.009593 -0.002456 0.000000 -0.000823 0.000000
# 2 -0.009593 0.028285 -0.008869 0.000000 0.002588 0.000000
# 3 -0.002456 -0.008869 0.013415 0.000000 -0.002555 0.000000
# 4 0.000000 0.000000 0.000000 0.037522 0.000000 0.004247
# 5 -0.000823 0.002588 -0.002555 0.000000 0.027090 0.000000
# 6 0.000000 0.000000 0.000000 0.004247 0.000000 0.035109
#
#
# Mechanical properties :
#
#
# Convention : Reuss Voigt Hill
#
# Bulk Modulus (GPa) = 70.22338 76.61159 73.41748
# Shear Modulus (GPa) = 24.70597 28.03820 26.37209
#
# Velocity S-wave (km/s) = 3.63139 3.86854 3.75184
# Velocity P-wave (km/s) = 7.42058 7.80040 7.61286
#
# Compressibility (1/GPa) = 0.01424027
#
# Stress axis : x y z
#
# Youngs Moduli (GPa) = 69.55829 35.35458 74.54330
#
# Poissons Ratio (x) = 0.33914 0.18308
# Poissons Ratio (y) = 0.66725 0.66115
# Poissons Ratio (z) = 0.17084 0.31357
#
# Static dielectric constant tensor:
#      x y z
#    x 3.568160 0.000000 0.525420 
#    y 0.000000 3.517310 0.000000 
#    z 0.525420 0.000000 3.866520 
# 
# 
# High freq. dielectric constant tensor:
#      x y z
#    x 1.726160 0.000000 0.025700 
#    y 0.000000 1.728920 0.000000 
#    z 0.025700 0.000000 1.740750 
# 
# From -- ./inp_files/28552.got.cif
#   From: 2010.06.25/outbox.cif.g09.slc.cpg/sg11_15_cif.got.tgz:28552.got - 2010.06.27 23:14:04.
