data_PCOD8076239
_publ_section_title
;
Structure prediction by ZEFSAII (Michael W. Deem and Ramdas Pophale) SiO2 
 PCOD8076239
Probable space group: P 21/M
;
_chemical_formula_sum "Si O2"
_cell_formula_units_Z 32
_cell_length_a 26.227149
_cell_length_b 9.342514
_cell_length_c 21.099401
_cell_angle_alpha 90.000000
_cell_angle_beta 20.130536
_cell_angle_gamma 90.000000
_cell_volume 1779.285076
_symmetry_space_group_name_H-M "P 21/M"
_symmetry_group_IT_number 11
_symmetry_cell_setting 'monoclinic'
loop_
_space_group_symop_operation_xyz
x,y,z
-x,1/2+y,-z
-x,-y,-z
x,1/2-y,z
loop_
_atom_site_type_symbol
_atom_site_label
_atom_site_fract_x
_atom_site_fract_y
_atom_site_fract_z
Si Si1 0.885985 0.585207 0.091244
Si Si2 0.221741 0.585178 0.491467
Si Si3 0.447488 0.414101 0.501240
Si Si4 0.081335 0.417392 0.090714
Si Si5 0.451636 0.412633 0.844112
Si Si6 0.695880 0.913952 0.717215
Si Si7 0.593606 0.911916 0.965362
Si Si8 0.665219 0.419486 0.136581
O O1 0.933445 0.750000 0.037384
O O2 0.725566 0.559063 0.309054
O O3 0.888075 0.530067 0.016444
O O4 0.000000 0.500000 0.000000
O O5 0.222616 0.750000 0.471739
O O6 0.377540 0.542069 0.341927
O O7 0.194797 0.501901 0.456367
O O8 0.089623 0.549068 0.693926
O O9 0.500000 0.500000 0.500000
O O10 0.480133 0.250000 0.478916
O O11 0.535533 0.464092 0.336496
O O12 0.119701 0.250000 0.054146
O O13 0.182113 0.508350 0.020412
O O14 0.445762 0.250000 0.824533
O O15 0.380614 0.521902 0.878078
O O16 0.353786 0.425419 0.022988
O O17 0.709424 0.750000 0.680719
O O18 0.725283 0.934005 0.759224
O O19 0.529061 0.967528 0.901742
O O20 0.527570 0.750000 0.033140
O O21 0.687436 0.250000 0.106576
#
# Coordination Sequence:
#
# PCOD8076239 Si02
#       8
#     4   4   4   4   4   4   4   4
#     4  10  22  38  57  81 106 135 172 214 260 309
#     4   9  19  34  52  77 106 137 176 216 256 309
#     4  10  21  38  57  78 104 135 174 216 257 307
#     4  10  21  39  58  75 102 142 180 211 253 315
#     4   9  18  33  53  76 104 139 174 211 253 306
#     4   9  15  25  46  75 104 136 169 211 263 306
#     4   8  15  28  46  71 104 137 174 213 252 304
#     4  11  23  36  53  79 107 136 172 218 265 306
#
# _framework density 17.984752
#
# number of rings (size 3 to 8) (size 9 to 14) (size 15 to 20)
#    0.000    2.500    1.250    1.500    1.750    4.500 
#    0.000    0.000    0.000    0.750    0.000    0.000 
#    0.000    0.000    0.000    0.000    0.000    0.000 
#
# Total GULP energy -396639.243815 kJ/mol
# GULP energy per Si atom -12394.976369 kJ/mol
# Density = 1.794382 g / cm^3
# Si number density = 17.984752 Si / 1000 Ang^3
#
#
#
# Elastic Constant Matrix: (Units=GPa)
#
#
# Indices 1 2 3 4 5 6 
#
# 1 115.9699 51.8949 37.5249 0.0000 6.4622 0.0000
# 2 51.8949 67.5382 25.0428 0.0000 -0.7883 0.0000
# 3 37.5249 25.0428 48.6900 0.0000 1.9572 0.0000
# 4 0.0000 0.0000 0.0000 25.6363 0.0000 1.7233
# 5 6.4622 -0.7883 1.9572 0.0000 23.7971 0.0000
# 6 0.0000 0.0000 0.0000 1.7233 0.0000 34.6003
#
#
#
# Elastic Compliance Matrix: (Units=1/GPa)
#
#
# Indices 1 2 3 4 5 6 
#
# 1 0.015134 -0.009151 -0.006802 0.000000 -0.003853 0.000000
# 2 -0.009151 0.023875 -0.005376 0.000000 0.003718 0.000000
# 3 -0.006802 -0.005376 0.028573 0.000000 -0.000681 0.000000
# 4 0.000000 0.000000 0.000000 0.039138 0.000000 -0.001949
# 5 -0.003853 0.003718 -0.000681 0.000000 0.043247 0.000000
# 6 0.000000 0.000000 0.000000 -0.001949 0.000000 0.028999
#
#
# Mechanical properties :
#
#
# Convention : Reuss Voigt Hill
#
# Bulk Modulus (GPa) = 40.12395 51.23592 45.67994
# Shear Modulus (GPa) = 21.74563 24.65577 23.20070
#
# Velocity S-wave (km/s) = 3.48100 3.70662 3.59558
# Velocity P-wave (km/s) = 6.20604 6.84610 6.53391
#
# Compressibility (1/GPa) = 0.02492277
#
# Stress axis : x y z
#
# Youngs Moduli (GPa) = 66.07840 41.88483 34.99858
#
# Poissons Ratio (x) = 0.38330 0.23805
# Poissons Ratio (y) = 0.60470 0.18816
# Poissons Ratio (z) = 0.44944 0.22519
#
# Static dielectric constant tensor:
#      x y z
#    x 4.358300 0.000000 -0.898790 
#    y 0.000000 3.390800 0.000000 
#    z -0.898790 0.000000 5.344070 
# 
# 
# High freq. dielectric constant tensor:
#      x y z
#    x 1.686400 0.000000 0.029990 
#    y 0.000000 1.699370 0.000000 
#    z 0.029990 0.000000 1.683810 
# 
# From -- ./inp_files/67052.got.cif
#   From: 2010.06.25/outbox.cif.g09.slc.cpg/sg11_34_cif.got.tgz:67052.got - 2010.06.27 23:14:04.
