data_PCOD8076887
_publ_section_title
;
Structure prediction by ZEFSAII (Michael W. Deem and Ramdas Pophale) SiO2 
 PCOD8076887
Probable space group: P 21/M
;
_chemical_formula_sum "Si O2"
_cell_formula_units_Z 28
_cell_length_a 16.024589
_cell_length_b 17.495401
_cell_length_c 8.683953
_cell_angle_alpha 90.000000
_cell_angle_beta 147.911937
_cell_angle_gamma 90.000000
_cell_volume 1293.315200
_symmetry_space_group_name_H-M "P 21/M"
_symmetry_group_IT_number 11
_symmetry_cell_setting 'monoclinic'
loop_
_space_group_symop_operation_xyz
x,y,z
-x,1/2+y,-z
-x,-y,-z
x,1/2-y,z
loop_
_atom_site_type_symbol
_atom_site_label
_atom_site_fract_x
_atom_site_fract_y
_atom_site_fract_z
Si Si1 0.934919 0.839296 0.356583
Si Si2 0.549235 0.895625 0.255503
Si Si3 0.224918 0.659941 0.616571
Si Si4 0.376035 0.162025 0.287893
Si Si5 0.850383 0.840269 0.557657
Si Si6 0.568226 0.040024 0.456929
Si Si7 0.104186 0.925734 0.132181
O O1 0.940679 0.750000 0.394865
O O2 0.890757 0.875259 0.452650
O O3 0.103869 0.867014 0.560394
O O4 0.805461 0.860514 0.025234
O O5 0.582869 0.858405 0.473760
O O6 0.694999 0.882840 0.371258
O O7 0.527211 0.987243 0.244190
O O8 0.398817 0.856297 0.946902
O O9 0.205055 0.750000 0.547557
O O10 0.190487 0.607966 0.416028
O O11 0.407461 0.250000 0.307259
O O12 0.482798 0.122081 0.322336
O O13 0.819903 0.750000 0.512627
O O14 0.997356 0.858846 0.896330
O O15 0.756018 0.050689 0.765819
O O16 0.500000 0.000000 0.500000
O O17 0.000000 0.000000 0.000000
#
# Coordination Sequence:
#
# PCOD8076887 Si02
#       7
#     4   4   4   4   4   4   4
#     4   9  22  41  65 100 133 167 221 281 341 397
#     4  11  23  44  69  98 139 178 222 282 357 408
#     4  11  25  44  70 104 137 175 228 286 336 406
#     4  10  21  41  70  96 132 181 230 283 340 408
#     4  11  23  42  70  99 133 178 230 284 340 406
#     4  10  25  43  67  98 135 175 228 279 338 411
#     4  12  26  46  66  95 138 180 228 272 343 404
#
# _framework density 21.649788000000001
#
# number of rings (size 3 to 8) (size 9 to 14) (size 15 to 20)
#    0.000    1.429    1.429    2.571    8.000    4.000 
#    0.000    1.429    0.000    0.000    0.000    0.000 
#    0.000    0.000    0.000    0.000    0.000    0.000 
#
# Total GULP energy -347178.047354 kJ/mol
# GULP energy per Si atom -12399.215977 kJ/mol
# Density = 2.160051 g / cm^3
# Si number density = 21.649788 Si / 1000 Ang^3
#
#
#
# Elastic Constant Matrix: (Units=GPa)
#
#
# Indices 1 2 3 4 5 6 
#
# 1 141.8088 42.6892 73.7237 0.0000 20.9511 0.0000
# 2 42.6892 82.3647 34.8854 0.0000 5.7061 0.0000
# 3 73.7237 34.8854 135.4125 0.0000 9.4685 0.0000
# 4 0.0000 0.0000 0.0000 35.4439 0.0000 1.0479
# 5 20.9511 5.7061 9.4685 0.0000 49.1603 0.0000
# 6 0.0000 0.0000 0.0000 1.0479 0.0000 33.3232
#
#
#
# Elastic Compliance Matrix: (Units=1/GPa)
#
#
# Indices 1 2 3 4 5 6 
#
# 1 0.011170 -0.003456 -0.004953 0.000000 -0.003405 0.000000
# 2 -0.003456 0.014738 -0.001925 0.000000 0.000133 0.000000
# 3 -0.004953 -0.001925 0.010556 0.000000 0.000301 0.000000
# 4 0.000000 0.000000 0.000000 0.028240 0.000000 -0.000888
# 5 -0.003405 0.000133 0.000301 0.000000 0.021720 0.000000
# 6 0.000000 0.000000 0.000000 -0.000888 0.000000 0.030037
#
#
# Mechanical properties :
#
#
# Convention : Reuss Voigt Hill
#
# Bulk Modulus (GPa) = 63.30071 73.57582 68.43827
# Shear Modulus (GPa) = 35.11382 37.47131 36.29257
#
# Velocity S-wave (km/s) = 4.03165 4.16479 4.09876
# Velocity P-wave (km/s) = 7.13963 7.56212 7.35391
#
# Compressibility (1/GPa) = 0.01579761
#
# Stress axis : x y z
#
# Youngs Moduli (GPa) = 89.52440 67.85086 94.73010
#
# Poissons Ratio (x) = 0.23447 0.46921
# Poissons Ratio (y) = 0.30936 0.18234
# Poissons Ratio (z) = 0.44342 0.13060
#
# Static dielectric constant tensor:
#      x y z
#    x 4.269160 0.000000 0.207060 
#    y 0.000000 4.474760 0.000000 
#    z 0.207060 0.000000 3.988250 
# 
# 
# High freq. dielectric constant tensor:
#      x y z
#    x 1.860410 0.000000 0.012410 
#    y 0.000000 1.852420 0.000000 
#    z 0.012410 0.000000 1.853650 
# 
# From -- ./inp_files/23221.got.cif
#   From: 2010.06.25/outbox.cif.g09.slc.cpg/sg11_12_cif.got.tgz:23221.got - 2010.06.27 23:14:04.
