data_PCOD8076005
_publ_section_title
;
Structure prediction by ZEFSAII (Michael W. Deem and Ramdas Pophale) SiO2 
 PCOD8076005
Probable space group: P 21/M
;
_chemical_formula_sum "Si O2"
_cell_formula_units_Z 32
_cell_length_a 8.375461
_cell_length_b 14.110578
_cell_length_c 12.622572
_cell_angle_alpha 90.000000
_cell_angle_beta 88.536989
_cell_angle_gamma 90.000000
_cell_volume 1491.282031
_symmetry_space_group_name_H-M "P 21/M"
_symmetry_group_IT_number 11
_symmetry_cell_setting 'monoclinic'
loop_
_space_group_symop_operation_xyz
x,y,z
-x,1/2+y,-z
-x,-y,-z
x,1/2-y,z
loop_
_atom_site_type_symbol
_atom_site_label
_atom_site_fract_x
_atom_site_fract_y
_atom_site_fract_z
Si Si1 0.108927 0.968756 0.808690
Si Si2 0.132271 0.637744 0.180034
Si Si3 0.313139 0.521263 0.003801
Si Si4 0.838294 0.140758 0.578877
Si Si5 0.195945 0.355382 0.528400
Si Si6 0.683537 0.034045 0.394070
Si Si7 0.386346 0.144733 0.324263
Si Si8 0.186170 0.357280 0.125900
O O1 0.177178 0.948127 0.691978
O O2 0.983347 0.884613 0.823457
O O3 0.252432 0.949560 0.888974
O O4 0.028300 0.073233 0.824886
O O5 0.093527 0.750000 0.161065
O O6 0.262795 0.600553 0.092373
O O7 0.204564 0.623432 0.296871
O O8 0.221916 0.422891 0.025649
O O9 0.500000 0.500000 0.000000
O O10 0.819921 0.250000 0.547984
O O11 0.719611 0.082361 0.506494
O O12 0.018504 0.106212 0.552766
O O13 0.216270 0.250000 0.574829
O O14 0.324626 0.420919 0.586794
O O15 0.231472 0.359487 0.402619
O O16 0.514067 0.066545 0.353858
O O17 0.463809 0.250000 0.329654
O O18 0.326513 0.123804 0.207705
O O19 0.181754 0.250000 0.086579
#
# Coordination Sequence:
#
# PCOD8076005 Si02
#       8
#     4   4   4   4   4   4   4   4
#     4  11  24  40  66  96 122 164 219 263 308 382
#     4  10  22  43  67  92 127 167 211 266 317 372
#     4  11  25  44  65  95 130 159 210 263 317 388
#     4  10  21  38  62  94 126 165 218 267 314 385
#     4  10  21  37  56  85 125 169 214 256 310 383
#     4  12  22  36  62  91 131 174 209 263 328 370
#     4  10  22  38  57  89 128 165 210 265 320 382
#     4  10  22  42  67  91 123 165 211 264 322 373
#
# _framework density 21.458046
#
# number of rings (size 3 to 8) (size 9 to 14) (size 15 to 20)
#    0.000    1.500    1.250    4.125    3.500    4.500 
#    2.250    0.000    0.000    0.000    0.000    0.000 
#    0.000    0.000    0.000    0.000    0.000    0.000 
#
# Total GULP energy -396743.085510 kJ/mol
# GULP energy per Si atom -12398.221422 kJ/mol
# Density = 2.140921 g / cm^3
# Si number density = 21.458046 Si / 1000 Ang^3
#
#
#
# Elastic Constant Matrix: (Units=GPa)
#
#
# Indices 1 2 3 4 5 6 
#
# 1 73.0415 21.1100 18.3807 0.0000 4.7293 0.0000
# 2 21.1100 96.5104 25.3021 0.0000 12.2826 0.0000
# 3 18.3807 25.3021 90.7870 0.0000 2.6435 0.0000
# 4 0.0000 0.0000 0.0000 26.2452 0.0000 0.3447
# 5 4.7293 12.2826 2.6435 0.0000 34.5266 0.0000
# 6 0.0000 0.0000 0.0000 0.3447 0.0000 26.7455
#
#
#
# Elastic Compliance Matrix: (Units=1/GPa)
#
#
# Indices 1 2 3 4 5 6 
#
# 1 0.015077 -0.002569 -0.002308 0.000000 -0.000975 0.000000
# 2 -0.002569 0.012121 -0.002749 0.000000 -0.003750 0.000000
# 3 -0.002308 -0.002749 0.012238 0.000000 0.000357 0.000000
# 4 0.000000 0.000000 0.000000 0.038109 0.000000 -0.000491
# 5 -0.000975 -0.003750 0.000357 0.000000 0.030403 0.000000
# 6 0.000000 0.000000 0.000000 -0.000491 0.000000 0.037396
#
#
# Mechanical properties :
#
#
# Convention : Reuss Voigt Hill
#
# Bulk Modulus (GPa) = 41.34859 43.32494 42.33677
# Shear Modulus (GPa) = 29.64590 30.53988 30.09289
#
# Velocity S-wave (km/s) = 3.72099 3.77667 3.74893
# Velocity P-wave (km/s) = 6.14592 6.26515 6.20582
#
# Compressibility (1/GPa) = 0.02418462
#
# Stress axis : x y z
#
# Youngs Moduli (GPa) = 66.32531 82.49911 81.71372
#
# Poissons Ratio (x) = 0.21191 0.18862
# Poissons Ratio (y) = 0.17037 0.22463
# Poissons Ratio (z) = 0.15310 0.22679
#
# Static dielectric constant tensor:
#      x y z
#    x 3.654050 0.000000 -0.141730 
#    y 0.000000 4.049430 0.000000 
#    z -0.141730 0.000000 4.024000 
# 
# 
# High freq. dielectric constant tensor:
#      x y z
#    x 1.826750 0.000000 -0.006160 
#    y 0.000000 1.850270 0.000000 
#    z -0.006160 0.000000 1.848000 
# 
# From -- ./inp_files/31886.got.cif
#   From: 2010.06.25/outbox.cif.g09.slc.cpg/sg11_16_cif.got.tgz:31886.got - 2010.06.27 23:14:04.
