data_PCOD8076676
_publ_section_title
;
Structure prediction by ZEFSAII (Michael W. Deem and Ramdas Pophale) SiO2 
 PCOD8076676
Probable space group: P 21/M
;
_chemical_formula_sum "Si O2"
_cell_formula_units_Z 32
_cell_length_a 19.995302
_cell_length_b 14.213262
_cell_length_c 14.104464
_cell_angle_alpha 90.000000
_cell_angle_beta 157.894736
_cell_angle_gamma 90.000000
_cell_volume 1508.423767
_symmetry_space_group_name_H-M "P 21/M"
_symmetry_group_IT_number 11
_symmetry_cell_setting 'monoclinic'
loop_
_space_group_symop_operation_xyz
x,y,z
-x,1/2+y,-z
-x,-y,-z
x,1/2-y,z
loop_
_atom_site_type_symbol
_atom_site_label
_atom_site_fract_x
_atom_site_fract_y
_atom_site_fract_z
Si Si1 0.164909 0.431945 0.702850
Si Si2 0.148295 0.142838 0.059403
Si Si3 0.459703 0.006447 0.745665
Si Si4 0.846369 0.540148 0.515479
Si Si5 0.842185 0.141081 0.968326
Si Si6 0.024887 0.353265 0.698113
Si Si7 0.512343 0.861410 0.388757
Si Si8 0.212546 0.860204 0.324139
O O1 0.163241 0.393709 0.591750
O O2 0.134877 0.352913 0.743963
O O3 0.000000 0.500000 0.500000
O O4 0.350557 0.482877 0.962563
O O5 0.145668 0.250000 0.090271
O O6 0.319964 0.095293 0.332949
O O7 0.166243 0.132992 0.969589
O O8 0.961701 0.099299 0.850530
O O9 0.379437 0.917437 0.584036
O O10 0.338241 0.041729 0.672299
O O11 0.486842 0.095372 0.713818
O O12 0.001109 0.575269 0.788021
O O13 0.877453 0.434164 0.516039
O O14 0.890796 0.250000 0.049540
O O15 0.665769 0.109687 0.790970
O O16 0.813026 0.120158 0.820043
O O17 0.933235 0.250000 0.587593
O O18 0.524888 0.750000 0.395420
O O19 0.247248 0.750000 0.389878
#
# Coordination Sequence:
#
# PCOD8076676 Si02
#       8
#     4   4   4   4   4   4   4   4
#     4  10  24  44  61  88 121 162 212 265 307 366
#     4   9  18  35  58  88 127 163 199 250 307 373
#     4  12  24  39  67  92 125 169 207 261 324 373
#     4  11  23  42  67  90 128 163 218 259 314 372
#     4  10  23  42  64  92 128 169 210 263 316 373
#     4  10  21  39  64  92 125 166 207 257 315 367
#     4  10  22  38  59  91 128 167 212 256 313 383
#     4  10  22  39  61  95 132 162 205 256 315 385
#
# _framework density 21.214198
#
# number of rings (size 3 to 8) (size 9 to 14) (size 15 to 20)
#    0.000    1.750    1.250    2.625    3.500    4.000 
#    0.000    3.750    0.000    4.500    0.000    0.000 
#    0.000    0.000    0.000    0.000    0.000    0.000 
#
# Total GULP energy -396714.833832 kJ/mol
# GULP energy per Si atom -12397.338557 kJ/mol
# Density = 2.116591 g / cm^3
# Si number density = 21.214198 Si / 1000 Ang^3
#
#
#
# Elastic Constant Matrix: (Units=GPa)
#
#
# Indices 1 2 3 4 5 6 
#
# 1 164.6598 31.7618 46.2108 0.0000 -0.5231 0.0000
# 2 31.7618 57.0877 23.4677 0.0000 8.1258 0.0000
# 3 46.2108 23.4677 132.9693 0.0000 11.4158 0.0000
# 4 0.0000 0.0000 0.0000 15.9588 0.0000 0.0605
# 5 -0.5231 8.1258 11.4158 0.0000 33.6234 0.0000
# 6 0.0000 0.0000 0.0000 0.0605 0.0000 31.3837
#
#
#
# Elastic Compliance Matrix: (Units=1/GPa)
#
#
# Indices 1 2 3 4 5 6 
#
# 1 0.007329 -0.003459 -0.002079 0.000000 0.001656 0.000000
# 2 -0.003459 0.020937 -0.002116 0.000000 -0.004395 0.000000
# 3 -0.002079 -0.002116 0.008833 0.000000 -0.002520 0.000000
# 4 0.000000 0.000000 0.000000 0.062662 0.000000 -0.000121
# 5 0.001656 -0.004395 -0.002520 0.000000 0.031685 0.000000
# 6 0.000000 0.000000 0.000000 -0.000121 0.000000 0.031864
#
#
# Mechanical properties :
#
#
# Convention : Reuss Voigt Hill
#
# Bulk Modulus (GPa) = 45.88874 61.95528 53.92201
# Shear Modulus (GPa) = 26.89920 33.07828 29.98874
#
# Velocity S-wave (km/s) = 3.56474 3.95302 3.76389
# Velocity P-wave (km/s) = 6.21460 7.07836 6.66050
#
# Compressibility (1/GPa) = 0.02179184
#
# Stress axis : x y z
#
# Youngs Moduli (GPa) = 136.44545 47.76321 113.21563
#
# Poissons Ratio (x) = 0.16520 0.23535
# Poissons Ratio (y) = 0.47193 0.23954
# Poissons Ratio (z) = 0.28363 0.10105
#
# Static dielectric constant tensor:
#      x y z
#    x 4.331160 0.000000 -0.100360 
#    y 0.000000 3.748280 0.000000 
#    z -0.100360 0.000000 3.825860 
# 
# 
# High freq. dielectric constant tensor:
#      x y z
#    x 1.852180 0.000000 -0.004380 
#    y 0.000000 1.819400 0.000000 
#    z -0.004380 0.000000 1.824340 
# 
# From -- ./inp_files/22218.got.cif
#   From: 2010.06.25/outbox.cif.g09.slc.cpg/sg11_12_cif.got.tgz:22218.got - 2010.06.27 23:14:04.
