data_PCOD8076329
_publ_section_title
;
Structure prediction by ZEFSAII (Michael W. Deem and Ramdas Pophale) SiO2 
 PCOD8076329
Probable space group: P 21/M
;
_chemical_formula_sum "Si O2"
_cell_formula_units_Z 32
_cell_length_a 15.943768
_cell_length_b 8.285443
_cell_length_c 24.302956
_cell_angle_alpha 90.000000
_cell_angle_beta 29.488230
_cell_angle_gamma 90.000000
_cell_volume 1580.326780
_symmetry_space_group_name_H-M "P 21/M"
_symmetry_group_IT_number 11
_symmetry_cell_setting 'monoclinic'
loop_
_space_group_symop_operation_xyz
x,y,z
-x,1/2+y,-z
-x,-y,-z
x,1/2-y,z
loop_
_atom_site_type_symbol
_atom_site_label
_atom_site_fract_x
_atom_site_fract_y
_atom_site_fract_z
Si Si1 0.097272 0.436657 0.649852
Si Si2 0.057299 0.559868 0.147215
Si Si3 0.458204 0.936009 0.465155
Si Si4 0.045032 0.938879 0.561002
Si Si5 0.184052 0.067923 0.904234
Si Si6 0.368916 0.934921 0.899517
Si Si7 0.263026 0.058937 0.341336
Si Si8 0.762339 0.068083 0.236359
O O1 0.148132 0.250000 0.626270
O O2 0.261201 0.548548 0.562702
O O3 0.022729 0.470344 0.631925
O O4 0.964452 0.480825 0.775254
O O5 0.049098 0.750000 0.140809
O O6 0.903489 0.481564 0.200660
O O7 0.241954 0.492667 0.019577
O O8 0.514051 0.750000 0.426297
O O9 0.500000 0.000000 0.500000
O O10 0.570816 0.059758 0.366484
O O11 0.049579 0.750000 0.570225
O O12 0.880575 0.992370 0.620094
O O13 0.214470 0.986948 0.429343
O O14 0.187857 0.250000 0.924832
O O15 0.278026 0.952110 0.893009
O O16 0.260642 0.057258 0.800162
O O17 0.000000 0.000000 0.000000
O O18 0.399196 0.750000 0.896826
O O19 0.557881 0.014126 0.784694
O O20 0.275527 0.250000 0.341672
O O21 0.804681 0.250000 0.192763
#
# Coordination Sequence:
#
# PCOD8076329 Si02
#       8
#     4   4   4   4   4   4   4   4
#     4  11  23  39  60  87 119 157 201 245 296 356
#     4  10  21  38  60  83 116 158 201 246 293 347
#     4  12  24  39  58  84 118 157 201 247 295 350
#     4  10  21  39  63  90 120 153 192 243 301 359
#     4  12  24  38  56  83 119 158 202 247 295 351
#     4  10  21  39  62  87 116 153 200 248 300 355
#     4   9  20  40  65  90 118 152 192 242 302 363
#     4  12  24  38  57  81 115 159 202 248 299 349
#
# _framework density 20.248978999999999
#
# number of rings (size 3 to 8) (size 9 to 14) (size 15 to 20)
#    0.000    1.250    2.500    4.125    1.750    1.500 
#    0.000    0.625    0.000    0.000    0.000    0.000 
#    0.000    0.000    0.000    0.000    0.000    0.000 
#
# Total GULP energy -396534.295776 kJ/mol
# GULP energy per Si atom -12391.696743 kJ/mol
# Density = 2.020289 g / cm^3
# Si number density = 20.248979 Si / 1000 Ang^3
#
#
#
# Elastic Constant Matrix: (Units=GPa)
#
#
# Indices 1 2 3 4 5 6 
#
# 1 99.3157 9.0707 58.8098 0.0000 17.2415 0.0000
# 2 9.0707 57.9705 16.8119 0.0000 2.7326 0.0000
# 3 58.8098 16.8119 171.7340 0.0000 10.9886 0.0000
# 4 0.0000 0.0000 0.0000 22.7358 0.0000 2.6915
# 5 17.2415 2.7326 10.9886 0.0000 36.3076 0.0000
# 6 0.0000 0.0000 0.0000 2.6915 0.0000 28.3214
#
#
#
# Elastic Compliance Matrix: (Units=1/GPa)
#
#
# Indices 1 2 3 4 5 6 
#
# 1 0.013523 -0.000646 -0.004242 0.000000 -0.005089 0.000000
# 2 -0.000646 0.017809 -0.001485 0.000000 -0.000584 0.000000
# 3 -0.004242 -0.001485 0.007429 0.000000 -0.000122 0.000000
# 4 0.000000 0.000000 0.000000 0.044484 0.000000 -0.004228
# 5 -0.005089 -0.000584 -0.000122 0.000000 0.030040 0.000000
# 6 0.000000 0.000000 0.000000 -0.004228 0.000000 0.035711
#
#
# Mechanical properties :
#
#
# Convention : Reuss Voigt Hill
#
# Bulk Modulus (GPa) = 38.43816 55.37833 46.90824
# Shear Modulus (GPa) = 29.34026 33.76149 31.55088
#
# Velocity S-wave (km/s) = 3.81067 4.08771 3.95162
# Velocity P-wave (km/s) = 6.19561 7.04892 6.63599
#
# Compressibility (1/GPa) = 0.02601582
#
# Stress axis : x y z
#
# Youngs Moduli (GPa) = 73.94574 56.15023 134.61015
#
# Poissons Ratio (x) = 0.03626 0.57104
# Poissons Ratio (y) = 0.04776 0.19988
# Poissons Ratio (z) = 0.31369 0.08338
#
# Static dielectric constant tensor:
#      x y z
#    x 3.409880 0.000000 0.140800 
#    y 0.000000 3.627220 0.000000 
#    z 0.140800 0.000000 3.971270 
# 
# 
# High freq. dielectric constant tensor:
#      x y z
#    x 1.774800 0.000000 0.014930 
#    y 0.000000 1.786580 0.000000 
#    z 0.014930 0.000000 1.805620 
# 
# From -- ./inp_files/69039.got.cif
#   From: 2010.06.25/outbox.cif.g09.slc.cpg/sg11_35_cif.got.tgz:69039.got - 2010.06.27 23:14:04.
