data_PCOD8076604
_publ_section_title
;
Structure prediction by ZEFSAII (Michael W. Deem and Ramdas Pophale) SiO2 
 PCOD8076604
Probable space group: P 21/M
;
_chemical_formula_sum "Si O2"
_cell_formula_units_Z 28
_cell_length_a 15.423963
_cell_length_b 16.862540
_cell_length_c 6.890054
_cell_angle_alpha 90.000000
_cell_angle_beta 126.885206
_cell_angle_gamma 90.000000
_cell_volume 1433.324517
_symmetry_space_group_name_H-M "P 21/M"
_symmetry_group_IT_number 11
_symmetry_cell_setting 'monoclinic'
loop_
_space_group_symop_operation_xyz
x,y,z
-x,1/2+y,-z
-x,-y,-z
x,1/2-y,z
loop_
_atom_site_type_symbol
_atom_site_label
_atom_site_fract_x
_atom_site_fract_y
_atom_site_fract_z
Si Si1 0.734370 0.341813 0.255560
Si Si2 0.674648 0.840234 0.004971
Si Si3 0.111349 0.577929 0.811194
Si Si4 0.603138 0.952100 0.568371
Si Si5 0.509630 0.840576 0.120827
Si Si6 0.199977 0.959066 0.332208
Si Si7 0.870183 0.929492 0.433353
O O1 0.732594 0.250000 0.304146
O O2 0.802968 0.357417 0.152029
O O3 0.788854 0.384992 0.509838
O O4 0.612339 0.373753 0.061710
O O5 0.687031 0.750000 0.945996
O O6 0.567833 0.847887 0.992519
O O7 0.782255 0.861589 0.272198
O O8 0.660833 0.900890 0.811376
O O9 0.138286 0.494501 0.746765
O O10 0.990424 0.607838 0.596742
O O11 0.119569 0.567657 0.053300
O O12 0.573739 0.892883 0.358331
O O13 0.500000 0.000000 0.500000
O O14 0.684873 0.018561 0.603203
O O15 0.508666 0.750000 0.194241
O O16 0.150923 0.033175 0.383272
#
# Coordination Sequence:
#
# PCOD8076604 Si02
#       7
#     4   4   4   4   4   4   4
#     4  10  23  40  59  87 122 159 199 246 304 362
#     4  11  23  40  60  88 125 162 200 248 305 363
#     4  10  21  39  63  88 116 156 199 253 296 356
#     4  12  23  35  62  91 120 157 208 247 295 359
#     4  10  22  40  58  83 123 159 192 245 302 355
#     4  11  21  37  62  90 119 154 202 251 302 352
#     4  10  21  39  62  87 119 155 202 243 303 358
#
# _framework density 19.535001999999999
#
# number of rings (size 3 to 8) (size 9 to 14) (size 15 to 20)
#    0.000    1.429    2.857    2.571    2.000    2.286 
#    0.000    3.571    0.000    0.000    0.000    0.000 
#    0.000    0.000    0.000    0.000    0.000    0.000 
#
# Total GULP energy -347325.004807 kJ/mol
# GULP energy per Si atom -12404.464457 kJ/mol
# Density = 1.949054 g / cm^3
# Si number density = 19.535002 Si / 1000 Ang^3
#
#
#
# Elastic Constant Matrix: (Units=GPa)
#
#
# Indices 1 2 3 4 5 6 
#
# 1 95.9956 21.6896 22.5616 0.0000 14.0939 0.0000
# 2 21.6896 61.2925 27.9124 0.0000 1.1904 0.0000
# 3 22.5616 27.9124 98.0416 0.0000 -4.2528 0.0000
# 4 0.0000 0.0000 0.0000 0.6600 0.0000 -9.1096
# 5 14.0939 1.1904 -4.2528 0.0000 35.4231 0.0000
# 6 0.0000 0.0000 0.0000 -9.1096 0.0000 24.2445
#
#
#
# Elastic Compliance Matrix: (Units=1/GPa)
#
#
# Indices 1 2 3 4 5 6 
#
# 1 0.012416 -0.003324 -0.002131 0.000000 -0.005084 0.000000
# 2 -0.003324 0.019693 -0.004838 0.000000 0.000080 0.000000
# 3 -0.002131 -0.004838 0.012175 0.000000 0.002472 0.000000
# 4 0.000000 0.000000 0.000000 -0.361954 0.000000 -0.136000
# 5 -0.005084 0.000080 0.002472 0.000000 0.030547 0.000000
# 6 0.000000 0.000000 0.000000 -0.136000 0.000000 -0.009854
#
#
# Mechanical properties :
#
#
# Convention : Reuss Voigt Hill
#
# Bulk Modulus (GPa) = 42.20051 44.40632 43.30341
# Shear Modulus (GPa) = -18.62260 24.27659 2.82700
#
# Velocity S-wave (km/s) = -3.09090 3.52905 1.20428
# Velocity P-wave (km/s) = 2.98517 6.27588 4.91416
#
# Compressibility (1/GPa) = 0.02369640
#
# Stress axis : x y z
#
# Youngs Moduli (GPa) = 80.54417 50.77869 82.13630
#
# Poissons Ratio (x) = 0.16880 0.17505
# Poissons Ratio (y) = 0.26775 0.39739
# Poissons Ratio (z) = 0.17166 0.24568
#
# Static dielectric constant tensor:
#      x y z
#    x 3.774260 0.000000 0.041290 
#    y 0.000000 3.513540 0.000000 
#    z 0.041290 0.000000 3.538990 
# 
# 
# High freq. dielectric constant tensor:
#      x y z
#    x 1.773870 0.000000 0.002790 
#    y 0.000000 1.748990 0.000000 
#    z 0.002790 0.000000 1.765220 
# 
# From -- ./inp_files/6761.got.cif
#   From: 2010.06.25/outbox.cif.g09.slc.cpg/sg11_4_cif.got.tgz:6761.got - 2010.06.27 23:14:04.
