data_PCOD8076471
_publ_section_title
;
Structure prediction by ZEFSAII (Michael W. Deem and Ramdas Pophale) SiO2 
 PCOD8076471
Probable space group: P 21/M
;
_chemical_formula_sum "Si O2"
_cell_formula_units_Z 28
_cell_length_a 20.907363
_cell_length_b 8.753201
_cell_length_c 14.026348
_cell_angle_alpha 90.000000
_cell_angle_beta 32.796178
_cell_angle_gamma 90.000000
_cell_volume 1390.372702
_symmetry_space_group_name_H-M "P 21/M"
_symmetry_group_IT_number 11
_symmetry_cell_setting 'monoclinic'
loop_
_space_group_symop_operation_xyz
x,y,z
-x,1/2+y,-z
-x,-y,-z
x,1/2-y,z
loop_
_atom_site_type_symbol
_atom_site_label
_atom_site_fract_x
_atom_site_fract_y
_atom_site_fract_z
Si Si1 0.034475 0.069501 0.856401
Si Si2 0.153602 0.071793 0.046917
Si Si3 0.277755 0.570964 0.572354
Si Si4 0.371468 0.071643 0.646226
Si Si5 0.653325 0.574382 0.873151
Si Si6 0.427121 0.075774 0.232205
Si Si7 0.885651 0.571327 0.689045
O O1 0.039838 0.250000 0.858266
O O2 0.163400 0.006519 0.667730
O O3 0.940109 0.024051 0.895564
O O4 0.000000 0.000000 0.000000
O O5 0.121996 0.250000 0.076161
O O6 0.142806 0.012453 0.168789
O O7 0.288051 0.042739 0.842797
O O8 0.257364 0.750000 0.608430
O O9 0.303499 0.503662 0.643621
O O10 0.386959 0.536419 0.366342
O O11 0.388364 0.250000 0.604967
O O12 0.500000 0.000000 0.500000
O O13 0.622731 0.750000 0.937119
O O14 0.654301 0.549723 0.758460
O O15 0.779824 0.524060 0.752480
O O16 0.560957 0.463549 0.039317
O O17 0.419978 0.250000 0.276924
O O18 0.904628 0.750000 0.668519
O O19 0.000000 0.500000 0.500000
#
# Coordination Sequence:
#
# PCOD8076471 Si02
#       7
#     4   4   4   4   4   4   4
#     4  12  24  41  65  92 124 160 206 258 315 376
#     4  10  23  43  65  91 127 170 212 260 318 378
#     4  12  25  41  64  93 126 166 210 259 317 374
#     4  11  24  42  65  95 132 169 212 261 314 381
#     4   9  20  40  63  88 124 164 205 257 318 377
#     4  10  21  38  62  94 125 159 206 260 315 376
#     4  10  23  42  63  91 124 166 214 260 313 373
#
# _framework density 20.138483999999998
#
# number of rings (size 3 to 8) (size 9 to 14) (size 15 to 20)
#    0.000    1.429    1.429    3.429    4.000    2.286 
#    0.000    0.000    0.000    0.000    0.000    0.000 
#    0.000    0.000    0.000    0.000    0.000    0.000 
#
# Total GULP energy -347318.207116 kJ/mol
# GULP energy per Si atom -12404.221683 kJ/mol
# Density = 2.009265 g / cm^3
# Si number density = 20.138484 Si / 1000 Ang^3
#
#
#
# Elastic Constant Matrix: (Units=GPa)
#
#
# Indices 1 2 3 4 5 6 
#
# 1 110.1334 48.2514 69.3375 0.0000 -7.3773 0.0000
# 2 48.2514 116.9245 54.1554 0.0000 -4.2071 0.0000
# 3 69.3375 54.1554 123.8843 0.0000 1.3396 0.0000
# 4 0.0000 0.0000 0.0000 38.4543 0.0000 -2.6439
# 5 -7.3773 -4.2071 1.3396 0.0000 39.9255 0.0000
# 6 0.0000 0.0000 0.0000 -2.6439 0.0000 32.4999
#
#
#
# Elastic Compliance Matrix: (Units=1/GPa)
#
#
# Indices 1 2 3 4 5 6 
#
# 1 0.015023 -0.002750 -0.007236 0.000000 0.002729 0.000000
# 2 -0.002750 0.011294 -0.003406 0.000000 0.000796 0.000000
# 3 -0.007236 -0.003406 0.013634 0.000000 -0.002153 0.000000
# 4 0.000000 0.000000 0.000000 0.026151 0.000000 0.002127
# 5 0.002729 0.000796 -0.002153 0.000000 0.025707 0.000000
# 6 0.000000 0.000000 0.000000 0.002127 0.000000 0.030942
#
#
# Mechanical properties :
#
#
# Convention : Reuss Voigt Hill
#
# Bulk Modulus (GPa) = 75.94920 77.15897 76.55409
# Shear Modulus (GPa) = 32.48345 34.12246 33.30296
#
# Velocity S-wave (km/s) = 4.02058 4.12076 4.07098
# Velocity P-wave (km/s) = 7.70381 7.81270 7.75845
#
# Compressibility (1/GPa) = 0.01316669
#
# Stress axis : x y z
#
# Youngs Moduli (GPa) = 66.56504 88.54419 73.34514
#
# Poissons Ratio (x) = 0.24350 0.53069
# Poissons Ratio (y) = 0.18306 0.24985
# Poissons Ratio (z) = 0.48164 0.30162
#
# Static dielectric constant tensor:
#      x y z
#    x 3.773940 0.000000 -0.084480 
#    y 0.000000 3.683130 0.000000 
#    z -0.084480 0.000000 3.719490 
# 
# 
# High freq. dielectric constant tensor:
#      x y z
#    x 1.791210 0.000000 -0.000690 
#    y 0.000000 1.789560 0.000000 
#    z -0.000690 0.000000 1.796500 
# 
# From -- ./inp_files/37898.got.cif
#   From: 2010.06.25/outbox.cif.g09.slc.cpg/sg11_19_cif.got.tgz:37898.got - 2010.06.27 23:14:04.
