data_PCOD8076542
_publ_section_title
;
Structure prediction by ZEFSAII (Michael W. Deem and Ramdas Pophale) SiO2 
 PCOD8076542
Probable space group: P 21/M
;
_chemical_formula_sum "Si O2"
_cell_formula_units_Z 32
_cell_length_a 15.243392
_cell_length_b 9.091920
_cell_length_c 11.216600
_cell_angle_alpha 90.000000
_cell_angle_beta 92.486169
_cell_angle_gamma 90.000000
_cell_volume 1553.064426
_symmetry_space_group_name_H-M "P 21/M"
_symmetry_group_IT_number 11
_symmetry_cell_setting 'monoclinic'
loop_
_space_group_symop_operation_xyz
x,y,z
-x,1/2+y,-z
-x,-y,-z
x,1/2-y,z
loop_
_atom_site_type_symbol
_atom_site_label
_atom_site_fract_x
_atom_site_fract_y
_atom_site_fract_z
Si Si1 0.590782 0.585696 0.018483
Si Si2 0.228180 0.582686 0.386112
Si Si3 0.760059 0.582485 0.144481
Si Si4 0.351826 0.411934 0.238234
Si Si5 0.023569 0.918977 0.375849
Si Si6 0.474784 0.578347 0.618652
Si Si7 0.302532 0.083253 0.613074
Si Si8 0.048360 0.073420 0.888856
O O1 0.565837 0.750000 0.061654
O O2 0.646139 0.592505 0.901750
O O3 0.500000 0.500000 0.000000
O O4 0.665760 0.507148 0.105590
O O5 0.253220 0.750000 0.416755
O O6 0.279206 0.530610 0.271436
O O7 0.126141 0.562843 0.359047
O O8 0.260253 0.480507 0.493326
O O9 0.750896 0.750000 0.100634
O O10 0.770884 0.573744 0.288284
O O11 0.849919 0.519246 0.093319
O O12 0.328022 0.250000 0.288971
O O13 0.449259 0.458049 0.283717
O O14 0.995656 0.750000 0.393081
O O15 0.982798 0.978217 0.246931
O O16 0.000000 0.000000 0.500000
O O17 0.500000 0.500000 0.500000
O O18 0.460657 0.750000 0.596175
O O19 0.385990 0.508366 0.663031
O O20 0.332265 0.250000 0.589549
O O21 0.038327 0.250000 0.897445
O O22 0.000000 0.000000 0.000000
#
# Coordination Sequence:
#
# PCOD8076542 Si02
#       8
#     4   4   4   4   4   4   4   4
#     4  10  21  39  60  86 116 153 197 241 290 349
#     4  11  23  37  57  86 119 153 192 244 301 358
#     4   9  20  38  62  87 117 157 198 240 293 356
#     4  10  22  37  56  82 115 153 198 240 290 357
#     4  10  23  42  64  92 125 159 204 258 313 374
#     4  11  21  34  52  80 117 157 197 245 296 351
#     4  11  21  36  59  86 116 156 201 245 299 358
#     4  10  22  42  65  93 127 163 207 259 311 374
#
# _framework density 20.604426
#
# number of rings (size 3 to 8) (size 9 to 14) (size 15 to 20)
#    0.000    1.750    1.250    2.625    1.750    3.500 
#    0.000    2.500    0.000    0.000    0.000    0.000 
#    0.000    0.000    0.000    0.000    0.000    0.000 
#
# Total GULP energy -396483.047921 kJ/mol
# GULP energy per Si atom -12390.095248 kJ/mol
# Density = 2.055753 g / cm^3
# Si number density = 20.604426 Si / 1000 Ang^3
#
#
#
# Elastic Constant Matrix: (Units=GPa)
#
#
# Indices 1 2 3 4 5 6 
#
# 1 130.0348 47.6057 40.7209 0.0000 -5.5355 0.0000
# 2 47.6057 86.5232 32.9486 0.0000 -4.0660 0.0000
# 3 40.7209 32.9486 108.4492 0.0000 -6.6805 0.0000
# 4 0.0000 0.0000 0.0000 26.1690 0.0000 -6.6762
# 5 -5.5355 -4.0660 -6.6805 0.0000 23.4094 0.0000
# 6 0.0000 0.0000 0.0000 -6.6762 0.0000 28.2260
#
#
#
# Elastic Compliance Matrix: (Units=1/GPa)
#
#
# Indices 1 2 3 4 5 6 
#
# 1 0.010170 -0.004659 -0.002346 0.000000 0.000926 0.000000
# 2 -0.004659 0.015235 -0.002834 0.000000 0.000736 0.000000
# 3 -0.002346 -0.002834 0.011093 0.000000 0.002119 0.000000
# 4 0.000000 0.000000 0.000000 0.040667 0.000000 0.009619
# 5 0.000926 0.000736 0.002119 0.000000 0.043669 0.000000
# 6 0.000000 0.000000 0.000000 0.009619 0.000000 0.037703
#
#
# Mechanical properties :
#
#
# Convention : Reuss Voigt Hill
#
# Bulk Modulus (GPa) = 59.45192 63.06194 61.25693
# Shear Modulus (GPa) = 27.20023 29.14302 28.17162
#
# Velocity S-wave (km/s) = 3.63728 3.76494 3.70166
# Velocity P-wave (km/s) = 6.82322 7.04075 6.93284
#
# Compressibility (1/GPa) = 0.01682032
#
# Stress axis : x y z
#
# Youngs Moduli (GPa) = 98.32933 65.64031 90.14369
#
# Poissons Ratio (x) = 0.30579 0.21150
# Poissons Ratio (y) = 0.45807 0.25546
# Poissons Ratio (z) = 0.23070 0.18602
#
# Static dielectric constant tensor:
#      x y z
#    x 3.307890 0.000000 -0.443860 
#    y 0.000000 3.786410 0.000000 
#    z -0.443860 0.000000 3.458400 
# 
# 
# High freq. dielectric constant tensor:
#      x y z
#    x 1.818140 0.000000 0.000770 
#    y 0.000000 1.784840 0.000000 
#    z 0.000770 0.000000 1.817460 
# 
# From -- ./inp_files/38194.got.cif
#   From: 2010.06.25/outbox.cif.g09.slc.cpg/sg11_20_cif.got.tgz:38194.got - 2010.06.27 23:14:04.
