data_PCOD8076124
_publ_section_title
;
Structure prediction by ZEFSAII (Michael W. Deem and Ramdas Pophale) SiO2 
 PCOD8076124
Probable space group: P 21/M
;
_chemical_formula_sum "Si O2"
_cell_formula_units_Z 32
_cell_length_a 11.426150
_cell_length_b 9.060517
_cell_length_c 22.195125
_cell_angle_alpha 90.000000
_cell_angle_beta 45.577066
_cell_angle_gamma 90.000000
_cell_volume 1641.065143
_symmetry_space_group_name_H-M "P 21/M"
_symmetry_group_IT_number 11
_symmetry_cell_setting 'monoclinic'
loop_
_space_group_symop_operation_xyz
x,y,z
-x,1/2+y,-z
-x,-y,-z
x,1/2-y,z
loop_
_atom_site_type_symbol
_atom_site_label
_atom_site_fract_x
_atom_site_fract_y
_atom_site_fract_z
Si Si1 0.217029 0.423112 0.743361
Si Si2 0.537341 0.580265 0.243528
Si Si3 0.129764 0.921811 0.537536
Si Si4 0.624084 0.581154 0.082319
Si Si5 0.887695 0.580821 0.891893
Si Si6 0.601659 0.580701 0.912830
Si Si7 0.222094 0.420980 0.384006
Si Si8 0.675576 0.926078 0.427900
O O1 0.195411 0.250000 0.754455
O O2 0.364535 0.474655 0.733357
O O3 0.257154 0.475211 0.661495
O O4 0.051701 0.489592 0.828753
O O5 0.480450 0.750000 0.270807
O O6 0.654527 0.562974 0.142658
O O7 0.379986 0.476440 0.290945
O O8 0.176092 0.750000 0.528600
O O9 0.934595 0.945431 0.602589
O O10 0.214439 0.981585 0.446886
O O11 0.194726 0.013467 0.570732
O O12 0.596962 0.750000 0.072861
O O13 0.452767 0.495948 0.129852
O O14 0.777922 0.520447 0.987766
O O15 0.934469 0.750000 0.886786
O O16 0.792489 0.563471 0.862083
O O17 0.550213 0.750000 0.928261
O O18 0.500000 0.500000 0.000000
O O19 0.237795 0.250000 0.396542
O O20 0.659038 0.750000 0.439571
O O21 0.500000 0.000000 0.500000
#
# Coordination Sequence:
#
# PCOD8076124 Si02
#       8
#     4   4   4   4   4   4   4   4
#     4  10  23  39  55  79 109 144 185 228 276 329
#     4  10  21  38  57  78 111 150 187 232 283 331
#     4  10  21  38  60  86 116 149 184 225 280 339
#     4   9  19  35  55  80 109 145 186 227 277 331
#     4   9  19  35  54  78 109 143 181 227 275 324
#     4   9  17  31  52  78 107 138 176 223 274 326
#     4  10  21  37  59  87 116 146 185 232 279 332
#     4  11  23  39  60  86 115 148 189 232 277 332
#
# _framework density 19.49953
#
# number of rings (size 3 to 8) (size 9 to 14) (size 15 to 20)
#    0.000    2.250    0.000    3.000    0.000    8.500 
#    0.000    5.000    0.000    0.000    0.000    0.000 
#    0.000    0.000    0.000    0.000    0.000    0.000 
#
# Total GULP energy -396733.890668 kJ/mol
# GULP energy per Si atom -12397.934083 kJ/mol
# Density = 1.945515 g / cm^3
# Si number density = 19.499530 Si / 1000 Ang^3
#
#
#
# Elastic Constant Matrix: (Units=GPa)
#
#
# Indices 1 2 3 4 5 6 
#
# 1 116.2202 51.2737 62.5491 0.0000 5.2439 0.0000
# 2 51.2737 77.8815 41.7063 0.0000 -3.0885 0.0000
# 3 62.5491 41.7063 111.3373 0.0000 -3.2761 0.0000
# 4 0.0000 0.0000 0.0000 30.6171 0.0000 -4.2935
# 5 5.2439 -3.0885 -3.2761 0.0000 33.9341 0.0000
# 6 0.0000 0.0000 0.0000 -4.2935 0.0000 35.7394
#
#
#
# Elastic Compliance Matrix: (Units=1/GPa)
#
#
# Indices 1 2 3 4 5 6 
#
# 1 0.014976 -0.006803 -0.005969 0.000000 -0.003510 0.000000
# 2 -0.006803 0.019178 -0.003290 0.000000 0.002479 0.000000
# 3 -0.005969 -0.003290 0.013624 0.000000 0.001938 0.000000
# 4 0.000000 0.000000 0.000000 0.033221 0.000000 0.003991
# 5 -0.003510 0.002479 0.001938 0.000000 0.030424 0.000000
# 6 0.000000 0.000000 0.000000 0.003991 0.000000 0.028460
#
#
# Mechanical properties :
#
#
# Convention : Reuss Voigt Hill
#
# Bulk Modulus (GPa) = 63.86800 68.49969 66.18385
# Shear Modulus (GPa) = 28.21286 30.05211 29.13249
#
# Velocity S-wave (km/s) = 3.80787 3.93003 3.86944
# Velocity P-wave (km/s) = 7.22204 7.46985 7.34699
#
# Compressibility (1/GPa) = 0.01565729
#
# Stress axis : x y z
#
# Youngs Moduli (GPa) = 66.77290 52.14198 73.39905
#
# Poissons Ratio (x) = 0.35470 0.43809
# Poissons Ratio (y) = 0.45423 0.24145
# Poissons Ratio (z) = 0.39854 0.17152
#
# Static dielectric constant tensor:
#      x y z
#    x 3.797390 0.000000 0.112920 
#    y 0.000000 3.692510 0.000000 
#    z 0.112920 0.000000 3.428320 
# 
# 
# High freq. dielectric constant tensor:
#      x y z
#    x 1.763590 0.000000 0.004990 
#    y 0.000000 1.762010 0.000000 
#    z 0.004990 0.000000 1.750770 
# 
# From -- ./inp_files/64393.got.cif
#   From: 2010.06.25/outbox.cif.g09.slc.cpg/sg11_33_cif.got.tgz:64393.got - 2010.06.27 23:14:04.
