data_PCOD8076260
_publ_section_title
;
Structure prediction by ZEFSAII (Michael W. Deem and Ramdas Pophale) SiO2 
 PCOD8076260
Probable space group: P 21/M
;
_chemical_formula_sum "Si O2"
_cell_formula_units_Z 24
_cell_length_a 8.771422
_cell_length_b 19.150627
_cell_length_c 15.190070
_cell_angle_alpha 90.000000
_cell_angle_beta 149.984141
_cell_angle_gamma 90.000000
_cell_volume 1276.412136
_symmetry_space_group_name_H-M "P 21/M"
_symmetry_group_IT_number 11
_symmetry_cell_setting 'monoclinic'
loop_
_space_group_symop_operation_xyz
x,y,z
-x,1/2+y,-z
-x,-y,-z
x,1/2-y,z
loop_
_atom_site_type_symbol
_atom_site_label
_atom_site_fract_x
_atom_site_fract_y
_atom_site_fract_z
Si Si1 0.639499 0.426034 0.594630
Si Si2 0.360195 0.330199 0.310054
Si Si3 0.639184 0.574958 0.847133
Si Si4 0.639495 0.926034 0.044866
Si Si5 0.639806 0.330199 0.949859
Si Si6 0.360817 0.925042 0.207950
O O1 0.500000 0.500000 0.500000
O O2 0.519907 0.364801 0.473253
O O3 0.535702 0.405994 0.641680
O O4 0.000002 0.432329 0.767238
O O5 0.459494 0.250000 0.355412
O O6 0.479694 0.366534 0.280208
O O7 0.000000 0.339189 0.140669
O O8 0.499711 0.500000 0.749856
O O9 0.535699 0.594006 0.894020
O O10 1.000000 0.570830 0.022256
O O11 0.519906 0.864802 0.046655
O O12 0.500000 0.000000 0.000000
O O13 0.540505 0.250000 0.895919
O O14 0.520305 0.366534 0.800513
#
# Coordination Sequence:
#
# PCOD8076260 Si02
#       6
#     4   4   4   4   4   4
#     4  11  21  35  59  86 113 145 188 234 277 330
#     4  10  21  38  58  81 112 148 186 232 285 335
#     4   9  17  33  57  81 106 143 189 226 266 333
#     4  11  21  35  59  86 113 145 188 234 277 330
#     4  10  21  38  58  81 112 148 186 232 285 335
#     4   9  17  33  57  81 106 143 189 226 266 333
#
# _framework density 18.802703999999999
#
# number of rings (size 3 to 8) (size 9 to 14) (size 15 to 20)
#    0.000    2.000    3.333    1.000    0.000    2.000 
#    0.000    8.333    0.000    0.000    0.000    0.000 
#    0.000    0.000    0.000    0.000    0.000    0.000 
#
# Total GULP energy -297602.900790 kJ/mol
# GULP energy per Si atom -12400.120866 kJ/mol
# Density = 1.875991 g / cm^3
# Si number density = 18.802704 Si / 1000 Ang^3
#
#
#
# Elastic Constant Matrix: (Units=GPa)
#
#
# Indices 1 2 3 4 5 6 
#
# 1 153.5284 91.9953 51.4448 0.0000 -43.1838 0.0000
# 2 91.9953 172.0106 61.1544 0.0000 -31.3598 0.0000
# 3 51.4448 61.1544 78.2125 0.0000 -33.4013 0.0000
# 4 0.0000 0.0000 0.0000 29.3052 0.0000 -6.1041
# 5 -43.1838 -31.3598 -33.4013 0.0000 39.7537 0.0000
# 6 0.0000 0.0000 0.0000 -6.1041 0.0000 35.3089
#
#
#
# Elastic Compliance Matrix: (Units=1/GPa)
#
#
# Indices 1 2 3 4 5 6 
#
# 1 0.011936 -0.004596 -0.000419 0.000000 0.008988 0.000000
# 2 -0.004596 0.009892 -0.005476 0.000000 -0.001790 0.000000
# 3 -0.000419 -0.005476 0.023868 0.000000 0.015279 0.000000
# 4 0.000000 0.000000 0.000000 0.035398 0.000000 0.006120
# 5 0.008988 -0.001790 0.015279 0.000000 0.046344 0.000000
# 6 0.000000 0.000000 0.000000 0.006120 0.000000 0.029379
#
#
# Mechanical properties :
#
#
# Convention : Reuss Voigt Hill
#
# Bulk Modulus (GPa) = 40.46227 90.32673 65.39450
# Shear Modulus (GPa) = 26.87616 34.15070 30.51343
#
# Velocity S-wave (km/s) = 3.78481 4.26639 4.03280
# Velocity P-wave (km/s) = 6.37698 8.50958 7.51927
#
# Compressibility (1/GPa) = 0.02471438
#
# Stress axis : x y z
#
# Youngs Moduli (GPa) = 83.78030 101.08947 41.89689
#
# Poissons Ratio (x) = 0.46461 0.01754
# Poissons Ratio (y) = 0.38506 0.22944
# Poissons Ratio (z) = 0.03508 0.55359
#
# Static dielectric constant tensor:
#      x y z
#    x 3.452320 0.000000 -0.183990 
#    y 0.000000 3.593110 0.000000 
#    z -0.183990 0.000000 3.271420 
# 
# 
# High freq. dielectric constant tensor:
#      x y z
#    x 1.736110 0.000000 -0.023360 
#    y 0.000000 1.731500 0.000000 
#    z -0.023360 0.000000 1.713130 
# 
# From -- ./inp_files/22824.got.cif
#   From: 2010.06.25/outbox.cif.g09.slc.cpg/sg11_12_cif.got.tgz:22824.got - 2010.06.27 23:14:04.
