data_PCOD8076074
_publ_section_title
;
Structure prediction by ZEFSAII (Michael W. Deem and Ramdas Pophale) SiO2 
 PCOD8076074
Probable space group: P 21/M
;
_chemical_formula_sum "Si O2"
_cell_formula_units_Z 28
_cell_length_a 14.645299
_cell_length_b 8.957998
_cell_length_c 20.531790
_cell_angle_alpha 90.000000
_cell_angle_beta 32.167787
_cell_angle_gamma 90.000000
_cell_volume 1434.083455
_symmetry_space_group_name_H-M "P 21/M"
_symmetry_group_IT_number 11
_symmetry_cell_setting 'monoclinic'
loop_
_space_group_symop_operation_xyz
x,y,z
-x,1/2+y,-z
-x,-y,-z
x,1/2-y,z
loop_
_atom_site_type_symbol
_atom_site_label
_atom_site_fract_x
_atom_site_fract_y
_atom_site_fract_z
Si Si1 0.393186 0.573116 0.720160
Si Si2 0.088158 0.926952 0.269911
Si Si3 0.838798 0.577723 0.237454
Si Si4 0.468572 0.074271 0.808819
Si Si5 0.839637 0.425948 0.631053
Si Si6 0.273661 0.072731 0.554954
Si Si7 0.780718 0.423069 0.945473
O O1 0.395334 0.750000 0.723471
O O2 0.221818 0.520511 0.786979
O O3 0.391485 0.509010 0.793477
O O4 0.557185 0.507911 0.581802
O O5 0.077039 0.750000 0.272044
O O6 0.170901 0.981878 0.287528
O O7 0.201387 0.980411 0.140002
O O8 0.893690 0.989988 0.381809
O O9 0.797926 0.750000 0.247698
O O10 0.736171 0.522449 0.363730
O O11 0.040587 0.553037 0.124858
O O12 0.451074 0.250000 0.809827
O O13 0.666253 0.026286 0.699329
O O14 0.364035 0.025161 0.935383
O O15 0.867413 0.250000 0.612650
O O16 0.000000 0.500000 0.500000
O O17 0.275541 0.250000 0.550617
O O18 0.725600 0.250000 0.982062
#
# Coordination Sequence:
#
# PCOD8076074 Si02
#       7
#     4   4   4   4   4   4   4
#     4  11  21  33  53  79 106 143 185 218 260 319
#     4   8  15  32  57  80 105 138 175 216 261 311
#     4   9  18  34  55  79 107 136 171 221 274 317
#     4  11  24  38  52  76 111 144 176 221 268 306
#     4  10  21  37  58  84 112 142 174 212 262 315
#     4   8  15  29  52  81 108 135 170 214 264 318
#     4   9  19  37  59  79 101 138 183 219 261 319
#
# _framework density 19.524664999999999
#
# number of rings (size 3 to 8) (size 9 to 14) (size 15 to 20)
#    0.000    2.571    0.000    3.857    0.000    4.000 
#    0.000    1.429    0.000    2.571    0.000    0.000 
#    0.000    0.000    0.000    0.000    0.000    0.000 
#
# Total GULP energy -347183.513191 kJ/mol
# GULP energy per Si atom -12399.411185 kJ/mol
# Density = 1.948023 g / cm^3
# Si number density = 19.524665 Si / 1000 Ang^3
#
#
#
# Elastic Constant Matrix: (Units=GPa)
#
#
# Indices 1 2 3 4 5 6 
#
# 1 118.6218 36.0947 32.9005 0.0000 15.9760 0.0000
# 2 36.0947 50.2465 31.8323 0.0000 0.7724 0.0000
# 3 32.9005 31.8323 100.7707 0.0000 10.8766 0.0000
# 4 0.0000 0.0000 0.0000 29.3552 0.0000 1.2199
# 5 15.9760 0.7724 10.8766 0.0000 22.1954 0.0000
# 6 0.0000 0.0000 0.0000 1.2199 0.0000 16.3682
#
#
#
# Elastic Compliance Matrix: (Units=1/GPa)
#
#
# Indices 1 2 3 4 5 6 
#
# 1 0.012215 -0.008360 -0.000454 0.000000 -0.008279 0.000000
# 2 -0.008360 0.030813 -0.007959 0.000000 0.008845 0.000000
# 3 -0.000454 -0.007959 0.013220 0.000000 -0.005875 0.000000
# 4 0.000000 0.000000 0.000000 0.034171 0.000000 -0.002547
# 5 -0.008279 0.008845 -0.005875 0.000000 0.053584 0.000000
# 6 0.000000 0.000000 0.000000 -0.002547 0.000000 0.061284
#
#
# Mechanical properties :
#
#
# Convention : Reuss Voigt Hill
#
# Bulk Modulus (GPa) = 44.04667 52.36602 48.20634
# Shear Modulus (GPa) = 20.29221 24.83786 22.56503
#
# Velocity S-wave (km/s) = 3.22733 3.57056 3.40328
# Velocity P-wave (km/s) = 6.04120 6.62399 6.33929
#
# Compressibility (1/GPa) = 0.02270319
#
# Stress axis : x y z
#
# Youngs Moduli (GPa) = 81.86846 32.45344 75.64393
#
# Poissons Ratio (x) = 0.27131 0.03431
# Poissons Ratio (y) = 0.68441 0.60204
# Poissons Ratio (z) = 0.03714 0.25829
#
# Static dielectric constant tensor:
#      x y z
#    x 3.723790 0.000000 0.049630 
#    y 0.000000 3.171320 0.000000 
#    z 0.049630 0.000000 3.620710 
# 
# 
# High freq. dielectric constant tensor:
#      x y z
#    x 1.769370 0.000000 0.004370 
#    y 0.000000 1.727350 0.000000 
#    z 0.004370 0.000000 1.761700 
# 
# From -- ./inp_files/37893.got.cif
#   From: 2010.06.25/outbox.cif.g09.slc.cpg/sg11_19_cif.got.tgz:37893.got - 2010.06.27 23:14:04.
