data_PCOD8076747
_publ_section_title
;
Structure prediction by ZEFSAII (Michael W. Deem and Ramdas Pophale) SiO2 
 PCOD8076747
Probable space group: P 21/M
;
_chemical_formula_sum "Si O2"
_cell_formula_units_Z 28
_cell_length_a 20.364054
_cell_length_b 8.823742
_cell_length_c 15.960237
_cell_angle_alpha 90.000000
_cell_angle_beta 31.869101
_cell_angle_gamma 90.000000
_cell_volume 1514.168446
_symmetry_space_group_name_H-M "P 21/M"
_symmetry_group_IT_number 11
_symmetry_cell_setting 'monoclinic'
loop_
_space_group_symop_operation_xyz
x,y,z
-x,1/2+y,-z
-x,-y,-z
x,1/2-y,z
loop_
_atom_site_type_symbol
_atom_site_label
_atom_site_fract_x
_atom_site_fract_y
_atom_site_fract_z
Si Si1 0.877031 0.417680 0.663877
Si Si2 0.592496 0.068046 0.969429
Si Si3 0.462368 0.072249 0.452101
Si Si4 0.048784 0.574391 0.064193
Si Si5 0.815439 0.925717 0.220413
Si Si6 0.415147 0.427184 0.843918
Si Si7 0.834212 0.418888 0.897122
O O1 0.879653 0.250000 0.622314
O O2 0.737333 0.485243 0.795823
O O3 0.900975 0.416271 0.736436
O O4 0.000000 0.500000 0.500000
O O5 0.585617 0.250000 0.976752
O O6 0.500000 0.000000 0.000000
O O7 0.546170 0.009838 0.110873
O O8 0.495466 0.250000 0.418216
O O9 0.317171 0.040495 0.596684
O O10 0.500000 0.000000 0.500000
O O11 0.520162 0.994851 0.308162
O O12 0.051040 0.750000 0.042483
O O13 0.918742 0.505575 0.172073
O O14 0.060376 0.538867 0.149791
O O15 0.167827 0.503786 0.887990
O O16 0.835064 0.750000 0.183658
O O17 0.445712 0.250000 0.818680
O O18 0.269596 0.452414 0.987125
O O19 0.777221 0.250000 0.977414
#
# Coordination Sequence:
#
# PCOD8076747 Si02
#       7
#     4   4   4   4   4   4   4
#     4   9  19  35  55  82 114 142 180 230 279 336
#     4  10  21  40  63  87 116 152 193 237 288 345
#     4  11  22  36  53  77 110 146 187 230 277 328
#     4   9  17  32  53  73  98 133 173 216 266 318
#     4   9  19  33  49  72 103 135 173 217 264 320
#     4  11  22  36  56  82 112 145 186 229 275 333
#     4   9  18  34  55  77 103 137 178 221 268 325
#
# _framework density 18.491997000000001
#
# number of rings (size 3 to 8) (size 9 to 14) (size 15 to 20)
#    0.000    2.286    0.000    3.857    0.000    6.857 
#    2.571    0.000    0.000    0.000    0.000    0.000 
#    0.000    0.000    0.000    0.000    0.000    0.000 
#
# Total GULP energy -346924.659853 kJ/mol
# GULP energy per Si atom -12390.166423 kJ/mol
# Density = 1.844991 g / cm^3
# Si number density = 18.491997 Si / 1000 Ang^3
#
#
#
# Elastic Constant Matrix: (Units=GPa)
#
#
# Indices 1 2 3 4 5 6 
#
# 1 137.0668 46.9681 60.2668 0.0000 11.0390 0.0000
# 2 46.9681 81.1544 49.6029 0.0000 2.4312 0.0000
# 3 60.2668 49.6029 106.6292 0.0000 6.7919 0.0000
# 4 0.0000 0.0000 0.0000 32.2866 0.0000 2.0104
# 5 11.0390 2.4312 6.7919 0.0000 20.2193 0.0000
# 6 0.0000 0.0000 0.0000 2.0104 0.0000 28.9408
#
#
#
# Elastic Compliance Matrix: (Units=1/GPa)
#
#
# Indices 1 2 3 4 5 6 
#
# 1 0.010634 -0.003517 -0.004120 0.000000 -0.003999 0.000000
# 2 -0.003517 0.018389 -0.006691 0.000000 0.001957 0.000000
# 3 -0.004120 -0.006691 0.014945 0.000000 -0.001966 0.000000
# 4 0.000000 0.000000 0.000000 0.031107 0.000000 -0.002161
# 5 -0.003999 0.001957 -0.001966 0.000000 0.052066 0.000000
# 6 0.000000 0.000000 0.000000 -0.002161 0.000000 0.034703
#
#
# Mechanical properties :
#
#
# Convention : Reuss Voigt Hill
#
# Bulk Modulus (GPa) = 65.30735 70.94734 68.12734
# Shear Modulus (GPa) = 25.56181 27.49018 26.52599
#
# Velocity S-wave (km/s) = 3.72199 3.85983 3.79153
# Velocity P-wave (km/s) = 7.33922 7.63637 7.48927
#
# Compressibility (1/GPa) = 0.01531221
#
# Stress axis : x y z
#
# Youngs Moduli (GPa) = 94.03540 54.38139 66.91303
#
# Poissons Ratio (x) = 0.19124 0.27567
# Poissons Ratio (y) = 0.33069 0.44773
# Poissons Ratio (z) = 0.38741 0.36388
#
# Static dielectric constant tensor:
#      x y z
#    x 4.078420 0.000000 -0.082740 
#    y 0.000000 3.448880 0.000000 
#    z -0.082740 0.000000 3.419010 
# 
# 
# High freq. dielectric constant tensor:
#      x y z
#    x 1.724700 0.000000 0.002340 
#    y 0.000000 1.716290 0.000000 
#    z 0.002340 0.000000 1.708860 
# 
# From -- ./inp_files/54488.got.cif
#   From: 2010.06.25/outbox.cif.g09.slc.cpg/sg11_28_cif.got.tgz:54488.got - 2010.06.27 23:14:04.
