data_PCOD8076359
_publ_section_title
;
Structure prediction by ZEFSAII (Michael W. Deem and Ramdas Pophale) SiO2 
 PCOD8076359
Probable space group: P 21/M
;
_chemical_formula_sum "Si O2"
_cell_formula_units_Z 28
_cell_length_a 15.541667
_cell_length_b 8.797297
_cell_length_c 12.671635
_cell_angle_alpha 90.000000
_cell_angle_beta 53.913616
_cell_angle_gamma 90.000000
_cell_volume 1400.105215
_symmetry_space_group_name_H-M "P 21/M"
_symmetry_group_IT_number 11
_symmetry_cell_setting 'monoclinic'
loop_
_space_group_symop_operation_xyz
x,y,z
-x,1/2+y,-z
-x,-y,-z
x,1/2-y,z
loop_
_atom_site_type_symbol
_atom_site_label
_atom_site_fract_x
_atom_site_fract_y
_atom_site_fract_z
Si Si1 0.937503 0.568731 0.945599
Si Si2 0.370388 0.415213 0.337825
Si Si3 0.706915 0.067452 0.110490
Si Si4 0.153592 0.072328 0.394280
Si Si5 0.559039 0.410354 0.044653
Si Si6 0.481344 0.071892 0.624344
Si Si7 0.975756 0.071441 0.690956
O O1 0.947163 0.750000 0.941033
O O2 0.981573 0.509775 0.800763
O O3 0.816684 0.517512 0.048643
O O4 0.000000 0.500000 0.000000
O O5 0.336516 0.250000 0.412372
O O6 0.273277 0.478106 0.337339
O O7 0.474283 0.382701 0.196187
O O8 0.406917 0.539843 0.396138
O O9 0.720212 0.250000 0.107811
O O10 0.663098 0.016961 0.025392
O O11 0.623295 0.010891 0.256751
O O12 0.144297 0.250000 0.374937
O O13 0.080900 0.029381 0.547762
O O14 0.123408 0.983249 0.309198
O O15 0.593080 0.250000 0.969396
O O16 0.500000 0.500000 0.000000
O O17 0.459752 0.250000 0.636342
O O18 0.500000 0.000000 0.500000
O O19 0.964518 0.250000 0.720195
#
# Coordination Sequence:
#
# PCOD8076359 Si02
#       7
#     4   4   4   4   4   4   4
#     4  12  26  44  65  89 121 164 212 260 312 374
#     4   9  19  36  55  81 115 152 195 245 294 354
#     4  10  22  42  62  87 120 155 198 251 301 357
#     4   9  19  37  61  88 120 159 203 252 309 368
#     4   9  19  33  53  82 117 151 186 231 287 352
#     4  11  22  38  60  87 119 159 200 245 301 361
#     4  10  21  38  60  88 122 158 203 259 312 367
#
# _framework density 19.998497
#
# number of rings (size 3 to 8) (size 9 to 14) (size 15 to 20)
#    0.000    2.000    0.000    4.286    2.000    5.143 
#    0.000    4.286    0.000    0.000    0.000    0.000 
#    0.000    0.000    0.000    0.000    0.000    0.000 
#
# Total GULP energy -346925.582181 kJ/mol
# GULP energy per Si atom -12390.199364 kJ/mol
# Density = 1.995298 g / cm^3
# Si number density = 19.998497 Si / 1000 Ang^3
#
#
#
# Elastic Constant Matrix: (Units=GPa)
#
#
# Indices 1 2 3 4 5 6 
#
# 1 162.1019 59.0358 47.7313 0.0000 13.9375 0.0000
# 2 59.0358 120.3658 46.9360 0.0000 17.6761 0.0000
# 3 47.7313 46.9360 73.2168 0.0000 25.7553 0.0000
# 4 0.0000 0.0000 0.0000 32.8241 0.0000 3.5054
# 5 13.9375 17.6761 25.7553 0.0000 33.5697 0.0000
# 6 0.0000 0.0000 0.0000 3.5054 0.0000 37.6660
#
#
#
# Elastic Compliance Matrix: (Units=1/GPa)
#
#
# Indices 1 2 3 4 5 6 
#
# 1 0.008223 -0.002604 -0.004072 0.000000 0.001081 0.000000
# 2 -0.002604 0.011909 -0.005630 0.000000 -0.000869 0.000000
# 3 -0.004072 -0.005630 0.025043 0.000000 -0.014558 0.000000
# 4 0.000000 0.000000 0.000000 0.030771 0.000000 -0.002864
# 5 0.001081 -0.000869 -0.014558 0.000000 0.040967 0.000000
# 6 0.000000 0.000000 0.000000 -0.002864 0.000000 0.026816
#
#
# Mechanical properties :
#
#
# Convention : Reuss Voigt Hill
#
# Bulk Modulus (GPa) = 48.63316 73.67672 61.15494
# Shear Modulus (GPa) = 28.53944 34.27738 31.40841
#
# Velocity S-wave (km/s) = 3.78177 4.14454 3.96730
# Velocity P-wave (km/s) = 6.59092 7.73460 7.18555
#
# Compressibility (1/GPa) = 0.02056210
#
# Stress axis : x y z
#
# Youngs Moduli (GPa) = 121.60391 83.97305 39.93124
#
# Poissons Ratio (x) = 0.21869 0.16259
# Poissons Ratio (y) = 0.31670 0.22483
# Poissons Ratio (z) = 0.49514 0.47280
#
# Static dielectric constant tensor:
#      x y z
#    x 3.827600 0.000000 -0.061060 
#    y 0.000000 2.998790 0.000000 
#    z -0.061060 0.000000 3.600640 
# 
# 
# High freq. dielectric constant tensor:
#      x y z
#    x 1.793000 0.000000 0.001540 
#    y 0.000000 1.784920 0.000000 
#    z 0.001540 0.000000 1.771420 
# 
# From -- ./inp_files/37932.got.cif
#   From: 2010.06.25/outbox.cif.g09.slc.cpg/sg11_19_cif.got.tgz:37932.got - 2010.06.27 23:14:04.
