data_PCOD8076629
_publ_section_title
;
Structure prediction by ZEFSAII (Michael W. Deem and Ramdas Pophale) SiO2 
 PCOD8076629
Probable space group: P 21/M
;
_chemical_formula_sum "Si O2"
_cell_formula_units_Z 20
_cell_length_a 13.475734
_cell_length_b 15.072228
_cell_length_c 5.156266
_cell_angle_alpha 90.000000
_cell_angle_beta 55.719179
_cell_angle_gamma 90.000000
_cell_volume 865.358484
_symmetry_space_group_name_H-M "P 21/M"
_symmetry_group_IT_number 11
_symmetry_cell_setting 'monoclinic'
loop_
_space_group_symop_operation_xyz
x,y,z
-x,1/2+y,-z
-x,-y,-z
x,1/2-y,z
loop_
_atom_site_type_symbol
_atom_site_label
_atom_site_fract_x
_atom_site_fract_y
_atom_site_fract_z
Si Si1 0.232772 0.401680 0.426935
Si Si2 0.536473 0.650759 0.154466
Si Si3 0.669308 0.347640 0.912434
Si Si4 0.308827 0.015272 0.822816
Si Si5 0.110594 0.750000 0.558611
Si Si6 0.955428 0.750000 0.286954
O O1 0.355981 0.345700 0.217007
O O2 0.244851 0.471586 0.643532
O O3 0.122208 0.337611 0.646207
O O4 0.213895 0.458279 0.191070
O O5 0.519897 0.750000 0.293847
O O6 0.415166 0.615307 0.194625
O O7 0.572618 0.579026 0.323983
O O8 0.620942 0.250000 0.071381
O O9 0.806240 0.337516 0.606552
O O10 0.659732 0.411532 0.177167
O O11 0.002666 0.750000 0.511270
O O12 0.062979 0.750000 0.922104
#
# Coordination Sequence:
#
# PCOD8076629 Si02
#       6
#     4   4   4   4   2   2
#     4  10  22  36  69  90 124 153 209 265 311 345
#     4   9  19  38  66  99 127 159 200 256 318 369
#     4   9  21  45  61  92 131 171 200 247 314 386
#     4  10  21  39  63 103 122 157 205 258 312 368
#     4  10  26  41  65  82 130 170 212 243 316 365
#     4  12  22  47  61  94 120 170 208 271 296 361
#
# _framework density 23.111808
#
# number of rings (size 3 to 8) (size 9 to 14) (size 15 to 20)
#    1.800    0.400    1.000    1.800    1.400    2.400 
#    3.600    6.000    0.000    0.000    0.000    0.000 
#    0.000    0.000    0.000    0.000    0.000    0.000 
#
# Total GULP energy -247836.946388 kJ/mol
# GULP energy per Si atom -12391.847319 kJ/mol
# Density = 2.305920 g / cm^3
# Si number density = 23.111808 Si / 1000 Ang^3
#
#
#
# Elastic Constant Matrix: (Units=GPa)
#
#
# Indices 1 2 3 4 5 6 
#
# 1 73.8669 3.7838 18.6414 0.0000 -14.0563 0.0000
# 2 3.7838 75.7580 -9.8095 0.0000 -2.7877 0.0000
# 3 18.6414 -9.8095 70.3035 0.0000 10.9128 0.0000
# 4 0.0000 0.0000 0.0000 10.4488 0.0000 -3.7064
# 5 -14.0563 -2.7877 10.9128 0.0000 29.2138 0.0000
# 6 0.0000 0.0000 0.0000 -3.7064 0.0000 13.1669
#
#
#
# Elastic Compliance Matrix: (Units=1/GPa)
#
#
# Indices 1 2 3 4 5 6 
#
# 1 0.017223 -0.001299 -0.006385 0.000000 0.010548 0.000000
# 2 -0.001299 0.013551 0.002263 0.000000 -0.000177 0.000000
# 3 -0.006385 0.002263 0.017703 0.000000 -0.009469 0.000000
# 4 0.000000 0.000000 0.000000 0.106322 0.000000 0.029929
# 5 0.010548 -0.000177 -0.009469 0.000000 0.042826 0.000000
# 6 0.000000 0.000000 0.000000 0.029929 0.000000 0.084373
#
#
# Mechanical properties :
#
#
# Convention : Reuss Voigt Hill
#
# Bulk Modulus (GPa) = 26.57174 27.24000 26.90587
# Shear Modulus (GPa) = 16.37275 24.38673 20.37974
#
# Velocity S-wave (km/s) = 2.66449 3.25185 2.97271
# Velocity P-wave (km/s) = 4.58127 5.09030 4.84248
#
# Compressibility (1/GPa) = 0.03763397
#
# Stress axis : x y z
#
# Youngs Moduli (GPa) = 58.06163 73.79380 56.48844
#
# Poissons Ratio (x) = 0.09585 0.36070
# Poissons Ratio (y) = 0.07542 -0.12782
# Poissons Ratio (z) = 0.37075 -0.16697
#
# Static dielectric constant tensor:
#      x y z
#    x 3.825780 0.000000 -0.041150 
#    y 0.000000 3.968560 0.000000 
#    z -0.041150 0.000000 3.764950 
# 
# 
# High freq. dielectric constant tensor:
#      x y z
#    x 1.891520 0.000000 0.003920 
#    y 0.000000 1.911210 0.000000 
#    z 0.003920 0.000000 1.905390 
# 
# From -- ./inp_files/4508.got.cif
#   From: 2010.06.25/outbox.cif.g09.slc.cpg/sg11_3_cif.got.tgz:4508.got - 2010.06.27 23:14:04.
