data_PCOD8076808
_publ_section_title
;
Structure prediction by ZEFSAII (Michael W. Deem and Ramdas Pophale) SiO2 
 PCOD8076808
Probable space group: P 21/M
;
_chemical_formula_sum "Si O2"
_cell_formula_units_Z 24
_cell_length_a 6.689030
_cell_length_b 13.253071
_cell_length_c 14.195625
_cell_angle_alpha 90.000000
_cell_angle_beta 58.819582
_cell_angle_gamma 90.000000
_cell_volume 1076.651485
_symmetry_space_group_name_H-M "P 21/M"
_symmetry_group_IT_number 11
_symmetry_cell_setting 'monoclinic'
loop_
_space_group_symop_operation_xyz
x,y,z
-x,1/2+y,-z
-x,-y,-z
x,1/2-y,z
loop_
_atom_site_type_symbol
_atom_site_label
_atom_site_fract_x
_atom_site_fract_y
_atom_site_fract_z
Si Si1 0.517823 0.860933 0.754833
Si Si2 0.641680 0.866515 0.155159
Si Si3 0.018549 0.133117 0.085440
Si Si4 0.255003 0.436217 0.666273
Si Si5 0.764494 0.487772 0.817926
Si Si6 0.438020 0.642151 0.567645
O O1 0.535434 0.750000 0.796230
O O2 0.714001 0.931237 0.749716
O O3 0.583304 0.857504 0.628908
O O4 0.251388 0.900862 0.839010
O O5 0.580569 0.750000 0.189430
O O6 0.629573 0.925488 0.258066
O O7 0.457850 0.912938 0.124091
O O8 0.897503 0.875572 0.043984
O O9 0.049832 0.250000 0.112720
O O10 0.178387 0.053296 0.103465
O O11 0.262252 0.548912 0.619328
O O12 0.385304 0.362536 0.563102
O O13 0.980135 0.413781 0.738978
O O14 0.302223 0.750000 0.591916
#
# Coordination Sequence:
#
# PCOD8076808 Si02
#       6
#     4   4   4   4   4   4
#     4  10  21  40  65  96 126 160 206 257 310 367
#     4  11  25  43  61  91 130 169 210 254 308 371
#     4  10  22  41  65  93 130 167 204 251 308 371
#     4  11  24  42  66  90 127 166 206 259 317 367
#     4  12  22  39  64  97 125 160 210 257 309 368
#     4  10  21  43  67  90 123 165 209 255 312 374
#
# _framework density 22.291335
#
# number of rings (size 3 to 8) (size 9 to 14) (size 15 to 20)
#    0.000    1.333    3.333    1.500    0.000    6.667 
#    0.000    3.333    0.000    0.000    0.000    0.000 
#    0.000    0.000    0.000    0.000    0.000    0.000 
#
# Total GULP energy -297359.483239 kJ/mol
# GULP energy per Si atom -12389.978468 kJ/mol
# Density = 2.224060 g / cm^3
# Si number density = 22.291335 Si / 1000 Ang^3
#
#
#
# Elastic Constant Matrix: (Units=GPa)
#
#
# Indices 1 2 3 4 5 6 
#
# 1 78.7051 16.7138 29.2221 0.0000 -2.6603 0.0000
# 2 16.7138 90.5511 26.3457 0.0000 5.1739 0.0000
# 3 29.2221 26.3457 124.0950 0.0000 10.2026 0.0000
# 4 0.0000 0.0000 0.0000 28.5192 0.0000 0.6741
# 5 -2.6603 5.1739 10.2026 0.0000 20.2132 0.0000
# 6 0.0000 0.0000 0.0000 0.6741 0.0000 19.6776
#
#
#
# Elastic Compliance Matrix: (Units=1/GPa)
#
#
# Indices 1 2 3 4 5 6 
#
# 1 0.014495 -0.001938 -0.003338 0.000000 0.004089 0.000000
# 2 -0.001938 0.012095 -0.001915 0.000000 -0.002384 0.000000
# 3 -0.003338 -0.001915 0.009647 0.000000 -0.004818 0.000000
# 4 0.000000 0.000000 0.000000 0.035093 0.000000 -0.001202
# 5 0.004089 -0.002384 -0.004818 0.000000 0.053053 0.000000
# 6 0.000000 0.000000 0.000000 -0.001202 0.000000 0.050860
#
#
# Mechanical properties :
#
#
# Convention : Reuss Voigt Hill
#
# Bulk Modulus (GPa) = 45.75794 48.65716 47.20755
# Shear Modulus (GPa) = 25.39233 28.41995 26.90614
#
# Velocity S-wave (km/s) = 3.37873 3.57449 3.47799
# Velocity P-wave (km/s) = 5.98272 6.23789 6.11163
#
# Compressibility (1/GPa) = 0.02185413
#
# Stress axis : x y z
#
# Youngs Moduli (GPa) = 68.99061 82.68099 103.65730
#
# Poissons Ratio (x) = 0.16022 0.34601
# Poissons Ratio (y) = 0.13369 0.19855
# Poissons Ratio (z) = 0.23029 0.15837
#
# Static dielectric constant tensor:
#      x y z
#    x 3.662150 0.000000 0.037010 
#    y 0.000000 4.322380 0.000000 
#    z 0.037010 0.000000 4.031370 
# 
# 
# High freq. dielectric constant tensor:
#      x y z
#    x 1.842500 0.000000 0.005090 
#    y 0.000000 1.901670 0.000000 
#    z 0.005090 0.000000 1.877520 
# 
# From -- ./inp_files/6505.got.cif
#   From: 2010.06.25/outbox.cif.g09.slc.cpg/sg11_4_cif.got.tgz:6505.got - 2010.06.27 23:14:04.
