data_PCOD8076071
_publ_section_title
;
Structure prediction by ZEFSAII (Michael W. Deem and Ramdas Pophale) SiO2 
 PCOD8076071
Probable space group: P 21/M
;
_chemical_formula_sum "Si O2"
_cell_formula_units_Z 28
_cell_length_a 21.740507
_cell_length_b 8.537456
_cell_length_c 14.783649
_cell_angle_alpha 90.000000
_cell_angle_beta 31.088997
_cell_angle_gamma 90.000000
_cell_volume 1416.902127
_symmetry_space_group_name_H-M "P 21/M"
_symmetry_group_IT_number 11
_symmetry_cell_setting 'monoclinic'
loop_
_space_group_symop_operation_xyz
x,y,z
-x,1/2+y,-z
-x,-y,-z
x,1/2-y,z
loop_
_atom_site_type_symbol
_atom_site_label
_atom_site_fract_x
_atom_site_fract_y
_atom_site_fract_z
Si Si1 0.135283 0.433653 0.167494
Si Si2 0.889181 0.568108 0.442448
Si Si3 0.468916 0.432370 0.942370
Si Si4 0.780078 0.432844 0.758984
Si Si5 0.650691 0.565624 0.223518
Si Si6 0.597296 0.931271 0.487696
Si Si7 0.682410 0.930179 0.571010
O O1 0.152062 0.250000 0.163419
O O2 0.136361 0.521598 0.262286
O O3 0.008255 0.466496 0.281744
O O4 0.238437 0.503863 0.972604
O O5 0.923064 0.750000 0.401103
O O6 0.817648 0.527481 0.623069
O O7 0.808018 0.525469 0.457882
O O8 0.439099 0.250000 0.987342
O O9 0.579796 0.457782 0.737182
O O10 0.500000 0.500000 0.000000
O O11 0.354802 0.521652 0.045611
O O12 0.792506 0.250000 0.722721
O O13 0.663500 0.750000 0.205983
O O14 0.526666 0.517374 0.333303
O O15 0.654565 0.502476 0.322506
O O16 0.565630 0.750000 0.514758
O O17 0.689807 0.957687 0.453437
O O18 0.649647 0.750000 0.634983
#
# Coordination Sequence:
#
# PCOD8076071 Si02
#       7
#     4   4   4   4   4   4   4
#     4  11  23  39  58  81 112 150 192 236 283 336
#     4  11  23  39  57  79 112 151 193 236 280 337
#     4  12  23  36  56  83 116 149 185 229 278 332
#     4  12  24  39  59  83 112 149 191 236 286 336
#     4   9  19  36  58  85 114 144 181 230 284 335
#     4   9  18  35  60  87 113 143 181 228 283 339
#     4  10  21  37  58  83 114 151 189 232 283 336
#
# _framework density 19.761423000000001
#
# number of rings (size 3 to 8) (size 9 to 14) (size 15 to 20)
#    0.000    1.429    1.429    4.714    0.000    4.571 
#    0.000    0.714    0.000    0.000    0.000    0.000 
#    0.000    0.000    0.000    0.000    0.000    0.000 
#
# Total GULP energy -347307.164854 kJ/mol
# GULP energy per Si atom -12403.827316 kJ/mol
# Density = 1.971644 g / cm^3
# Si number density = 19.761423 Si / 1000 Ang^3
#
#
#
# Elastic Constant Matrix: (Units=GPa)
#
#
# Indices 1 2 3 4 5 6 
#
# 1 143.2059 17.1345 48.6730 0.0000 -3.5177 0.0000
# 2 17.1345 39.8438 16.3468 0.0000 1.4619 0.0000
# 3 48.6730 16.3468 77.3804 0.0000 -7.6114 0.0000
# 4 0.0000 0.0000 0.0000 26.6239 0.0000 -5.8119
# 5 -3.5177 1.4619 -7.6114 0.0000 28.5678 0.0000
# 6 0.0000 0.0000 0.0000 -5.8119 0.0000 26.6371
#
#
#
# Elastic Compliance Matrix: (Units=1/GPa)
#
#
# Indices 1 2 3 4 5 6 
#
# 1 0.008986 -0.001673 -0.005321 0.000000 -0.000226 0.000000
# 2 -0.001673 0.028049 -0.005170 0.000000 -0.003019 0.000000
# 3 -0.005321 -0.005170 0.017790 0.000000 0.004349 0.000000
# 4 0.000000 0.000000 0.000000 0.039439 0.000000 0.008605
# 5 -0.000226 -0.003019 0.004349 0.000000 0.036290 0.000000
# 6 0.000000 0.000000 0.000000 0.008605 0.000000 0.039419
#
#
# Mechanical properties :
#
#
# Convention : Reuss Voigt Hill
#
# Bulk Modulus (GPa) = 32.78987 47.19319 39.99153
# Shear Modulus (GPa) = 24.45373 28.25081 26.35227
#
# Velocity S-wave (km/s) = 3.52155 3.78510 3.65570
# Velocity P-wave (km/s) = 5.75882 6.56018 6.17252
#
# Compressibility (1/GPa) = 0.03049723
#
# Stress axis : x y z
#
# Youngs Moduli (GPa) = 111.28252 35.65144 56.21068
#
# Poissons Ratio (x) = 0.05965 0.29910
# Poissons Ratio (y) = 0.18618 0.29061
# Poissons Ratio (z) = 0.59215 0.18432
#
# Static dielectric constant tensor:
#      x y z
#    x 3.785540 0.000000 0.071870 
#    y 0.000000 3.545430 0.000000 
#    z 0.071870 0.000000 3.679030 
# 
# 
# High freq. dielectric constant tensor:
#      x y z
#    x 1.778610 0.000000 -0.000830 
#    y 0.000000 1.768920 0.000000 
#    z -0.000830 0.000000 1.756920 
# 
# From -- ./inp_files/37940.got.cif
#   From: 2010.06.25/outbox.cif.g09.slc.cpg/sg11_19_cif.got.tgz:37940.got - 2010.06.27 23:14:04.
