data_PCOD8076556
_publ_section_title
;
Structure prediction by ZEFSAII (Michael W. Deem and Ramdas Pophale) SiO2 
 PCOD8076556
Probable space group: P 21/M
;
_chemical_formula_sum "Si O2"
_cell_formula_units_Z 20
_cell_length_a 12.405688
_cell_length_b 8.701300
_cell_length_c 18.873213
_cell_angle_alpha 90.000000
_cell_angle_beta 150.180811
_cell_angle_gamma 90.000000
_cell_volume 1013.067410
_symmetry_space_group_name_H-M "P 21/M"
_symmetry_group_IT_number 11
_symmetry_cell_setting 'monoclinic'
loop_
_space_group_symop_operation_xyz
x,y,z
-x,1/2+y,-z
-x,-y,-z
x,1/2-y,z
loop_
_atom_site_type_symbol
_atom_site_label
_atom_site_fract_x
_atom_site_fract_y
_atom_site_fract_z
Si Si1 0.866800 0.429800 0.359780
Si Si2 0.844327 0.569528 0.609275
Si Si3 0.566287 0.931135 0.689890
Si Si4 0.563433 0.068066 0.841414
Si Si5 0.982287 0.932025 0.841950
O O1 0.850092 0.250000 0.363400
O O2 0.626982 0.500136 0.218781
O O3 0.000000 0.500000 0.500000
O O4 0.982083 0.470269 0.351996
O O5 0.788136 0.750000 0.578626
O O6 0.625545 0.474058 0.473013
O O7 0.943868 0.511252 0.740066
O O8 0.568605 0.750000 0.705285
O O9 0.790657 0.990347 0.783794
O O10 0.525958 0.019583 0.739491
O O11 0.555605 0.250000 0.842059
O O12 0.790875 0.000763 0.999919
O O13 0.989443 0.750000 0.847471
#
# Coordination Sequence:
#
# PCOD8076556 Si02
#       5
#     4   4   4   4   4
#     4  11  22  37  60  86 115 148 192 239 283 340
#     4  10  21  39  61  84 114 152 190 235 291 342
#     4  11  21  36  60  87 116 150 194 239 280 340
#     4  11  22  38  60  84 116 155 192 235 286 338
#     4   9  21  39  58  85 118 151 189 237 290 340
#
# _framework density 19.742023
#
# number of rings (size 3 to 8) (size 9 to 14) (size 15 to 20)
#    0.000    1.600    2.000    3.000    0.000    1.600 
#    0.000    6.000    0.000    0.000    0.000    0.000 
#    0.000    0.000    0.000    0.000    0.000    0.000 
#
# Total GULP energy -248096.919468 kJ/mol
# GULP energy per Si atom -12404.845973 kJ/mol
# Density = 1.969709 g / cm^3
# Si number density = 19.742023 Si / 1000 Ang^3
#
#
#
# Elastic Constant Matrix: (Units=GPa)
#
#
# Indices 1 2 3 4 5 6 
#
# 1 84.1248 24.8420 34.7121 0.0000 20.5416 0.0000
# 2 24.8420 54.9542 19.1220 0.0000 11.5666 0.0000
# 3 34.7121 19.1220 120.0707 0.0000 19.6660 0.0000
# 4 0.0000 0.0000 0.0000 27.7302 0.0000 6.8170
# 5 20.5416 11.5666 19.6660 0.0000 42.0760 0.0000
# 6 0.0000 0.0000 0.0000 6.8170 0.0000 22.9054
#
#
#
# Elastic Compliance Matrix: (Units=1/GPa)
#
#
# Indices 1 2 3 4 5 6 
#
# 1 0.015813 -0.005080 -0.002953 0.000000 -0.004943 0.000000
# 2 -0.005080 0.021601 -0.001522 0.000000 -0.002747 0.000000
# 3 -0.002953 -0.001522 0.009876 0.000000 -0.002756 0.000000
# 4 0.000000 0.000000 0.000000 0.038908 0.000000 -0.011580
# 5 -0.004943 -0.002747 -0.002756 0.000000 0.028223 0.000000
# 6 0.000000 0.000000 0.000000 -0.011580 0.000000 0.047104
#
#
# Mechanical properties :
#
#
# Convention : Reuss Voigt Hill
#
# Bulk Modulus (GPa) = 35.48552 46.27799 40.88176
# Shear Modulus (GPa) = 26.31195 30.57389 28.44292
#
# Velocity S-wave (km/s) = 3.65470 3.93958 3.79981
# Velocity P-wave (km/s) = 5.98521 6.64726 6.32490
#
# Compressibility (1/GPa) = 0.02818051
#
# Stress axis : x y z
#
# Youngs Moduli (GPa) = 63.24036 46.29401 101.25794
#
# Poissons Ratio (x) = 0.23519 0.29899
# Poissons Ratio (y) = 0.32128 0.15407
# Poissons Ratio (z) = 0.18673 0.07044
#
# Static dielectric constant tensor:
#      x y z
#    x 3.799740 0.000000 0.137370 
#    y 0.000000 3.421000 0.000000 
#    z 0.137370 0.000000 3.886840 
# 
# 
# High freq. dielectric constant tensor:
#      x y z
#    x 1.782310 0.000000 0.007560 
#    y 0.000000 1.755960 0.000000 
#    z 0.007560 0.000000 1.779270 
# 
# From -- ./inp_files/15934.got.cif
#   From: 2010.06.25/outbox.cif.g09.slc.cpg/sg11_8_cif.got.tgz:15934.got - 2010.06.27 23:14:04.
