data_PCOD8076215
_publ_section_title
;
Structure prediction by ZEFSAII (Michael W. Deem and Ramdas Pophale) SiO2 
 PCOD8076215
Probable space group: P 21/M
;
_chemical_formula_sum "Si O2"
_cell_formula_units_Z 32
_cell_length_a 20.810233
_cell_length_b 14.172118
_cell_length_c 14.486509
_cell_angle_alpha 90.000000
_cell_angle_beta 158.278388
_cell_angle_gamma 90.000000
_cell_volume 1581.216155
_symmetry_space_group_name_H-M "P 21/M"
_symmetry_group_IT_number 11
_symmetry_cell_setting 'monoclinic'
loop_
_space_group_symop_operation_xyz
x,y,z
-x,1/2+y,-z
-x,-y,-z
x,1/2-y,z
loop_
_atom_site_type_symbol
_atom_site_label
_atom_site_fract_x
_atom_site_fract_y
_atom_site_fract_z
Si Si1 0.135468 0.858173 0.193739
Si Si2 0.195074 0.047396 0.174710
Si Si3 0.596660 0.593191 0.094419
Si Si4 0.509255 0.644163 0.770666
Si Si5 0.512706 0.137267 0.700809
Si Si6 0.082604 0.509185 0.510574
Si Si7 0.378900 0.649206 0.954911
Si Si8 0.260785 0.481664 0.056643
O O1 0.110289 0.750000 0.122111
O O2 0.304846 0.863471 0.482514
O O3 0.151902 0.936362 0.134291
O O4 0.975284 0.887973 0.044720
O O5 0.333291 0.089394 0.430974
O O6 0.272659 0.057283 0.175958
O O7 0.806702 0.583025 0.372490
O O8 0.533263 0.667903 0.086010
O O9 0.500000 0.500000 0.000000
O O10 0.537695 0.616570 0.913541
O O11 0.577040 0.750000 0.843930
O O12 0.611940 0.578669 0.837140
O O13 0.508912 0.250000 0.680023
O O14 0.540048 0.105212 0.843852
O O15 0.673179 0.090539 0.858610
O O16 0.000000 0.500000 0.500000
O O17 0.220575 0.593010 0.699443
O O18 0.936908 0.527878 0.240373
O O19 0.300145 0.750000 0.877511
#
# Coordination Sequence:
#
# PCOD8076215 Si02
#       8
#     4   4   4   4   4   4   4   4
#     4  10  24  44  66  96 130 168 218 275 323 382
#     4  11  25  42  70  94 131 171 218 268 327 389
#     4  10  21  37  64  90 123 169 211 261 320 384
#     4  11  23  40  63  94 136 171 214 268 324 388
#     4  11  23  42  66  91 130 172 219 271 325 389
#     4  11  21  40  63  88 128 166 206 260 320 380
#     4  10  22  40  64  92 124 166 214 265 320 381
#     4  12  24  43  63  98 128 174 216 261 328 391
#
# _framework density 20.237587000000001
#
# number of rings (size 3 to 8) (size 9 to 14) (size 15 to 20)
#    0.000    1.250    3.750    1.875    3.500    3.000 
#    0.000    1.250    0.000    0.000    0.000    0.000 
#    0.000    0.000    0.000    0.000    0.000    0.000 
#
# Total GULP energy -396597.907004 kJ/mol
# GULP energy per Si atom -12393.684594 kJ/mol
# Density = 2.019153 g / cm^3
# Si number density = 20.237587 Si / 1000 Ang^3
#
#
#
# Elastic Constant Matrix: (Units=GPa)
#
#
# Indices 1 2 3 4 5 6 
#
# 1 112.7707 33.2225 49.6344 0.0000 6.6356 0.0000
# 2 33.2225 117.6925 54.4376 0.0000 1.1229 0.0000
# 3 49.6344 54.4376 136.9253 0.0000 9.2775 0.0000
# 4 0.0000 0.0000 0.0000 27.9625 0.0000 -1.9123
# 5 6.6356 1.1229 9.2775 0.0000 29.9528 0.0000
# 6 0.0000 0.0000 0.0000 -1.9123 0.0000 16.9386
#
#
#
# Elastic Compliance Matrix: (Units=1/GPa)
#
#
# Indices 1 2 3 4 5 6 
#
# 1 0.010819 -0.001555 -0.003212 0.000000 -0.001343 0.000000
# 2 -0.001555 0.010659 -0.003749 0.000000 0.001106 0.000000
# 3 -0.003212 -0.003749 0.010113 0.000000 -0.002280 0.000000
# 4 0.000000 0.000000 0.000000 0.036040 0.000000 0.004069
# 5 -0.001343 0.001106 -0.002280 0.000000 0.034348 0.000000
# 6 0.000000 0.000000 0.000000 0.004069 0.000000 0.059496
#
#
# Mechanical properties :
#
#
# Convention : Reuss Voigt Hill
#
# Bulk Modulus (GPa) = 68.69348 71.33081 70.01214
# Shear Modulus (GPa) = 27.26860 30.31038 28.78949
#
# Velocity S-wave (km/s) = 3.67471 3.87425 3.77580
# Velocity P-wave (km/s) = 7.21262 7.43883 7.32660
#
# Compressibility (1/GPa) = 0.01455742
#
# Stress axis : x y z
#
# Youngs Moduli (GPa) = 92.43304 93.81527 98.88584
#
# Poissons Ratio (x) = 0.14591 0.31765
# Poissons Ratio (y) = 0.14376 0.37072
# Poissons Ratio (z) = 0.29692 0.35171
#
# Static dielectric constant tensor:
#      x y z
#    x 3.847960 0.000000 0.241450 
#    y 0.000000 4.153480 0.000000 
#    z 0.241450 0.000000 4.013540 
# 
# 
# High freq. dielectric constant tensor:
#      x y z
#    x 1.791490 0.000000 0.004580 
#    y 0.000000 1.798190 0.000000 
#    z 0.004580 0.000000 1.795550 
# 
# From -- ./inp_files/55038.got.cif
#   From: 2010.06.25/outbox.cif.g09.slc.cpg/sg11_28_cif.got.tgz:55038.got - 2010.06.27 23:14:04.
