data_PCOD8076499
_publ_section_title
;
Structure prediction by ZEFSAII (Michael W. Deem and Ramdas Pophale) SiO2 
 PCOD8076499
Probable space group: P 21/M
;
_chemical_formula_sum "Si O2"
_cell_formula_units_Z 24
_cell_length_a 22.868674
_cell_length_b 11.239306
_cell_length_c 21.665705
_cell_angle_alpha 90.000000
_cell_angle_beta 12.983795
_cell_angle_gamma 90.000000
_cell_volume 1251.148764
_symmetry_space_group_name_H-M "P 21/M"
_symmetry_group_IT_number 11
_symmetry_cell_setting 'monoclinic'
loop_
_space_group_symop_operation_xyz
x,y,z
-x,1/2+y,-z
-x,-y,-z
x,1/2-y,z
loop_
_atom_site_type_symbol
_atom_site_label
_atom_site_fract_x
_atom_site_fract_y
_atom_site_fract_z
Si Si1 0.692977 0.750000 0.420748
Si Si2 0.270935 0.010079 0.687211
Si Si3 0.848595 0.250000 0.954593
Si Si4 0.868870 0.506757 0.893622
Si Si5 0.523996 0.110622 0.928157
Si Si6 0.664603 0.110635 0.505910
Si Si7 0.064994 0.383731 0.305139
O O1 0.714838 0.638484 0.355264
O O2 0.421756 0.750000 0.733154
O O3 0.923014 0.750000 0.231888
O O4 0.500000 0.000000 0.500000
O O5 0.298183 0.911758 0.605264
O O6 0.000000 0.000000 0.000000
O O7 0.870297 0.364905 0.889625
O O8 0.904594 0.536267 0.785835
O O9 0.100016 0.554781 0.698203
O O10 0.602064 0.554619 0.196269
O O11 0.510707 0.250000 0.968184
O O12 0.794948 0.089272 0.615898
O O13 0.294359 0.089359 0.116484
O O14 0.500000 0.000000 0.000000
O O15 0.657942 0.250000 0.525362
O O16 0.077236 0.250000 0.268132
#
# Coordination Sequence:
#
# PCOD8076499 Si02
#       7
#     2   4   2   4   4   4   4
#     4  12  24  46  64  84 126 164 202 245 322 383
#     4  12  26  42  62  88 114 159 203 253 306 371
#     4  12  22  44  64  90 128 168 198 249 314 391
#     4  12  23  43  64  95 124 162 209 250 317 368
#     4  10  21  40  62  91 128 167 208 251 304 357
#     4  12  25  42  64  91 122 155 204 264 311 365
#     4  10  21  38  64  92 123 164 207 251 301 358
#
# _framework density 19.182372000000001
#
# number of rings (size 3 to 8) (size 9 to 14) (size 15 to 20)
#    0.000    0.667    3.333    5.000    2.333    1.333 
#    3.000    0.000    0.000    0.000    0.000    0.000 
#    0.000    0.000    0.000    0.000    0.000    0.000 
#
# Total GULP energy -297598.504862 kJ/mol
# GULP energy per Si atom -12399.937703 kJ/mol
# Density = 1.913871 g / cm^3
# Si number density = 19.182372 Si / 1000 Ang^3
#
#
#
# Elastic Constant Matrix: (Units=GPa)
#
#
# Indices 1 2 3 4 5 6 
#
# 1 138.4248 85.2498 84.4614 0.0000 7.4805 0.0000
# 2 85.2498 186.1489 62.7532 0.0000 3.8973 0.0000
# 3 84.4614 62.7532 186.2278 0.0000 -18.1264 0.0000
# 4 0.0000 0.0000 0.0000 34.6944 0.0000 2.8904
# 5 7.4805 3.8973 -18.1264 0.0000 11.9825 0.0000
# 6 0.0000 0.0000 0.0000 2.8904 0.0000 49.4715
#
#
#
# Elastic Compliance Matrix: (Units=1/GPa)
#
#
# Indices 1 2 3 4 5 6 
#
# 1 0.015399 -0.004109 -0.007511 0.000000 -0.019639 0.000000
# 2 -0.004109 0.007539 -0.000781 0.000000 -0.001069 0.000000
# 3 -0.007511 -0.000781 0.011164 0.000000 0.021832 0.000000
# 4 0.000000 0.000000 0.000000 0.028964 0.000000 -0.001692
# 5 -0.019639 -0.001069 0.021832 0.000000 0.129088 0.000000
# 6 0.000000 0.000000 0.000000 -0.001692 0.000000 0.020313
#
#
# Mechanical properties :
#
#
# Convention : Reuss Voigt Hill
#
# Bulk Modulus (GPa) = 107.51557 108.41449 107.96503
# Shear Modulus (GPa) = 20.80130 37.78548 29.29339
#
# Velocity S-wave (km/s) = 3.29659 4.44306 3.91205
# Velocity P-wave (km/s) = 8.40600 9.10832 8.76420
#
# Compressibility (1/GPa) = 0.00930098
#
# Stress axis : x y z
#
# Youngs Moduli (GPa) = 64.94024 132.63551 89.57036
#
# Poissons Ratio (x) = 0.54499 0.67275
# Poissons Ratio (y) = 0.26683 0.06996
# Poissons Ratio (z) = 0.48776 0.10359
#
# Static dielectric constant tensor:
#      x y z
#    x 3.521120 0.000000 -0.061880 
#    y 0.000000 3.900830 0.000000 
#    z -0.061880 0.000000 3.834680 
# 
# 
# High freq. dielectric constant tensor:
#      x y z
#    x 1.746270 0.000000 -0.005920 
#    y 0.000000 1.764670 0.000000 
#    z -0.005920 0.000000 1.776180 
# 
# From -- ./inp_files/62539.got.cif
#   From: 2010.06.25/outbox.cif.g09.slc.cpg/sg11_32_cif.got.tgz:62539.got - 2010.06.27 23:14:04.
