data_PCOD8076459
_publ_section_title
;
Structure prediction by ZEFSAII (Michael W. Deem and Ramdas Pophale) SiO2 
 PCOD8076459
Probable space group: P 21/M
;
_chemical_formula_sum "Si O2"
_cell_formula_units_Z 32
_cell_length_a 31.053925
_cell_length_b 8.734069
_cell_length_c 12.006777
_cell_angle_alpha 90.000000
_cell_angle_beta 29.646501
_cell_angle_gamma 90.000000
_cell_volume 1610.850654
_symmetry_space_group_name_H-M "P 21/M"
_symmetry_group_IT_number 11
_symmetry_cell_setting 'monoclinic'
loop_
_space_group_symop_operation_xyz
x,y,z
-x,1/2+y,-z
-x,-y,-z
x,1/2-y,z
loop_
_atom_site_type_symbol
_atom_site_label
_atom_site_fract_x
_atom_site_fract_y
_atom_site_fract_z
Si Si1 0.710441 0.073488 0.158035
Si Si2 0.775651 0.929811 0.794357
Si Si3 0.892302 0.573368 0.147880
Si Si4 0.593520 0.072341 0.811595
Si Si5 0.472650 0.070332 0.445392
Si Si6 0.244377 0.576531 0.697169
Si Si7 0.378437 0.069253 0.024245
Si Si8 0.089850 0.572602 0.663200
O O1 0.681855 0.250000 0.206433
O O2 0.763272 0.051638 0.153532
O O3 0.627540 0.964127 0.350562
O O4 0.771476 0.020986 0.919502
O O5 0.772133 0.750000 0.826291
O O6 0.865748 0.973210 0.533021
O O7 0.695731 0.982553 0.895548
O O8 0.885853 0.750000 0.197284
O O9 0.823097 0.537908 0.207980
O O10 0.871408 0.473970 0.303990
O O11 0.987772 0.534115 0.886630
O O12 0.578926 0.250000 0.867569
O O13 0.656684 0.042543 0.564543
O O14 0.500000 0.000000 0.000000
O O15 0.642062 0.997775 0.808333
O O16 0.488915 0.250000 0.411391
O O17 0.500000 0.000000 0.500000
O O18 0.528556 0.995569 0.221767
O O19 0.219060 0.750000 0.721537
O O20 0.384001 0.250000 0.020237
O O21 0.109864 0.750000 0.597589
#
# Coordination Sequence:
#
# PCOD8076459 Si02
#       8
#     4   4   4   4   4   4   4   4
#     4  11  23  40  61  85 119 159 200 247 297 351
#     4  11  23  38  59  88 119 153 196 244 295 350
#     4  10  21  38  63  93 120 153 194 239 294 356
#     4  11  23  39  59  85 118 155 197 243 296 351
#     4  12  23  37  58  84 115 155 200 245 295 346
#     4  10  23  41  61  86 118 158 199 241 294 355
#     4  11  23  38  57  84 118 152 196 247 297 352
#     4  10  21  38  62  91 123 153 189 241 298 354
#
# _framework density 19.865279000000001
#
# number of rings (size 3 to 8) (size 9 to 14) (size 15 to 20)
#    0.000    1.250    1.250    4.875    0.000    8.000 
#    0.000    0.625    0.000    0.000    0.000    0.000 
#    0.000    0.000    0.000    0.000    0.000    0.000 
#
# Total GULP energy -397021.431561 kJ/mol
# GULP energy per Si atom -12406.919736 kJ/mol
# Density = 1.982006 g / cm^3
# Si number density = 19.865279 Si / 1000 Ang^3
#
#
#
# Elastic Constant Matrix: (Units=GPa)
#
#
# Indices 1 2 3 4 5 6 
#
# 1 103.1753 40.9503 42.4461 0.0000 9.1888 0.0000
# 2 40.9503 82.4734 32.5598 0.0000 3.9693 0.0000
# 3 42.4461 32.5598 98.4335 0.0000 11.3654 0.0000
# 4 0.0000 0.0000 0.0000 33.7264 0.0000 0.2733
# 5 9.1888 3.9693 11.3654 0.0000 32.8008 0.0000
# 6 0.0000 0.0000 0.0000 0.2733 0.0000 33.1572
#
#
#
# Elastic Compliance Matrix: (Units=1/GPa)
#
#
# Indices 1 2 3 4 5 6 
#
# 1 0.013475 -0.005052 -0.003932 0.000000 -0.001801 0.000000
# 2 -0.005052 0.015841 -0.003129 0.000000 0.000582 0.000000
# 3 -0.003932 -0.003129 0.013249 0.000000 -0.003111 0.000000
# 4 0.000000 0.000000 0.000000 0.029652 0.000000 -0.000244
# 5 -0.001801 0.000582 -0.003111 0.000000 0.031999 0.000000
# 6 0.000000 0.000000 0.000000 -0.000244 0.000000 0.030161
#
#
# Mechanical properties :
#
#
# Convention : Reuss Voigt Hill
#
# Bulk Modulus (GPa) = 54.52519 57.33274 55.92897
# Shear Modulus (GPa) = 30.35549 31.14529 30.75039
#
# Velocity S-wave (km/s) = 3.91329 3.96387 3.93866
# Velocity P-wave (km/s) = 6.92283 7.06209 6.99281
#
# Compressibility (1/GPa) = 0.01834015
#
# Stress axis : x y z
#
# Youngs Moduli (GPa) = 74.20996 63.12878 75.47984
#
# Poissons Ratio (x) = 0.31892 0.29676
# Poissons Ratio (y) = 0.37491 0.23614
# Poissons Ratio (z) = 0.29177 0.19750
#
# Static dielectric constant tensor:
#      x y z
#    x 4.064730 0.000000 -0.243710 
#    y 0.000000 3.264440 0.000000 
#    z -0.243710 0.000000 3.947080 
# 
# 
# High freq. dielectric constant tensor:
#      x y z
#    x 1.769220 0.000000 0.009870 
#    y 0.000000 1.787110 0.000000 
#    z 0.009870 0.000000 1.776050 
# 
# From -- ./inp_files/45158.got.cif
#   From: 2010.06.25/outbox.cif.g09.slc.cpg/sg11_23_cif.got.tgz:45158.got - 2010.06.27 23:14:04.
