data_PCOD8076919
_publ_section_title
;
Structure prediction by ZEFSAII (Michael W. Deem and Ramdas Pophale) SiO2 
 PCOD8076919
Probable space group: P 21/M
;
_chemical_formula_sum "Si O2"
_cell_formula_units_Z 32
_cell_length_a 8.858250
_cell_length_b 27.051720
_cell_length_c 12.740558
_cell_angle_alpha 90.000000
_cell_angle_beta 29.622095
_cell_angle_gamma 90.000000
_cell_volume 1509.043591
_symmetry_space_group_name_H-M "P 21/M"
_symmetry_group_IT_number 11
_symmetry_cell_setting 'monoclinic'
loop_
_space_group_symop_operation_xyz
x,y,z
-x,1/2+y,-z
-x,-y,-z
x,1/2-y,z
loop_
_atom_site_type_symbol
_atom_site_label
_atom_site_fract_x
_atom_site_fract_y
_atom_site_fract_z
Si Si1 0.928759 0.637396 0.723201
Si Si2 0.165592 0.116311 0.607634
Si Si3 0.668248 0.805014 0.073003
Si Si4 0.702715 0.955210 0.114695
Si Si5 0.546058 0.057992 0.948034
Si Si6 0.624161 0.030692 0.328868
Si Si7 0.357535 0.365739 0.712653
Si Si8 0.045705 0.193679 0.503520
O O1 0.282276 0.623778 0.515662
O O2 0.861791 0.674962 0.668219
O O3 0.848489 0.661260 0.883168
O O4 0.724401 0.588253 0.830689
O O5 0.467944 0.083635 0.414031
O O6 0.188995 0.144969 0.704722
O O7 0.870609 0.080552 0.785544
O O8 0.186552 0.157668 0.505491
O O9 0.798019 0.750000 0.983798
O O10 0.719669 0.821069 0.162344
O O11 0.313723 0.807807 0.259906
O O12 0.465902 0.934852 0.171278
O O13 0.778892 0.916012 0.158760
O O14 0.568569 0.004116 0.250442
O O15 0.016984 0.965404 0.863899
O O16 0.500000 0.000000 0.000000
O O17 0.500000 0.000000 0.500000
O O18 0.167929 0.250000 0.442207
#
# Coordination Sequence:
#
# PCOD8076919 Si02
#       8
#     4   4   4   4   4   4   4   4
#     4  11  22  45  68  95 129 183 222 272 335 415
#     4  12  25  43  66 102 142 176 220 291 339 394
#     4  10  21  44  72  96 126 174 230 276 335 413
#     4  11  24  44  65  92 131 183 228 269 324 410
#     4  12  26  40  64 103 137 175 224 271 334 404
#     4  11  24  42  68  93 131 185 227 271 335 397
#     4  11  24  41  69  96 132 172 226 274 337 397
#     4  10  23  44  69  99 134 175 224 283 350 406
#
# _framework density 21.205483999999998
#
# number of rings (size 3 to 8) (size 9 to 14) (size 15 to 20)
#    0.000    1.000    3.750    2.625    5.250    1.500 
#    0.000    0.000    0.000    0.000    0.000    0.000 
#    0.000    0.000    0.000    0.000    0.000    0.000 
#
# Total GULP energy -396851.666328 kJ/mol
# GULP energy per Si atom -12401.614573 kJ/mol
# Density = 2.115722 g / cm^3
# Si number density = 21.205484 Si / 1000 Ang^3
#
#
#
# Elastic Constant Matrix: (Units=GPa)
#
#
# Indices 1 2 3 4 5 6 
#
# 1 128.0313 41.5190 34.2416 0.0000 17.0514 0.0000
# 2 41.5190 129.0623 40.9360 0.0000 3.0634 0.0000
# 3 34.2416 40.9360 106.5756 0.0000 13.1566 0.0000
# 4 0.0000 0.0000 0.0000 31.9553 0.0000 5.3722
# 5 17.0514 3.0634 13.1566 0.0000 17.5750 0.0000
# 6 0.0000 0.0000 0.0000 5.3722 0.0000 35.0445
#
#
#
# Elastic Compliance Matrix: (Units=1/GPa)
#
#
# Indices 1 2 3 4 5 6 
#
# 1 0.010124 -0.002683 -0.001176 0.000000 -0.008474 0.000000
# 2 -0.002683 0.009553 -0.003221 0.000000 0.003349 0.000000
# 3 -0.001176 -0.003221 0.011886 0.000000 -0.007196 0.000000
# 4 0.000000 0.000000 0.000000 0.032122 0.000000 -0.004924
# 5 -0.008474 0.003349 -0.007196 0.000000 0.069923 0.000000
# 6 0.000000 0.000000 0.000000 -0.004924 0.000000 0.029290
#
#
# Mechanical properties :
#
#
# Convention : Reuss Voigt Hill
#
# Bulk Modulus (GPa) = 57.45811 66.34027 61.89919
# Shear Modulus (GPa) = 27.34350 33.37982 30.36166
#
# Velocity S-wave (km/s) = 3.59479 3.97181 3.78800
# Velocity P-wave (km/s) = 6.66219 7.23783 6.95596
#
# Compressibility (1/GPa) = 0.01740398
#
# Stress axis : x y z
#
# Youngs Moduli (GPa) = 98.77861 104.67574 84.13013
#
# Poissons Ratio (x) = 0.28080 0.09895
# Poissons Ratio (y) = 0.26498 0.27098
# Poissons Ratio (z) = 0.11618 0.33716
#
# Static dielectric constant tensor:
#      x y z
#    x 3.973610 0.000000 0.087850 
#    y 0.000000 4.084790 0.000000 
#    z 0.087850 0.000000 3.941160 
# 
# 
# High freq. dielectric constant tensor:
#      x y z
#    x 1.829370 0.000000 0.014500 
#    y 0.000000 1.837380 0.000000 
#    z 0.014500 0.000000 1.835770 
# 
# From -- ./inp_files/33194.got.cif
#   From: 2010.06.25/outbox.cif.g09.slc.cpg/sg11_17_cif.got.tgz:33194.got - 2010.06.27 23:14:04.
