data_PCOD8076170
_publ_section_title
;
Structure prediction by ZEFSAII (Michael W. Deem and Ramdas Pophale) SiO2 
 PCOD8076170
Probable space group: P 21/M
;
_chemical_formula_sum "Si O2"
_cell_formula_units_Z 24
_cell_length_a 5.052194
_cell_length_b 15.014725
_cell_length_c 15.024959
_cell_angle_alpha 90.000000
_cell_angle_beta 77.953514
_cell_angle_gamma 90.000000
_cell_volume 1114.653914
_symmetry_space_group_name_H-M "P 21/M"
_symmetry_group_IT_number 11
_symmetry_cell_setting 'monoclinic'
loop_
_space_group_symop_operation_xyz
x,y,z
-x,1/2+y,-z
-x,-y,-z
x,1/2-y,z
loop_
_atom_site_type_symbol
_atom_site_label
_atom_site_fract_x
_atom_site_fract_y
_atom_site_fract_z
Si Si1 0.070355 0.852506 0.974086
Si Si2 0.341290 0.149401 0.141826
Si Si3 0.556801 0.003041 0.750742
Si Si4 0.011851 0.081850 0.827518
Si Si5 0.677326 0.250000 0.582075
Si Si6 0.896028 0.750000 0.294473
Si Si7 0.724337 0.049535 0.541623
O O1 0.986038 0.750000 0.995112
O O2 0.897916 0.891064 0.903033
O O3 0.386302 0.861354 0.933670
O O4 0.993237 0.907671 0.066455
O O5 0.277319 0.250000 0.172679
O O6 0.357525 0.098756 0.235095
O O7 0.234233 0.007671 0.786080
O O8 0.655269 0.035077 0.648884
O O9 0.710282 0.061065 0.814961
O O10 0.121070 0.167761 0.769692
O O11 0.357813 0.250000 0.621484
O O12 0.744053 0.157389 0.523245
O O13 0.835704 0.250000 0.664207
O O14 0.500000 0.000000 0.500000
O O15 0.000000 0.000000 0.500000
#
# Coordination Sequence:
#
# PCOD8076170 Si02
#       7
#     4   4   4   4   2   2   4
#     4  10  21  37  60  90 129 174 218 261 305 375
#     4  10  23  42  59  83 130 180 217 259 314 371
#     4  12  25  42  65  94 128 165 213 273 319 387
#     4  12  22  37  66  98 128 167 213 264 320 374
#     4  12  24  46  74  98 133 176 203 272 352 386
#     4  12  20  40  66 100 131 168 211 254 332 402
#     4  12  26  47  71 102 136 164 219 275 330 407
#
# _framework density 21.531345999999999
#
# number of rings (size 3 to 8) (size 9 to 14) (size 15 to 20)
#    0.000    0.667    4.167    4.000    0.000    4.000 
#    3.000    0.000    0.000    0.000    0.000    0.000 
#    0.000    0.000    0.000    0.000    0.000    0.000 
#
# Total GULP energy -297601.780087 kJ/mol
# GULP energy per Si atom -12400.074170 kJ/mol
# Density = 2.148234 g / cm^3
# Si number density = 21.531346 Si / 1000 Ang^3
#
#
#
# Elastic Constant Matrix: (Units=GPa)
#
#
# Indices 1 2 3 4 5 6 
#
# 1 114.8938 26.5410 17.4783 0.0000 10.3958 0.0000
# 2 26.5410 120.4918 39.7573 0.0000 9.6166 0.0000
# 3 17.4783 39.7573 57.0504 0.0000 13.8151 0.0000
# 4 0.0000 0.0000 0.0000 39.6229 0.0000 -0.0480
# 5 10.3958 9.6166 13.8151 0.0000 36.6742 0.0000
# 6 0.0000 0.0000 0.0000 -0.0480 0.0000 37.5318
#
#
#
# Elastic Compliance Matrix: (Units=1/GPa)
#
#
# Indices 1 2 3 4 5 6 
#
# 1 0.009418 -0.001458 -0.001448 0.000000 -0.001742 0.000000
# 2 -0.001458 0.011003 -0.007287 0.000000 0.000273 0.000000
# 3 -0.001448 -0.007287 0.024745 0.000000 -0.007000 0.000000
# 4 0.000000 0.000000 0.000000 0.025238 0.000000 0.000032
# 5 -0.001742 0.000273 -0.007000 0.000000 0.030326 0.000000
# 6 0.000000 0.000000 0.000000 0.000032 0.000000 0.026644
#
#
# Mechanical properties :
#
#
# Convention : Reuss Voigt Hill
#
# Bulk Modulus (GPa) = 40.35325 51.10992 45.73159
# Shear Modulus (GPa) = 32.04683 36.67639 34.36161
#
# Velocity S-wave (km/s) = 3.86214 4.13170 3.99919
# Velocity P-wave (km/s) = 6.21856 6.82277 6.52766
#
# Compressibility (1/GPa) = 0.02478115
#
# Stress axis : x y z
#
# Youngs Moduli (GPa) = 106.17606 90.88263 40.41145
#
# Poissons Ratio (x) = 0.13250 0.05850
# Poissons Ratio (y) = 0.15479 0.29450
# Poissons Ratio (z) = 0.15370 0.66230
#
# Static dielectric constant tensor:
#      x y z
#    x 4.119640 0.000000 0.147020 
#    y 0.000000 4.289620 0.000000 
#    z 0.147020 0.000000 3.730270 
# 
# 
# High freq. dielectric constant tensor:
#      x y z
#    x 1.866120 0.000000 0.006620 
#    y 0.000000 1.860680 0.000000 
#    z 0.006620 0.000000 1.822240 
# 
# From -- ./inp_files/45740.got.cif
#   From: 2010.06.25/outbox.cif.g09.slc.cpg/sg11_23_cif.got.tgz:45740.got - 2010.06.27 23:14:04.
