data_PCOD8076179
_publ_section_title
;
Structure prediction by ZEFSAII (Michael W. Deem and Ramdas Pophale) SiO2 
 PCOD8076179
Probable space group: P 21/M
;
_chemical_formula_sum "Si O2"
_cell_formula_units_Z 32
_cell_length_a 13.949179
_cell_length_b 8.808060
_cell_length_c 13.145395
_cell_angle_alpha 90.000000
_cell_angle_beta 85.329859
_cell_angle_gamma 90.000000
_cell_volume 1609.749412
_symmetry_space_group_name_H-M "P 21/M"
_symmetry_group_IT_number 11
_symmetry_cell_setting 'monoclinic'
loop_
_space_group_symop_operation_xyz
x,y,z
-x,1/2+y,-z
-x,-y,-z
x,1/2-y,z
loop_
_atom_site_type_symbol
_atom_site_label
_atom_site_fract_x
_atom_site_fract_y
_atom_site_fract_z
Si Si1 0.901759 0.069529 0.463881
Si Si2 0.814252 0.428920 0.259944
Si Si3 0.634554 0.929761 0.191274
Si Si4 0.578985 0.070808 0.777054
Si Si5 0.243118 0.569416 0.358057
Si Si6 0.686662 0.071577 0.974173
Si Si7 0.853433 0.078778 0.828848
Si Si8 0.950226 0.577694 0.098643
O O1 0.913033 0.250000 0.469461
O O2 0.877968 0.016230 0.350687
O O3 0.807518 0.010260 0.534605
O O4 0.000000 0.000000 0.500000
O O5 0.804879 0.250000 0.260173
O O6 0.707414 0.498936 0.267904
O O7 0.861574 0.483208 0.149885
O O8 0.640928 0.750000 0.199485
O O9 0.528443 0.993744 0.228499
O O10 0.657148 0.976082 0.074119
O O11 0.574758 0.250000 0.773292
O O12 0.647936 0.012846 0.677592
O O13 0.619571 0.024208 0.884426
O O14 0.241170 0.750000 0.362731
O O15 0.177556 0.499293 0.272989
O O16 0.679303 0.250000 0.001879
O O17 0.796119 0.017657 0.933786
O O18 0.813674 0.250000 0.824212
O O19 0.967607 0.072596 0.822755
O O20 0.918823 0.750000 0.076271
O O21 0.000000 0.500000 0.000000
#
# Coordination Sequence:
#
# PCOD8076179 Si02
#       8
#     4   4   4   4   4   4   4   4
#     4  10  21  37  61  85 106 135 175 223 276 329
#     4  11  24  39  52  75 109 145 183 223 269 328
#     4  11  21  33  50  75 105 142 184 227 269 314
#     4   8  16  30  52  80 107 136 178 223 267 321
#     4   8  14  30  54  78 100 128 168 215 264 319
#     4   9  16  30  52  78 108 141 171 211 265 324
#     4   8  15  27  48  75 100 127 164 207 258 315
#     4  11  21  34  53  78 108 144 180 217 260 314
#
# _framework density 19.878871
#
# number of rings (size 3 to 8) (size 9 to 14) (size 15 to 20)
#    0.000    2.500    0.000    4.500    0.000    3.000 
#    0.000    1.875    0.000    4.500    0.000    0.000 
#    0.000    0.000    0.000    0.000    0.000    0.000 
#
# Total GULP energy -396434.643470 kJ/mol
# GULP energy per Si atom -12388.582608 kJ/mol
# Density = 1.983363 g / cm^3
# Si number density = 19.878871 Si / 1000 Ang^3
#
#
#
# Elastic Constant Matrix: (Units=GPa)
#
#
# Indices 1 2 3 4 5 6 
#
# 1 109.1225 23.2371 34.5732 0.0000 -6.4585 0.0000
# 2 23.2371 50.9044 22.7757 0.0000 0.9259 0.0000
# 3 34.5732 22.7757 94.0155 0.0000 -11.5007 0.0000
# 4 0.0000 0.0000 0.0000 20.2060 0.0000 1.0351
# 5 -6.4585 0.9259 -11.5007 0.0000 30.7664 0.0000
# 6 0.0000 0.0000 0.0000 1.0351 0.0000 23.2338
#
#
#
# Elastic Compliance Matrix: (Units=1/GPa)
#
#
# Indices 1 2 3 4 5 6 
#
# 1 0.010973 -0.003699 -0.002980 0.000000 0.001301 0.000000
# 2 -0.003699 0.023510 -0.004733 0.000000 -0.003253 0.000000
# 3 -0.002980 -0.004733 0.013434 0.000000 0.004539 0.000000
# 4 0.000000 0.000000 0.000000 0.049603 0.000000 -0.002210
# 5 0.001301 -0.003253 0.004539 0.000000 0.034571 0.000000
# 6 0.000000 0.000000 0.000000 -0.002210 0.000000 0.043139
#
#
# Mechanical properties :
#
#
# Convention : Reuss Voigt Hill
#
# Bulk Modulus (GPa) = 39.85214 46.13493 42.99353
# Shear Modulus (GPa) = 24.22256 26.40500 25.31378
#
# Velocity S-wave (km/s) = 3.49450 3.64853 3.57235
# Velocity P-wave (km/s) = 6.03101 6.40371 6.22015
#
# Compressibility (1/GPa) = 0.02509276
#
# Stress axis : x y z
#
# Youngs Moduli (GPa) = 91.13387 42.53478 74.43710
#
# Poissons Ratio (x) = 0.15735 0.22181
# Poissons Ratio (y) = 0.33714 0.35231
# Poissons Ratio (z) = 0.27156 0.20132
#
# Static dielectric constant tensor:
#      x y z
#    x 4.176410 0.000000 -0.063850 
#    y 0.000000 3.238270 0.000000 
#    z -0.063850 0.000000 3.684970 
# 
# 
# High freq. dielectric constant tensor:
#      x y z
#    x 1.789350 0.000000 -0.007070 
#    y 0.000000 1.734310 0.000000 
#    z -0.007070 0.000000 1.766420 
# 
# From -- ./inp_files/38199.got.cif
#   From: 2010.06.25/outbox.cif.g09.slc.cpg/sg11_20_cif.got.tgz:38199.got - 2010.06.27 23:14:04.
