data_PCOD8076076
_publ_section_title
;
Structure prediction by ZEFSAII (Michael W. Deem and Ramdas Pophale) SiO2 
 PCOD8076076
Probable space group: P 21/M
;
_chemical_formula_sum "Si O2"
_cell_formula_units_Z 24
_cell_length_a 15.699106
_cell_length_b 9.239538
_cell_length_c 14.238655
_cell_angle_alpha 90.000000
_cell_angle_beta 37.737678
_cell_angle_gamma 90.000000
_cell_volume 1264.093142
_symmetry_space_group_name_H-M "P 21/M"
_symmetry_group_IT_number 11
_symmetry_cell_setting 'monoclinic'
loop_
_space_group_symop_operation_xyz
x,y,z
-x,1/2+y,-z
-x,-y,-z
x,1/2-y,z
loop_
_atom_site_type_symbol
_atom_site_label
_atom_site_fract_x
_atom_site_fract_y
_atom_site_fract_z
Si Si1 0.885183 0.415895 0.042802
Si Si2 0.921369 0.082793 0.800679
Si Si3 0.241888 0.082936 0.532628
Si Si4 0.429390 0.417670 0.193692
Si Si5 0.689282 0.581167 0.904109
Si Si6 0.641917 0.417509 0.393511
O O1 0.933501 0.250000 0.001152
O O2 0.733653 0.436479 0.219999
O O3 0.880286 0.472470 0.940503
O O4 0.000000 0.500000 0.000000
O O5 0.880516 0.250000 0.822941
O O6 0.083698 0.057028 0.639540
O O7 0.837791 0.988118 0.798429
O O8 0.266440 0.250000 0.539497
O O9 0.339169 0.036382 0.361772
O O10 0.275029 0.983213 0.591884
O O11 0.471995 0.250000 0.160178
O O12 0.339336 0.451929 0.179886
O O13 0.570030 0.510415 0.072717
O O14 0.693268 0.750000 0.922686
O O15 0.500000 0.500000 0.500000
O O16 0.610706 0.250000 0.441255
#
# Coordination Sequence:
#
# PCOD8076076 Si02
#       6
#     4   4   4   4   4   4
#     4  10  21  38  59  82 112 149 187 227 275 329
#     4  10  21  37  58  84 113 149 186 225 279 337
#     4  10  21  39  61  83 111 149 189 232 281 332
#     4   9  20  39  60  82 113 148 186 232 282 333
#     4  10  21  37  58  86 114 146 187 231 279 334
#     4  11  24  39  57  85 117 150 188 231 279 332
#
# _framework density 18.985944
#
# number of rings (size 3 to 8) (size 9 to 14) (size 15 to 20)
#    0.000    2.000    1.667    1.000    2.333    4.000 
#    0.000    0.000    0.000    0.000    0.000    0.000 
#    0.000    0.000    0.000    0.000    0.000    0.000 
#
# Total GULP energy -297715.928303 kJ/mol
# GULP energy per Si atom -12404.830346 kJ/mol
# Density = 1.894273 g / cm^3
# Si number density = 18.985944 Si / 1000 Ang^3
#
#
#
# Elastic Constant Matrix: (Units=GPa)
#
#
# Indices 1 2 3 4 5 6 
#
# 1 56.7255 28.7198 4.9110 0.0000 -13.9336 0.0000
# 2 28.7198 71.3957 22.9466 0.0000 -10.5201 0.0000
# 3 4.9110 22.9466 76.7140 0.0000 1.0756 0.0000
# 4 0.0000 0.0000 0.0000 28.2935 0.0000 -6.5825
# 5 -13.9336 -10.5201 1.0756 0.0000 31.7680 0.0000
# 6 0.0000 0.0000 0.0000 -6.5825 0.0000 39.7129
#
#
#
# Elastic Compliance Matrix: (Units=1/GPa)
#
#
# Indices 1 2 3 4 5 6 
#
# 1 0.023846 -0.008808 0.001003 0.000000 0.007508 0.000000
# 2 -0.008808 0.019693 -0.005366 0.000000 0.002840 0.000000
# 3 0.001003 -0.005366 0.014602 0.000000 -0.001832 0.000000
# 4 0.000000 0.000000 0.000000 0.036761 0.000000 0.006093
# 5 0.007508 0.002840 -0.001832 0.000000 0.035774 0.000000
# 6 0.000000 0.000000 0.000000 0.006093 0.000000 0.026191
#
#
# Mechanical properties :
#
#
# Convention : Reuss Voigt Hill
#
# Bulk Modulus (GPa) = 31.44940 35.33222 33.39081
# Shear Modulus (GPa) = 25.79857 29.83873 27.81865
#
# Velocity S-wave (km/s) = 3.69022 3.96867 3.83198
# Velocity P-wave (km/s) = 5.89555 6.29687 6.09951
#
# Compressibility (1/GPa) = 0.03179711
#
# Stress axis : x y z
#
# Youngs Moduli (GPa) = 41.93623 50.77976 68.48321
#
# Poissons Ratio (x) = 0.44728 -0.06868
# Poissons Ratio (y) = 0.36939 0.36751
# Poissons Ratio (z) = -0.04206 0.27251
#
# Static dielectric constant tensor:
#      x y z
#    x 3.453070 0.000000 0.077910 
#    y 0.000000 3.581080 0.000000 
#    z 0.077910 0.000000 3.617910 
# 
# 
# High freq. dielectric constant tensor:
#      x y z
#    x 1.738840 0.000000 -0.002130 
#    y 0.000000 1.737340 0.000000 
#    z -0.002130 0.000000 1.746980 
# 
# From -- ./inp_files/46466.got.cif
#   From: 2010.06.25/outbox.cif.g09.slc.cpg/sg11_24_cif.got.tgz:46466.got - 2010.06.27 23:14:04.
