data_PCOD8076047
_publ_section_title
;
Structure prediction by ZEFSAII (Michael W. Deem and Ramdas Pophale) SiO2 
 PCOD8076047
Probable space group: P 21/M
;
_chemical_formula_sum "Si O2"
_cell_formula_units_Z 32
_cell_length_a 14.933221
_cell_length_b 8.794771
_cell_length_c 24.676200
_cell_angle_alpha 90.000000
_cell_angle_beta 28.192832
_cell_angle_gamma 90.000000
_cell_volume 1531.099572
_symmetry_space_group_name_H-M "P 21/M"
_symmetry_group_IT_number 11
_symmetry_cell_setting 'monoclinic'
loop_
_space_group_symop_operation_xyz
x,y,z
-x,1/2+y,-z
-x,-y,-z
x,1/2-y,z
loop_
_atom_site_type_symbol
_atom_site_label
_atom_site_fract_x
_atom_site_fract_y
_atom_site_fract_z
Si Si1 0.315272 0.572063 0.477673
Si Si2 0.937807 0.068891 0.976892
Si Si3 0.507727 0.428560 0.190578
Si Si4 0.817017 0.071821 0.568887
Si Si5 0.270159 0.427155 0.725021
Si Si6 0.157009 0.427489 0.669336
Si Si7 0.774577 0.925402 0.861397
Si Si8 0.428411 0.925508 0.122815
O O1 0.303654 0.750000 0.498912
O O2 0.186598 0.535989 0.493678
O O3 0.534007 0.522448 0.350493
O O4 0.246670 0.475242 0.564992
O O5 0.941908 0.250000 0.977933
O O6 0.085109 0.001651 0.853381
O O7 0.724548 0.012578 0.077350
O O8 0.000000 0.000000 0.000000
O O9 0.494033 0.250000 0.207142
O O10 0.381073 0.509016 0.303386
O O11 0.418179 0.470518 0.180812
O O12 0.825536 0.250000 0.575229
O O13 0.000000 0.000000 0.500000
O O14 0.242263 0.250000 0.747030
O O15 0.287506 0.467628 0.651759
O O16 0.107089 0.250000 0.693934
O O17 0.972016 0.525353 0.780889
O O18 0.771273 0.750000 0.846009
O O19 0.743430 0.026051 0.824305
O O20 0.622358 0.961621 0.988502
O O21 0.407854 0.750000 0.150224
#
# Coordination Sequence:
#
# PCOD8076047 Si02
#       8
#     4   4   4   4   4   4   4   4
#     4  10  22  41  63  86 118 161 207 258 313 365
#     4  10  21  38  62  91 124 162 203 250 306 368
#     4  11  23  39  62  91 124 159 199 248 307 371
#     4  11  25  44  66  89 120 162 210 263 315 371
#     4   9  19  38  62  89 123 162 203 248 305 367
#     4  11  22  36  60  89 121 160 203 251 304 367
#     4  10  21  37  57  84 120 158 199 247 300 361
#     4  10  21  37  59  86 117 156 201 250 302 359
#
# _framework density 20.900010999999999
#
# number of rings (size 3 to 8) (size 9 to 14) (size 15 to 20)
#    0.000    1.750    0.000    3.750    1.750    5.500 
#    0.000    2.500    0.000    0.000    0.000    0.000 
#    0.000    0.000    0.000    0.000    0.000    0.000 
#
# Total GULP energy -396788.305023 kJ/mol
# GULP energy per Si atom -12399.634532 kJ/mol
# Density = 2.085244 g / cm^3
# Si number density = 20.900011 Si / 1000 Ang^3
#
#
#
# Elastic Constant Matrix: (Units=GPa)
#
#
# Indices 1 2 3 4 5 6 
#
# 1 102.9880 20.8800 41.5807 0.0000 5.3992 0.0000
# 2 20.8800 44.6806 35.1059 0.0000 6.6567 0.0000
# 3 41.5807 35.1059 90.3321 0.0000 4.3915 0.0000
# 4 0.0000 0.0000 0.0000 34.6271 0.0000 2.1178
# 5 5.3992 6.6567 4.3915 0.0000 34.9601 0.0000
# 6 0.0000 0.0000 0.0000 2.1178 0.0000 34.1433
#
#
#
# Elastic Compliance Matrix: (Units=1/GPa)
#
#
# Indices 1 2 3 4 5 6 
#
# 1 0.012059 -0.001685 -0.004850 0.000000 -0.000932 0.000000
# 2 -0.001685 0.033204 -0.011906 0.000000 -0.004566 0.000000
# 3 -0.004850 -0.011906 0.017893 0.000000 0.000769 0.000000
# 4 0.000000 0.000000 0.000000 0.028989 0.000000 -0.001798
# 5 -0.000932 -0.004566 0.000769 0.000000 0.029521 0.000000
# 6 0.000000 0.000000 0.000000 -0.001798 0.000000 0.029400
#
#
# Mechanical properties :
#
#
# Convention : Reuss Voigt Hill
#
# Bulk Modulus (GPa) = 38.06451 48.12600 43.09526
# Shear Modulus (GPa) = 25.41858 30.10838 27.76348
#
# Velocity S-wave (km/s) = 3.49119 3.79963 3.64867
# Velocity P-wave (km/s) = 5.87396 6.50587 6.19797
#
# Compressibility (1/GPa) = 0.02627119
#
# Stress axis : x y z
#
# Youngs Moduli (GPa) = 82.92711 30.11699 55.88841
#
# Poissons Ratio (x) = 0.05076 0.27109
# Poissons Ratio (y) = 0.13976 0.66542
# Poissons Ratio (z) = 0.40224 0.35858
#
# Static dielectric constant tensor:
#      x y z
#    x 4.538550 0.000000 -0.717090 
#    y 0.000000 3.636870 0.000000 
#    z -0.717090 0.000000 4.530860 
# 
# 
# High freq. dielectric constant tensor:
#      x y z
#    x 1.830480 0.000000 -0.001550 
#    y 0.000000 1.806210 0.000000 
#    z -0.001550 0.000000 1.824470 
# 
# From -- ./inp_files/55535.got.cif
#   From: 2010.06.25/outbox.cif.g09.slc.cpg/sg11_28_cif.got.tgz:55535.got - 2010.06.27 23:14:04.
