data_PCOD8076519
_publ_section_title
;
Structure prediction by ZEFSAII (Michael W. Deem and Ramdas Pophale) SiO2 
 PCOD8076519
Probable space group: P 21/M
;
_chemical_formula_sum "Si O2"
_cell_formula_units_Z 32
_cell_length_a 16.681269
_cell_length_b 15.232983
_cell_length_c 13.300887
_cell_angle_alpha 90.000000
_cell_angle_beta 152.268393
_cell_angle_gamma 90.000000
_cell_volume 1572.736884
_symmetry_space_group_name_H-M "P 21/M"
_symmetry_group_IT_number 11
_symmetry_cell_setting 'monoclinic'
loop_
_space_group_symop_operation_xyz
x,y,z
-x,1/2+y,-z
-x,-y,-z
x,1/2-y,z
loop_
_atom_site_type_symbol
_atom_site_label
_atom_site_fract_x
_atom_site_fract_y
_atom_site_fract_z
Si Si1 0.198089 0.645183 0.360357
Si Si2 0.456983 0.844966 0.103768
Si Si3 0.898102 0.004430 0.595586
Si Si4 0.657445 0.936113 0.168257
Si Si5 0.519803 0.937560 0.619038
Si Si6 0.226106 0.150535 0.414338
Si Si7 0.284521 0.487762 0.974567
Si Si8 0.832354 0.852275 0.871035
O O1 0.205514 0.750000 0.392812
O O2 0.208939 0.586167 0.474095
O O3 0.348325 0.619734 0.448154
O O4 0.018795 0.613604 0.112127
O O5 0.366096 0.750000 0.994643
O O6 0.592751 0.852676 0.161004
O O7 0.573531 0.850297 0.333224
O O8 0.306441 0.917552 0.943570
O O9 0.822538 0.984371 0.401418
O O10 0.887815 0.914450 0.646146
O O11 0.098278 0.028175 0.813887
O O12 0.500000 0.000000 0.000000
O O13 0.693151 0.914909 0.089967
O O14 0.682741 0.874567 0.783289
O O15 0.500000 0.000000 0.500000
O O16 0.566914 0.985815 0.775846
O O17 0.150637 0.250000 0.337827
O O18 0.216083 0.109203 0.291647
O O19 0.844305 0.750000 0.873742
#
# Coordination Sequence:
#
# PCOD8076519 Si02
#       8
#     4   4   4   4   4   4   4   4
#     4  11  24  41  61  88 123 165 207 251 303 360
#     4   9  18  36  58  85 116 151 195 247 299 360
#     4  11  21  38  62  87 122 157 198 250 304 363
#     4   9  19  38  60  83 112 152 198 242 304 359
#     4  12  24  39  62  90 120 161 208 250 305 361
#     4   9  19  36  60  85 118 157 200 251 302 354
#     4  11  22  37  58  88 119 156 199 248 300 361
#     4  10  21  39  58  84 121 160 206 255 298 353
#
# _framework density 20.346696999999999
#
# number of rings (size 3 to 8) (size 9 to 14) (size 15 to 20)
#    0.000    1.750    1.250    4.500    1.750    1.500 
#    0.000    7.500    0.000    1.500    0.000    0.000 
#    0.000    0.000    0.000    0.000    0.000    0.000 
#
# Total GULP energy -396550.815630 kJ/mol
# GULP energy per Si atom -12392.212988 kJ/mol
# Density = 2.030039 g / cm^3
# Si number density = 20.346697 Si / 1000 Ang^3
#
#
#
# Elastic Constant Matrix: (Units=GPa)
#
#
# Indices 1 2 3 4 5 6 
#
# 1 115.1582 39.4474 44.1517 0.0000 1.2650 0.0000
# 2 39.4474 60.8239 15.7379 0.0000 -1.5476 0.0000
# 3 44.1517 15.7379 83.2538 0.0000 4.1884 0.0000
# 4 0.0000 0.0000 0.0000 22.4823 0.0000 6.3303
# 5 1.2650 -1.5476 4.1884 0.0000 46.3855 0.0000
# 6 0.0000 0.0000 0.0000 6.3303 0.0000 18.2845
#
#
#
# Elastic Compliance Matrix: (Units=1/GPa)
#
#
# Indices 1 2 3 4 5 6 
#
# 1 0.013330 -0.007170 -0.005709 0.000000 -0.000087 0.000000
# 2 -0.007170 0.021179 -0.000248 0.000000 0.000924 0.000000
# 3 -0.005709 -0.000248 0.015147 0.000000 -0.001220 0.000000
# 4 0.000000 0.000000 0.000000 0.049284 0.000000 -0.017062
# 5 -0.000087 0.000924 -0.001220 0.000000 0.021702 0.000000
# 6 0.000000 0.000000 0.000000 -0.017062 0.000000 0.060598
#
#
# Mechanical properties :
#
#
# Convention : Reuss Voigt Hill
#
# Bulk Modulus (GPa) = 42.73139 50.87888 46.80514
# Shear Modulus (GPa) = 23.22408 28.09041 25.65724
#
# Velocity S-wave (km/s) = 3.38215 3.71966 3.55491
# Velocity P-wave (km/s) = 6.02488 6.59606 6.31693
#
# Compressibility (1/GPa) = 0.02340200
#
# Stress axis : x y z
#
# Youngs Moduli (GPa) = 75.02049 47.21754 66.01764
#
# Poissons Ratio (x) = 0.33855 0.37692
# Poissons Ratio (y) = 0.53789 0.01634
# Poissons Ratio (z) = 0.42832 0.01169
#
# Static dielectric constant tensor:
#      x y z
#    x 13.381830 0.000000 -7.041200 
#    y 0.000000 3.832510 0.000000 
#    z -7.041200 0.000000 8.901000 
# 
# 
# High freq. dielectric constant tensor:
#      x y z
#    x 1.796810 0.000000 -0.007020 
#    y 0.000000 1.781550 0.000000 
#    z -0.007020 0.000000 1.795330 
# 
# From -- ./inp_files/40023.got.cif
#   From: 2010.06.25/outbox.cif.g09.slc.cpg/sg11_21_cif.got.tgz:40023.got - 2010.06.27 23:14:04.
