data_PCOD8076096
_publ_section_title
;
Structure prediction by ZEFSAII (Michael W. Deem and Ramdas Pophale) SiO2 
 PCOD8076096
Probable space group: P 21/M
;
_chemical_formula_sum "Si O2"
_cell_formula_units_Z 28
_cell_length_a 27.141720
_cell_length_b 8.958099
_cell_length_c 9.694852
_cell_angle_alpha 90.000000
_cell_angle_beta 141.033986
_cell_angle_gamma 90.000000
_cell_volume 1482.340236
_symmetry_space_group_name_H-M "P 21/M"
_symmetry_group_IT_number 11
_symmetry_cell_setting 'monoclinic'
loop_
_space_group_symop_operation_xyz
x,y,z
-x,1/2+y,-z
-x,-y,-z
x,1/2-y,z
loop_
_atom_site_type_symbol
_atom_site_label
_atom_site_fract_x
_atom_site_fract_y
_atom_site_fract_z
Si Si1 0.354641 0.426095 0.477135
Si Si2 0.504014 0.923044 0.862814
Si Si3 0.676513 0.579698 0.272987
Si Si4 0.777277 0.427790 0.992782
Si Si5 0.968522 0.080127 0.798810
Si Si6 0.200578 0.573706 0.649283
Si Si7 0.063079 0.422115 0.733121
O O1 0.355489 0.250000 0.454510
O O2 0.441133 0.492286 0.629141
O O3 0.331729 0.466934 0.584597
O O4 0.295846 0.503324 0.244826
O O5 0.480687 0.750000 0.824538
O O6 0.594292 0.940182 0.010674
O O7 0.500000 0.000000 0.000000
O O8 0.704783 0.750000 0.325725
O O9 0.740892 0.478073 0.341949
O O10 0.777347 0.250000 0.978314
O O11 0.771982 0.480899 0.140241
O O12 0.855679 0.491222 0.095913
O O13 0.953060 0.250000 0.805784
O O14 0.886277 0.008634 0.568850
O O15 0.034405 0.065707 0.826660
O O16 0.000000 0.000000 0.000000
O O17 0.197859 0.750000 0.642790
O O18 0.073455 0.250000 0.710656
O O19 0.000000 0.500000 0.500000
#
# Coordination Sequence:
#
# PCOD8076096 Si02
#       7
#     4   4   4   4   4   4   4
#     4  10  21  37  58  88 117 146 190 238 282 337
#     4   9  17  33  56  84 116 150 188 233 282 335
#     4   9  20  36  57  85 116 147 185 232 281 334
#     4  11  23  40  59  83 115 151 192 236 283 337
#     4  10  23  41  58  83 115 147 188 237 281 334
#     4  10  22  40  57  80 115 150 188 233 283 337
#     4  11  22  40  62  84 113 149 191 235 281 336
#
# _framework density 18.889050999999998
#
# number of rings (size 3 to 8) (size 9 to 14) (size 15 to 20)
#    0.000    2.000    1.429    2.571    2.000    6.286 
#    0.000    0.714    0.000    0.000    0.000    0.000 
#    0.000    0.000    0.000    0.000    0.000    0.000 
#
# Total GULP energy -347159.793700 kJ/mol
# GULP energy per Si atom -12398.564061 kJ/mol
# Density = 1.884606 g / cm^3
# Si number density = 18.889051 Si / 1000 Ang^3
#
#
#
# Elastic Constant Matrix: (Units=GPa)
#
#
# Indices 1 2 3 4 5 6 
#
# 1 63.0801 27.7500 34.8676 0.0000 -2.6888 0.0000
# 2 27.7500 84.0702 53.7833 0.0000 -3.2470 0.0000
# 3 34.8676 53.7833 153.6454 0.0000 -1.1782 0.0000
# 4 0.0000 0.0000 0.0000 38.9338 0.0000 3.3188
# 5 -2.6888 -3.2470 -1.1782 0.0000 24.2255 0.0000
# 6 0.0000 0.0000 0.0000 3.3188 0.0000 33.2499
#
#
#
# Elastic Compliance Matrix: (Units=1/GPa)
#
#
# Indices 1 2 3 4 5 6 
#
# 1 0.019479 -0.004580 -0.002807 0.000000 0.001412 0.000000
# 2 -0.004580 0.016482 -0.004719 0.000000 0.001471 0.000000
# 3 -0.002807 -0.004719 0.008793 0.000000 -0.000516 0.000000
# 4 0.000000 0.000000 0.000000 0.025905 0.000000 -0.002586
# 5 0.001412 0.001471 -0.000516 0.000000 0.041608 0.000000
# 6 0.000000 0.000000 0.000000 -0.002586 0.000000 0.030333
#
#
# Mechanical properties :
#
#
# Convention : Reuss Voigt Hill
#
# Bulk Modulus (GPa) = 48.67567 59.28863 53.98215
# Shear Modulus (GPa) = 28.79204 31.57484 30.18344
#
# Velocity S-wave (km/s) = 3.90843 4.09295 4.00175
# Velocity P-wave (km/s) = 6.79654 7.33432 7.07055
#
# Compressibility (1/GPa) = 0.02054414
#
# Stress axis : x y z
#
# Youngs Moduli (GPa) = 51.33725 60.67131 113.72265
#
# Poissons Ratio (x) = 0.27785 0.31917
# Poissons Ratio (y) = 0.23511 0.53666
# Poissons Ratio (z) = 0.14408 0.28631
#
# Static dielectric constant tensor:
#      x y z
#    x 3.294910 0.000000 0.111770 
#    y 0.000000 4.060440 0.000000 
#    z 0.111770 0.000000 3.652020 
# 
# 
# High freq. dielectric constant tensor:
#      x y z
#    x 1.721450 0.000000 0.014430 
#    y 0.000000 1.740480 0.000000 
#    z 0.014430 0.000000 1.744660 
# 
# From -- ./inp_files/28231.got.cif
#   From: 2010.06.25/outbox.cif.g09.slc.cpg/sg11_15_cif.got.tgz:28231.got - 2010.06.27 23:14:04.
