data_PCOD8076053
_publ_section_title
;
Structure prediction by ZEFSAII (Michael W. Deem and Ramdas Pophale) SiO2 
 PCOD8076053
Probable space group: P 21/M
;
_chemical_formula_sum "Si O2"
_cell_formula_units_Z 28
_cell_length_a 21.609410
_cell_length_b 8.892267
_cell_length_c 15.297079
_cell_angle_alpha 90.000000
_cell_angle_beta 27.124568
_cell_angle_gamma 90.000000
_cell_volume 1340.166714
_symmetry_space_group_name_H-M "P 21/M"
_symmetry_group_IT_number 11
_symmetry_cell_setting 'monoclinic'
loop_
_space_group_symop_operation_xyz
x,y,z
-x,1/2+y,-z
-x,-y,-z
x,1/2-y,z
loop_
_atom_site_type_symbol
_atom_site_label
_atom_site_fract_x
_atom_site_fract_y
_atom_site_fract_z
Si Si1 0.546898 0.917991 0.355811
Si Si2 0.190624 0.416193 0.721273
Si Si3 0.429906 0.572293 0.003973
Si Si4 0.589884 0.071864 0.646164
Si Si5 0.140452 0.571450 0.290323
Si Si6 0.098815 0.584070 0.994133
Si Si7 0.155304 0.420842 0.085115
O O1 0.492994 0.750000 0.431520
O O2 0.481378 0.988897 0.351844
O O3 0.500000 0.000000 0.500000
O O4 0.706673 0.925868 0.142546
O O5 0.258068 0.250000 0.641562
O O6 0.255678 0.517922 0.561885
O O7 0.205793 0.493576 0.798129
O O8 0.034851 0.397598 0.894293
O O9 0.441243 0.750000 0.998603
O O10 0.519683 0.515489 0.812014
O O11 0.500000 0.500000 0.000000
O O12 0.270121 0.527574 0.189173
O O13 0.578241 0.250000 0.677370
O O14 0.123119 0.750000 0.308807
O O15 0.168248 0.510223 0.158742
O O16 0.000000 0.500000 0.500000
O O17 0.159448 0.750000 0.938378
O O18 0.057858 0.501959 0.137283
O O19 0.108038 0.250000 0.164556
#
# Coordination Sequence:
#
# PCOD8076053 Si02
#       7
#     4   4   4   4   4   4   4
#     4  10  22  36  56  88 124 162 200 246 303 364
#     4  10  21  37  57  85 123 166 212 260 312 375
#     4  11  25  45  70  98 128 168 216 271 334 398
#     4  11  22  39  62  89 123 162 206 257 315 377
#     4  11  25  45  70  98 128 168 216 271 334 398
#     4  10  21  37  57  85 123 166 212 260 312 375
#     4  11  22  39  62  89 123 162 206 257 315 377
#
# _framework density 20.892924000000001
#
# number of rings (size 3 to 8) (size 9 to 14) (size 15 to 20)
#    0.000    1.429    1.429    3.429    0.000    9.143 
#    0.000    0.000    0.000    0.000    0.000    0.000 
#    0.000    0.000    0.000    0.000    0.000    0.000 
#
# Total GULP energy -347057.776602 kJ/mol
# GULP energy per Si atom -12394.920593 kJ/mol
# Density = 2.084537 g / cm^3
# Si number density = 20.892924 Si / 1000 Ang^3
#
#
#
# Elastic Constant Matrix: (Units=GPa)
#
#
# Indices 1 2 3 4 5 6 
#
# 1 140.2903 68.6863 54.9442 0.0000 24.3830 0.0000
# 2 68.6863 119.1902 43.3945 0.0000 7.8492 0.0000
# 3 54.9442 43.3945 99.6674 0.0000 14.3556 0.0000
# 4 0.0000 0.0000 0.0000 35.0282 0.0000 7.9339
# 5 24.3830 7.8492 14.3556 0.0000 27.5158 0.0000
# 6 0.0000 0.0000 0.0000 7.9339 0.0000 37.3441
#
#
#
# Elastic Compliance Matrix: (Units=1/GPa)
#
#
# Indices 1 2 3 4 5 6 
#
# 1 0.012460 -0.005438 -0.003389 0.000000 -0.007722 0.000000
# 2 -0.005438 0.012354 -0.002776 0.000000 0.002743 0.000000
# 3 -0.003389 -0.002776 0.013584 0.000000 -0.003292 0.000000
# 4 0.000000 0.000000 0.000000 0.029992 0.000000 -0.006372
# 5 -0.007722 0.002743 -0.003292 0.000000 0.044121 0.000000
# 6 0.000000 0.000000 0.000000 -0.006372 0.000000 0.028132
#
#
# Mechanical properties :
#
#
# Convention : Reuss Voigt Hill
#
# Bulk Modulus (GPa) = 65.82297 77.02200 71.42248
# Shear Modulus (GPa) = 29.60118 32.78579 31.19349
#
# Velocity S-wave (km/s) = 3.76813 3.96565 3.86815
# Velocity P-wave (km/s) = 7.10669 7.61010 7.36270
#
# Compressibility (1/GPa) = 0.01519227
#
# Stress axis : x y z
#
# Youngs Moduli (GPa) = 80.25765 80.94714 73.61332
#
# Poissons Ratio (x) = 0.44019 0.24947
# Poissons Ratio (y) = 0.43644 0.20435
# Poissons Ratio (z) = 0.27199 0.22471
#
# Static dielectric constant tensor:
#      x y z
#    x 3.677500 0.000000 -0.030610 
#    y 0.000000 4.125110 0.000000 
#    z -0.030610 0.000000 3.901370 
# 
# 
# High freq. dielectric constant tensor:
#      x y z
#    x 1.823330 0.000000 0.001660 
#    y 0.000000 1.832050 0.000000 
#    z 0.001660 0.000000 1.813520 
# 
# From -- ./inp_files/54475.got.cif
#   From: 2010.06.25/outbox.cif.g09.slc.cpg/sg11_28_cif.got.tgz:54475.got - 2010.06.27 23:14:04.
