data_PCOD8076857
_publ_section_title
;
Structure prediction by ZEFSAII (Michael W. Deem and Ramdas Pophale) SiO2 
 PCOD8076857
Probable space group: P 21/M
;
_chemical_formula_sum "Si O2"
_cell_formula_units_Z 26
_cell_length_a 7.428294
_cell_length_b 15.318054
_cell_length_c 17.799078
_cell_angle_alpha 90.000000
_cell_angle_beta 143.888963
_cell_angle_gamma 90.000000
_cell_volume 1193.616852
_symmetry_space_group_name_H-M "P 21/M"
_symmetry_group_IT_number 11
_symmetry_cell_setting 'monoclinic'
loop_
_space_group_symop_operation_xyz
x,y,z
-x,1/2+y,-z
-x,-y,-z
x,1/2-y,z
loop_
_atom_site_type_symbol
_atom_site_label
_atom_site_fract_x
_atom_site_fract_y
_atom_site_fract_z
Si Si1 0.742954 0.347527 0.518477
Si Si2 0.914597 0.750000 0.110903
Si Si3 0.923531 0.750000 0.948914
Si Si4 0.795777 0.250000 0.122228
Si Si5 0.777786 0.103736 0.693896
Si Si6 0.226854 0.441420 0.125499
Si Si7 0.737509 0.952368 0.366432
Si Si8 0.867724 0.581197 0.742143
O O1 0.711606 0.250000 0.477613
O O2 0.660896 0.350732 0.578951
O O3 0.496545 0.403291 0.388758
O O4 0.090993 0.378200 0.623946
O O5 0.985327 0.664011 0.182320
O O6 0.086908 0.750000 0.086966
O O7 0.555090 0.750000 0.976757
O O8 0.727638 0.840241 0.884987
O O9 0.138444 0.750000 0.946391
O O10 0.937152 0.166081 0.214104
O O11 0.490821 0.091263 0.651590
O O12 0.937336 0.010688 0.723461
O O13 0.559985 0.485647 0.246967
O O14 0.053611 0.439946 0.145835
O O15 0.000000 0.500000 0.000000
O O16 0.000000 0.000000 0.500000
#
# Coordination Sequence:
#
# PCOD8076857 Si02
#       8
#     4   2   2   2   4   4   4   4
#     4  12  24  43  72 102 134 184 230 285 352 407
#     4  12  26  43  61 104 138 178 234 277 349 408
#     4  10  22  42  69  90 141 180 226 292 332 412
#     4  10  24  43  66  98 127 184 234 271 349 418
#     4  11  25  44  65 100 143 174 225 293 339 407
#     4  10  21  41  66 102 134 179 227 279 345 401
#     4  11  24  44  72 102 135 182 234 280 352 413
#     4  10  21  43  71  91 139 177 224 289 329 410
#
# _framework density 21.782534999999999
#
# number of rings (size 3 to 8) (size 9 to 14) (size 15 to 20)
#    0.000    1.231    4.615    2.308    1.077    5.538 
#    1.385    0.000    0.000    0.000    0.000    0.000 
#    0.000    0.000    0.000    0.000    0.000    0.000 
#
# Total GULP energy -322149.383627 kJ/mol
# GULP energy per Si atom -12390.360909 kJ/mol
# Density = 2.173296 g / cm^3
# Si number density = 21.782535 Si / 1000 Ang^3
#
#
#
# Elastic Constant Matrix: (Units=GPa)
#
#
# Indices 1 2 3 4 5 6 
#
# 1 62.8566 19.4786 21.8413 0.0000 1.8749 0.0000
# 2 19.4786 160.6252 53.0783 0.0000 13.4031 0.0000
# 3 21.8413 53.0783 126.9735 0.0000 5.4534 0.0000
# 4 0.0000 0.0000 0.0000 41.0100 0.0000 0.0740
# 5 1.8749 13.4031 5.4534 0.0000 35.9248 0.0000
# 6 0.0000 0.0000 0.0000 0.0740 0.0000 23.4660
#
#
#
# Elastic Compliance Matrix: (Units=1/GPa)
#
#
# Indices 1 2 3 4 5 6 
#
# 1 0.017145 -0.001277 -0.002413 0.000000 -0.000052 0.000000
# 2 -0.001277 0.007504 -0.002818 0.000000 -0.002305 0.000000
# 3 -0.002413 -0.002818 0.009480 0.000000 -0.000262 0.000000
# 4 0.000000 0.000000 0.000000 0.024384 0.000000 -0.000077
# 5 -0.000052 -0.002305 -0.000262 0.000000 0.028738 0.000000
# 6 0.000000 0.000000 0.000000 -0.000077 0.000000 0.042615
#
#
# Mechanical properties :
#
#
# Convention : Reuss Voigt Hill
#
# Bulk Modulus (GPa) = 47.36617 59.91684 53.64151
# Shear Modulus (GPa) = 33.35068 37.15063 35.25065
#
# Velocity S-wave (km/s) = 3.91714 4.13428 4.02717
# Velocity P-wave (km/s) = 6.50007 7.09621 6.80467
#
# Compressibility (1/GPa) = 0.02111211
#
# Stress axis : x y z
#
# Youngs Moduli (GPa) = 58.32566 133.25830 105.48462
#
# Poissons Ratio (x) = 0.17023 0.25453
# Poissons Ratio (y) = 0.07451 0.29728
# Poissons Ratio (z) = 0.14074 0.37555
#
# Static dielectric constant tensor:
#      x y z
#    x 3.791590 0.000000 -0.210830 
#    y 0.000000 4.457700 0.000000 
#    z -0.210830 0.000000 4.910940 
# 
# 
# High freq. dielectric constant tensor:
#      x y z
#    x 1.832830 0.000000 -0.018140 
#    y 0.000000 1.881520 0.000000 
#    z -0.018140 0.000000 1.853290 
# 
# From -- ./inp_files/63855.got.cif
#   From: 2010.06.25/outbox.cif.g09.slc.cpg/sg11_32_cif.got.tgz:63855.got - 2010.06.27 23:14:04.
