data_PCOD8076627
_publ_section_title
;
Structure prediction by ZEFSAII (Michael W. Deem and Ramdas Pophale) SiO2 
 PCOD8076627
Probable space group: P 21/M
;
_chemical_formula_sum "Si O2"
_cell_formula_units_Z 28
_cell_length_a 12.730322
_cell_length_b 13.670650
_cell_length_c 9.012149
_cell_angle_alpha 90.000000
_cell_angle_beta 117.843300
_cell_angle_gamma 90.000000
_cell_volume 1386.823871
_symmetry_space_group_name_H-M "P 21/M"
_symmetry_group_IT_number 11
_symmetry_cell_setting 'monoclinic'
loop_
_space_group_symop_operation_xyz
x,y,z
-x,1/2+y,-z
-x,-y,-z
x,1/2-y,z
loop_
_atom_site_type_symbol
_atom_site_label
_atom_site_fract_x
_atom_site_fract_y
_atom_site_fract_z
Si Si1 0.211217 0.456056 0.271661
Si Si2 0.682278 0.358533 0.783828
Si Si3 0.014766 0.984109 0.683102
Si Si4 0.588846 0.636514 0.409158
Si Si5 0.233659 0.641489 0.831782
Si Si6 0.371396 0.465388 0.866414
Si Si7 0.182039 0.365453 0.941093
O O1 0.224782 0.567434 0.226596
O O2 0.110133 0.454897 0.328655
O O3 0.335419 0.421084 0.420270
O O4 0.176092 0.386019 0.112456
O O5 0.712959 0.250000 0.744676
O O6 0.548526 0.387960 0.652073
O O7 0.692506 0.360819 0.967583
O O8 0.069277 0.082850 0.789360
O O9 0.000000 0.000000 0.500000
O O10 0.098453 0.890766 0.770000
O O11 0.616333 0.750000 0.445753
O O12 0.625813 0.607713 0.268117
O O13 0.237016 0.750000 0.763011
O O14 0.297594 0.562457 0.767111
O O15 0.304629 0.410712 0.957865
O O16 0.500000 0.500000 0.000000
O O17 0.175682 0.250000 0.906555
#
# Coordination Sequence:
#
# PCOD8076627 Si02
#       7
#     4   4   4   4   4   4   4
#     4  12  22  42  65  94 126 170 214 258 315 380
#     4  10  21  39  64  94 127 165 206 257 314 372
#     4  11  25  44  64  89 125 167 213 267 322 378
#     4  11  23  39  63  94 133 171 206 253 319 382
#     4  10  21  39  62  91 123 162 208 254 312 372
#     4  11  20  38  62  93 125 166 209 258 309 371
#     4  11  24  40  61  93 128 164 214 267 317 376
#
# _framework density 20.190017999999998
#
# number of rings (size 3 to 8) (size 9 to 14) (size 15 to 20)
#    0.000    1.143    4.286    3.429    0.000    2.857 
#    0.000    2.143    0.000    0.000    0.000    0.000 
#    0.000    0.000    0.000    0.000    0.000    0.000 
#
# Total GULP energy -347262.564007 kJ/mol
# GULP energy per Si atom -12402.234429 kJ/mol
# Density = 2.014406 g / cm^3
# Si number density = 20.190018 Si / 1000 Ang^3
#
#
#
# Elastic Constant Matrix: (Units=GPa)
#
#
# Indices 1 2 3 4 5 6 
#
# 1 62.1039 24.7755 7.9154 0.0000 1.7493 0.0000
# 2 24.7755 118.8356 9.9939 0.0000 7.5486 0.0000
# 3 7.9154 9.9939 97.0914 0.0000 4.0173 0.0000
# 4 0.0000 0.0000 0.0000 24.6540 0.0000 -0.3214
# 5 1.7493 7.5486 4.0173 0.0000 34.7356 0.0000
# 6 0.0000 0.0000 0.0000 -0.3214 0.0000 24.1041
#
#
#
# Elastic Compliance Matrix: (Units=1/GPa)
#
#
# Indices 1 2 3 4 5 6 
#
# 1 0.017672 -0.003595 -0.001071 0.000000 0.000015 0.000000
# 2 -0.003595 0.009327 -0.000593 0.000000 -0.001777 0.000000
# 3 -0.001071 -0.000593 0.010491 0.000000 -0.001030 0.000000
# 4 0.000000 0.000000 0.000000 0.040568 0.000000 0.000541
# 5 0.000015 -0.001777 -0.001030 0.000000 0.029294 0.000000
# 6 0.000000 0.000000 0.000000 0.000541 0.000000 0.041494
#
#
# Mechanical properties :
#
#
# Convention : Reuss Voigt Hill
#
# Bulk Modulus (GPa) = 37.07782 40.37784 38.72783
# Shear Modulus (GPa) = 29.69889 32.38849 31.04369
#
# Velocity S-wave (km/s) = 3.83948 4.00957 3.92545
# Velocity P-wave (km/s) = 6.16926 6.44033 6.30625
#
# Compressibility (1/GPa) = 0.02697030
#
# Stress axis : x y z
#
# Youngs Moduli (GPa) = 56.58518 107.21141 95.32317
#
# Poissons Ratio (x) = 0.38546 0.10212
# Poissons Ratio (y) = 0.20344 0.05657
# Poissons Ratio (z) = 0.06062 0.06362
#
# Static dielectric constant tensor:
#      x y z
#    x 3.622670 0.000000 0.134340 
#    y 0.000000 3.936530 0.000000 
#    z 0.134340 0.000000 3.731180 
# 
# 
# High freq. dielectric constant tensor:
#      x y z
#    x 1.785640 0.000000 0.013060 
#    y 0.000000 1.799650 0.000000 
#    z 0.013060 0.000000 1.787350 
# 
# From -- ./inp_files/17957.got.cif
#   From: 2010.06.25/outbox.cif.g09.slc.cpg/sg11_9_cif.got.tgz:17957.got - 2010.06.27 23:14:04.
