data_PCOD8076947
_publ_section_title
;
Structure prediction by ZEFSAII (Michael W. Deem and Ramdas Pophale) SiO2 
 PCOD8076947
Probable space group: P 21/M
;
_chemical_formula_sum "Si O2"
_cell_formula_units_Z 32
_cell_length_a 12.130435
_cell_length_b 14.237378
_cell_length_c 18.878718
_cell_angle_alpha 90.000000
_cell_angle_beta 25.874995
_cell_angle_gamma 90.000000
_cell_volume 1422.894661
_symmetry_space_group_name_H-M "P 21/M"
_symmetry_group_IT_number 11
_symmetry_cell_setting 'monoclinic'
loop_
_space_group_symop_operation_xyz
x,y,z
-x,1/2+y,-z
-x,-y,-z
x,1/2-y,z
loop_
_atom_site_type_symbol
_atom_site_label
_atom_site_fract_x
_atom_site_fract_y
_atom_site_fract_z
Si Si1 0.026605 0.143595 0.972691
Si Si2 0.051274 0.956264 0.123556
Si Si3 0.376733 0.410147 0.533883
Si Si4 0.542214 0.858491 0.664797
Si Si5 0.538186 0.144681 0.749639
Si Si6 0.612254 0.955713 0.771451
Si Si7 0.042077 0.856520 0.606012
Si Si8 0.114414 0.648220 0.725220
O O1 0.058215 0.250000 0.925172
O O2 0.247784 0.119950 0.900045
O O3 0.050291 0.069948 0.895328
O O4 0.760428 0.133181 0.166410
O O5 0.895830 0.895559 0.271793
O O6 0.344153 0.927236 0.961053
O O7 0.017929 0.068598 0.151101
O O8 0.500000 0.500000 0.500000
O O9 0.336735 0.413889 0.472015
O O10 0.590515 0.332190 0.425849
O O11 0.629619 0.750000 0.614374
O O12 0.647365 0.906449 0.675021
O O13 0.567682 0.250000 0.763991
O O14 0.695016 0.133749 0.586888
O O15 0.632705 0.068716 0.752040
O O16 0.831376 0.925048 0.696897
O O17 0.940226 0.750000 0.660268
O O18 0.093584 0.886804 0.656493
O O19 0.979464 0.750000 0.814990
#
# Coordination Sequence:
#
# PCOD8076947 Si02
#       8
#     4   4   4   4   4   4   4   4
#     4   9  20  38  62  94 130 162 203 258 317 371
#     4  10  23  38  62  96 128 163 207 251 315 379
#     4  10  22  37  58  90 128 163 204 249 305 377
#     4  10  22  39  63  94 129 166 203 254 318 373
#     4  10  22  38  63  93 121 159 208 259 310 367
#     4  11  24  39  67  94 127 164 206 265 316 365
#     4  10  22  43  64  87 118 165 219 260 310 372
#     4  10  22  39  64  90 125 171 211 255 305 369
#
# _framework density 22.489367000000001
#
# number of rings (size 3 to 8) (size 9 to 14) (size 15 to 20)
#    0.000    2.000    0.000    1.875   10.500    4.500 
#    0.000    0.000    0.000    0.750    0.000    0.000 
#    0.000    0.000    0.000    0.000    0.000    0.000 
#
# Total GULP energy -396762.096758 kJ/mol
# GULP energy per Si atom -12398.815524 kJ/mol
# Density = 2.243818 g / cm^3
# Si number density = 22.489367 Si / 1000 Ang^3
#
#
#
# Elastic Constant Matrix: (Units=GPa)
#
#
# Indices 1 2 3 4 5 6 
#
# 1 76.6948 22.1394 31.1133 0.0000 9.8645 0.0000
# 2 22.1394 93.8587 20.2281 0.0000 14.7118 0.0000
# 3 31.1133 20.2281 97.3190 0.0000 21.5137 0.0000
# 4 0.0000 0.0000 0.0000 23.1802 0.0000 4.8035
# 5 9.8645 14.7118 21.5137 0.0000 30.0424 0.0000
# 6 0.0000 0.0000 0.0000 4.8035 0.0000 34.9792
#
#
#
# Elastic Compliance Matrix: (Units=1/GPa)
#
#
# Indices 1 2 3 4 5 6 
#
# 1 0.015638 -0.002645 -0.004278 0.000000 -0.000776 0.000000
# 2 -0.002645 0.012142 -0.000660 0.000000 -0.004605 0.000000
# 3 -0.004278 -0.000660 0.013542 0.000000 -0.007970 0.000000
# 4 0.000000 0.000000 0.000000 0.044404 0.000000 -0.006098
# 5 -0.000776 -0.004605 -0.007970 0.000000 0.041503 0.000000
# 6 0.000000 0.000000 0.000000 -0.006098 0.000000 0.029426
#
#
# Mechanical properties :
#
#
# Convention : Reuss Voigt Hill
#
# Bulk Modulus (GPa) = 38.23305 46.09267 42.16286
# Shear Modulus (GPa) = 27.69468 30.59981 29.14725
#
# Velocity S-wave (km/s) = 3.51302 3.69268 3.60397
# Velocity P-wave (km/s) = 5.78727 6.22262 6.00889
#
# Compressibility (1/GPa) = 0.02615538
#
# Stress axis : x y z
#
# Youngs Moduli (GPa) = 63.94878 82.35681 73.84296
#
# Poissons Ratio (x) = 0.21783 0.31591
# Poissons Ratio (y) = 0.16914 0.04876
# Poissons Ratio (z) = 0.27358 0.05438
#
# Static dielectric constant tensor:
#      x y z
#    x 3.709070 0.000000 0.015810 
#    y 0.000000 4.297900 0.000000 
#    z 0.015810 0.000000 4.293370 
# 
# 
# High freq. dielectric constant tensor:
#      x y z
#    x 1.861580 0.000000 0.009280 
#    y 0.000000 1.898780 0.000000 
#    z 0.009280 0.000000 1.886330 
# 
# From -- ./inp_files/59450.got.cif
#   From: 2010.06.25/outbox.cif.g09.slc.cpg/sg11_30_cif.got.tgz:59450.got - 2010.06.27 23:14:04.
