data_PCOD8076714
_publ_section_title
;
Structure prediction by ZEFSAII (Michael W. Deem and Ramdas Pophale) SiO2 
 PCOD8076714
Probable space group: P 21/M
;
_chemical_formula_sum "Si O2"
_cell_formula_units_Z 32
_cell_length_a 21.142212
_cell_length_b 8.914899
_cell_length_c 26.800222
_cell_angle_alpha 90.000000
_cell_angle_beta 160.595680
_cell_angle_gamma 90.000000
_cell_volume 1678.212792
_symmetry_space_group_name_H-M "P 21/M"
_symmetry_group_IT_number 11
_symmetry_cell_setting 'monoclinic'
loop_
_space_group_symop_operation_xyz
x,y,z
-x,1/2+y,-z
-x,-y,-z
x,1/2-y,z
loop_
_atom_site_type_symbol
_atom_site_label
_atom_site_fract_x
_atom_site_fract_y
_atom_site_fract_z
Si Si1 0.112341 0.915827 0.153437
Si Si2 0.889653 0.572579 0.190314
Si Si3 0.118219 0.424526 0.631235
Si Si4 0.536522 0.072916 0.758966
Si Si5 0.504212 0.428729 0.057114
Si Si6 0.286200 0.416017 0.199015
Si Si7 0.120789 0.071485 0.929351
Si Si8 0.856834 0.076094 0.531570
O O1 0.201267 0.750000 0.223947
O O2 0.267776 0.019600 0.241632
O O3 0.920620 0.909077 0.978866
O O4 0.054841 0.978283 0.165473
O O5 0.889120 0.750000 0.192494
O O6 0.053211 0.514657 0.349598
O O7 0.682825 0.515069 0.052975
O O8 0.931225 0.517011 0.164993
O O9 0.149890 0.250000 0.643177
O O10 0.318573 0.509061 0.780225
O O11 0.000000 0.500000 0.500000
O O12 0.015200 0.447344 0.607309
O O13 0.554460 0.250000 0.774297
O O14 0.576521 0.018471 0.732239
O O15 0.683189 0.003454 0.907512
O O16 0.326306 0.022042 0.618397
O O17 0.514722 0.250000 0.060500
O O18 0.500000 0.500000 0.000000
O O19 0.376000 0.250000 0.269331
O O20 0.151204 0.250000 0.955641
O O21 0.796238 0.250000 0.490265
#
# Coordination Sequence:
#
# PCOD8076714 Si02
#       8
#     4   4   4   4   4   4   4   4
#     4   8  14  25  45  75 107 135 169 218 269 317
#     4   9  19  37  60  81 104 142 185 221 268 330
#     4  11  24  41  60  85 114 147 185 232 283 334
#     4  11  22  34  51  80 113 142 179 228 273 316
#     4  11  21  38  61  86 112 146 189 232 277 331
#     4   9  16  28  48  73 103 143 180 215 265 322
#     4   9  18  34  56  81 108 141 180 221 271 328
#     4  10  21  40  59  76 106 148 185 219 269 333
#
# _framework density 19.067903999999999
#
# number of rings (size 3 to 8) (size 9 to 14) (size 15 to 20)
#    0.000    2.250    1.250    3.000    1.750    4.000 
#    0.000    1.250    0.000    0.750    0.000    0.000 
#    0.000    0.000    0.000    0.000    0.000    0.000 
#
# Total GULP energy -396762.347530 kJ/mol
# GULP energy per Si atom -12398.823360 kJ/mol
# Density = 1.902450 g / cm^3
# Si number density = 19.067904 Si / 1000 Ang^3
#
#
#
# Elastic Constant Matrix: (Units=GPa)
#
#
# Indices 1 2 3 4 5 6 
#
# 1 102.0914 24.8847 8.5621 0.0000 -21.3584 0.0000
# 2 24.8847 79.2472 16.7797 0.0000 -5.5203 0.0000
# 3 8.5621 16.7797 48.9346 0.0000 -17.3312 0.0000
# 4 0.0000 0.0000 0.0000 22.8546 0.0000 2.7410
# 5 -21.3584 -5.5203 -17.3312 0.0000 25.6191 0.0000
# 6 0.0000 0.0000 0.0000 2.7410 0.0000 29.7270
#
#
#
# Elastic Compliance Matrix: (Units=1/GPa)
#
#
# Indices 1 2 3 4 5 6 
#
# 1 0.013062 -0.003972 0.003459 0.000000 0.012374 0.000000
# 2 -0.003972 0.014816 -0.005823 0.000000 -0.004058 0.000000
# 3 0.003459 -0.005823 0.029463 0.000000 0.021561 0.000000
# 4 0.000000 0.000000 0.000000 0.044244 0.000000 -0.004080
# 5 0.012374 -0.004058 0.021561 0.000000 0.063061 0.000000
# 6 0.000000 0.000000 0.000000 -0.004080 0.000000 0.034016
#
#
# Mechanical properties :
#
#
# Convention : Reuss Voigt Hill
#
# Bulk Modulus (GPa) = 22.38662 36.74737 29.56699
# Shear Modulus (GPa) = 22.10208 27.64324 24.87266
#
# Velocity S-wave (km/s) = 3.40829 3.81166 3.61560
# Velocity P-wave (km/s) = 5.22058 6.21975 5.74194
#
# Compressibility (1/GPa) = 0.04466954
#
# Stress axis : x y z
#
# Youngs Moduli (GPa) = 76.55833 67.49352 33.94091
#
# Poissons Ratio (x) = 0.26809 -0.11740
# Poissons Ratio (y) = 0.30410 0.19763
# Poissons Ratio (z) = -0.26481 0.39299
#
# Static dielectric constant tensor:
#      x y z
#    x 3.880130 0.000000 0.051570 
#    y 0.000000 3.963870 0.000000 
#    z 0.051570 0.000000 3.372560 
# 
# 
# High freq. dielectric constant tensor:
#      x y z
#    x 1.753260 0.000000 0.005400 
#    y 0.000000 1.730480 0.000000 
#    z 0.005400 0.000000 1.713860 
# 
# From -- ./inp_files/72179.got.cif
#   From: 2010.06.25/outbox.cif.g09.slc.cpg/sg11_37_cif.got.tgz:72179.got - 2010.06.27 23:14:04.
