data_PCOD8076538
_publ_section_title
;
Structure prediction by ZEFSAII (Michael W. Deem and Ramdas Pophale) SiO2 
 PCOD8076538
Probable space group: P 21/M
;
_chemical_formula_sum "Si O2"
_cell_formula_units_Z 28
_cell_length_a 9.542277
_cell_length_b 8.468960
_cell_length_c 26.400030
_cell_angle_alpha 90.000000
_cell_angle_beta 140.579039
_cell_angle_gamma 90.000000
_cell_volume 1354.781481
_symmetry_space_group_name_H-M "P 21/M"
_symmetry_group_IT_number 11
_symmetry_cell_setting 'monoclinic'
loop_
_space_group_symop_operation_xyz
x,y,z
-x,1/2+y,-z
-x,-y,-z
x,1/2-y,z
loop_
_atom_site_type_symbol
_atom_site_label
_atom_site_fract_x
_atom_site_fract_y
_atom_site_fract_z
Si Si1 0.709422 0.431607 0.086062
Si Si2 0.811084 0.934151 0.805029
Si Si3 0.069393 0.565304 0.573832
Si Si4 0.644360 0.433554 0.495328
Si Si5 0.152252 0.936583 0.765950
Si Si6 0.587935 0.564399 0.256205
Si Si7 0.295326 0.567413 0.331522
O O1 0.661380 0.250000 0.079377
O O2 0.741113 0.501313 0.151693
O O3 0.927702 0.461592 0.112474
O O4 0.500000 0.500000 0.000000
O O5 0.762103 0.750000 0.781903
O O6 0.664554 0.001639 0.810233
O O7 0.748473 0.035686 0.738911
O O8 0.116670 0.750000 0.583277
O O9 0.873190 0.528905 0.558344
O O10 0.000000 0.500000 0.500000
O O11 0.287076 0.480425 0.656679
O O12 0.500000 0.500000 0.500000
O O13 0.697534 0.250000 0.517074
O O14 0.508851 0.464268 0.406018
O O15 0.112446 0.750000 0.757727
O O16 0.307539 0.978215 0.762650
O O17 0.914409 0.018778 0.692532
O O18 0.591751 0.750000 0.248306
O O19 0.349418 0.750000 0.356180
#
# Coordination Sequence:
#
# PCOD8076538 Si02
#       7
#     4   4   4   4   4   4   4
#     4   9  20  38  64  92 120 150 188 231 281 340
#     4  10  21  39  60  85 115 153 190 229 280 340
#     4  12  25  42  60  82 114 155 197 245 297 349
#     4  12  24  39  56  79 110 147 191 243 294 344
#     4  10  21  39  60  86 118 157 194 235 289 346
#     4  12  24  39  59  87 117 152 196 244 291 344
#     4  11  21  36  57  83 111 146 192 241 286 341
#
# _framework density 20.667539999999999
#
# number of rings (size 3 to 8) (size 9 to 14) (size 15 to 20)
#    0.000    1.143    0.000    8.571    0.000    3.429 
#    0.000    0.714    0.000    0.000    0.000    0.000 
#    0.000    0.000    0.000    0.000    0.000    0.000 
#
# Total GULP energy -347273.971955 kJ/mol
# GULP energy per Si atom -12402.641856 kJ/mol
# Density = 2.062050 g / cm^3
# Si number density = 20.667540 Si / 1000 Ang^3
#
#
#
# Elastic Constant Matrix: (Units=GPa)
#
#
# Indices 1 2 3 4 5 6 
#
# 1 89.5213 9.5552 5.7860 0.0000 15.1405 0.0000
# 2 9.5552 88.4658 16.8963 0.0000 4.4345 0.0000
# 3 5.7860 16.8963 76.7456 0.0000 14.3116 0.0000
# 4 0.0000 0.0000 0.0000 34.6085 0.0000 3.0078
# 5 15.1405 4.4345 14.3116 0.0000 27.6131 0.0000
# 6 0.0000 0.0000 0.0000 3.0078 0.0000 37.8865
#
#
#
# Elastic Compliance Matrix: (Units=1/GPa)
#
#
# Indices 1 2 3 4 5 6 
#
# 1 0.012425 -0.001109 0.000603 0.000000 -0.006947 0.000000
# 2 -0.001109 0.011908 -0.002540 0.000000 0.000012 0.000000
# 3 0.000603 -0.002540 0.014977 0.000000 -0.007685 0.000000
# 4 0.000000 0.000000 0.000000 0.029095 0.000000 -0.002310
# 5 -0.006947 0.000012 -0.007685 0.000000 0.044005 0.000000
# 6 0.000000 0.000000 0.000000 -0.002310 0.000000 0.026578
#
#
# Mechanical properties :
#
#
# Convention : Reuss Voigt Hill
#
# Bulk Modulus (GPa) = 30.10489 35.46753 32.78621
# Shear Modulus (GPa) = 32.01977 34.85464 33.43721
#
# Velocity S-wave (km/s) = 3.94036 4.11109 4.02663
# Velocity P-wave (km/s) = 5.94136 6.30341 6.12506
#
# Compressibility (1/GPa) = 0.03321720
#
# Stress axis : x y z
#
# Youngs Moduli (GPa) = 80.48381 83.97606 66.76901
#
# Poissons Ratio (x) = 0.09312 -0.04026
# Poissons Ratio (y) = 0.08925 0.16962
# Poissons Ratio (z) = -0.04852 0.21333
#
# Static dielectric constant tensor:
#      x y z
#    x 3.857500 0.000000 0.657450 
#    y 0.000000 3.894290 0.000000 
#    z 0.657450 0.000000 1.820470 
# 
# 
# High freq. dielectric constant tensor:
#      x y z
#    x 1.819830 0.000000 0.014330 
#    y 0.000000 1.817400 0.000000 
#    z 0.014330 0.000000 1.790960 
# 
# From -- ./inp_files/70855.got.cif
#   From: 2010.06.25/outbox.cif.g09.slc.cpg/sg11_36_cif.got.tgz:70855.got - 2010.06.27 23:14:04.
