data_PCOD8076020
_publ_section_title
;
Structure prediction by ZEFSAII (Michael W. Deem and Ramdas Pophale) SiO2 
 PCOD8076020
Probable space group: P 21/M
;
_chemical_formula_sum "Si O2"
_cell_formula_units_Z 28
_cell_length_a 9.581189
_cell_length_b 8.589279
_cell_length_c 25.962329
_cell_angle_alpha 90.000000
_cell_angle_beta 41.483596
_cell_angle_gamma 90.000000
_cell_volume 1415.284520
_symmetry_space_group_name_H-M "P 21/M"
_symmetry_group_IT_number 11
_symmetry_cell_setting 'monoclinic'
loop_
_space_group_symop_operation_xyz
x,y,z
-x,1/2+y,-z
-x,-y,-z
x,1/2-y,z
loop_
_atom_site_type_symbol
_atom_site_label
_atom_site_fract_x
_atom_site_fract_y
_atom_site_fract_z
Si Si1 0.425921 0.071581 0.601161
Si Si2 0.751408 0.428903 0.686961
Si Si3 0.921659 0.430134 0.111381
Si Si4 0.422789 0.067541 0.864130
Si Si5 0.191986 0.570978 0.574662
Si Si6 0.623023 0.067213 0.014540
Si Si7 0.417627 0.927917 0.710823
O O1 0.406075 0.250000 0.623805
O O2 0.658344 0.032354 0.515253
O O3 0.252229 0.037515 0.605860
O O4 0.374597 0.961991 0.663311
O O5 0.821647 0.250000 0.667381
O O6 0.626551 0.473702 0.773478
O O7 0.603476 0.460381 0.678905
O O8 0.953661 0.537318 0.624913
O O9 0.984373 0.250000 0.087417
O O10 0.783190 0.479925 0.100436
O O11 0.794934 0.461828 0.198895
O O12 0.129997 0.532415 0.057702
O O13 0.374720 0.250000 0.876170
O O14 0.472644 0.010904 0.907766
O O15 0.220791 0.750000 0.582874
O O16 0.584535 0.250000 0.027836
O O17 0.500000 0.000000 0.000000
O O18 0.487620 0.750000 0.699401
#
# Coordination Sequence:
#
# PCOD8076020 Si02
#       7
#     4   4   4   4   4   4   4
#     4  10  21  37  57  81 111 148 188 230 278 332
#     4  10  21  37  59  85 113 146 185 230 277 327
#     4  10  21  39  61  85 113 147 186 227 275 330
#     4  10  21  39  61  85 113 147 186 227 275 330
#     4  10  21  37  57  81 111 148 188 230 278 332
#     4  12  25  40  59  84 114 148 186 230 277 326
#     4  10  21  37  59  85 113 146 185 230 277 327
#
# _framework density 19.784008
#
# number of rings (size 3 to 8) (size 9 to 14) (size 15 to 20)
#    0.000    1.714    0.000    4.286    0.000    6.857 
#    0.000    0.000    0.000    0.000    0.000    0.000 
#    0.000    0.000    0.000    0.000    0.000    0.000 
#
# Total GULP energy -347376.319263 kJ/mol
# GULP energy per Si atom -12406.297117 kJ/mol
# Density = 1.973898 g / cm^3
# Si number density = 19.784008 Si / 1000 Ang^3
#
#
#
# Elastic Constant Matrix: (Units=GPa)
#
#
# Indices 1 2 3 4 5 6 
#
# 1 54.1151 12.6503 11.4714 0.0000 18.7843 0.0000
# 2 12.6503 61.0581 22.5930 0.0000 6.0326 0.0000
# 3 11.4714 22.5930 40.7090 0.0000 10.0612 0.0000
# 4 0.0000 0.0000 0.0000 30.5598 0.0000 -0.4806
# 5 18.7843 6.0326 10.0612 0.0000 34.6584 0.0000
# 6 0.0000 0.0000 0.0000 -0.4806 0.0000 38.8035
#
#
#
# Elastic Compliance Matrix: (Units=1/GPa)
#
#
# Indices 1 2 3 4 5 6 
#
# 1 0.023686 -0.002959 -0.002140 0.000000 -0.011701 0.000000
# 2 -0.002959 0.020983 -0.011102 0.000000 0.001174 0.000000
# 3 -0.002140 -0.011102 0.032927 0.000000 -0.006466 0.000000
# 4 0.000000 0.000000 0.000000 0.032729 0.000000 0.000405
# 5 -0.011701 0.001174 -0.006466 0.000000 0.036868 0.000000
# 6 0.000000 0.000000 0.000000 0.000405 0.000000 0.025776
#
#
# Mechanical properties :
#
#
# Convention : Reuss Voigt Hill
#
# Bulk Modulus (GPa) = 22.12691 27.70128 24.91409
# Shear Modulus (GPa) = 22.68237 28.08218 25.38227
#
# Velocity S-wave (km/s) = 3.38967 3.77163 3.58574
# Velocity P-wave (km/s) = 5.15057 5.74449 5.45562
#
# Compressibility (1/GPa) = 0.04519384
#
# Stress axis : x y z
#
# Youngs Moduli (GPa) = 42.21844 47.65810 30.37020
#
# Poissons Ratio (x) = 0.14104 0.06500
# Poissons Ratio (y) = 0.12494 0.33715
# Poissons Ratio (z) = 0.09036 0.52908
#
# Static dielectric constant tensor:
#      x y z
#    x 3.438650 0.000000 0.087860 
#    y 0.000000 3.626240 0.000000 
#    z 0.087860 0.000000 3.683030 
# 
# 
# High freq. dielectric constant tensor:
#      x y z
#    x 1.764780 0.000000 0.004870 
#    y 0.000000 1.785250 0.000000 
#    z 0.004870 0.000000 1.775860 
# 
# From -- ./inp_files/70858.got.cif
#   From: 2010.06.25/outbox.cif.g09.slc.cpg/sg11_36_cif.got.tgz:70858.got - 2010.06.27 23:14:04.
