data_PCOD8076366
_publ_section_title
;
Structure prediction by ZEFSAII (Michael W. Deem and Ramdas Pophale) SiO2 
 PCOD8076366
Probable space group: P 21/M
;
_chemical_formula_sum "Si O2"
_cell_formula_units_Z 32
_cell_length_a 11.067960
_cell_length_b 14.687945
_cell_length_c 9.491650
_cell_angle_alpha 90.000000
_cell_angle_beta 75.022106
_cell_angle_gamma 90.000000
_cell_volume 1490.592649
_symmetry_space_group_name_H-M "P 21/M"
_symmetry_group_IT_number 11
_symmetry_cell_setting 'monoclinic'
loop_
_space_group_symop_operation_xyz
x,y,z
-x,1/2+y,-z
-x,-y,-z
x,1/2-y,z
loop_
_atom_site_type_symbol
_atom_site_label
_atom_site_fract_x
_atom_site_fract_y
_atom_site_fract_z
Si Si1 0.584905 0.348962 0.838150
Si Si2 0.255718 0.354702 0.738283
Si Si3 0.967067 0.894773 0.998851
Si Si4 0.154351 0.409335 0.233961
Si Si5 0.486077 0.485864 0.669419
Si Si6 0.072093 0.353630 0.547581
Si Si7 0.146619 0.614203 0.176060
Si Si8 0.438582 0.354334 0.158085
O O1 0.536907 0.250000 0.799505
O O2 0.592365 0.421591 0.707795
O O3 0.724052 0.333030 0.854002
O O4 0.492344 0.384328 0.989573
O O5 0.305438 0.250000 0.717701
O O6 0.163699 0.366560 0.894968
O O7 0.361038 0.429247 0.735754
O O8 0.185796 0.380903 0.615379
O O9 0.078179 0.847214 0.055057
O O10 0.946827 0.862150 0.843036
O O11 0.000000 0.000000 0.000000
O O12 0.085511 0.415561 0.404997
O O13 0.178457 0.507816 0.160235
O O14 0.288107 0.360230 0.205644
O O15 0.500000 0.500000 0.500000
O O16 0.494342 0.583849 0.742780
O O17 0.086479 0.250000 0.493566
O O18 0.939313 0.367064 0.662020
O O19 0.476226 0.250000 0.179357
#
# Coordination Sequence:
#
# PCOD8076366 Si02
#       8
#     4   4   4   4   4   4   4   4
#     4  11  24  43  66  93 130 173 214 260 324 397
#     4  10  22  40  64  92 128 172 220 261 312 387
#     4   9  21  37  62  95 123 160 206 266 314 371
#     4  11  20  37  63  93 121 158 212 269 314 369
#     4  12  25  41  66  96 130 169 217 273 329 383
#     4  10  21  38  60  89 127 168 209 257 312 379
#     4  10  21  39  62  90 126 169 206 251 315 390
#     4  11  25  43  67  97 129 169 220 275 325 384
#
# _framework density 21.467970000000001
#
# number of rings (size 3 to 8) (size 9 to 14) (size 15 to 20)
#    0.000    1.500    1.250    3.375    3.500    4.500 
#    0.000    0.000    0.000    1.500    0.000    0.000 
#    0.000    0.000    0.000    0.000    0.000    0.000 
#
# Total GULP energy -396569.928667 kJ/mol
# GULP energy per Si atom -12392.810271 kJ/mol
# Density = 2.141911 g / cm^3
# Si number density = 21.467970 Si / 1000 Ang^3
#
#
#
# Elastic Constant Matrix: (Units=GPa)
#
#
# Indices 1 2 3 4 5 6 
#
# 1 107.3904 12.9656 47.2549 0.0000 4.2358 0.0000
# 2 12.9656 98.9873 39.5021 0.0000 7.2661 0.0000
# 3 47.2549 39.5021 144.6653 0.0000 20.9364 0.0000
# 4 0.0000 0.0000 0.0000 19.9654 0.0000 -4.9265
# 5 4.2358 7.2661 20.9364 0.0000 22.9239 0.0000
# 6 0.0000 0.0000 0.0000 -4.9265 0.0000 21.2051
#
#
#
# Elastic Compliance Matrix: (Units=1/GPa)
#
#
# Indices 1 2 3 4 5 6 
#
# 1 0.010915 -0.000033 -0.003764 0.000000 0.001431 0.000000
# 2 -0.000033 0.011353 -0.002961 0.000000 -0.000888 0.000000
# 3 -0.003764 -0.002961 0.010041 0.000000 -0.007537 0.000000
# 4 0.000000 0.000000 0.000000 0.053133 0.000000 0.012344
# 5 0.001431 -0.000888 -0.007537 0.000000 0.050523 0.000000
# 6 0.000000 0.000000 0.000000 0.012344 0.000000 0.050026
#
#
# Mechanical properties :
#
#
# Convention : Reuss Voigt Hill
#
# Bulk Modulus (GPa) = 53.20470 61.16534 57.18502
# Shear Modulus (GPa) = 24.29879 29.57358 26.93619
#
# Velocity S-wave (km/s) = 3.36797 3.71559 3.54604
# Velocity P-wave (km/s) = 6.32150 6.85279 6.59250
#
# Compressibility (1/GPa) = 0.01879533
#
# Stress axis : x y z
#
# Youngs Moduli (GPa) = 91.61327 88.07953 99.59069
#
# Poissons Ratio (x) = 0.00289 0.37482
# Poissons Ratio (y) = 0.00301 0.29487
# Poissons Ratio (z) = 0.34480 0.26079
#
# Static dielectric constant tensor:
#      x y z
#    x 3.875270 0.000000 0.289370 
#    y 0.000000 3.939250 0.000000 
#    z 0.289370 0.000000 4.006740 
# 
# 
# High freq. dielectric constant tensor:
#      x y z
#    x 1.841870 0.000000 0.014740 
#    y 0.000000 1.848350 0.000000 
#    z 0.014740 0.000000 1.839430 
# 
# From -- ./inp_files/18034.got.cif
#   From: 2010.06.25/outbox.cif.g09.slc.cpg/sg11_10_cif.got.tgz:18034.got - 2010.06.27 23:14:04.
