data_PCOD8076737
_publ_section_title
;
Structure prediction by ZEFSAII (Michael W. Deem and Ramdas Pophale) SiO2 
 PCOD8076737
Probable space group: P 21/M
;
_chemical_formula_sum "Si O2"
_cell_formula_units_Z 32
_cell_length_a 12.499988
_cell_length_b 8.897415
_cell_length_c 28.764370
_cell_angle_alpha 90.000000
_cell_angle_beta 150.283702
_cell_angle_gamma 90.000000
_cell_volume 1585.814019
_symmetry_space_group_name_H-M "P 21/M"
_symmetry_group_IT_number 11
_symmetry_cell_setting 'monoclinic'
loop_
_space_group_symop_operation_xyz
x,y,z
-x,1/2+y,-z
-x,-y,-z
x,1/2-y,z
loop_
_atom_site_type_symbol
_atom_site_label
_atom_site_fract_x
_atom_site_fract_y
_atom_site_fract_z
Si Si1 0.152401 0.075169 0.518687
Si Si2 0.818570 0.076800 0.217012
Si Si3 0.506753 0.081626 0.775420
Si Si4 0.342982 0.427565 0.009628
Si Si5 0.064761 0.070450 0.644554
Si Si6 0.354717 0.576419 0.267830
Si Si7 0.848826 0.080700 0.978879
Si Si8 0.965289 0.422580 0.172274
O O1 0.092889 0.250000 0.494111
O O2 0.402681 0.049621 0.623790
O O3 0.000000 0.000000 0.500000
O O4 0.127792 0.999970 0.458272
O O5 0.797759 0.250000 0.224512
O O6 0.973567 0.058013 0.231004
O O7 0.931101 0.984750 0.300737
O O8 0.580445 0.014012 0.113347
O O9 0.460776 0.250000 0.739880
O O10 0.275877 0.005861 0.697131
O O11 0.649158 0.010712 0.787134
O O12 0.616580 0.082387 0.866946
O O13 0.340594 0.250000 0.004873
O O14 0.254225 0.495749 0.928038
O O15 0.165766 0.483069 0.980184
O O16 0.051696 0.250000 0.640141
O O17 0.283068 0.750000 0.243829
O O18 0.187157 0.485132 0.235502
O O19 0.927925 0.250000 0.019769
O O20 0.000000 0.000000 0.000000
O O21 0.942218 0.250000 0.149197
#
# Coordination Sequence:
#
# PCOD8076737 Si02
#       8
#     4   4   4   4   4   4   4   4
#     4  11  22  38  63  94 126 158 196 245 300 360
#     4  10  23  42  62  88 122 158 202 255 301 350
#     4   9  18  34  55  81 116 152 188 238 293 347
#     4  11  22  38  60  86 118 159 205 249 299 358
#     4  11  21  38  63  91 120 154 198 245 298 357
#     4  10  21  40  62  87 123 160 197 244 301 360
#     4  11  21  34  53  82 120 158 197 244 297 353
#     4  11  24  41  61  88 121 157 203 255 302 352
#
# _framework density 20.178909999999998
#
# number of rings (size 3 to 8) (size 9 to 14) (size 15 to 20)
#    0.000    1.500    2.500    3.000    0.000    3.500 
#    0.000    1.250    0.000    0.000    0.000    0.000 
#    0.000    0.000    0.000    0.000    0.000    0.000 
#
# Total GULP energy -396706.673457 kJ/mol
# GULP energy per Si atom -12397.083546 kJ/mol
# Density = 2.013298 g / cm^3
# Si number density = 20.178910 Si / 1000 Ang^3
#
#
#
# Elastic Constant Matrix: (Units=GPa)
#
#
# Indices 1 2 3 4 5 6 
#
# 1 102.0397 40.4805 24.8477 0.0000 -10.5995 0.0000
# 2 40.4805 100.1534 34.1095 0.0000 -10.6809 0.0000
# 3 24.8477 34.1095 59.8796 0.0000 -15.4241 0.0000
# 4 0.0000 0.0000 0.0000 30.1871 0.0000 -4.1065
# 5 -10.5995 -10.6809 -15.4241 0.0000 33.3974 0.0000
# 6 0.0000 0.0000 0.0000 -4.1065 0.0000 33.4699
#
#
#
# Elastic Compliance Matrix: (Units=1/GPa)
#
#
# Indices 1 2 3 4 5 6 
#
# 1 0.012091 -0.003909 -0.002411 0.000000 0.001474 0.000000
# 2 -0.003909 0.013670 -0.006082 0.000000 0.000322 0.000000
# 3 -0.002411 -0.006082 0.023231 0.000000 0.008018 0.000000
# 4 0.000000 0.000000 0.000000 0.033689 0.000000 0.004133
# 5 0.001474 0.000322 0.008018 0.000000 0.034216 0.000000
# 6 0.000000 0.000000 0.000000 0.004133 0.000000 0.030385
#
#
# Mechanical properties :
#
#
# Convention : Reuss Voigt Hill
#
# Bulk Modulus (GPa) = 41.34244 51.21646 46.27945
# Shear Modulus (GPa) = 27.75487 30.25322 29.00405
#
# Velocity S-wave (km/s) = 3.71272 3.87622 3.79535
# Velocity P-wave (km/s) = 6.23790 6.74312 6.49543
#
# Compressibility (1/GPa) = 0.02418822
#
# Stress axis : x y z
#
# Youngs Moduli (GPa) = 82.70656 73.15143 43.04649
#
# Poissons Ratio (x) = 0.28592 0.10379
# Poissons Ratio (y) = 0.32327 0.26181
# Poissons Ratio (z) = 0.19942 0.44491
#
# Static dielectric constant tensor:
#      x y z
#    x 3.743910 0.000000 -0.240850 
#    y 0.000000 3.621110 0.000000 
#    z -0.240850 0.000000 3.824550 
# 
# 
# High freq. dielectric constant tensor:
#      x y z
#    x 1.792080 0.000000 -0.010530 
#    y 0.000000 1.780680 0.000000 
#    z -0.010530 0.000000 1.785290 
# 
# From -- ./inp_files/73110.got.cif
#   From: 2010.06.25/outbox.cif.g09.slc.cpg/sg11_37_cif.got.tgz:73110.got - 2010.06.27 23:14:04.
