data_PCOD8076818
_publ_section_title
;
Structure prediction by ZEFSAII (Michael W. Deem and Ramdas Pophale) SiO2 
 PCOD8076818
Probable space group: P 21/M
;
_chemical_formula_sum "Si O2"
_cell_formula_units_Z 24
_cell_length_a 14.941961
_cell_length_b 8.572934
_cell_length_c 14.747238
_cell_angle_alpha 90.000000
_cell_angle_beta 140.214490
_cell_angle_gamma 90.000000
_cell_volume 1208.844162
_symmetry_space_group_name_H-M "P 21/M"
_symmetry_group_IT_number 11
_symmetry_cell_setting 'monoclinic'
loop_
_space_group_symop_operation_xyz
x,y,z
-x,1/2+y,-z
-x,-y,-z
x,1/2-y,z
loop_
_atom_site_type_symbol
_atom_site_label
_atom_site_fract_x
_atom_site_fract_y
_atom_site_fract_z
Si Si1 0.648344 0.569066 0.361492
Si Si2 0.359508 0.067391 0.849639
Si Si3 0.672643 0.430228 0.848678
Si Si4 0.168709 0.567830 0.847633
Si Si5 0.139622 0.067200 0.152284
Si Si6 0.875153 0.431326 0.665044
O O1 0.692047 0.750000 0.404395
O O2 0.662417 0.507623 0.269732
O O3 0.491644 0.543283 0.273996
O O4 0.747060 0.461931 0.498618
O O5 0.379364 0.250000 0.862915
O O6 0.224933 0.020742 0.803172
O O7 0.500000 0.000000 0.000000
O O8 0.711474 0.250000 0.861404
O O9 0.729628 0.534493 0.811076
O O10 0.744664 0.488508 0.997379
O O11 0.190251 0.750000 0.848240
O O12 0.006959 0.529825 0.733865
O O13 0.121399 0.250000 0.154662
O O14 0.170566 0.983950 0.270950
O O15 0.000000 0.000000 0.000000
O O16 0.914460 0.250000 0.695979
#
# Coordination Sequence:
#
# PCOD8076818 Si02
#       6
#     4   4   4   4   4   4
#     4  10  23  44  65  91 129 169 207 260 318 371
#     4  11  22  39  65  96 129 167 214 262 314 376
#     4  10  21  40  66  94 125 165 212 259 312 373
#     4  11  22  40  66  95 127 167 210 262 316 373
#     4  12  24  40  65  95 127 166 210 260 313 374
#     4  12  26  43  64  94 128 167 211 262 317 377
#
# _framework density 19.853674999999999
#
# number of rings (size 3 to 8) (size 9 to 14) (size 15 to 20)
#    0.000    1.000    3.333    4.000    0.000    4.000 
#    0.000    0.000    0.000    0.000    0.000    0.000 
#    0.000    0.000    0.000    0.000    0.000    0.000 
#
# Total GULP energy -297777.321451 kJ/mol
# GULP energy per Si atom -12407.388394 kJ/mol
# Density = 1.980849 g / cm^3
# Si number density = 19.853675 Si / 1000 Ang^3
#
#
#
# Elastic Constant Matrix: (Units=GPa)
#
#
# Indices 1 2 3 4 5 6 
#
# 1 108.1512 11.9093 40.3612 0.0000 -16.0386 0.0000
# 2 11.9093 53.9215 29.7422 0.0000 -13.0469 0.0000
# 3 40.3612 29.7422 122.8847 0.0000 -14.4356 0.0000
# 4 0.0000 0.0000 0.0000 32.9022 0.0000 0.5270
# 5 -16.0386 -13.0469 -14.4356 0.0000 35.4618 0.0000
# 6 0.0000 0.0000 0.0000 0.5270 0.0000 32.8354
#
#
#
# Elastic Compliance Matrix: (Units=1/GPa)
#
#
# Indices 1 2 3 4 5 6 
#
# 1 0.010978 0.000263 -0.003229 0.000000 0.003748 0.000000
# 2 0.000263 0.022723 -0.004821 0.000000 0.006517 0.000000
# 3 -0.003229 -0.004821 0.010487 0.000000 0.001035 0.000000
# 4 0.000000 0.000000 0.000000 0.030401 0.000000 -0.000488
# 5 0.003748 0.006517 0.001035 0.000000 0.032713 0.000000
# 6 0.000000 0.000000 0.000000 -0.000488 0.000000 0.030463
#
#
# Mechanical properties :
#
#
# Convention : Reuss Voigt Hill
#
# Bulk Modulus (GPa) = 34.94707 49.88698 42.41703
# Shear Modulus (GPa) = 30.69811 33.76952 32.23382
#
# Velocity S-wave (km/s) = 3.93646 4.12870 4.03373
# Velocity P-wave (km/s) = 6.18882 6.92171 6.56550
#
# Compressibility (1/GPa) = 0.02861470
#
# Stress axis : x y z
#
# Youngs Moduli (GPa) = 91.08951 44.00795 95.35905
#
# Poissons Ratio (x) = -0.01159 0.30794
# Poissons Ratio (y) = -0.02398 0.45970
# Poissons Ratio (z) = 0.29415 0.21215
#
# Static dielectric constant tensor:
#      x y z
#    x 4.252810 0.000000 -0.081220 
#    y 0.000000 3.617460 0.000000 
#    z -0.081220 0.000000 3.491720 
# 
# 
# High freq. dielectric constant tensor:
#      x y z
#    x 1.791160 0.000000 -0.002310 
#    y 0.000000 1.777360 0.000000 
#    z -0.002310 0.000000 1.773350 
# 
# From -- ./inp_files/51834.got.cif
#   From: 2010.06.25/outbox.cif.g09.slc.cpg/sg11_26_cif.got.tgz:51834.got - 2010.06.27 23:14:04.
