data_PCOD8076198
_publ_section_title
;
Structure prediction by ZEFSAII (Michael W. Deem and Ramdas Pophale) SiO2 
 PCOD8076198
Probable space group: P 21/M
;
_chemical_formula_sum "Si O2"
_cell_formula_units_Z 32
_cell_length_a 15.084075
_cell_length_b 9.067144
_cell_length_c 11.658967
_cell_angle_alpha 90.000000
_cell_angle_beta 86.964566
_cell_angle_gamma 90.000000
_cell_volume 1592.353608
_symmetry_space_group_name_H-M "P 21/M"
_symmetry_group_IT_number 11
_symmetry_cell_setting 'monoclinic'
loop_
_space_group_symop_operation_xyz
x,y,z
-x,1/2+y,-z
-x,-y,-z
x,1/2-y,z
loop_
_atom_site_type_symbol
_atom_site_label
_atom_site_fract_x
_atom_site_fract_y
_atom_site_fract_z
Si Si1 0.798215 0.917158 0.917555
Si Si2 0.770989 0.424963 0.494752
Si Si3 0.374812 0.918075 0.072349
Si Si4 0.421392 0.923211 0.575326
Si Si5 0.080026 0.575566 0.929970
Si Si6 0.125747 0.082476 0.330702
Si Si7 0.070009 0.925212 0.672862
Si Si8 0.465671 0.918133 0.831702
O O1 0.791104 0.750000 0.963150
O O2 0.866164 0.925742 0.807035
O O3 0.703116 0.974300 0.883232
O O4 0.829130 0.024404 0.016991
O O5 0.771164 0.250000 0.494588
O O6 0.674023 0.482756 0.463196
O O7 0.796750 0.483800 0.618652
O O8 0.848742 0.489196 0.407172
O O9 0.352282 0.750000 0.106160
O O10 0.458026 0.966649 0.142994
O O11 0.390562 0.934039 0.934532
O O12 0.429800 0.750000 0.552843
O O13 0.426264 0.960239 0.710253
O O14 0.500000 0.000000 0.500000
O O15 0.069230 0.750000 0.938507
O O16 0.083822 0.517137 0.800356
O O17 0.000000 0.500000 0.000000
O O18 0.138429 0.250000 0.372483
O O19 0.026603 0.022488 0.367890
O O20 0.071919 0.750000 0.671984
O O21 0.502273 0.750000 0.828769
#
# Coordination Sequence:
#
# PCOD8076198 Si02
#       8
#     4   4   4   4   4   4   4   4
#     4  11  23  38  57  86 123 158 194 238 291 351
#     4  10  22  39  62  88 112 149 201 248 287 342
#     4  10  21  37  62  91 116 150 195 241 291 353
#     4  10  23  41  61  85 116 154 196 241 296 352
#     4  11  21  37  60  86 119 157 195 236 290 349
#     4  10  21  39  59  83 119 159 195 237 294 348
#     4   9  19  38  62  85 117 156 192 238 294 347
#     4   9  20  40  62  85 117 154 191 239 301 356
#
# _framework density 20.096039000000001
#
# number of rings (size 3 to 8) (size 9 to 14) (size 15 to 20)
#    0.000    2.000    1.250    1.500    3.500    2.500 
#    0.000    1.250    0.000    0.000    0.000    0.000 
#    0.000    0.000    0.000    0.000    0.000    0.000 
#
# Total GULP energy -396805.275609 kJ/mol
# GULP energy per Si atom -12400.164863 kJ/mol
# Density = 2.005030 g / cm^3
# Si number density = 20.096039 Si / 1000 Ang^3
#
#
#
# Elastic Constant Matrix: (Units=GPa)
#
#
# Indices 1 2 3 4 5 6 
#
# 1 130.2262 34.3586 39.5979 0.0000 8.2018 0.0000
# 2 34.3586 61.5955 28.6378 0.0000 2.0878 0.0000
# 3 39.5979 28.6378 88.0551 0.0000 18.3154 0.0000
# 4 0.0000 0.0000 0.0000 28.7315 0.0000 2.0910
# 5 8.2018 2.0878 18.3154 0.0000 31.2645 0.0000
# 6 0.0000 0.0000 0.0000 2.0910 0.0000 34.9596
#
#
#
# Elastic Compliance Matrix: (Units=1/GPa)
#
#
# Indices 1 2 3 4 5 6 
#
# 1 0.009661 -0.004010 -0.002925 0.000000 -0.000553 0.000000
# 2 -0.004010 0.020993 -0.005638 0.000000 0.002953 0.000000
# 3 -0.002925 -0.005638 0.016248 0.000000 -0.008374 0.000000
# 4 0.000000 0.000000 0.000000 0.034957 0.000000 -0.002091
# 5 -0.000553 0.002953 -0.008374 0.000000 0.036839 0.000000
# 6 0.000000 0.000000 0.000000 -0.002091 0.000000 0.028729
#
#
# Mechanical properties :
#
#
# Convention : Reuss Voigt Hill
#
# Bulk Modulus (GPa) = 45.96842 53.89616 49.93229
# Shear Modulus (GPa) = 27.80441 30.80996 29.30719
#
# Velocity S-wave (km/s) = 3.72368 3.91978 3.82299
# Velocity P-wave (km/s) = 6.43520 6.88213 6.66241
#
# Compressibility (1/GPa) = 0.02175407
#
# Stress axis : x y z
#
# Youngs Moduli (GPa) = 103.50489 47.63410 61.54735
#
# Poissons Ratio (x) = 0.19103 0.18005
# Poissons Ratio (y) = 0.41509 0.34703
# Poissons Ratio (z) = 0.30279 0.26858
#
# Static dielectric constant tensor:
#      x y z
#    x 3.774940 0.000000 0.024590 
#    y 0.000000 3.491410 0.000000 
#    z 0.024590 0.000000 3.738010 
# 
# 
# High freq. dielectric constant tensor:
#      x y z
#    x 1.791730 0.000000 0.003110 
#    y 0.000000 1.768800 0.000000 
#    z 0.003110 0.000000 1.786980 
# 
# From -- ./inp_files/38239.got.cif
#   From: 2010.06.25/outbox.cif.g09.slc.cpg/sg11_20_cif.got.tgz:38239.got - 2010.06.27 23:14:04.
