data_PCOD8076551
_publ_section_title
;
Structure prediction by ZEFSAII (Michael W. Deem and Ramdas Pophale) SiO2 
 PCOD8076551
Probable space group: P 21/M
;
_chemical_formula_sum "Si O2"
_cell_formula_units_Z 28
_cell_length_a 11.760065
_cell_length_b 14.351100
_cell_length_c 8.624951
_cell_angle_alpha 90.000000
_cell_angle_beta 65.597102
_cell_angle_gamma 90.000000
_cell_volume 1325.589724
_symmetry_space_group_name_H-M "P 21/M"
_symmetry_group_IT_number 11
_symmetry_cell_setting 'monoclinic'
loop_
_space_group_symop_operation_xyz
x,y,z
-x,1/2+y,-z
-x,-y,-z
x,1/2-y,z
loop_
_atom_site_type_symbol
_atom_site_label
_atom_site_fract_x
_atom_site_fract_y
_atom_site_fract_z
Si Si1 0.396755 0.985939 0.686537
Si Si2 0.782766 0.143267 0.723641
Si Si3 0.333984 0.142722 0.951528
Si Si4 0.040487 0.355869 0.752611
Si Si5 0.548576 0.141464 0.061640
Si Si6 0.165682 0.964960 0.613061
Si Si7 0.949854 0.857005 0.895005
O O1 0.448359 0.912087 0.779310
O O2 0.271111 0.945374 0.681262
O O3 0.500000 0.000000 0.500000
O O4 0.369515 0.085044 0.779733
O O5 0.766992 0.250000 0.675382
O O6 0.789180 0.075122 0.574781
O O7 0.903451 0.132545 0.761709
O O8 0.664637 0.110653 0.890166
O O9 0.354952 0.250000 0.893154
O O10 0.420927 0.114009 0.046472
O O11 0.191411 0.123845 0.080735
O O12 0.090183 0.250000 0.706015
O O13 0.137834 0.424272 0.611056
O O14 0.033589 0.385833 0.935765
O O15 0.555297 0.250000 0.096571
O O16 0.036919 0.917566 0.736394
O O17 0.987720 0.750000 0.849674
#
# Coordination Sequence:
#
# PCOD8076551 Si02
#       7
#     4   4   4   4   4   4   4
#     4  12  26  42  66  98 128 165 220 269 318 386
#     4  10  22  40  63  93 126 165 213 267 319 376
#     4  10  22  43  66  91 131 173 211 263 324 386
#     4  10  21  39  60  88 127 169 213 258 316 386
#     4  10  23  45  70  93 126 171 212 260 324 381
#     4  12  23  38  64  94 131 168 212 268 325 376
#     4  10  21  39  65  96 127 167 213 264 327 391
#
# _framework density 21.122675000000001
#
# number of rings (size 3 to 8) (size 9 to 14) (size 15 to 20)
#    0.000    1.429    1.429    3.429    2.000    2.857 
#    2.571    0.000    0.000    0.000    0.000    0.000 
#    0.000    0.000    0.000    0.000    0.000    0.000 
#
# Total GULP energy -347377.745881 kJ/mol
# GULP energy per Si atom -12406.348067 kJ/mol
# Density = 2.107460 g / cm^3
# Si number density = 21.122675 Si / 1000 Ang^3
#
#
#
# Elastic Constant Matrix: (Units=GPa)
#
#
# Indices 1 2 3 4 5 6 
#
# 1 152.7872 42.2608 61.9957 0.0000 10.2003 0.0000
# 2 42.2608 80.6933 64.9599 0.0000 2.2496 0.0000
# 3 61.9957 64.9599 135.8906 0.0000 1.7500 0.0000
# 4 0.0000 0.0000 0.0000 32.8288 0.0000 2.5099
# 5 10.2003 2.2496 1.7500 0.0000 27.3666 0.0000
# 6 0.0000 0.0000 0.0000 2.5099 0.0000 29.8240
#
#
#
# Elastic Compliance Matrix: (Units=1/GPa)
#
#
# Indices 1 2 3 4 5 6 
#
# 1 0.008453 -0.002070 -0.002831 0.000000 -0.002800 0.000000
# 2 -0.002070 0.020682 -0.008937 0.000000 -0.000357 0.000000
# 3 -0.002831 -0.008937 0.012910 0.000000 0.000964 0.000000
# 4 0.000000 0.000000 0.000000 0.030658 0.000000 -0.002580
# 5 -0.002800 -0.000357 0.000964 0.000000 0.037552 0.000000
# 6 0.000000 0.000000 0.000000 -0.002580 0.000000 0.033747
#
#
# Mechanical properties :
#
#
# Convention : Reuss Voigt Hill
#
# Bulk Modulus (GPa) = 69.59800 78.64487 74.12143
# Shear Modulus (GPa) = 28.33363 31.34753 29.84058
#
# Velocity S-wave (km/s) = 3.66647 3.85654 3.76270
# Velocity P-wave (km/s) = 7.13757 7.55935 7.35149
#
# Compressibility (1/GPa) = 0.01436823
#
# Stress axis : x y z
#
# Youngs Moduli (GPa) = 118.29800 48.35233 77.45787
#
# Poissons Ratio (x) = 0.10010 0.21927
# Poissons Ratio (y) = 0.24490 0.69227
# Poissons Ratio (z) = 0.33488 0.43214
#
# Static dielectric constant tensor:
#      x y z
#    x 4.115210 0.000000 -0.006960 
#    y 0.000000 4.087220 0.000000 
#    z -0.006960 0.000000 3.554930 
# 
# 
# High freq. dielectric constant tensor:
#      x y z
#    x 1.848050 0.000000 0.001620 
#    y 0.000000 1.841650 0.000000 
#    z 0.001620 0.000000 1.811280 
# 
# From -- ./inp_files/17903.got.cif
#   From: 2010.06.25/outbox.cif.g09.slc.cpg/sg11_9_cif.got.tgz:17903.got - 2010.06.27 23:14:04.
