data_PCOD8076268
_publ_section_title
;
Structure prediction by ZEFSAII (Michael W. Deem and Ramdas Pophale) SiO2 
 PCOD8076268
Probable space group: P 21/M
;
_chemical_formula_sum "Si O2"
_cell_formula_units_Z 32
_cell_length_a 29.213287
_cell_length_b 8.766468
_cell_length_c 12.026749
_cell_angle_alpha 90.000000
_cell_angle_beta 148.761927
_cell_angle_gamma 90.000000
_cell_volume 1597.283066
_symmetry_space_group_name_H-M "P 21/M"
_symmetry_group_IT_number 11
_symmetry_cell_setting 'monoclinic'
loop_
_space_group_symop_operation_xyz
x,y,z
-x,1/2+y,-z
-x,-y,-z
x,1/2-y,z
loop_
_atom_site_type_symbol
_atom_site_label
_atom_site_fract_x
_atom_site_fract_y
_atom_site_fract_z
Si Si1 0.307911 0.575089 0.657334
Si Si2 0.024655 0.071296 0.874137
Si Si3 0.254016 0.429453 0.097720
Si Si4 0.931787 0.069738 0.272027
Si Si5 0.411508 0.425400 0.273528
Si Si6 0.647183 0.074095 0.502923
Si Si7 0.445445 0.074240 0.095165
Si Si8 0.126076 0.072239 0.305551
O O1 0.284172 0.750000 0.632057
O O2 0.325131 0.545861 0.564844
O O3 0.227999 0.469982 0.532637
O O4 0.396816 0.530795 0.905528
O O5 0.024480 0.250000 0.848300
O O6 0.050729 0.984514 0.816886
O O7 0.094695 0.027721 0.116042
O O8 0.928146 0.020480 0.714595
O O9 0.235756 0.250000 0.049550
O O10 0.325312 0.491021 0.156292
O O11 0.289344 0.467102 0.293671
O O12 0.164488 0.518890 0.887751
O O13 0.939655 0.250000 0.291975
O O14 0.000000 0.000000 0.500000
O O15 0.500000 0.500000 0.500000
O O16 0.421004 0.250000 0.324045
O O17 0.398672 0.451745 0.116183
O O18 0.659288 0.250000 0.564038
O O19 0.546691 0.021464 0.312917
O O20 0.440221 0.250000 0.045981
O O21 0.111524 0.250000 0.298276
#
# Coordination Sequence:
#
# PCOD8076268 Si02
#       8
#     4   4   4   4   4   4   4   4
#     4  11  23  36  54  85 121 157 202 251 301 359
#     4  10  21  40  66  93 121 154 199 252 305 365
#     4  11  23  39  63  94 122 157 204 254 306 367
#     4  12  26  44  65  90 125 166 206 255 310 369
#     4  10  21  38  62  88 118 154 198 250 299 354
#     4  10  21  38  60  85 118 159 202 250 304 364
#     4  10  21  38  58  82 117 159 200 247 306 364
#     4  10  21  38  62  90 121 160 199 245 304 368
#
# _framework density 20.034018
#
# number of rings (size 3 to 8) (size 9 to 14) (size 15 to 20)
#    0.000    1.500    1.250    3.750    0.000    7.000 
#    0.000    3.750    0.000    0.000    0.000    0.000 
#    0.000    0.000    0.000    0.000    0.000    0.000 
#
# Total GULP energy -396985.044003 kJ/mol
# GULP energy per Si atom -12405.782625 kJ/mol
# Density = 1.998842 g / cm^3
# Si number density = 20.034018 Si / 1000 Ang^3
#
#
#
# Elastic Constant Matrix: (Units=GPa)
#
#
# Indices 1 2 3 4 5 6 
#
# 1 -52.4442 26.6599 -11.7332 0.0000 118.8633 0.0000
# 2 26.6599 87.9280 34.0039 0.0000 16.2944 0.0000
# 3 -11.7332 34.0039 89.4425 0.0000 54.5738 0.0000
# 4 0.0000 0.0000 0.0000 33.8623 0.0000 5.3208
# 5 118.8633 16.2944 54.5738 0.0000 -38.5184 0.0000
# 6 0.0000 0.0000 0.0000 5.3208 0.0000 27.8202
#
#
#
# Elastic Compliance Matrix: (Units=1/GPa)
#
#
# Indices 1 2 3 4 5 6 
#
# 1 0.006252 -0.001936 -0.005211 0.000000 0.011091 0.000000
# 2 -0.001936 0.013884 -0.002934 0.000000 -0.004258 0.000000
# 3 -0.005211 -0.002934 0.011897 0.000000 -0.000467 0.000000
# 4 0.000000 0.000000 0.000000 0.030446 0.000000 -0.005823
# 5 0.011091 -0.004258 -0.000467 0.000000 0.005803 0.000000
# 6 0.000000 0.000000 0.000000 -0.005823 0.000000 0.037059
#
#
# Mechanical properties :
#
#
# Convention : Reuss Voigt Hill
#
# Bulk Modulus (GPa) = 84.24432 24.75414 54.49923
# Shear Modulus (GPa) = 38.62187 9.69921 24.16054
#
# Velocity S-wave (km/s) = 4.39545 2.20270 3.47648
# Velocity P-wave (km/s) = 8.24026 4.34189 6.58612
#
# Compressibility (1/GPa) = 0.01187024
#
# Stress axis : x y z
#
# Youngs Moduli (GPa) = 159.94167 72.02718 84.05405
#
# Poissons Ratio (x) = 0.13943 0.43803
# Poissons Ratio (y) = 0.30961 0.24664
# Poissons Ratio (z) = 0.83351 0.21135
#
# Static dielectric constant tensor:
#      x y z
#    x 3.893610 0.000000 0.056000 
#    y 0.000000 3.639190 0.000000 
#    z 0.056000 0.000000 3.616760 
# 
# 
# High freq. dielectric constant tensor:
#      x y z
#    x 1.794270 0.000000 0.006610 
#    y 0.000000 1.784510 0.000000 
#    z 0.006610 0.000000 1.782220 
# 
# From -- ./inp_files/45324.got.cif
#   From: 2010.06.25/outbox.cif.g09.slc.cpg/sg11_23_cif.got.tgz:45324.got - 2010.06.27 23:14:04.
