data_PCOD8076214
_publ_section_title
;
Structure prediction by ZEFSAII (Michael W. Deem and Ramdas Pophale) SiO2 
 PCOD8076214
Probable space group: P 21/M
;
_chemical_formula_sum "Si O2"
_cell_formula_units_Z 32
_cell_length_a 9.503229
_cell_length_b 18.369425
_cell_length_c 15.843591
_cell_angle_alpha 90.000000
_cell_angle_beta 142.754993
_cell_angle_gamma 90.000000
_cell_volume 1673.928736
_symmetry_space_group_name_H-M "P 21/M"
_symmetry_group_IT_number 11
_symmetry_cell_setting 'monoclinic'
loop_
_space_group_symop_operation_xyz
x,y,z
-x,1/2+y,-z
-x,-y,-z
x,1/2-y,z
loop_
_atom_site_type_symbol
_atom_site_label
_atom_site_fract_x
_atom_site_fract_y
_atom_site_fract_z
Si Si1 0.160232 0.164707 0.091269
Si Si2 0.771200 0.164238 0.614177
Si Si3 0.687705 0.164516 0.381603
Si Si4 0.122808 0.096473 0.902927
Si Si5 0.975240 0.074540 0.148303
Si Si6 0.612758 0.433997 0.101073
Si Si7 0.025471 0.557668 0.586159
Si Si8 0.365804 0.071691 0.464525
O O1 0.135957 0.250000 0.097931
O O2 0.427930 0.138772 0.231494
O O3 0.989237 0.119843 0.070019
O O4 0.050386 0.144554 0.948429
O O5 0.793126 0.250000 0.634207
O O6 0.742022 0.139478 0.503186
O O7 0.551035 0.136828 0.563848
O O8 0.000945 0.125495 0.760155
O O9 0.709255 0.250000 0.382587
O O10 0.883367 0.132267 0.412548
O O11 0.399293 0.114418 0.031027
O O12 0.062987 0.011435 0.887915
O O13 0.206673 0.091313 0.310030
O O14 0.767756 0.108367 0.106098
O O15 0.776511 0.466357 0.253060
O O16 0.500000 0.500000 0.000000
O O17 0.000000 0.500000 0.500000
O O18 0.778669 0.565156 0.516870
O O19 0.500000 0.000000 0.500000
#
# Coordination Sequence:
#
# PCOD8076214 Si02
#       8
#     4   4   4   4   4   4   4   4
#     4  11  22  39  60  87 123 158 202 250 301 361
#     4  11  23  40  63  89 123 165 202 248 307 366
#     4  10  22  40  60  86 123 162 202 246 302 362
#     4  11  21  39  64  87 123 157 202 251 303 369
#     4  10  21  37  64  88 119 159 201 250 301 358
#     4   9  21  39  57  91 121 153 197 250 302 360
#     4  11  23  37  64  92 116 156 204 255 299 355
#     4  11  21  38  61  90 120 157 202 251 300 359
#
# _framework density 19.116705
#
# number of rings (size 3 to 8) (size 9 to 14) (size 15 to 20)
#    0.000    1.500    3.750    1.500    3.500    0.500 
#    4.500    3.125    0.000    1.500    0.000    0.000 
#    0.000    0.000    0.000    0.000    0.000    0.000 
#
# Total GULP energy -396639.176151 kJ/mol
# GULP energy per Si atom -12394.974255 kJ/mol
# Density = 1.907319 g / cm^3
# Si number density = 19.116705 Si / 1000 Ang^3
#
#
#
# Elastic Constant Matrix: (Units=GPa)
#
#
# Indices 1 2 3 4 5 6 
#
# 1 128.6867 43.7754 46.5587 0.0000 -1.7004 0.0000
# 2 43.7754 76.1988 23.0348 0.0000 -1.1634 0.0000
# 3 46.5587 23.0348 104.6443 0.0000 -5.2139 0.0000
# 4 0.0000 0.0000 0.0000 23.0351 0.0000 -3.1720
# 5 -1.7004 -1.1634 -5.2139 0.0000 33.6947 0.0000
# 6 0.0000 0.0000 0.0000 -3.1720 0.0000 27.1931
#
#
#
# Elastic Compliance Matrix: (Units=1/GPa)
#
#
# Indices 1 2 3 4 5 6 
#
# 1 0.010851 -0.005115 -0.003712 0.000000 -0.000203 0.000000
# 2 -0.005115 0.016470 -0.001345 0.000000 0.000102 0.000000
# 3 -0.003712 -0.001345 0.011581 0.000000 0.001558 0.000000
# 4 0.000000 0.000000 0.000000 0.044121 0.000000 0.005146
# 5 -0.000203 0.000102 0.001558 0.000000 0.029913 0.000000
# 6 0.000000 0.000000 0.000000 0.005146 0.000000 0.037374
#
#
# Mechanical properties :
#
#
# Convention : Reuss Voigt Hill
#
# Bulk Modulus (GPa) = 53.88116 59.58528 56.73322
# Shear Modulus (GPa) = 28.27420 29.86198 29.06809
#
# Velocity S-wave (km/s) = 3.84999 3.95661 3.90367
# Velocity P-wave (km/s) = 6.92891 7.21872 7.07530
#
# Compressibility (1/GPa) = 0.01855936
#
# Stress axis : x y z
#
# Youngs Moduli (GPa) = 92.15699 60.71650 86.34502
#
# Poissons Ratio (x) = 0.31055 0.32052
# Poissons Ratio (y) = 0.47136 0.11611
# Poissons Ratio (z) = 0.34210 0.08164
#
# Static dielectric constant tensor:
#      x y z
#    x 3.028430 0.000000 -0.422570 
#    y 0.000000 3.563380 0.000000 
#    z -0.422570 0.000000 3.338060 
# 
# 
# High freq. dielectric constant tensor:
#      x y z
#    x 1.752620 0.000000 -0.003350 
#    y 0.000000 1.725460 0.000000 
#    z -0.003350 0.000000 1.752830 
# 
# From -- ./inp_files/43564.got.cif
#   From: 2010.06.25/outbox.cif.g09.slc.cpg/sg11_22_cif.got.tgz:43564.got - 2010.06.27 23:14:04.
