data_PCOD8076580
_publ_section_title
;
Structure prediction by ZEFSAII (Michael W. Deem and Ramdas Pophale) SiO2 
 PCOD8076580
Probable space group: P 21/M
;
_chemical_formula_sum "Si O2"
_cell_formula_units_Z 28
_cell_length_a 6.580926
_cell_length_b 31.694026
_cell_length_c 5.197418
_cell_angle_alpha 90.000000
_cell_angle_beta 67.267804
_cell_angle_gamma 90.000000
_cell_volume 999.848511
_symmetry_space_group_name_H-M "P 21/M"
_symmetry_group_IT_number 11
_symmetry_cell_setting 'monoclinic'
loop_
_space_group_symop_operation_xyz
x,y,z
-x,1/2+y,-z
-x,-y,-z
x,1/2-y,z
loop_
_atom_site_type_symbol
_atom_site_label
_atom_site_fract_x
_atom_site_fract_y
_atom_site_fract_z
Si Si1 0.769668 0.704358 0.838522
Si Si2 0.665393 0.296141 0.250151
Si Si3 0.144137 0.573081 0.427960
Si Si4 0.072800 0.663283 0.344587
Si Si5 0.298837 0.446320 0.582538
Si Si6 0.386870 0.143789 0.668709
Si Si7 0.279599 0.972640 0.861615
O O1 0.782309 0.750000 0.981643
O O2 0.588246 0.709883 0.709603
O O3 0.692590 0.663296 0.027813
O O4 0.025499 0.694657 0.614828
O O5 0.743769 0.250000 0.309630
O O6 0.826099 0.311654 0.943868
O O7 0.622648 0.332454 0.489149
O O8 0.219105 0.621339 0.329769
O O9 0.178594 0.560866 0.708024
O O10 0.883965 0.572222 0.512593
O O11 0.249270 0.540392 0.172346
O O12 0.817216 0.650574 0.424549
O O13 0.426779 0.407374 0.665319
O O14 0.458645 0.472654 0.317844
O O15 0.193949 0.479353 0.844226
#
# Coordination Sequence:
#
# PCOD8076580 Si02
#       7
#     4   4   4   4   4   4   4
#     4  10  22  39  61  90 124 164 211 270 335 403
#     4  10  21  39  61  89 124 164 213 269 332 403
#     4  11  25  43  70 100 142 175 234 281 344 404
#     4  10  23  39  63  91 127 171 216 273 335 404
#     4  10  24  43  68  98 138 183 228 281 347 401
#     4  10  22  41  62  93 126 168 218 274 334 403
#     4  11  25  45  67 104 138 185 229 286 337 416
#
# _framework density 28.004241
#
# number of rings (size 3 to 8) (size 9 to 14) (size 15 to 20)
#    0.000    1.714    0.000    2.571    6.000    6.286 
#    5.143    0.000    0.000    0.000    0.000    0.000 
#    0.000    0.000    0.000    0.000    0.000    0.000 
#
# Total GULP energy -347025.773380 kJ/mol
# GULP energy per Si atom -12393.777621 kJ/mol
# Density = 2.794050 g / cm^3
# Si number density = 28.004241 Si / 1000 Ang^3
#
#
#
# Elastic Constant Matrix: (Units=GPa)
#
#
# Indices 1 2 3 4 5 6 
#
# 1 30.3782 17.3042 4.5566 0.0000 -9.2704 0.0000
# 2 17.3042 186.2653 32.8171 0.0000 -0.9046 0.0000
# 3 4.5566 32.8171 117.8356 0.0000 -12.0072 0.0000
# 4 0.0000 0.0000 0.0000 45.9771 0.0000 0.7604
# 5 -9.2704 -0.9046 -12.0072 0.0000 35.2368 0.0000
# 6 0.0000 0.0000 0.0000 0.7604 0.0000 32.9459
#
#
#
# Elastic Compliance Matrix: (Units=1/GPa)
#
#
# Indices 1 2 3 4 5 6 
#
# 1 0.037947 -0.003574 0.000555 0.000000 0.010081 0.000000
# 2 -0.003574 0.005988 -0.001667 0.000000 -0.001355 0.000000
# 3 0.000555 -0.001667 0.009261 0.000000 0.003259 0.000000
# 4 0.000000 0.000000 0.000000 0.021758 0.000000 -0.000502
# 5 0.010081 -0.001355 0.003259 0.000000 0.032107 0.000000
# 6 0.000000 0.000000 0.000000 -0.000502 0.000000 0.030364
#
#
# Mechanical properties :
#
#
# Convention : Reuss Voigt Hill
#
# Bulk Modulus (GPa) = 22.81861 49.31499 36.06680
# Shear Modulus (GPa) = 30.97746 41.48538 36.23142
#
# Velocity S-wave (km/s) = 3.32952 3.85307 3.60082
# Velocity P-wave (km/s) = 4.79029 6.11906 5.49499
#
# Compressibility (1/GPa) = 0.04382388
#
# Stress axis : x y z
#
# Youngs Moduli (GPa) = 26.35225 167.00236 107.97483
#
# Poissons Ratio (x) = 0.59690 -0.05995
# Poissons Ratio (y) = 0.09419 0.18005
# Poissons Ratio (z) = -0.01463 0.27847
#
# Static dielectric constant tensor:
#      x y z
#    x 5.680310 0.000000 -0.193210 
#    y 0.000000 5.905570 0.000000 
#    z -0.193210 0.000000 4.473450 
# 
# 
# High freq. dielectric constant tensor:
#      x y z
#    x 2.186140 0.000000 -0.015090 
#    y 0.000000 2.156880 0.000000 
#    z -0.015090 0.000000 2.098840 
# 
# From -- ./inp_files/3320.got.cif
#   From: 2010.06.25/outbox.cif.g09.slc.cpg/sg11_2_cif.got.tgz:3320.got - 2010.06.27 23:14:04.
