data_PCOD8076401
_publ_section_title
;
Structure prediction by ZEFSAII (Michael W. Deem and Ramdas Pophale) SiO2 
 PCOD8076401
Probable space group: P 21/M
;
_chemical_formula_sum "Si O2"
_cell_formula_units_Z 32
_cell_length_a 11.931272
_cell_length_b 8.550665
_cell_length_c 28.320882
_cell_angle_alpha 90.000000
_cell_angle_beta 32.585855
_cell_angle_gamma 90.000000
_cell_volume 1556.072237
_symmetry_space_group_name_H-M "P 21/M"
_symmetry_group_IT_number 11
_symmetry_cell_setting 'monoclinic'
loop_
_space_group_symop_operation_xyz
x,y,z
-x,1/2+y,-z
-x,-y,-z
x,1/2-y,z
loop_
_atom_site_type_symbol
_atom_site_label
_atom_site_fract_x
_atom_site_fract_y
_atom_site_fract_z
Si Si1 0.723537 0.572559 0.426200
Si Si2 0.777407 0.926318 0.300719
Si Si3 0.783934 0.435527 0.878316
Si Si4 0.573620 0.433282 0.050281
Si Si5 0.577017 0.433773 0.728146
Si Si6 0.987034 0.431504 0.412087
Si Si7 0.375676 0.936735 0.394179
Si Si8 0.232420 0.065162 0.923616
O O1 0.500000 0.500000 0.500000
O O2 0.715394 0.750000 0.449078
O O3 0.825315 0.569998 0.338840
O O4 0.854755 0.457886 0.412173
O O5 0.758885 0.750000 0.288386
O O6 0.560551 0.007103 0.361768
O O7 0.980838 0.002339 0.204764
O O8 0.773783 0.250000 0.873974
O O9 0.662054 0.515113 0.877702
O O10 0.700312 0.485204 0.959002
O O11 0.586093 0.250000 0.055906
O O12 0.669182 0.520487 0.061187
O O13 0.551093 0.250000 0.735388
O O14 0.579080 0.503179 0.674225
O O15 0.386343 0.501213 0.827532
O O16 0.800346 0.474425 0.670719
O O17 0.040842 0.250000 0.398682
O O18 0.847514 0.494529 0.505992
O O19 0.369496 0.750000 0.397635
O O20 0.218416 0.250000 0.925027
O O21 0.000000 0.000000 0.000000
#
# Coordination Sequence:
#
# PCOD8076401 Si02
#       8
#     4   4   4   4   4   4   4   4
#     4  11  21  36  57  84 119 156 196 235 287 348
#     4   9  18  33  58  85 112 150 195 240 285 345
#     4   9  19  36  62  89 115 153 198 242 291 353
#     4  10  21  38  61  88 120 153 191 242 301 356
#     4  10  23  41  64  88 113 155 205 244 289 354
#     4  11  22  38  61  88 122 156 192 246 302 349
#     4   9  18  36  61  87 116 153 199 246 292 344
#     4  11  25  43  64  88 118 155 199 248 301 358
#
# _framework density 20.564599000000001
#
# number of rings (size 3 to 8) (size 9 to 14) (size 15 to 20)
#    0.000    2.000    1.250    1.875    3.500    1.500 
#    0.000    1.250    0.000    0.000    0.000    0.000 
#    0.000    0.000    0.000    0.000    0.000    0.000 
#
# Total GULP energy -396639.690347 kJ/mol
# GULP energy per Si atom -12394.990323 kJ/mol
# Density = 2.051779 g / cm^3
# Si number density = 20.564599 Si / 1000 Ang^3
#
#
#
# Elastic Constant Matrix: (Units=GPa)
#
#
# Indices 1 2 3 4 5 6 
#
# 1 115.1633 12.4899 55.4607 0.0000 0.1586 0.0000
# 2 12.4899 31.0827 19.7797 0.0000 5.8584 0.0000
# 3 55.4607 19.7797 157.4782 0.0000 -13.1811 0.0000
# 4 0.0000 0.0000 0.0000 24.8973 0.0000 -3.6384
# 5 0.1586 5.8584 -13.1811 0.0000 27.8063 0.0000
# 6 0.0000 0.0000 0.0000 -3.6384 0.0000 31.6188
#
#
#
# Elastic Compliance Matrix: (Units=1/GPa)
#
#
# Indices 1 2 3 4 5 6 
#
# 1 0.010626 -0.001674 -0.003652 0.000000 -0.001439 0.000000
# 2 -0.001674 0.038023 -0.005056 0.000000 -0.010398 0.000000
# 3 -0.003652 -0.005056 0.008708 0.000000 0.005214 0.000000
# 4 0.000000 0.000000 0.000000 0.040852 0.000000 0.004701
# 5 -0.001439 -0.010398 0.005214 0.000000 0.040634 0.000000
# 6 0.000000 0.000000 0.000000 0.004701 0.000000 0.032168
#
#
# Mechanical properties :
#
#
# Convention : Reuss Voigt Hill
#
# Bulk Modulus (GPa) = 27.32982 53.24275 40.28628
# Shear Modulus (GPa) = 24.51313 31.26408 27.88860
#
# Velocity S-wave (km/s) = 3.45629 3.90331 3.68658
# Velocity P-wave (km/s) = 5.40800 6.80156 6.14442
#
# Compressibility (1/GPa) = 0.03659007
#
# Stress axis : x y z
#
# Youngs Moduli (GPa) = 94.11054 26.30020 114.83828
#
# Poissons Ratio (x) = 0.04403 0.41943
# Poissons Ratio (y) = 0.15757 0.58067
# Poissons Ratio (z) = 0.34373 0.13299
#
# Static dielectric constant tensor:
#      x y z
#    x 3.857220 0.000000 0.152900 
#    y 0.000000 3.468300 0.000000 
#    z 0.152900 0.000000 4.087240 
# 
# 
# High freq. dielectric constant tensor:
#      x y z
#    x 1.810440 0.000000 -0.002650 
#    y 0.000000 1.774070 0.000000 
#    z -0.002650 0.000000 1.818360 
# 
# From -- ./inp_files/73054.got.cif
#   From: 2010.06.25/outbox.cif.g09.slc.cpg/sg11_37_cif.got.tgz:73054.got - 2010.06.27 23:14:04.
