data_PCOD8076602
_publ_section_title
;
Structure prediction by ZEFSAII (Michael W. Deem and Ramdas Pophale) SiO2 
 PCOD8076602
Probable space group: P 21/M
;
_chemical_formula_sum "Si O2"
_cell_formula_units_Z 28
_cell_length_a 28.805898
_cell_length_b 8.680506
_cell_length_c 8.928198
_cell_angle_alpha 90.000000
_cell_angle_beta 141.273420
_cell_angle_gamma 90.000000
_cell_volume 1396.658512
_symmetry_space_group_name_H-M "P 21/M"
_symmetry_group_IT_number 11
_symmetry_cell_setting 'monoclinic'
loop_
_space_group_symop_operation_xyz
x,y,z
-x,1/2+y,-z
-x,-y,-z
x,1/2-y,z
loop_
_atom_site_type_symbol
_atom_site_label
_atom_site_fract_x
_atom_site_fract_y
_atom_site_fract_z
Si Si1 0.218397 0.070066 0.463953
Si Si2 0.358758 0.568575 0.971670
Si Si3 0.930364 0.569235 0.740749
Si Si4 0.784850 0.071136 0.863981
Si Si5 0.066841 0.571825 0.577073
Si Si6 0.501010 0.567974 0.838298
Si Si7 0.644049 0.432588 0.696491
O O1 0.235848 0.250000 0.529960
O O2 0.143460 0.019491 0.357930
O O3 0.283763 0.968079 0.695910
O O4 0.209154 0.033373 0.266697
O O5 0.374157 0.750000 0.004217
O O6 0.425566 0.480733 0.062094
O O7 0.352371 0.505395 0.124920
O O8 0.940621 0.750000 0.763544
O O9 0.924860 0.509767 0.559613
O O10 0.000000 0.500000 0.000000
O O11 0.774612 0.250000 0.793497
O O12 0.715548 0.008665 0.785870
O O13 0.858060 0.045213 0.144025
O O14 0.050029 0.750000 0.507330
O O15 0.000000 0.500000 0.500000
O O16 0.497512 0.750000 0.842110
O O17 0.429946 0.503492 0.569142
O O18 0.500000 0.500000 0.000000
O O19 0.644060 0.250000 0.700034
#
# Coordination Sequence:
#
# PCOD8076602 Si02
#       7
#     4   4   4   4   4   4   4
#     4  11  24  40  59  88 121 154 195 246 297 349
#     4  11  22  39  62  86 116 156 197 241 294 353
#     4  11  24  41  62  88 121 159 202 251 303 358
#     4  10  21  39  62  87 115 154 200 244 293 354
#     4  11  23  39  62  90 122 159 201 247 298 357
#     4  11  22  38  60  88 120 154 195 243 294 351
#     4   9  20  38  60  85 114 150 195 242 289 344
#
# _framework density 20.047848999999999
#
# number of rings (size 3 to 8) (size 9 to 14) (size 15 to 20)
#    0.000    1.429    0.000    5.143    0.000    8.000 
#    0.000    4.286    0.000    0.000    0.000    0.000 
#    0.000    0.000    0.000    0.000    0.000    0.000 
#
# Total GULP energy -347362.362930 kJ/mol
# GULP energy per Si atom -12405.798676 kJ/mol
# Density = 2.000222 g / cm^3
# Si number density = 20.047849 Si / 1000 Ang^3
#
#
#
# Elastic Constant Matrix: (Units=GPa)
#
#
# Indices 1 2 3 4 5 6 
#
# 1 185.1542 34.9721 65.0335 0.0000 4.1932 0.0000
# 2 34.9721 42.3710 25.2463 0.0000 12.8487 0.0000
# 3 65.0335 25.2463 115.2084 0.0000 14.8108 0.0000
# 4 0.0000 0.0000 0.0000 31.7581 0.0000 -2.9525
# 5 4.1932 12.8487 14.8108 0.0000 39.1233 0.0000
# 6 0.0000 0.0000 0.0000 -2.9525 0.0000 33.6414
#
#
#
# Elastic Compliance Matrix: (Units=1/GPa)
#
#
# Indices 1 2 3 4 5 6 
#
# 1 0.007454 -0.004728 -0.003436 0.000000 0.002055 0.000000
# 2 -0.004728 0.032102 -0.003233 0.000000 -0.008812 0.000000
# 3 -0.003436 -0.003233 0.011714 0.000000 -0.003005 0.000000
# 4 0.000000 0.000000 0.000000 0.031747 0.000000 0.002786
# 5 0.002055 -0.008812 -0.003005 0.000000 0.029372 0.000000
# 6 0.000000 0.000000 0.000000 0.002786 0.000000 0.029970
#
#
# Mechanical properties :
#
#
# Convention : Reuss Voigt Hill
#
# Bulk Modulus (GPa) = 35.11652 65.91527 50.51590
# Shear Modulus (GPa) = 28.62948 35.40334 32.01641
#
# Velocity S-wave (km/s) = 3.78306 4.20687 4.00058
# Velocity P-wave (km/s) = 6.05281 7.51980 6.82583
#
# Compressibility (1/GPa) = 0.02847662
#
# Stress axis : x y z
#
# Youngs Moduli (GPa) = 134.15113 31.15046 85.36758
#
# Poissons Ratio (x) = 0.14729 0.29331
# Poissons Ratio (y) = 0.63433 0.27597
# Poissons Ratio (z) = 0.46092 0.10070
#
# Static dielectric constant tensor:
#      x y z
#    x 3.852120 0.000000 0.002520 
#    y 0.000000 3.591600 0.000000 
#    z 0.002520 0.000000 3.871240 
# 
# 
# High freq. dielectric constant tensor:
#      x y z
#    x 1.804460 0.000000 0.000470 
#    y 0.000000 1.776910 0.000000 
#    z 0.000470 0.000000 1.802180 
# 
# From -- ./inp_files/28454.got.cif
#   From: 2010.06.25/outbox.cif.g09.slc.cpg/sg11_15_cif.got.tgz:28454.got - 2010.06.27 23:14:04.
