data_PCOD8076814
_publ_section_title
;
Structure prediction by ZEFSAII (Michael W. Deem and Ramdas Pophale) SiO2 
 PCOD8076814
Probable space group: P 21/M
;
_chemical_formula_sum "Si O2"
_cell_formula_units_Z 32
_cell_length_a 30.673505
_cell_length_b 8.922201
_cell_length_c 12.691548
_cell_angle_alpha 90.000000
_cell_angle_beta 153.715061
_cell_angle_gamma 90.000000
_cell_volume 1538.127915
_symmetry_space_group_name_H-M "P 21/M"
_symmetry_group_IT_number 11
_symmetry_cell_setting 'monoclinic'
loop_
_space_group_symop_operation_xyz
x,y,z
-x,1/2+y,-z
-x,-y,-z
x,1/2-y,z
loop_
_atom_site_type_symbol
_atom_site_label
_atom_site_fract_x
_atom_site_fract_y
_atom_site_fract_z
Si Si1 0.929535 0.923077 0.699219
Si Si2 0.244197 0.422947 0.057936
Si Si3 0.288548 0.423962 0.379716
Si Si4 0.201423 0.926454 0.754692
Si Si5 0.371657 0.085816 0.003014
Si Si6 0.873731 0.576775 0.808393
Si Si7 0.558505 0.084848 0.540048
Si Si8 0.489946 0.572762 0.866432
O O1 0.931285 0.750000 0.672479
O O2 0.862487 0.952235 0.658287
O O3 0.885824 0.012805 0.506449
O O4 0.039978 0.975060 0.958719
O O5 0.232149 0.250000 0.000345
O O6 0.216307 0.453587 0.120513
O O7 0.357048 0.469522 0.304625
O O8 0.186584 0.516478 0.843071
O O9 0.318366 0.250000 0.446640
O O10 0.226795 0.468020 0.350339
O O11 0.389375 0.517248 0.591901
O O12 0.195976 0.750000 0.743731
O O13 0.306814 0.976119 0.934347
O O14 0.318204 0.250000 0.884381
O O15 0.483225 0.109969 0.283209
O O16 0.403916 0.025687 0.957950
O O17 0.901210 0.750000 0.888639
O O18 0.599765 0.250000 0.664745
O O19 0.500000 0.000000 0.500000
O O20 0.483531 0.750000 0.862642
O O21 0.500000 0.500000 0.000000
#
# Coordination Sequence:
#
# PCOD8076814 Si02
#       8
#     4   4   4   4   4   4   4   4
#     4  10  21  40  66  93 122 150 187 241 301 359
#     4  11  22  37  57  83 119 158 201 246 295 354
#     4  10  22  40  63  89 119 159 201 245 296 355
#     4  12  25  38  59  88 121 157 202 250 298 355
#     4  10  22  38  55  78 115 158 199 244 294 342
#     4   9  20  41  67  93 119 150 190 239 297 356
#     4  11  20  33  53  77 108 149 195 239 286 336
#     4  11  24  40  57  83 121 161 203 249 293 350
#
# _framework density 20.804511000000002
#
# number of rings (size 3 to 8) (size 9 to 14) (size 15 to 20)
#    0.000    1.500    2.500    2.625    1.750    3.000 
#    0.000    0.625    0.000    0.000    0.000    0.000 
#    0.000    0.000    0.000    0.000    0.000    0.000 
#
# Total GULP energy -396506.100632 kJ/mol
# GULP energy per Si atom -12390.815645 kJ/mol
# Density = 2.075716 g / cm^3
# Si number density = 20.804511 Si / 1000 Ang^3
#
#
#
# Elastic Constant Matrix: (Units=GPa)
#
#
# Indices 1 2 3 4 5 6 
#
# 1 70.0083 29.4785 3.8065 0.0000 -12.7108 0.0000
# 2 29.4785 109.8669 28.1343 0.0000 -11.9158 0.0000
# 3 3.8065 28.1343 60.8348 0.0000 -20.4704 0.0000
# 4 0.0000 0.0000 0.0000 34.9961 0.0000 -3.4117
# 5 -12.7108 -11.9158 -20.4704 0.0000 33.8498 0.0000
# 6 0.0000 0.0000 0.0000 -3.4117 0.0000 25.5422
#
#
#
# Elastic Compliance Matrix: (Units=1/GPa)
#
#
# Indices 1 2 3 4 5 6 
#
# 1 0.017374 -0.004797 0.003463 0.000000 0.006930 0.000000
# 2 -0.004797 0.011673 -0.005426 0.000000 -0.000973 0.000000
# 3 0.003463 -0.005426 0.023258 0.000000 0.013456 0.000000
# 4 0.000000 0.000000 0.000000 0.028952 0.000000 0.003867
# 5 0.006930 -0.000973 0.013456 0.000000 0.039939 0.000000
# 6 0.000000 0.000000 0.000000 0.003867 0.000000 0.039667
#
#
# Mechanical properties :
#
#
# Convention : Reuss Voigt Hill
#
# Bulk Modulus (GPa) = 25.78264 40.39429 33.08846
# Shear Modulus (GPa) = 26.69371 30.83034 28.76203
#
# Velocity S-wave (km/s) = 3.58589 3.85373 3.72222
# Velocity P-wave (km/s) = 5.43732 6.26577 5.86619
#
# Compressibility (1/GPa) = 0.03878579
#
# Stress axis : x y z
#
# Youngs Moduli (GPa) = 57.55839 85.66941 42.99559
#
# Poissons Ratio (x) = 0.41094 -0.14890
# Poissons Ratio (y) = 0.27610 0.23328
# Poissons Ratio (z) = -0.19933 0.46482
#
# Static dielectric constant tensor:
#      x y z
#    x 4.278660 0.000000 -0.200690 
#    y 0.000000 3.729090 0.000000 
#    z -0.200690 0.000000 3.603000 
# 
# 
# High freq. dielectric constant tensor:
#      x y z
#    x 1.820250 0.000000 -0.022900 
#    y 0.000000 1.816430 0.000000 
#    z -0.022900 0.000000 1.801040 
# 
# From -- ./inp_files/45305.got.cif
#   From: 2010.06.25/outbox.cif.g09.slc.cpg/sg11_23_cif.got.tgz:45305.got - 2010.06.27 23:14:04.
