data_PCOD8076110
_publ_section_title
;
Structure prediction by ZEFSAII (Michael W. Deem and Ramdas Pophale) SiO2 
 PCOD8076110
Probable space group: P 21/M
;
_chemical_formula_sum "Si O2"
_cell_formula_units_Z 32
_cell_length_a 19.730797
_cell_length_b 12.524654
_cell_length_c 19.164035
_cell_angle_alpha 90.000000
_cell_angle_beta 21.122901
_cell_angle_gamma 90.000000
_cell_volume 1706.654317
_symmetry_space_group_name_H-M "P 21/M"
_symmetry_group_IT_number 11
_symmetry_cell_setting 'monoclinic'
loop_
_space_group_symop_operation_xyz
x,y,z
-x,1/2+y,-z
-x,-y,-z
x,1/2-y,z
loop_
_atom_site_type_symbol
_atom_site_label
_atom_site_fract_x
_atom_site_fract_y
_atom_site_fract_z
Si Si1 0.528603 0.625124 0.050349
Si Si2 0.801879 0.626641 0.157827
Si Si3 0.789133 0.533235 0.685970
Si Si4 0.564469 0.128832 0.575985
Si Si5 0.450814 0.022310 0.821910
Si Si6 0.101166 0.628249 0.133992
Si Si7 0.897103 0.983080 0.206951
Si Si8 0.776722 0.870213 0.549572
O O1 0.488992 0.750000 0.089855
O O2 0.336649 0.571320 0.207551
O O3 0.586507 0.585015 0.071026
O O4 0.703585 0.598804 0.832459
O O5 0.861880 0.750000 0.096881
O O6 0.590535 0.609004 0.334486
O O7 0.807532 0.586042 0.231322
O O8 0.942630 0.561668 0.974019
O O9 0.790222 0.610557 0.618757
O O10 0.000000 0.500000 0.500000
O O11 0.637457 0.250000 0.503498
O O12 0.474784 0.108194 0.737819
O O13 0.737545 0.051499 0.397235
O O14 0.635416 0.950523 0.648437
O O15 0.278066 0.947399 0.969818
O O16 0.169941 0.750000 0.060398
O O17 0.979990 0.599693 0.182599
O O18 0.980679 0.612947 0.319883
O O19 0.704165 0.750000 0.606668
#
# Coordination Sequence:
#
# PCOD8076110 Si02
#       8
#     4   4   4   4   4   4   4   4
#     4  10  22  38  59  88 120 156 199 243 293 350
#     4  10  22  39  60  86 117 153 192 238 294 346
#     4  10  21  39  61  86 120 153 194 246 294 348
#     4  11  22  38  60  85 117 157 195 236 291 348
#     4  11  21  39  58  84 121 156 195 242 288 344
#     4  11  22  37  59  87 116 154 199 244 297 347
#     4  11  21  39  61  85 119 151 194 245 287 345
#     4  10  21  37  59  84 116 154 194 240 291 346
#
# _framework density 18.750135
#
# number of rings (size 3 to 8) (size 9 to 14) (size 15 to 20)
#    0.000    1.500    2.500    3.000    0.000    1.000 
#    0.000    3.125    0.000    0.000    0.000    0.000 
#    0.000    0.000    0.000    0.000    0.000    0.000 
#
# Total GULP energy -396953.571223 kJ/mol
# GULP energy per Si atom -12404.799101 kJ/mol
# Density = 1.870746 g / cm^3
# Si number density = 18.750135 Si / 1000 Ang^3
#
#
#
# Elastic Constant Matrix: (Units=GPa)
#
#
# Indices 1 2 3 4 5 6 
#
# 1 86.1099 31.4397 32.4778 0.0000 7.1730 0.0000
# 2 31.4397 80.6619 21.1963 0.0000 -0.0960 0.0000
# 3 32.4778 21.1963 78.0917 0.0000 2.0745 0.0000
# 4 0.0000 0.0000 0.0000 1902.2212 0.0000-1151.5297
# 5 7.1730 -0.0960 2.0745 0.0000 32.2659 0.0000
# 6 0.0000 0.0000 0.0000-1151.5297 0.0000 720.9158
#
#
#
# Elastic Compliance Matrix: (Units=1/GPa)
#
#
# Indices 1 2 3 4 5 6 
#
# 1 0.015515 -0.004713 -0.005090 0.000000 -0.003136 0.000000
# 2 -0.004713 0.014784 -0.002085 0.000000 0.001226 0.000000
# 3 -0.005090 -0.002085 0.015485 0.000000 0.000130 0.000000
# 4 0.000000 0.000000 0.000000 0.015907 0.000000 0.025409
# 5 -0.003136 0.001226 0.000130 0.000000 0.031685 0.000000
# 6 0.000000 0.000000 0.000000 0.025409 0.000000 0.041973
#
#
# Mechanical properties :
#
#
# Convention : Reuss Voigt Hill
#
# Bulk Modulus (GPa) = 45.44031 46.12121 45.78076
# Shear Modulus (GPa) = 30.03712 541.73057 285.88384
#
# Velocity S-wave (km/s) = 4.00680 17.01611 12.36128
# Velocity P-wave (km/s) = 6.75968 20.26611 15.10643
#
# Compressibility (1/GPa) = 0.02200689
#
# Stress axis : x y z
#
# Youngs Moduli (GPa) = 64.45385 67.64084 64.57943
#
# Poissons Ratio (x) = 0.31882 0.32870
# Poissons Ratio (y) = 0.30380 0.13465
# Poissons Ratio (z) = 0.32806 0.14103
#
# Static dielectric constant tensor:
#      x y z
#    x 3.677900 0.000000 0.085550 
#    y 0.000000 3.480810 0.000000 
#    z 0.085550 0.000000 3.409270 
# 
# 
# High freq. dielectric constant tensor:
#      x y z
#    x 1.741440 0.000000 0.005940 
#    y 0.000000 1.737040 0.000000 
#    z 0.005940 0.000000 1.732540 
# 
# From -- ./inp_files/66524.got.cif
#   From: 2010.06.25/outbox.cif.g09.slc.cpg/sg11_34_cif.got.tgz:66524.got - 2010.06.27 23:14:04.
