data_PCOD8076346
_publ_section_title
;
Structure prediction by ZEFSAII (Michael W. Deem and Ramdas Pophale) SiO2 
 PCOD8076346
Probable space group: P 21/M
;
_chemical_formula_sum "Si O2"
_cell_formula_units_Z 32
_cell_length_a 6.818310
_cell_length_b 17.191967
_cell_length_c 13.779122
_cell_angle_alpha 90.000000
_cell_angle_beta 90.000016
_cell_angle_gamma 90.000000
_cell_volume 1615.190893
_symmetry_space_group_name_H-M "P 21/M"
_symmetry_group_IT_number 11
_symmetry_cell_setting 'monoclinic'
loop_
_space_group_symop_operation_xyz
x,y,z
-x,1/2+y,-z
-x,-y,-z
x,1/2-y,z
loop_
_atom_site_type_symbol
_atom_site_label
_atom_site_fract_x
_atom_site_fract_y
_atom_site_fract_z
Si Si1 0.282180 0.924108 0.919275
Si Si2 0.217514 0.839764 0.721400
Si Si3 0.498789 0.663605 0.545777
Si Si4 0.217820 0.924108 0.419275
Si Si5 0.402541 0.098671 0.918828
Si Si6 0.902541 0.598671 0.581172
Si Si7 0.001211 0.836395 0.045777
Si Si8 0.282486 0.839764 0.221400
O O1 0.293589 0.882599 0.816523
O O2 0.075367 0.900568 0.968587
O O3 0.298020 0.015903 0.904122
O O4 0.458828 0.895616 0.987443
O O5 0.170881 0.750000 0.743786
O O6 0.395705 0.850488 0.648048
O O7 0.021274 0.879578 0.678377
O O8 0.447109 0.750000 0.506479
O O9 0.424633 0.599432 0.468587
O O10 0.730917 0.659790 0.561657
O O11 0.206411 0.882599 0.316523
O O12 0.041172 0.895616 0.487443
O O13 0.201980 0.015903 0.404122
O O14 0.521274 0.120422 0.821623
O O15 0.230917 0.159789 0.938343
O O16 0.052891 0.750000 0.006478
O O17 0.104296 0.850488 0.148047
O O18 0.329119 0.750000 0.243787
#
# Coordination Sequence:
#
# PCOD8076346 Si02
#       8
#     4   4   4   4   4   4   4   4
#     4  10  22  39  60  86 120 157 198 249 297 354
#     4  10  22  38  58  88 120 154 198 249 300 351
#     4  10  21  38  60  86 120 154 196 247 297 357
#     4  10  22  39  60  86 120 157 198 249 297 354
#     4  10  22  39  60  86 118 157 201 244 299 359
#     4  10  22  39  60  86 118 157 201 244 299 359
#     4  10  21  38  60  86 120 154 196 247 297 357
#     4  10  22  38  58  88 120 154 198 249 300 351
#
# _framework density 19.811900000000001
#
# number of rings (size 3 to 8) (size 9 to 14) (size 15 to 20)
#    0.000    2.000    0.000    2.250    3.500    5.000 
#    0.000    2.500    0.000    0.000    0.000    0.000 
#    0.000    0.000    0.000    0.000    0.000    0.000 
#
# Total GULP energy -396874.331887 kJ/mol
# GULP energy per Si atom -12402.322871 kJ/mol
# Density = 1.976681 g / cm^3
# Si number density = 19.811900 Si / 1000 Ang^3
#
#
#
# Elastic Constant Matrix: (Units=GPa)
#
#
# Indices 1 2 3 4 5 6 
#
# 1 97.7848 34.8162 23.1584 0.0000 -0.0001 0.0000
# 2 34.8162 102.9794 56.8261 0.0000 0.0000 0.0000
# 3 23.1584 56.8261 91.0708 0.0000 -0.0001 0.0000
# 4 0.0000 0.0000 0.0000 18.9228 0.0000 0.0000
# 5 -0.0001 0.0000 -0.0001 0.0000 17.5845 0.0000
# 6 0.0000 0.0000 0.0000 0.0000 0.0000 31.5716
#
#
#
# Elastic Compliance Matrix: (Units=1/GPa)
#
#
# Indices 1 2 3 4 5 6 
#
# 1 0.011661 -0.003517 -0.000771 0.000000 0.000000 0.000000
# 2 -0.003517 0.015871 -0.009009 0.000000 0.000000 0.000000
# 3 -0.000771 -0.009009 0.016798 0.000000 0.000000 0.000000
# 4 0.000000 0.000000 0.000000 0.052846 0.000000 0.000000
# 5 0.000000 0.000000 0.000000 0.000000 0.056868 0.000000
# 6 0.000000 0.000000 0.000000 0.000000 0.000000 0.031674
#
#
# Mechanical properties :
#
#
# Convention : Reuss Voigt Hill
#
# Bulk Modulus (GPa) = 56.38034 57.93739 57.15887
# Shear Modulus (GPa) = 22.91222 25.41808 24.16515
#
# Velocity S-wave (km/s) = 3.40441 3.58574 3.49625
# Velocity P-wave (km/s) = 6.63121 6.81547 6.72397
#
# Compressibility (1/GPa) = 0.01773668
#
# Stress axis : x y z
#
# Youngs Moduli (GPa) = 85.75307 63.00777 59.53200
#
# Poissons Ratio (x) = 0.22162 0.04588
# Poissons Ratio (y) = 0.30162 0.53631
# Poissons Ratio (z) = 0.06609 0.56762
#
# Static dielectric constant tensor:
#      x y z
#    x 3.564720 0.000000 0.000000 
#    y 0.000000 3.723280 0.000000 
#    z 0.000000 0.000000 3.500350 
# 
# 
# High freq. dielectric constant tensor:
#      x y z
#    x 1.774800 0.000000 0.000000 
#    y 0.000000 1.784350 0.000000 
#    z 0.000000 0.000000 1.769050 
# 
# From -- ./inp_files/46047.got.cif
#   From: 2010.06.25/outbox.cif.g09.slc.cpg/sg11_24_cif.got.tgz:46047.got - 2010.06.27 23:14:04.
