data_PCOD8076472
_publ_section_title
;
Structure prediction by ZEFSAII (Michael W. Deem and Ramdas Pophale) SiO2 
 PCOD8076472
Probable space group: P 21/M
;
_chemical_formula_sum "Si O2"
_cell_formula_units_Z 28
_cell_length_a 13.493150
_cell_length_b 14.446813
_cell_length_c 9.482669
_cell_angle_alpha 90.000000
_cell_angle_beta 48.820593
_cell_angle_gamma 90.000000
_cell_volume 1391.265393
_symmetry_space_group_name_H-M "P 21/M"
_symmetry_group_IT_number 11
_symmetry_cell_setting 'monoclinic'
loop_
_space_group_symop_operation_xyz
x,y,z
-x,1/2+y,-z
-x,-y,-z
x,1/2-y,z
loop_
_atom_site_type_symbol
_atom_site_label
_atom_site_fract_x
_atom_site_fract_y
_atom_site_fract_z
Si Si1 0.876538 0.358607 0.945231
Si Si2 0.013361 0.857243 0.856538
Si Si3 0.417465 0.644397 0.784531
Si Si4 0.548369 0.147251 0.579069
Si Si5 0.938582 0.512671 0.406067
Si Si6 0.335839 0.034030 0.425510
Si Si7 0.267685 0.355805 0.765402
O O1 0.896248 0.250000 0.903015
O O2 0.982716 0.408862 0.750333
O O3 0.729192 0.389947 0.037802
O O4 0.899183 0.382197 0.088611
O O5 0.028758 0.750000 0.801300
O O6 0.861795 0.883878 0.027654
O O7 0.061824 0.916813 0.679510
O O8 0.437514 0.750000 0.811682
O O9 0.432995 0.631250 0.603910
O O10 0.532317 0.585605 0.754074
O O11 0.596995 0.250000 0.576911
O O12 0.392060 0.134822 0.754573
O O13 0.631608 0.074433 0.589255
O O14 0.785713 0.543453 0.569278
O O15 0.000000 0.500000 0.500000
O O16 0.283815 0.075636 0.620286
O O17 0.256792 0.250000 0.718435
#
# Coordination Sequence:
#
# PCOD8076472 Si02
#       7
#     4   4   4   4   4   4   4
#     4  10  21  39  66  92 117 150 196 252 299 346
#     4  10  21  38  63  89 117 152 198 252 296 342
#     4   9  18  32  56  89 114 141 186 243 299 349
#     4   9  18  29  49  87 124 146 182 236 304 355
#     4  12  27  40  56  87 122 165 201 237 293 355
#     4  11  20  33  57  82 117 156 187 239 293 345
#     4   9  17  31  56  91 115 141 188 246 301 346
#
# _framework density 20.125563
#
# number of rings (size 3 to 8) (size 9 to 14) (size 15 to 20)
#    0.000    2.000    1.429    4.286    4.000    2.857 
#    0.000    0.714    0.000    0.000    0.000    0.000 
#    0.000    0.000    0.000    0.000    0.000    0.000 
#
# Total GULP energy -347157.888535 kJ/mol
# GULP energy per Si atom -12398.496019 kJ/mol
# Density = 2.007976 g / cm^3
# Si number density = 20.125563 Si / 1000 Ang^3
#
#
#
# Elastic Constant Matrix: (Units=GPa)
#
#
# Indices 1 2 3 4 5 6 
#
# 1 155.7460 63.7044 48.6751 0.0000 -26.6532 0.0000
# 2 63.7044 91.2182 30.8587 0.0000 -7.6742 0.0000
# 3 48.6751 30.8587 34.8061 0.0000 -11.3868 0.0000
# 4 0.0000 0.0000 0.0000 13.0667 0.0000 -10.9704
# 5 -26.6532 -7.6742 -11.3868 0.0000 38.5787 0.0000
# 6 0.0000 0.0000 0.0000 -10.9704 0.0000 24.4267
#
#
#
# Elastic Compliance Matrix: (Units=1/GPa)
#
#
# Indices 1 2 3 4 5 6 
#
# 1 0.012945 -0.004328 -0.012863 0.000000 0.004285 0.000000
# 2 -0.004328 0.017148 -0.009976 0.000000 -0.002524 0.000000
# 3 -0.012863 -0.009976 0.057566 0.000000 0.006120 0.000000
# 4 0.000000 0.000000 0.000000 0.122853 0.000000 0.055175
# 5 0.004285 -0.002524 0.006120 0.000000 0.030186 0.000000
# 6 0.000000 0.000000 0.000000 0.055175 0.000000 0.065719
#
#
# Mechanical properties :
#
#
# Convention : Reuss Voigt Hill
#
# Bulk Modulus (GPa) = 30.00861 63.13852 46.57357
# Shear Modulus (GPa) = 13.44592 24.44988 18.94790
#
# Velocity S-wave (km/s) = 2.58757 3.48928 3.07169
# Velocity P-wave (km/s) = 4.88574 6.90462 5.98098
#
# Compressibility (1/GPa) = 0.03332376
#
# Stress axis : x y z
#
# Youngs Moduli (GPa) = 77.25285 58.31635 17.37124
#
# Poissons Ratio (x) = 0.25239 0.22345
# Poissons Ratio (y) = 0.33435 0.17330
# Poissons Ratio (z) = 0.99373 0.58178
#
# Static dielectric constant tensor:
#      x y z
#    x 3.895380 0.000000 -0.616300 
#    y 0.000000 3.826960 0.000000 
#    z -0.616300 0.000000 3.499010 
# 
# 
# High freq. dielectric constant tensor:
#      x y z
#    x 1.778650 0.000000 -0.055960 
#    y 0.000000 1.801420 0.000000 
#    z -0.055960 0.000000 1.739820 
# 
# From -- ./inp_files/17900.got.cif
#   From: 2010.06.25/outbox.cif.g09.slc.cpg/sg11_9_cif.got.tgz:17900.got - 2010.06.27 23:14:04.
