data_PCOD8076226
_publ_section_title
;
Structure prediction by ZEFSAII (Michael W. Deem and Ramdas Pophale) SiO2 
 PCOD8076226
Probable space group: P 21/M
;
_chemical_formula_sum "Si O2"
_cell_formula_units_Z 32
_cell_length_a 10.202453
_cell_length_b 17.304117
_cell_length_c 23.541796
_cell_angle_alpha 90.000000
_cell_angle_beta 155.252305
_cell_angle_gamma 90.000000
_cell_volume 1739.870536
_symmetry_space_group_name_H-M "P 21/M"
_symmetry_group_IT_number 11
_symmetry_cell_setting 'monoclinic'
loop_
_space_group_symop_operation_xyz
x,y,z
-x,1/2+y,-z
-x,-y,-z
x,1/2-y,z
loop_
_atom_site_type_symbol
_atom_site_label
_atom_site_fract_x
_atom_site_fract_y
_atom_site_fract_z
Si Si1 0.401060 0.566580 0.138541
Si Si2 0.217983 0.836564 0.707286
Si Si3 0.148016 0.340984 0.759565
Si Si4 0.588212 0.062318 0.488253
Si Si5 0.318241 0.340844 0.953616
Si Si6 0.029848 0.514569 0.577236
Si Si7 0.156447 0.408691 0.004192
Si Si8 0.004841 0.162623 0.255178
O O1 0.544453 0.628587 0.151691
O O2 0.667202 0.528607 0.281060
O O3 0.229185 0.500105 0.034524
O O4 0.160835 0.609331 0.086250
O O5 0.204714 0.750000 0.677018
O O6 0.063021 0.893657 0.600652
O O7 0.575435 0.857954 0.860869
O O8 0.017613 0.842736 0.685772
O O9 0.127885 0.250000 0.742704
O O10 0.176456 0.362982 0.837038
O O11 0.834285 0.378167 0.611868
O O12 0.285889 0.107763 0.346082
O O13 0.500000 0.000000 0.500000
O O14 0.723670 0.018184 0.487340
O O15 0.298726 0.250000 0.958616
O O16 0.118003 0.384666 0.923162
O O17 0.682069 0.367066 0.099842
O O18 0.000000 0.500000 0.500000
O O19 0.076957 0.250000 0.263906
#
# Coordination Sequence:
#
# PCOD8076226 Si02
#       8
#     4   4   4   4   4   4   4   4
#     4   9  20  36  55  76 111 148 181 222 272 332
#     4   9  17  33  58  80 105 141 181 227 276 324
#     4  10  22  38  54  81 117 147 177 228 284 332
#     4  11  21  37  58  80 106 149 188 219 279 339
#     4   9  19  35  57  85 114 139 181 234 272 319
#     4  10  21  38  54  78 114 143 183 231 268 316
#     4   9  17  34  56  83 105 141 186 222 271 323
#     4   9  17  34  58  83 109 141 183 232 272 325
#
# _framework density 18.392173
#
# number of rings (size 3 to 8) (size 9 to 14) (size 15 to 20)
#    0.000    2.500    1.250    1.500    1.750    2.500 
#    6.750    3.125    0.000    0.000    0.000    0.000 
#    0.000    0.000    0.000    0.000    0.000    0.000 
#
# Total GULP energy -396848.019301 kJ/mol
# GULP energy per Si atom -12401.500603 kJ/mol
# Density = 1.835031 g / cm^3
# Si number density = 18.392173 Si / 1000 Ang^3
#
#
#
# Elastic Constant Matrix: (Units=GPa)
#
#
# Indices 1 2 3 4 5 6 
#
# 1 130.3328 58.4699 38.7061 0.0000 6.2152 0.0000
# 2 58.4699 101.8685 25.7611 0.0000 1.5399 0.0000
# 3 38.7061 25.7611 34.4238 0.0000 6.1163 0.0000
# 4 0.0000 0.0000 0.0000 22.2992 0.0000 1.9794
# 5 6.2152 1.5399 6.1163 0.0000 36.1309 0.0000
# 6 0.0000 0.0000 0.0000 1.9794 0.0000 26.9913
#
#
#
# Elastic Compliance Matrix: (Units=1/GPa)
#
#
# Indices 1 2 3 4 5 6 
#
# 1 0.013112 -0.004690 -0.011205 0.000000 -0.000159 0.000000
# 2 -0.004690 0.013824 -0.005269 0.000000 0.001110 0.000000
# 3 -0.011205 -0.005269 0.046612 0.000000 -0.005738 0.000000
# 4 0.000000 0.000000 0.000000 0.045138 0.000000 -0.003310
# 5 -0.000159 0.001110 -0.005738 0.000000 0.028629 0.000000
# 6 0.000000 0.000000 0.000000 -0.003310 0.000000 0.037292
#
#
# Mechanical properties :
#
#
# Convention : Reuss Voigt Hill
#
# Bulk Modulus (GPa) = 32.03155 56.94435 44.48795
# Shear Modulus (GPa) = 21.06673 26.66350 23.86511
#
# Velocity S-wave (km/s) = 3.38807 3.81165 3.60609
# Velocity P-wave (km/s) = 5.72355 7.09929 6.44822
#
# Compressibility (1/GPa) = 0.03121922
#
# Stress axis : x y z
#
# Youngs Moduli (GPa) = 76.26656 72.33702 21.45392
#
# Poissons Ratio (x) = 0.33925 0.24039
# Poissons Ratio (y) = 0.35768 0.11304
# Poissons Ratio (z) = 0.85458 0.38116
#
# Static dielectric constant tensor:
#      x y z
#    x 3.308280 0.000000 0.086240 
#    y 0.000000 3.472390 0.000000 
#    z 0.086240 0.000000 3.297640 
# 
# 
# High freq. dielectric constant tensor:
#      x y z
#    x 1.706520 0.000000 0.011550 
#    y 0.000000 1.718300 0.000000 
#    z 0.011550 0.000000 1.704520 
# 
# From -- ./inp_files/63966.got.cif
#   From: 2010.06.25/outbox.cif.g09.slc.cpg/sg11_32_cif.got.tgz:63966.got - 2010.06.27 23:14:04.
