data_PCOD8076512
_publ_section_title
;
Structure prediction by ZEFSAII (Michael W. Deem and Ramdas Pophale) SiO2 
 PCOD8076512
Probable space group: P 21/M
;
_chemical_formula_sum "Si O2"
_cell_formula_units_Z 32
_cell_length_a 14.472255
_cell_length_b 16.809115
_cell_length_c 11.588833
_cell_angle_alpha 90.000000
_cell_angle_beta 31.889373
_cell_angle_gamma 90.000000
_cell_volume 1489.311821
_symmetry_space_group_name_H-M "P 21/M"
_symmetry_group_IT_number 11
_symmetry_cell_setting 'monoclinic'
loop_
_space_group_symop_operation_xyz
x,y,z
-x,1/2+y,-z
-x,-y,-z
x,1/2-y,z
loop_
_atom_site_type_symbol
_atom_site_label
_atom_site_fract_x
_atom_site_fract_y
_atom_site_fract_z
Si Si1 0.362855 0.658673 0.703679
Si Si2 0.191797 0.938392 0.256460
Si Si3 0.361735 0.900201 0.450796
Si Si4 0.480666 0.160279 0.095305
Si Si5 0.311259 0.389888 0.053360
Si Si6 0.034397 0.914177 0.663292
Si Si7 0.047335 0.920369 0.171718
Si Si8 0.664347 0.912775 0.525154
O O1 0.328460 0.750000 0.772137
O O2 0.357405 0.647673 0.573333
O O3 0.555085 0.633579 0.544100
O O4 0.211994 0.606153 0.921719
O O5 0.079370 0.955695 0.491168
O O6 0.079140 0.897764 0.272601
O O7 0.335301 0.873870 0.144112
O O8 0.289108 0.016989 0.107166
O O9 0.536577 0.876862 0.199595
O O10 0.197580 0.869471 0.547538
O O11 0.348710 0.993960 0.487172
O O12 0.500708 0.250000 0.120561
O O13 0.416050 0.102919 0.264641
O O14 0.346313 0.159749 0.131454
O O15 0.131588 0.356870 0.184894
O O16 0.971736 0.984095 0.816212
O O17 0.866716 0.882694 0.313324
#
# Coordination Sequence:
#
# PCOD8076512 Si02
#       8
#     4   4   4   4   4   4   4   4
#     4  12  27  44  61  90 131 171 213 268 329 379
#     4  11  19  39  66  98 130 163 202 260 323 377
#     4  11  23  41  67  93 121 170 222 268 310 370
#     4  12  23  36  62  96 130 168 206 253 325 390
#     4  11  20  39  65  91 128 164 207 260 311 377
#     4  10  21  38  66 101 123 157 210 263 312 378
#     4  10  22  39  67  95 122 158 208 265 318 376
#     4  11  22  42  68  94 121 163 217 268 314 376
#
# _framework density 21.486435
#
# number of rings (size 3 to 8) (size 9 to 14) (size 15 to 20)
#    0.000    1.000    3.750    5.625    0.000    4.500 
#    0.000    2.500    0.000    0.000    0.000    0.000 
#    0.000    0.000    0.000    0.000    0.000    0.000 
#
# Total GULP energy -396779.676460 kJ/mol
# GULP energy per Si atom -12399.364889 kJ/mol
# Density = 2.143753 g / cm^3
# Si number density = 21.486435 Si / 1000 Ang^3
#
#
#
# Elastic Constant Matrix: (Units=GPa)
#
#
# Indices 1 2 3 4 5 6 
#
# 1 142.9248 1.6341 56.2778 0.0000 -13.3354 0.0000
# 2 1.6341 41.3407 10.9400 0.0000 -5.2920 0.0000
# 3 56.2778 10.9400 80.6047 0.0000 -19.1958 0.0000
# 4 0.0000 0.0000 0.0000 8.1558 0.0000 0.2667
# 5 -13.3354 -5.2920 -19.1958 0.0000 40.0767 0.0000
# 6 0.0000 0.0000 0.0000 0.2667 0.0000 11.4171
#
#
#
# Elastic Compliance Matrix: (Units=1/GPa)
#
#
# Indices 1 2 3 4 5 6 
#
# 1 0.009735 0.001473 -0.006975 0.000000 0.000093 0.000000
# 2 0.001473 0.025442 -0.004024 0.000000 0.001922 0.000000
# 3 -0.006975 -0.004024 0.019350 0.000000 0.006416 0.000000
# 4 0.000000 0.000000 0.000000 0.122706 0.000000 -0.002866
# 5 0.000093 0.001922 0.006416 0.000000 0.028310 0.000000
# 6 0.000000 0.000000 0.000000 -0.002866 0.000000 0.087655
#
#
# Mechanical properties :
#
#
# Convention : Reuss Voigt Hill
#
# Bulk Modulus (GPa) = 28.18813 44.73045 36.45929
# Shear Modulus (GPa) = 15.42858 24.99780 20.21319
#
# Velocity S-wave (km/s) = 2.68257 3.41460 3.07048
# Velocity P-wave (km/s) = 4.76890 6.03400 5.43836
#
# Compressibility (1/GPa) = 0.03547593
#
# Stress axis : x y z
#
# Youngs Moduli (GPa) = 102.72409 39.30529 51.67988
#
# Poissons Ratio (x) = -0.05789 0.36044
# Poissons Ratio (y) = -0.15129 0.20794
# Poissons Ratio (z) = 0.71645 0.15815
#
# Static dielectric constant tensor:
#      x y z
#    x 4.251240 0.000000 -0.393660 
#    y 0.000000 3.415550 0.000000 
#    z -0.393660 0.000000 3.923170 
# 
# 
# High freq. dielectric constant tensor:
#      x y z
#    x 1.861000 0.000000 -0.017860 
#    y 0.000000 1.802240 0.000000 
#    z -0.017860 0.000000 1.846410 
# 
# From -- ./inp_files/39961.got.cif
#   From: 2010.06.25/outbox.cif.g09.slc.cpg/sg11_20_cif.got.tgz:39961.got - 2010.06.27 23:14:04.
