data_PCOD8076939
_publ_section_title
;
Structure prediction by ZEFSAII (Michael W. Deem and Ramdas Pophale) SiO2 
 PCOD8076939
Probable space group: P 21/M
;
_chemical_formula_sum "Si O2"
_cell_formula_units_Z 32
_cell_length_a 28.068796
_cell_length_b 9.095174
_cell_length_c 21.926299
_cell_angle_alpha 90.000000
_cell_angle_beta 161.472072
_cell_angle_gamma 90.000000
_cell_volume 1778.724709
_symmetry_space_group_name_H-M "P 21/M"
_symmetry_group_IT_number 11
_symmetry_cell_setting 'monoclinic'
loop_
_space_group_symop_operation_xyz
x,y,z
-x,1/2+y,-z
-x,-y,-z
x,1/2-y,z
loop_
_atom_site_type_symbol
_atom_site_label
_atom_site_fract_x
_atom_site_fract_y
_atom_site_fract_z
Si Si1 0.560910 0.575849 0.634472
Si Si2 0.871564 0.425339 0.017127
Si Si3 0.276465 0.087207 0.711708
Si Si4 0.141459 0.423692 0.428298
Si Si5 0.962366 0.423749 0.891491
Si Si6 0.564222 0.924630 0.279656
Si Si7 0.406545 0.912608 0.970882
Si Si8 0.384186 0.918340 0.540159
O O1 0.500000 0.500000 0.500000
O O2 0.582574 0.750000 0.650031
O O3 0.441859 0.541656 0.542939
O O4 0.714288 0.499714 0.841508
O O5 0.855840 0.250000 0.988868
O O6 0.979921 0.465447 0.205317
O O7 0.934153 0.497481 0.032125
O O8 0.222466 0.250000 0.663156
O O9 0.162293 0.015007 0.523016
O O10 0.280482 0.001540 0.780669
O O11 0.439034 0.090031 0.878499
O O12 0.164932 0.250000 0.460815
O O13 0.272241 0.485015 0.542820
O O14 0.997100 0.250000 0.936250
O O15 0.790414 0.456151 0.667683
O O16 0.000000 0.500000 0.000000
O O17 0.563251 0.750000 0.282864
O O18 0.526775 0.989643 0.300537
O O19 0.439953 0.977718 0.079120
O O20 0.340794 0.750000 0.897792
O O21 0.416625 0.750000 0.594158
#
# Coordination Sequence:
#
# PCOD8076939 Si02
#       8
#     4   4   4   4   4   4   4   4
#     4  11  24  42  59  78 105 137 175 220 266 317
#     4  11  21  36  57  80 106 139 175 215 264 315
#     4   8  13  23  39  61  94 135 171 201 243 298
#     4   8  15  28  47  72 102 135 171 211 253 304
#     4  11  22  36  55  80 105 133 171 215 264 320
#     4   9  16  29  49  72 101 137 172 209 255 308
#     4   8  14  23  37  63  98 132 167 205 247 296
#     4  10  22  37  53  76 105 133 169 217 263 307
#
# _framework density 17.990417999999998
#
# number of rings (size 3 to 8) (size 9 to 14) (size 15 to 20)
#    0.000    2.500    1.250    3.375    0.000    3.000 
#    0.000    3.125    0.000    0.000    0.000    0.875 
#    0.000    0.000    0.000    0.000    0.000    0.000 
#
# Total GULP energy -396618.075149 kJ/mol
# GULP energy per Si atom -12394.314848 kJ/mol
# Density = 1.794947 g / cm^3
# Si number density = 17.990418 Si / 1000 Ang^3
#
#
#
# Elastic Constant Matrix: (Units=GPa)
#
#
# Indices 1 2 3 4 5 6 
#
# 1 70.0730 34.8163 33.4461 0.0000 -28.9370 0.0000
# 2 34.8163 70.4858 35.3246 0.0000 -17.8132 0.0000
# 3 33.4461 35.3246 76.4773 0.0000 -28.5671 0.0000
# 4 0.0000 0.0000 0.0000 27.2409 0.0000 -6.1926
# 5 -28.9370 -17.8132 -28.5671 0.0000 39.8793 0.0000
# 6 0.0000 0.0000 0.0000 -6.1926 0.0000 29.6106
#
#
#
# Elastic Compliance Matrix: (Units=1/GPa)
#
#
# Indices 1 2 3 4 5 6 
#
# 1 0.024434 -0.007667 -0.002459 0.000000 0.012543 0.000000
# 2 -0.007667 0.021118 -0.006767 0.000000 -0.000977 0.000000
# 3 -0.002459 -0.006767 0.021137 0.000000 0.010334 0.000000
# 4 0.000000 0.000000 0.000000 0.038542 0.000000 0.008060
# 5 0.012543 -0.000977 0.010334 0.000000 0.041144 0.000000
# 6 0.000000 0.000000 0.000000 0.008060 0.000000 0.035457
#
#
# Mechanical properties :
#
#
# Convention : Reuss Voigt Hill
#
# Bulk Modulus (GPa) = 30.39109 47.13446 38.76278
# Shear Modulus (GPa) = 22.06681 26.90944 24.48813
#
# Velocity S-wave (km/s) = 3.50607 3.87171 3.69341
# Velocity P-wave (km/s) = 5.77231 6.80025 6.30726
#
# Compressibility (1/GPa) = 0.03290438
#
# Stress axis : x y z
#
# Youngs Moduli (GPa) = 40.92735 47.35206 47.31048
#
# Poissons Ratio (x) = 0.36303 0.11634
# Poissons Ratio (y) = 0.31377 0.32013
# Poissons Ratio (z) = 0.10064 0.32041
#
# Static dielectric constant tensor:
#      x y z
#    x 3.238050 0.000000 -0.260570 
#    y 0.000000 3.341990 0.000000 
#    z -0.260570 0.000000 3.648910 
# 
# 
# High freq. dielectric constant tensor:
#      x y z
#    x 1.681470 0.000000 -0.035400 
#    y 0.000000 1.687280 0.000000 
#    z -0.035400 0.000000 1.686180 
# 
# From -- ./inp_files/67165.got.cif
#   From: 2010.06.25/outbox.cif.g09.slc.cpg/sg11_34_cif.got.tgz:67165.got - 2010.06.27 23:14:04.
