data_PCOD8076852
_publ_section_title
;
Structure prediction by ZEFSAII (Michael W. Deem and Ramdas Pophale) SiO2 
 PCOD8076852
Probable space group: P 21/M
;
_chemical_formula_sum "Si O2"
_cell_formula_units_Z 24
_cell_length_a 14.037646
_cell_length_b 8.461995
_cell_length_c 17.280689
_cell_angle_alpha 90.000000
_cell_angle_beta 143.953686
_cell_angle_gamma 90.000000
_cell_volume 1207.896059
_symmetry_space_group_name_H-M "P 21/M"
_symmetry_group_IT_number 11
_symmetry_cell_setting 'monoclinic'
loop_
_space_group_symop_operation_xyz
x,y,z
-x,1/2+y,-z
-x,-y,-z
x,1/2-y,z
loop_
_atom_site_type_symbol
_atom_site_label
_atom_site_fract_x
_atom_site_fract_y
_atom_site_fract_z
Si Si1 0.538332 0.437391 0.781056
Si Si2 0.178382 0.063139 0.132894
Si Si3 0.060688 0.065931 0.619243
Si Si4 0.581818 0.936858 0.130274
Si Si5 0.678802 0.435946 0.617194
Si Si6 0.225441 0.433712 0.477447
O O1 0.561971 0.250000 0.789192
O O2 0.701068 0.523054 0.858791
O O3 0.508329 0.491635 0.849997
O O4 0.385797 0.492761 0.628200
O O5 0.175910 0.250000 0.145354
O O6 0.237678 0.971390 0.247155
O O7 0.000000 0.000000 0.000000
O O8 0.081855 0.250000 0.624323
O O9 0.236804 0.992683 0.752264
O O10 0.934111 0.025675 0.602232
O O11 0.000000 0.000000 0.500000
O O12 0.582087 0.750000 0.127959
O O13 0.500000 0.000000 0.000000
O O14 0.500000 0.500000 0.500000
O O15 0.680993 0.250000 0.601857
O O16 0.768790 0.530622 0.609201
O O17 0.200401 0.250000 0.477406
#
# Coordination Sequence:
#
# PCOD8076852 Si02
#       6
#     4   4   4   4   4   4
#     4  10  21  41  65  90 127 169 212 263 320 384
#     4  12  26  44  67  96 130 171 215 265 324 386
#     4  11  22  39  62  92 127 164 213 265 317 379
#     4  10  23  42  63  91 127 167 208 259 316 376
#     4  12  24  41  65  96 129 166 213 265 318 381
#     4  11  22  39  65  96 130 169 213 265 322 378
#
# _framework density 19.869260000000001
#
# number of rings (size 3 to 8) (size 9 to 14) (size 15 to 20)
#    0.000    1.000    3.333    4.000    0.000    4.000 
#    0.000    3.333    0.000    0.000    0.000    0.000 
#    0.000    0.000    0.000    0.000    0.000    0.000 
#
# Total GULP energy -297655.272508 kJ/mol
# GULP energy per Si atom -12402.303021 kJ/mol
# Density = 1.982404 g / cm^3
# Si number density = 19.869260 Si / 1000 Ang^3
#
#
#
# Elastic Constant Matrix: (Units=GPa)
#
#
# Indices 1 2 3 4 5 6 
#
# 1 150.8951 9.9551 70.2394 0.0000 4.7225 0.0000
# 2 9.9551 55.8140 23.1121 0.0000 4.8887 0.0000
# 3 70.2394 23.1121 152.6200 0.0000 6.4171 0.0000
# 4 0.0000 0.0000 0.0000 33.1500 0.0000 -0.5354
# 5 4.7225 4.8887 6.4171 0.0000 40.6051 0.0000
# 6 0.0000 0.0000 0.0000 -0.5354 0.0000 38.5069
#
#
#
# Elastic Compliance Matrix: (Units=1/GPa)
#
#
# Indices 1 2 3 4 5 6 
#
# 1 0.008440 0.000139 -0.003889 0.000000 -0.000384 0.000000
# 2 0.000139 0.019258 -0.002901 0.000000 -0.001876 0.000000
# 3 -0.003889 -0.002901 0.008806 0.000000 -0.000590 0.000000
# 4 0.000000 0.000000 0.000000 0.030173 0.000000 0.000420
# 5 -0.000384 -0.001876 -0.000590 0.000000 0.024991 0.000000
# 6 0.000000 0.000000 0.000000 0.000420 0.000000 0.025975
#
#
# Mechanical properties :
#
#
# Convention : Reuss Voigt Hill
#
# Bulk Modulus (GPa) = 43.10231 62.88246 52.99239
# Shear Modulus (GPa) = 36.05404 39.52058 37.78731
#
# Velocity S-wave (km/s) = 4.26439 4.46469 4.36569
# Velocity P-wave (km/s) = 6.78135 7.63510 7.22086
#
# Compressibility (1/GPa) = 0.02320061
#
# Stress axis : x y z
#
# Youngs Moduli (GPa) = 118.47764 51.92755 113.55435
#
# Poissons Ratio (x) = -0.00720 0.44165
# Poissons Ratio (y) = -0.01643 0.32945
# Poissons Ratio (z) = 0.46080 0.15065
#
# Static dielectric constant tensor:
#      x y z
#    x 3.685180 0.000000 -0.376660 
#    y 0.000000 3.581270 0.000000 
#    z -0.376660 0.000000 4.595600 
# 
# 
# High freq. dielectric constant tensor:
#      x y z
#    x 1.794310 0.000000 0.002690 
#    y 0.000000 1.777010 0.000000 
#    z 0.002690 0.000000 1.776540 
# 
# From -- ./inp_files/60188.got.cif
#   From: 2010.06.25/outbox.cif.g09.slc.cpg/sg11_31_cif.got.tgz:60188.got - 2010.06.27 23:14:04.
