data_PCOD8076581
_publ_section_title
;
Structure prediction by ZEFSAII (Michael W. Deem and Ramdas Pophale) SiO2 
 PCOD8076581
Probable space group: P 21/M
;
_chemical_formula_sum "Si O2"
_cell_formula_units_Z 32
_cell_length_a 15.479937
_cell_length_b 19.823779
_cell_length_c 15.428871
_cell_angle_alpha 90.000000
_cell_angle_beta 19.291961
_cell_angle_gamma 90.000000
_cell_volume 1564.249841
_symmetry_space_group_name_H-M "P 21/M"
_symmetry_group_IT_number 11
_symmetry_cell_setting 'monoclinic'
loop_
_space_group_symop_operation_xyz
x,y,z
-x,1/2+y,-z
-x,-y,-z
x,1/2-y,z
loop_
_atom_site_type_symbol
_atom_site_label
_atom_site_fract_x
_atom_site_fract_y
_atom_site_fract_z
Si Si1 0.732758 0.083777 0.279164
Si Si2 0.025643 0.965979 0.566205
Si Si3 0.429363 0.175171 0.824725
Si Si4 0.567328 0.330715 0.063108
Si Si5 0.189652 0.442243 0.717548
Si Si6 0.489293 0.121145 0.941218
Si Si7 0.096974 0.096616 0.608986
Si Si8 0.110793 0.670264 0.721638
O O1 0.434359 0.094074 0.531999
O O2 0.818239 0.151454 0.247353
O O3 0.761364 0.022435 0.320988
O O4 0.916426 0.075039 0.022003
O O5 0.280650 0.920850 0.320461
O O6 0.046532 0.022389 0.620009
O O7 0.000000 0.000000 0.500000
O O8 0.767982 0.922824 0.821848
O O9 0.419999 0.250000 0.795022
O O10 0.449992 0.181145 0.909530
O O11 0.675988 0.138491 0.546352
O O12 0.165291 0.136857 0.044888
O O13 0.552245 0.250000 0.087192
O O14 0.552309 0.350486 0.976031
O O15 0.837896 0.357690 0.846279
O O16 0.328321 0.365112 0.339614
O O17 0.175610 0.414312 0.633788
O O18 0.093814 0.750000 0.727689
#
# Coordination Sequence:
#
# PCOD8076581 Si02
#       8
#     4   4   4   4   4   4   4   4
#     4  10  21  42  62  92 118 158 201 248 323 373
#     4  12  23  41  61  94 126 159 198 262 306 360
#     4  10  22  37  57  91 127 160 203 243 289 370
#     4  12  25  44  65  87 128 174 213 257 301 353
#     4  10  23  40  64  88 123 154 202 261 304 377
#     4  12  23  39  63  91 125 168 207 246 303 364
#     4  12  25  43  65  95 127 160 211 257 314 363
#     4  10  21  39  61  89 125 159 199 253 307 373
#
# _framework density 20.457090999999998
#
# number of rings (size 3 to 8) (size 9 to 14) (size 15 to 20)
#    0.000    1.000    2.500    4.125    3.500    0.000 
#    0.000    7.500    0.000    0.000    0.000    0.000 
#    0.000    0.000    0.000    0.000    0.000    0.000 
#
# Total GULP energy -396702.869097 kJ/mol
# GULP energy per Si atom -12396.964659 kJ/mol
# Density = 2.041053 g / cm^3
# Si number density = 20.457091 Si / 1000 Ang^3
#
#
#
# Elastic Constant Matrix: (Units=GPa)
#
#
# Indices 1 2 3 4 5 6 
#
# 1 110.4352 27.4384 11.7260 0.0000 -2.4523 0.0000
# 2 27.4384 56.4529 27.3851 0.0000 -3.1839 0.0000
# 3 11.7260 27.3851 121.8383 0.0000 -20.2968 0.0000
# 4 0.0000 0.0000 0.0000 14.7477 0.0000 1.8779
# 5 -2.4523 -3.1839 -20.2968 0.0000 34.3596 0.0000
# 6 0.0000 0.0000 0.0000 1.8779 0.0000 31.8574
#
#
#
# Elastic Compliance Matrix: (Units=1/GPa)
#
#
# Indices 1 2 3 4 5 6 
#
# 1 0.010306 -0.005093 0.000218 0.000000 0.000393 0.000000
# 2 -0.005093 0.022423 -0.004730 0.000000 -0.001080 0.000000
# 3 0.000218 -0.004730 0.010181 0.000000 0.005591 0.000000
# 4 0.000000 0.000000 0.000000 0.068320 0.000000 -0.004027
# 5 0.000393 -0.001080 0.005591 0.000000 0.032335 0.000000
# 6 0.000000 0.000000 0.000000 -0.004027 0.000000 0.031627
#
#
# Mechanical properties :
#
#
# Convention : Reuss Voigt Hill
#
# Bulk Modulus (GPa) = 42.19163 46.86949 44.53056
# Shear Modulus (GPa) = 24.71568 31.00473 27.86021
#
# Velocity S-wave (km/s) = 3.47965 3.89729 3.69438
# Velocity P-wave (km/s) = 6.06738 6.57364 6.32558
#
# Compressibility (1/GPa) = 0.02370138
#
# Stress axis : x y z
#
# Youngs Moduli (GPa) = 97.03097 44.59784 98.22112
#
# Poissons Ratio (x) = 0.22713 -0.02143
# Poissons Ratio (y) = 0.49416 0.46454
# Poissons Ratio (z) = -0.02117 0.21093
#
# Static dielectric constant tensor:
#      x y z
#    x 3.721630 0.000000 -0.121810 
#    y 0.000000 3.568500 0.000000 
#    z -0.121810 0.000000 4.167710 
# 
# 
# High freq. dielectric constant tensor:
#      x y z
#    x 1.806560 0.000000 -0.005740 
#    y 0.000000 1.785890 0.000000 
#    z -0.005740 0.000000 1.827640 
# 
# From -- ./inp_files/52687.got.cif
#   From: 2010.06.25/outbox.cif.g09.slc.cpg/sg11_27_cif.got.tgz:52687.got - 2010.06.27 23:14:04.
