data_PCOD8076973
_publ_section_title
;
Structure prediction by ZEFSAII (Michael W. Deem and Ramdas Pophale) SiO2 
 PCOD8076973
Probable space group: P 21/M
;
_chemical_formula_sum "Si O2"
_cell_formula_units_Z 24
_cell_length_a 13.315827
_cell_length_b 12.967720
_cell_length_c 15.280395
_cell_angle_alpha 90.000000
_cell_angle_beta 150.625838
_cell_angle_gamma 90.000000
_cell_volume 1294.240375
_symmetry_space_group_name_H-M "P 21/M"
_symmetry_group_IT_number 11
_symmetry_cell_setting 'monoclinic'
loop_
_space_group_symop_operation_xyz
x,y,z
-x,1/2+y,-z
-x,-y,-z
x,1/2-y,z
loop_
_atom_site_type_symbol
_atom_site_label
_atom_site_fract_x
_atom_site_fract_y
_atom_site_fract_z
Si Si1 0.843491 0.867183 0.342456
Si Si2 0.293325 0.369186 0.452623
Si Si3 0.287462 0.940693 0.157554
Si Si4 0.027650 0.940694 0.657557
Si Si5 0.388081 0.869187 0.047379
Si Si6 0.841416 0.867184 0.842450
O O1 0.853698 0.750000 0.316356
O O2 0.611468 0.902278 0.184827
O O3 0.974828 0.877497 0.530317
O O4 0.933874 0.939306 0.335058
O O5 0.235907 0.250000 0.425073
O O6 0.530751 0.388098 0.650540
O O7 0.241822 0.402278 0.315180
O O8 0.158729 0.437845 0.415865
O O9 0.326997 0.937845 0.084133
O O10 0.263758 0.060693 0.164944
O O11 0.085800 0.877497 0.030310
O O12 0.229678 0.888101 0.849465
O O13 0.385760 0.750000 0.074926
O O14 0.779005 0.750000 0.816348
#
# Coordination Sequence:
#
# PCOD8076973 Si02
#       6
#     4   4   4   4   4   4
#     4  10  22  38  56  81 113 146 182 227 275 324
#     4  11  20  35  60  84 108 142 187 228 268 323
#     4  11  21  35  59  84 110 141 185 229 271 321
#     4  11  21  35  59  84 110 141 185 229 271 321
#     4  11  20  35  60  84 108 142 187 228 268 323
#     4  10  22  38  56  81 113 146 182 227 275 324
#
# _framework density 18.543695
#
# number of rings (size 3 to 8) (size 9 to 14) (size 15 to 20)
#    0.000    1.333    3.333    4.000    0.000    0.000 
#    0.000    1.667    0.000    0.000    0.000    0.000 
#    0.000    0.000    0.000    0.000    0.000    0.000 
#
# Total GULP energy -297747.341869 kJ/mol
# GULP energy per Si atom -12406.139245 kJ/mol
# Density = 1.850149 g / cm^3
# Si number density = 18.543695 Si / 1000 Ang^3
#
#
#
# Elastic Constant Matrix: (Units=GPa)
#
#
# Indices 1 2 3 4 5 6 
#
# 1 76.0433 44.6232 55.7663 0.0000 -1.4035 0.0000
# 2 44.6232 71.6158 29.7330 0.0000 1.0396 0.0000
# 3 55.7663 29.7330 126.7291 0.0000 -2.1382 0.0000
# 4 0.0000 0.0000 0.0000 21.9451 0.0000 0.8122
# 5 -1.4035 1.0396 -2.1382 0.0000 20.2377 0.0000
# 6 0.0000 0.0000 0.0000 0.8122 0.0000 33.5982
#
#
#
# Elastic Compliance Matrix: (Units=1/GPa)
#
#
# Indices 1 2 3 4 5 6 
#
# 1 0.027746 -0.013578 -0.008996 0.000000 0.001671 0.000000
# 2 -0.013578 0.022143 0.000746 0.000000 -0.002000 0.000000
# 3 -0.008996 0.000746 0.011684 0.000000 0.000572 0.000000
# 4 0.000000 0.000000 0.000000 0.045609 0.000000 -0.001103
# 5 0.001671 -0.002000 0.000572 0.000000 0.049692 0.000000
# 6 0.000000 0.000000 0.000000 -0.001103 0.000000 0.029790
#
#
# Mechanical properties :
#
#
# Convention : Reuss Voigt Hill
#
# Bulk Modulus (GPa) = 55.81018 59.40368 57.60693
# Shear Modulus (GPa) = 21.16038 24.77391 22.96715
#
# Velocity S-wave (km/s) = 3.38170 3.65906 3.52311
# Velocity P-wave (km/s) = 6.73867 7.06793 6.90527
#
# Compressibility (1/GPa) = 0.01791788
#
# Stress axis : x y z
#
# Youngs Moduli (GPa) = 36.04176 45.16127 85.58769
#
# Poissons Ratio (x) = 0.61318 0.76990
# Poissons Ratio (y) = 0.48936 -0.06384
# Poissons Ratio (z) = 0.32421 -0.03368
#
# Static dielectric constant tensor:
#      x y z
#    x 3.246210 0.000000 -0.028950 
#    y 0.000000 3.433070 0.000000 
#    z -0.028950 0.000000 3.660690 
# 
# 
# High freq. dielectric constant tensor:
#      x y z
#    x 1.703860 0.000000 -0.002810 
#    y 0.000000 1.711860 0.000000 
#    z -0.002810 0.000000 1.744110 
# 
# From -- ./inp_files/39517.got.cif
#   From: 2010.06.25/outbox.cif.g09.slc.cpg/sg11_20_cif.got.tgz:39517.got - 2010.06.27 23:14:04.
