data_PCOD8076898
_publ_section_title
;
Structure prediction by ZEFSAII (Michael W. Deem and Ramdas Pophale) SiO2 
 PCOD8076898
Probable space group: P 21/M
;
_chemical_formula_sum "Si O2"
_cell_formula_units_Z 28
_cell_length_a 9.344588
_cell_length_b 8.434983
_cell_length_c 27.193552
_cell_angle_alpha 90.000000
_cell_angle_beta 38.283819
_cell_angle_gamma 90.000000
_cell_volume 1327.980937
_symmetry_space_group_name_H-M "P 21/M"
_symmetry_group_IT_number 11
_symmetry_cell_setting 'monoclinic'
loop_
_space_group_symop_operation_xyz
x,y,z
-x,1/2+y,-z
-x,-y,-z
x,1/2-y,z
loop_
_atom_site_type_symbol
_atom_site_label
_atom_site_fract_x
_atom_site_fract_y
_atom_site_fract_z
Si Si1 0.290093 0.936918 0.026785
Si Si2 0.678663 0.065294 0.348418
Si Si3 0.061923 0.063045 0.626712
Si Si4 0.164160 0.063155 0.791825
Si Si5 0.747415 0.934327 0.066026
Si Si6 0.541920 0.061923 0.766261
Si Si7 0.185780 0.564227 0.488836
O O1 0.291365 0.750000 0.018418
O O2 0.050023 0.991291 0.116367
O O3 0.500000 0.000000 0.000000
O O4 0.349637 0.024917 0.960481
O O5 0.620447 0.250000 0.365346
O O6 0.795888 0.019199 0.368226
O O7 0.849788 0.024821 0.256924
O O8 0.445009 0.967558 0.400262
O O9 0.068734 0.250000 0.634183
O O10 0.801246 0.994147 0.695329
O O11 0.172648 0.024294 0.544449
O O12 0.150759 0.250000 0.785920
O O13 0.400361 0.012198 0.755731
O O14 0.758175 0.750000 0.073541
O O15 0.585672 0.010904 0.151650
O O16 0.000000 0.000000 0.000000
O O17 0.553608 0.250000 0.766181
O O18 0.143928 0.750000 0.506926
O O19 0.000000 0.500000 0.500000
#
# Coordination Sequence:
#
# PCOD8076898 Si02
#       7
#     4   4   4   4   4   4   4
#     4  11  24  41  62  90 126 169 215 267 325 383
#     4  12  26  43  64  96 133 169 212 264 316 372
#     4  11  23  42  68  97 129 170 212 260 317 375
#     4  10  21  42  65  88 123 169 215 263 322 386
#     4  11  21  39  63  92 124 167 215 265 320 380
#     4   9  20  39  64  90 121 162 211 258 317 382
#     4  12  25  45  71 100 131 168 211 257 312 376
#
# _framework density 21.084641000000001
#
# number of rings (size 3 to 8) (size 9 to 14) (size 15 to 20)
#    0.000    1.143    1.429    5.143    2.000    2.286 
#    0.000    2.857    0.000    0.000    0.000    0.000 
#    0.000    0.000    0.000    0.000    0.000    0.000 
#
# Total GULP energy -347239.293216 kJ/mol
# GULP energy per Si atom -12401.403329 kJ/mol
# Density = 2.103665 g / cm^3
# Si number density = 21.084641 Si / 1000 Ang^3
#
#
#
# Elastic Constant Matrix: (Units=GPa)
#
#
# Indices 1 2 3 4 5 6 
#
# 1 135.4232 17.1268 28.3713 0.0000 5.6037 0.0000
# 2 17.1268 55.9568 18.2569 0.0000 -2.5131 0.0000
# 3 28.3713 18.2569 92.0427 0.0000 9.5970 0.0000
# 4 0.0000 0.0000 0.0000 32.0032 0.0000 2.3419
# 5 5.6037 -2.5131 9.5970 0.0000 47.6016 0.0000
# 6 0.0000 0.0000 0.0000 2.3419 0.0000 37.3218
#
#
#
# Elastic Compliance Matrix: (Units=1/GPa)
#
#
# Indices 1 2 3 4 5 6 
#
# 1 0.008073 -0.001827 -0.002060 0.000000 -0.000631 0.000000
# 2 -0.001827 0.019675 -0.003545 0.000000 0.001968 0.000000
# 3 -0.002060 -0.003545 0.012459 0.000000 -0.002456 0.000000
# 4 0.000000 0.000000 0.000000 0.031391 0.000000 -0.001970
# 5 -0.000631 0.001968 -0.002456 0.000000 0.021681 0.000000
# 6 0.000000 0.000000 0.000000 -0.001970 0.000000 0.026918
#
#
# Mechanical properties :
#
#
# Convention : Reuss Voigt Hill
#
# Bulk Modulus (GPa) = 39.45866 45.65918 42.55892
# Shear Modulus (GPa) = 34.84118 38.02983 36.43551
#
# Velocity S-wave (km/s) = 4.06944 4.25158 4.16150
# Velocity P-wave (km/s) = 6.39026 6.76782 6.58175
#
# Compressibility (1/GPa) = 0.02534298
#
# Stress axis : x y z
#
# Youngs Moduli (GPa) = 123.86850 50.82576 80.26475
#
# Poissons Ratio (x) = 0.09286 0.16536
# Poissons Ratio (y) = 0.22632 0.28451
# Poissons Ratio (z) = 0.25519 0.18016
#
# Static dielectric constant tensor:
#      x y z
#    x 3.884620 0.000000 -0.153340 
#    y 0.000000 3.561030 0.000000 
#    z -0.153340 0.000000 3.868340 
# 
# 
# High freq. dielectric constant tensor:
#      x y z
#    x 1.842370 0.000000 0.004450 
#    y 0.000000 1.813460 0.000000 
#    z 0.004450 0.000000 1.841510 
# 
# From -- ./inp_files/70848.got.cif
#   From: 2010.06.25/outbox.cif.g09.slc.cpg/sg11_36_cif.got.tgz:70848.got - 2010.06.27 23:14:04.
