data_PCOD8076994
_publ_section_title
;
Structure prediction by ZEFSAII (Michael W. Deem and Ramdas Pophale) SiO2 
 PCOD8076994
Probable space group: P 21/M
;
_chemical_formula_sum "Si O2"
_cell_formula_units_Z 24
_cell_length_a 18.718523
_cell_length_b 8.764344
_cell_length_c 14.231491
_cell_angle_alpha 90.000000
_cell_angle_beta 31.365530
_cell_angle_gamma 90.000000
_cell_volume 1215.230932
_symmetry_space_group_name_H-M "P 21/M"
_symmetry_group_IT_number 11
_symmetry_cell_setting 'monoclinic'
loop_
_space_group_symop_operation_xyz
x,y,z
-x,1/2+y,-z
-x,-y,-z
x,1/2-y,z
loop_
_atom_site_type_symbol
_atom_site_label
_atom_site_fract_x
_atom_site_fract_y
_atom_site_fract_z
Si Si1 0.736772 0.070478 0.988612
Si Si2 0.149605 0.069555 0.326650
Si Si3 0.918664 0.069911 0.957747
Si Si4 0.816062 0.070589 0.273152
Si Si5 0.548587 0.426099 0.679628
Si Si6 0.626805 0.427024 0.804298
O O1 0.752659 0.250000 0.952655
O O2 0.836877 0.011919 0.958554
O O3 0.581627 0.032930 0.192524
O O4 0.772186 0.979257 0.855182
O O5 0.139568 0.250000 0.342218
O O6 0.233610 0.009826 0.321827
O O7 0.000000 0.000000 0.500000
O O8 0.927487 0.250000 0.947482
O O9 0.839336 0.012771 0.140490
O O10 0.072074 0.003939 0.783125
O O11 0.835314 0.250000 0.261011
O O12 0.663788 0.022363 0.475511
O O13 0.505631 0.250000 0.714314
O O14 0.611272 0.452838 0.711623
O O15 0.634951 0.250000 0.822400
O O16 0.500000 0.500000 0.000000
#
# Coordination Sequence:
#
# PCOD8076994 Si02
#       6
#     4   4   4   4   4   4
#     4  11  23  39  59  87 120 155 195 244 295 349
#     4  12  26  43  62  87 119 157 199 245 295 352
#     4   9  20  38  59  86 119 151 191 243 295 347
#     4   9  19  38  61  86 116 152 194 240 292 353
#     4  10  22  38  59  87 117 155 198 238 289 351
#     4  11  22  39  61  88 121 158 196 240 290 349
#
# _framework density 19.749331999999999
#
# number of rings (size 3 to 8) (size 9 to 14) (size 15 to 20)
#    0.000    1.667    1.667    2.500    2.333    3.333 
#    0.000    0.000    0.000    0.000    0.000    0.000 
#    0.000    0.000    0.000    0.000    0.000    0.000 
#
# Total GULP energy -297711.068163 kJ/mol
# GULP energy per Si atom -12404.627840 kJ/mol
# Density = 1.970438 g / cm^3
# Si number density = 19.749332 Si / 1000 Ang^3
#
#
#
# Elastic Constant Matrix: (Units=GPa)
#
#
# Indices 1 2 3 4 5 6 
#
# 1 76.3083 26.4284 7.1205 0.0000 -18.2898 0.0000
# 2 26.4284 78.5370 16.3413 0.0000 -9.4822 0.0000
# 3 7.1205 16.3413 83.4901 0.0000 -13.0239 0.0000
# 4 0.0000 0.0000 0.0000 36.7607 0.0000 -7.1751
# 5 -18.2898 -9.4822 -13.0239 0.0000 33.7779 0.0000
# 6 0.0000 0.0000 0.0000 -7.1751 0.0000 28.3267
#
#
#
# Elastic Compliance Matrix: (Units=1/GPa)
#
#
# Indices 1 2 3 4 5 6 
#
# 1 0.016592 -0.004783 0.000759 0.000000 0.007934 0.000000
# 2 -0.004783 0.014925 -0.002409 0.000000 0.000671 0.000000
# 3 0.000759 -0.002409 0.013133 0.000000 0.004798 0.000000
# 4 0.000000 0.000000 0.000000 0.028618 0.000000 0.007249
# 5 0.007934 0.000671 0.004798 0.000000 0.035940 0.000000
# 6 0.000000 0.000000 0.000000 0.007249 0.000000 0.037139
#
#
# Mechanical properties :
#
#
# Convention : Reuss Voigt Hill
#
# Bulk Modulus (GPa) = 31.46304 37.56842 34.51573
# Shear Modulus (GPa) = 29.44533 32.33608 30.89070
#
# Velocity S-wave (km/s) = 3.86548 4.05078 3.95921
# Velocity P-wave (km/s) = 5.99068 6.39862 6.19801
#
# Compressibility (1/GPa) = 0.03178333
#
# Stress axis : x y z
#
# Youngs Moduli (GPa) = 60.26912 67.00323 76.14594
#
# Poissons Ratio (x) = 0.32050 -0.05778
# Poissons Ratio (y) = 0.28829 0.18340
# Poissons Ratio (z) = -0.04573 0.16138
#
# Static dielectric constant tensor:
#      x y z
#    x 4.475680 0.000000 0.470070 
#    y 0.000000 3.565000 0.000000 
#    z 0.470070 0.000000 4.039950 
# 
# 
# High freq. dielectric constant tensor:
#      x y z
#    x 1.775600 0.000000 -0.003890 
#    y 0.000000 1.769670 0.000000 
#    z -0.003890 0.000000 1.777900 
# 
# From -- ./inp_files/20303.got.cif
#   From: 2010.06.25/outbox.cif.g09.slc.cpg/sg11_11_cif.got.tgz:20303.got - 2010.06.27 23:14:04.
