data_PCOD8076386
_publ_section_title
;
Structure prediction by ZEFSAII (Michael W. Deem and Ramdas Pophale) SiO2 
 PCOD8076386
Probable space group: P 21/M
;
_chemical_formula_sum "Si O2"
_cell_formula_units_Z 32
_cell_length_a 15.955381
_cell_length_b 8.905128
_cell_length_c 23.941566
_cell_angle_alpha 90.000000
_cell_angle_beta 27.897491
_cell_angle_gamma 90.000000
_cell_volume 1591.639455
_symmetry_space_group_name_H-M "P 21/M"
_symmetry_group_IT_number 11
_symmetry_cell_setting 'monoclinic'
loop_
_space_group_symop_operation_xyz
x,y,z
-x,1/2+y,-z
-x,-y,-z
x,1/2-y,z
loop_
_atom_site_type_symbol
_atom_site_label
_atom_site_fract_x
_atom_site_fract_y
_atom_site_fract_z
Si Si1 0.685363 0.922245 0.376878
Si Si2 0.950622 0.928168 0.803545
Si Si3 0.862598 0.075367 0.654880
Si Si4 0.828907 0.422677 0.983460
Si Si5 0.427614 0.578007 0.769202
Si Si6 0.312726 0.572953 0.127226
Si Si7 0.802587 0.581609 0.182922
Si Si8 0.215943 0.925823 0.422777
O O1 0.684988 0.750000 0.397630
O O2 0.703499 0.932660 0.300076
O O3 0.500000 0.000000 0.500000
O O4 0.848942 0.006725 0.311110
O O5 0.958958 0.750000 0.792118
O O6 0.834641 0.969462 0.926700
O O7 0.851191 0.999364 0.809333
O O8 0.907007 0.250000 0.626369
O O9 0.721974 0.039094 0.786826
O O10 0.783345 0.019495 0.642283
O O11 0.050485 0.992641 0.554918
O O12 0.848572 0.250000 0.951238
O O13 0.989749 0.460372 0.931249
O O14 0.645983 0.450402 0.124777
O O15 0.479835 0.750000 0.730293
O O16 0.278239 0.536772 0.812148
O O17 0.602155 0.479313 0.655552
O O18 0.320227 0.750000 0.110470
O O19 0.500000 0.500000 0.000000
O O20 0.781317 0.750000 0.171359
O O21 0.203800 0.750000 0.435000
#
# Coordination Sequence:
#
# PCOD8076386 Si02
#       8
#     4   4   4   4   4   4   4   4
#     4  10  21  39  62  87 117 155 198 245 297 354
#     4  11  23  39  60  88 119 157 201 244 300 360
#     4   9  21  42  63  84 115 151 192 242 294 349
#     4   9  20  38  57  81 116 155 193 239 290 343
#     4  11  22  34  55  86 116 150 193 236 288 347
#     4  11  24  42  64  92 124 158 202 253 305 362
#     4   9  19  36  55  79 114 150 189 237 287 339
#     4  10  21  38  61  87 115 151 194 240 294 350
#
# _framework density 20.105053999999999
#
# number of rings (size 3 to 8) (size 9 to 14) (size 15 to 20)
#    0.000    2.000    0.000    3.750    1.750    6.000 
#    0.000    0.000    0.000    0.000    0.000    0.000 
#    0.000    0.000    0.000    0.000    0.000    0.000 
#
# Total GULP energy -396887.365744 kJ/mol
# GULP energy per Si atom -12402.730180 kJ/mol
# Density = 2.005929 g / cm^3
# Si number density = 20.105054 Si / 1000 Ang^3
#
#
#
# Elastic Constant Matrix: (Units=GPa)
#
#
# Indices 1 2 3 4 5 6 
#
# 1 61.8588 34.7364 19.6197 0.0000 -0.0619 0.0000
# 2 34.7364 100.8659 50.9293 0.0000 3.0895 0.0000
# 3 19.6197 50.9293 100.4076 0.0000 0.1858 0.0000
# 4 0.0000 0.0000 0.0000 35.8024 0.0000 -2.9799
# 5 -0.0619 3.0895 0.1858 0.0000 18.8041 0.0000
# 6 0.0000 0.0000 0.0000 -2.9799 0.0000 33.8432
#
#
#
# Elastic Compliance Matrix: (Units=1/GPa)
#
#
# Indices 1 2 3 4 5 6 
#
# 1 0.020090 -0.006683 -0.000538 0.000000 0.001169 0.000000
# 2 -0.006683 0.015636 -0.006620 0.000000 -0.002526 0.000000
# 3 -0.000538 -0.006620 0.013421 0.000000 0.000953 0.000000
# 4 0.000000 0.000000 0.000000 0.028137 0.000000 0.002477
# 5 0.001169 -0.002526 0.000953 0.000000 0.053589 0.000000
# 6 0.000000 0.000000 0.000000 0.002477 0.000000 0.029766
#
#
# Mechanical properties :
#
#
# Convention : Reuss Voigt Hill
#
# Bulk Modulus (GPa) = 46.58907 52.63369 49.61138
# Shear Modulus (GPa) = 25.57847 28.21309 26.89578
#
# Velocity S-wave (km/s) = 3.57072 3.75011 3.66151
# Velocity P-wave (km/s) = 6.34217 6.70725 6.52727
#
# Compressibility (1/GPa) = 0.02146426
#
# Stress axis : x y z
#
# Youngs Moduli (GPa) = 49.77502 63.95620 74.51131
#
# Poissons Ratio (x) = 0.42741 0.04010
# Poissons Ratio (y) = 0.33264 0.49329
# Poissons Ratio (z) = 0.02678 0.42341
#
# Static dielectric constant tensor:
#      x y z
#    x 3.621420 0.000000 0.033220 
#    y 0.000000 3.653890 0.000000 
#    z 0.033220 0.000000 3.673370 
# 
# 
# High freq. dielectric constant tensor:
#      x y z
#    x 1.777780 0.000000 -0.002540 
#    y 0.000000 1.790270 0.000000 
#    z -0.002540 0.000000 1.790450 
# 
# From -- ./inp_files/68997.got.cif
#   From: 2010.06.25/outbox.cif.g09.slc.cpg/sg11_35_cif.got.tgz:68997.got - 2010.06.27 23:14:04.
