data_PCOD8076929
_publ_section_title
;
Structure prediction by ZEFSAII (Michael W. Deem and Ramdas Pophale) SiO2 
 PCOD8076929
Probable space group: P 21/M
;
_chemical_formula_sum "Si O2"
_cell_formula_units_Z 32
_cell_length_a 21.814362
_cell_length_b 9.308292
_cell_length_c 11.172703
_cell_angle_alpha 90.000000
_cell_angle_beta 128.062800
_cell_angle_gamma 90.000000
_cell_volume 1786.202069
_symmetry_space_group_name_H-M "P 21/M"
_symmetry_group_IT_number 11
_symmetry_cell_setting 'monoclinic'
loop_
_space_group_symop_operation_xyz
x,y,z
-x,1/2+y,-z
-x,-y,-z
x,1/2-y,z
loop_
_atom_site_type_symbol
_atom_site_label
_atom_site_fract_x
_atom_site_fract_y
_atom_site_fract_z
Si Si1 0.526832 0.583562 0.148614
Si Si2 0.177084 0.918256 0.487041
Si Si3 0.192806 0.579922 0.233541
Si Si4 0.884144 0.588698 0.049481
Si Si5 0.285986 0.088830 0.174946
Si Si6 0.685376 0.586696 0.237450
Si Si7 0.598619 0.581152 0.889686
Si Si8 0.010654 0.580594 0.389536
O O1 0.502030 0.750000 0.110584
O O2 0.620740 0.569380 0.265748
O O3 0.482941 0.507595 0.207644
O O4 0.500000 0.500000 0.000000
O O5 0.189795 0.750000 0.511068
O O6 0.186775 0.970922 0.362695
O O7 0.092497 0.963920 0.430822
O O8 0.240942 0.989012 0.648386
O O9 0.191635 0.750000 0.218099
O O10 0.273668 0.515972 0.274854
O O11 0.118630 0.512494 0.072472
O O12 0.910406 0.750000 0.043596
O O13 0.943304 0.526190 0.218480
O O14 0.796045 0.591688 0.997918
O O15 0.305570 0.250000 0.244002
O O16 0.354316 0.032101 0.171424
O O17 0.714453 0.750000 0.265776
O O18 0.649120 0.540013 0.066755
O O19 0.579839 0.750000 0.865878
O O20 0.004117 0.750000 0.404346
O O21 0.000000 0.500000 0.500000
#
# Coordination Sequence:
#
# PCOD8076929 Si02
#       8
#     4   4   4   4   4   4   4   4
#     4   9  17  30  47  72 102 132 166 203 243 292
#     4  10  22  36  50  72 101 133 165 206 252 290
#     4   9  18  33  51  72  98 127 167 212 248 287
#     4   8  17  34  53  70  96 132 163 202 248 288
#     4   8  16  31  51  74  99 129 163 202 247 293
#     4   9  19  32  49  73 102 134 167 199 238 298
#     4   9  17  30  50  76 103 130 163 203 249 296
#     4  10  22  38  53  74 104 133 164 202 247 297
#
# _framework density 17.915106000000002
#
# number of rings (size 3 to 8) (size 9 to 14) (size 15 to 20)
#    0.750    2.250    0.000    1.125    1.750    5.500 
#    0.000    0.000    0.000    0.750    0.000    0.000 
#    0.000    0.000    0.000    0.000    0.000    0.000 
#
# Total GULP energy -396505.156951 kJ/mol
# GULP energy per Si atom -12390.786155 kJ/mol
# Density = 1.787433 g / cm^3
# Si number density = 17.915106 Si / 1000 Ang^3
#
#
#
# Elastic Constant Matrix: (Units=GPa)
#
#
# Indices 1 2 3 4 5 6 
#
# 1 107.8291 34.9354 3.6928 0.0000 -15.2452 0.0000
# 2 34.9354 55.3345 10.8185 0.0000 -7.9938 0.0000
# 3 3.6928 10.8185 14.8448 0.0000 -12.0291 0.0000
# 4 0.0000 0.0000 0.0000 26.5973 0.0000 2.4108
# 5 -15.2452 -7.9938 -12.0291 0.0000 23.4437 0.0000
# 6 0.0000 0.0000 0.0000 2.4108 0.0000 29.5425
#
#
#
# Elastic Compliance Matrix: (Units=1/GPa)
#
#
# Indices 1 2 3 4 5 6 
#
# 1 0.013686 -0.009508 0.013881 0.000000 0.012780 0.000000
# 2 -0.009508 0.027700 -0.025981 0.000000 -0.010069 0.000000
# 3 0.013881 -0.025981 0.142038 0.000000 0.073048 0.000000
# 4 0.000000 0.000000 0.000000 0.037878 0.000000 -0.003091
# 5 0.012780 -0.010069 0.073048 0.000000 0.085015 0.000000
# 6 0.000000 0.000000 0.000000 -0.003091 0.000000 0.034102
#
#
# Mechanical properties :
#
#
# Convention : Reuss Voigt Hill
#
# Bulk Modulus (GPa) = 7.13230 30.76687 18.94959
# Shear Modulus (GPa) = 11.61790 24.48747 18.05269
#
# Velocity S-wave (km/s) = 2.54932 3.70112 3.17784
# Velocity P-wave (km/s) = 3.55742 5.95612 4.90564
#
# Compressibility (1/GPa) = 0.14020727
#
# Stress axis : x y z
#
# Youngs Moduli (GPa) = 73.06727 36.10121 7.04037
#
# Poissons Ratio (x) = 0.34326 -0.09773
# Poissons Ratio (y) = 0.69474 0.18292
# Poissons Ratio (z) = -1.01424 0.93794
#
# Static dielectric constant tensor:
#      x y z
#    x 3.553800 0.000000 0.091760 
#    y 0.000000 3.278690 0.000000 
#    z 0.091760 0.000000 3.014400 
# 
# 
# High freq. dielectric constant tensor:
#      x y z
#    x 1.696120 0.000000 0.003710 
#    y 0.000000 1.691400 0.000000 
#    z 0.003710 0.000000 1.659820 
# 
# From -- ./inp_files/43829.got.cif
#   From: 2010.06.25/outbox.cif.g09.slc.cpg/sg11_22_cif.got.tgz:43829.got - 2010.06.27 23:14:04.
