data_PCOD8076839
_publ_section_title
;
Structure prediction by ZEFSAII (Michael W. Deem and Ramdas Pophale) SiO2 
 PCOD8076839
Probable space group: P 21/M
;
_chemical_formula_sum "Si O2"
_cell_formula_units_Z 32
_cell_length_a 11.725693
_cell_length_b 13.552387
_cell_length_c 9.659993
_cell_angle_alpha 90.000000
_cell_angle_beta 90.539335
_cell_angle_gamma 90.000000
_cell_volume 1535.012388
_symmetry_space_group_name_H-M "P 21/M"
_symmetry_group_IT_number 11
_symmetry_cell_setting 'monoclinic'
loop_
_space_group_symop_operation_xyz
x,y,z
-x,1/2+y,-z
-x,-y,-z
x,1/2-y,z
loop_
_atom_site_type_symbol
_atom_site_label
_atom_site_fract_x
_atom_site_fract_y
_atom_site_fract_z
Si Si1 0.581666 0.528330 0.798869
Si Si2 0.706772 0.637752 0.560979
Si Si3 0.036631 0.089350 0.405102
Si Si4 0.255052 0.633315 0.241273
Si Si5 0.662299 0.519893 0.299308
Si Si6 0.798156 0.356252 0.445912
Si Si7 0.296671 0.132503 0.973843
Si Si8 0.902649 0.980190 0.890369
O O1 0.670577 0.586722 0.702731
O O2 0.622194 0.413594 0.798414
O O3 0.453294 0.535335 0.745560
O O4 0.594557 0.580105 0.949576
O O5 0.665902 0.750000 0.565450
O O6 0.843342 0.633149 0.541786
O O7 0.640627 0.586064 0.434045
O O8 0.932348 0.164941 0.423825
O O9 0.039705 0.060890 0.245688
O O10 0.000000 0.000000 0.500000
O O11 0.257180 0.750000 0.215995
O O12 0.226150 0.603774 0.399411
O O13 0.161406 0.583582 0.140551
O O14 0.752450 0.433888 0.333434
O O15 0.710794 0.590671 0.181252
O O16 0.736452 0.250000 0.426884
O O17 0.311482 0.250000 0.971447
O O18 0.181915 0.103272 0.052207
O O19 0.000000 0.000000 0.000000
#
# Coordination Sequence:
#
# PCOD8076839 Si02
#       8
#     4   4   4   4   4   4   4   4
#     4  11  23  45  66  95 129 174 218 273 326 387
#     4  12  24  40  68  99 131 171 221 272 328 388
#     4  12  20  42  65  92 133 169 214 265 326 383
#     4  10  21  41  63  92 130 173 214 262 328 389
#     4  12  24  44  65  99 132 168 220 279 325 378
#     4  11  23  39  65  98 131 170 213 265 328 388
#     4  11  25  45  66  93 133 177 220 265 329 394
#     4  11  23  40  64  94 130 172 215 270 318 384
#
# _framework density 20.846737000000001
#
# number of rings (size 3 to 8) (size 9 to 14) (size 15 to 20)
#    0.000    0.750    6.250    2.625    0.000    3.000 
#    0.000    5.000    0.000    0.000    0.000    0.000 
#    0.000    0.000    0.000    0.000    0.000    0.000 
#
# Total GULP energy -396834.233732 kJ/mol
# GULP energy per Si atom -12401.069804 kJ/mol
# Density = 2.079929 g / cm^3
# Si number density = 20.846737 Si / 1000 Ang^3
#
#
#
# Elastic Constant Matrix: (Units=GPa)
#
#
# Indices 1 2 3 4 5 6 
#
# 1 85.7140 28.7415 13.0419 0.0000 17.9871 0.0000
# 2 28.7415 128.9373 35.2372 0.0000 10.2383 0.0000
# 3 13.0419 35.2372 97.2010 0.0000 15.8387 0.0000
# 4 0.0000 0.0000 0.0000 30.2815 0.0000 2.2738
# 5 17.9871 10.2383 15.8387 0.0000 36.0909 0.0000
# 6 0.0000 0.0000 0.0000 2.2738 0.0000 16.3700
#
#
#
# Elastic Compliance Matrix: (Units=1/GPa)
#
#
# Indices 1 2 3 4 5 6 
#
# 1 0.013829 -0.002619 0.000103 0.000000 -0.006195 0.000000
# 2 -0.002619 0.009150 -0.002967 0.000000 0.000012 0.000000
# 3 0.000103 -0.002967 0.012085 0.000000 -0.004513 0.000000
# 4 0.000000 0.000000 0.000000 0.033372 0.000000 -0.004635
# 5 -0.006195 0.000012 -0.004513 0.000000 0.032772 0.000000
# 6 0.000000 0.000000 0.000000 -0.004635 0.000000 0.061731
#
#
# Mechanical properties :
#
#
# Convention : Reuss Voigt Hill
#
# Bulk Modulus (GPa) = 41.49772 51.76595 46.63184
# Shear Modulus (GPa) = 27.48190 32.20392 29.84291
#
# Velocity S-wave (km/s) = 3.63476 3.93465 3.78767
# Velocity P-wave (km/s) = 6.12900 6.74741 6.44562
#
# Compressibility (1/GPa) = 0.02409771
#
# Stress axis : x y z
#
# Youngs Moduli (GPa) = 72.31108 109.29523 82.74513
#
# Poissons Ratio (x) = 0.28625 -0.00855
# Poissons Ratio (y) = 0.18938 0.24554
# Poissons Ratio (z) = -0.00747 0.32433
#
# Static dielectric constant tensor:
#      x y z
#    x 3.926830 0.000000 -0.070700 
#    y 0.000000 3.850490 0.000000 
#    z -0.070700 0.000000 4.174290 
# 
# 
# High freq. dielectric constant tensor:
#      x y z
#    x 1.813420 0.000000 0.001090 
#    y 0.000000 1.821070 0.000000 
#    z 0.001090 0.000000 1.823640 
# 
# From -- ./inp_files/18090.got.cif
#   From: 2010.06.25/outbox.cif.g09.slc.cpg/sg11_10_cif.got.tgz:18090.got - 2010.06.27 23:14:04.
