data_PCOD8076558
_publ_section_title
;
Structure prediction by ZEFSAII (Michael W. Deem and Ramdas Pophale) SiO2 
 PCOD8076558
Probable space group: P 21/M
;
_chemical_formula_sum "Si O2"
_cell_formula_units_Z 28
_cell_length_a 28.705180
_cell_length_b 8.860461
_cell_length_c 8.900255
_cell_angle_alpha 90.000000
_cell_angle_beta 38.834494
_cell_angle_gamma 90.000000
_cell_volume 1419.505453
_symmetry_space_group_name_H-M "P 21/M"
_symmetry_group_IT_number 11
_symmetry_cell_setting 'monoclinic'
loop_
_space_group_symop_operation_xyz
x,y,z
-x,1/2+y,-z
-x,-y,-z
x,1/2-y,z
loop_
_atom_site_type_symbol
_atom_site_label
_atom_site_fract_x
_atom_site_fract_y
_atom_site_fract_z
Si Si1 0.065699 0.574335 0.927103
Si Si2 0.355348 0.572039 0.532707
Si Si3 0.931024 0.928782 0.757893
Si Si4 0.502829 0.928231 0.330303
Si Si5 0.639590 0.073564 0.822282
Si Si6 0.787299 0.077665 0.632082
Si Si7 0.216830 0.073479 0.042712
O O1 0.048445 0.750000 0.997290
O O2 0.141262 0.549143 0.648223
O O3 0.073680 0.490986 0.063667
O O4 0.000000 0.500000 0.000000
O O5 0.347996 0.750000 0.559822
O O6 0.431726 0.515531 0.415087
O O7 0.353301 0.516534 0.366303
O O8 0.287462 0.505360 0.794372
O O9 0.940705 0.750000 0.737229
O O10 0.856870 0.979738 0.858120
O O11 0.000000 0.000000 0.500000
O O12 0.502960 0.750000 0.348103
O O13 0.500000 0.000000 0.500000
O O14 0.576010 0.978714 0.060841
O O15 0.619390 0.250000 0.880987
O O16 0.716266 0.036463 0.711335
O O17 0.783449 0.250000 0.698573
O O18 0.791010 0.968544 0.764087
O O19 0.228527 0.250000 0.998592
#
# Coordination Sequence:
#
# PCOD8076558 Si02
#       7
#     4   4   4   4   4   4   4
#     4  11  23  40  63  90 120 157 198 243 294 350
#     4  10  22  40  61  84 115 154 194 235 288 352
#     4  11  24  41  61  88 120 156 198 244 294 351
#     4  11  23  38  58  86 117 152 192 237 288 344
#     4  10  21  39  61  85 113 149 193 239 286 343
#     4  10  22  39  60  85 115 153 194 235 289 352
#     4  11  24  39  59  88 119 151 193 243 290 338
#
# _framework density 19.725180999999999
#
# number of rings (size 3 to 8) (size 9 to 14) (size 15 to 20)
#    0.000    1.429    0.000    4.714    0.000   12.571 
#    0.000    0.000    0.000    0.000    0.000    0.000 
#    0.000    0.000    0.000    0.000    0.000    0.000 
#
# Total GULP energy -347371.254712 kJ/mol
# GULP energy per Si atom -12406.116240 kJ/mol
# Density = 1.968029 g / cm^3
# Si number density = 19.725181 Si / 1000 Ang^3
#
#
#
# Elastic Constant Matrix: (Units=GPa)
#
#
# Indices 1 2 3 4 5 6 
#
# 1 175.6646 45.4361 69.6615 0.0000 -4.2810 0.0000
# 2 45.4361 49.3918 39.0579 0.0000 -7.1114 0.0000
# 3 69.6615 39.0579 125.8175 0.0000 -13.6845 0.0000
# 4 0.0000 0.0000 0.0000 38.7248 0.0000 2.8688
# 5 -4.2810 -7.1114 -13.6845 0.0000 43.8272 0.0000
# 6 0.0000 0.0000 0.0000 2.8688 0.0000 34.3022
#
#
#
# Elastic Compliance Matrix: (Units=1/GPa)
#
#
# Indices 1 2 3 4 5 6 
#
# 1 0.008247 -0.005346 -0.003016 0.000000 -0.001004 0.000000
# 2 -0.005346 0.030439 -0.006220 0.000000 0.002475 0.000000
# 3 -0.003016 -0.006220 0.011808 0.000000 0.002383 0.000000
# 4 0.000000 0.000000 0.000000 0.025984 0.000000 -0.002173
# 5 -0.001004 0.002475 0.002383 0.000000 0.023864 0.000000
# 6 0.000000 0.000000 0.000000 -0.002173 0.000000 0.029334
#
#
# Mechanical properties :
#
#
# Convention : Reuss Voigt Hill
#
# Bulk Modulus (GPa) = 46.88204 73.24278 60.06241
# Shear Modulus (GPa) = 30.12932 36.48538 33.30735
#
# Velocity S-wave (km/s) = 3.91251 4.30546 4.11368
# Velocity P-wave (km/s) = 6.65052 7.86945 7.28552
#
# Compressibility (1/GPa) = 0.02133013
#
# Stress axis : x y z
#
# Youngs Moduli (GPa) = 121.25806 32.85209 84.68996
#
# Poissons Ratio (x) = 0.17564 0.25539
# Poissons Ratio (y) = 0.64828 0.52679
# Poissons Ratio (z) = 0.36566 0.20435
#
# Static dielectric constant tensor:
#      x y z
#    x 3.954910 0.000000 -0.150930 
#    y 0.000000 3.628320 0.000000 
#    z -0.150930 0.000000 3.524760 
# 
# 
# High freq. dielectric constant tensor:
#      x y z
#    x 1.791620 0.000000 -0.001040 
#    y 0.000000 1.771210 0.000000 
#    z -0.001040 0.000000 1.788300 
# 
# From -- ./inp_files/28370.got.cif
#   From: 2010.06.25/outbox.cif.g09.slc.cpg/sg11_15_cif.got.tgz:28370.got - 2010.06.27 23:14:04.
