data_PCOD8076384
_publ_section_title
;
Structure prediction by ZEFSAII (Michael W. Deem and Ramdas Pophale) SiO2 
 PCOD8076384
Probable space group: P 21/M
;
_chemical_formula_sum "Si O2"
_cell_formula_units_Z 32
_cell_length_a 16.640087
_cell_length_b 18.056369
_cell_length_c 12.457047
_cell_angle_alpha 90.000000
_cell_angle_beta 154.272381
_cell_angle_gamma 90.000000
_cell_volume 1624.741567
_symmetry_space_group_name_H-M "P 21/M"
_symmetry_group_IT_number 11
_symmetry_cell_setting 'monoclinic'
loop_
_space_group_symop_operation_xyz
x,y,z
-x,1/2+y,-z
-x,-y,-z
x,1/2-y,z
loop_
_atom_site_type_symbol
_atom_site_label
_atom_site_fract_x
_atom_site_fract_y
_atom_site_fract_z
Si Si1 0.374724 0.911189 0.115561
Si Si2 0.133839 0.333376 0.656338
Si Si3 0.634108 0.585777 0.895029
Si Si4 0.746017 0.835464 0.621200
Si Si5 0.713714 0.166766 0.202553
Si Si6 0.119347 0.164527 0.978967
Si Si7 0.995373 0.336770 0.260810
Si Si8 0.294074 0.836449 0.565039
O O1 0.559614 0.882715 0.394788
O O2 0.369233 0.998499 0.116562
O O3 0.375723 0.887971 0.991612
O O4 0.198956 0.879201 0.967812
O O5 0.213264 0.250000 0.764705
O O6 0.120239 0.355491 0.515059
O O7 0.934563 0.338986 0.471651
O O8 0.267380 0.390257 0.876088
O O9 0.425858 0.617292 0.644955
O O10 0.735318 0.617090 0.912772
O O11 0.694946 0.750000 0.539136
O O12 0.890648 0.863392 0.705309
O O13 0.844866 0.847480 0.852973
O O14 0.654248 0.250000 0.098278
O O15 0.643614 0.147352 0.237205
O O16 0.141637 0.250000 0.971323
O O17 0.913838 0.135865 0.705870
O O18 0.947696 0.250000 0.200544
O O19 0.311311 0.750000 0.557822
#
# Coordination Sequence:
#
# PCOD8076384 Si02
#       8
#     4   4   4   4   4   4   4   4
#     4  11  24  38  56  92 129 159 187 237 303 365
#     4   9  17  35  59  84 117 153 197 246 291 347
#     4  12  24  36  57  92 127 162 189 232 303 371
#     4  10  22  42  67  87 111 153 207 254 289 342
#     4   9  18  36  61  84 117 156 198 252 293 337
#     4  10  22  43  65  86 114 152 206 258 289 335
#     4   9  20  39  63  88 113 153 204 249 294 341
#     4  10  21  38  61  87 114 153 204 251 294 341
#
# _framework density 19.695439
#
# number of rings (size 3 to 8) (size 9 to 14) (size 15 to 20)
#    0.000    2.000    1.250    3.000    1.750    5.000 
#    0.000    3.750    0.000    0.000    0.000    0.000 
#    0.000    0.000    0.000    0.000    0.000    0.000 
#
# Total GULP energy -396918.184689 kJ/mol
# GULP energy per Si atom -12403.693272 kJ/mol
# Density = 1.965061 g / cm^3
# Si number density = 19.695439 Si / 1000 Ang^3
#
#
#
# Elastic Constant Matrix: (Units=GPa)
#
#
# Indices 1 2 3 4 5 6 
#
# 1 129.3613 55.1950 48.2526 0.0000 10.4939 0.0000
# 2 55.1950 97.4015 38.9152 0.0000 7.7165 0.0000
# 3 48.2526 38.9152 67.5681 0.0000 2.0616 0.0000
# 4 0.0000 0.0000 0.0000 -0.1387 0.0000 1.7506
# 5 10.4939 7.7165 2.0616 0.0000 24.3051 0.0000
# 6 0.0000 0.0000 0.0000 1.7506 0.0000 9.6206
#
#
#
# Elastic Compliance Matrix: (Units=1/GPa)
#
#
# Indices 1 2 3 4 5 6 
#
# 1 0.012044 -0.004108 -0.006132 0.000000 -0.003376 0.000000
# 2 -0.004108 0.015056 -0.005661 0.000000 -0.002527 0.000000
# 3 -0.006132 -0.005661 0.022362 0.000000 0.002548 0.000000
# 4 0.000000 0.000000 0.000000 -2.187029 0.000000 0.397966
# 5 -0.003376 -0.002527 0.002548 0.000000 0.043187 0.000000
# 6 0.000000 0.000000 0.000000 0.397966 0.000000 0.031527
#
#
# Mechanical properties :
#
#
# Convention : Reuss Voigt Hill
#
# Bulk Modulus (GPa) = 56.62427 64.33962 60.48194
# Shear Modulus (GPa) = -2.46894 16.88861 7.20984
#
# Velocity S-wave (km/s) = -1.12084 2.93147 1.91536
# Velocity P-wave (km/s) = 5.20935 6.64802 5.97216
#
# Compressibility (1/GPa) = 0.01766027
#
# Stress axis : x y z
#
# Youngs Moduli (GPa) = 83.02781 66.41676 44.71874
#
# Poissons Ratio (x) = 0.27281 0.27423
# Poissons Ratio (y) = 0.34104 0.25316
# Poissons Ratio (z) = 0.50916 0.37600
#
# Static dielectric constant tensor:
#      x y z
#    x 3.666890 0.000000 0.054580 
#    y 0.000000 3.361530 0.000000 
#    z 0.054580 0.000000 3.538110 
# 
# 
# High freq. dielectric constant tensor:
#      x y z
#    x 1.774690 0.000000 0.005940 
#    y 0.000000 1.745310 0.000000 
#    z 0.005940 0.000000 1.768450 
# 
# From -- ./inp_files/40036.got.cif
#   From: 2010.06.25/outbox.cif.g09.slc.cpg/sg11_21_cif.got.tgz:40036.got - 2010.06.27 23:14:04.
