data_PCOD8076532
_publ_section_title
;
Structure prediction by ZEFSAII (Michael W. Deem and Ramdas Pophale) SiO2 
 PCOD8076532
Probable space group: P 21/M
;
_chemical_formula_sum "Si O2"
_cell_formula_units_Z 20
_cell_length_a 18.601933
_cell_length_b 8.868977
_cell_length_c 13.665442
_cell_angle_alpha 90.000000
_cell_angle_beta 153.042502
_cell_angle_gamma 90.000000
_cell_volume 1022.043072
_symmetry_space_group_name_H-M "P 21/M"
_symmetry_group_IT_number 11
_symmetry_cell_setting 'monoclinic'
loop_
_space_group_symop_operation_xyz
x,y,z
-x,1/2+y,-z
-x,-y,-z
x,1/2-y,z
loop_
_atom_site_type_symbol
_atom_site_label
_atom_site_fract_x
_atom_site_fract_y
_atom_site_fract_z
Si Si1 0.063912 0.427659 0.856671
Si Si2 0.533309 0.073414 0.937164
Si Si3 0.126706 0.928763 0.725490
Si Si4 0.661398 0.926573 0.662017
Si Si5 0.252132 0.427482 0.450849
O O1 0.065207 0.250000 0.837631
O O2 0.095378 0.516624 0.796194
O O3 0.896051 0.474784 0.696057
O O4 0.197684 0.477233 0.095789
O O5 0.538687 0.250000 0.960336
O O6 0.397930 0.027564 0.696765
O O7 0.700048 0.015179 0.097190
O O8 0.500000 0.000000 0.000000
O O9 0.111007 0.750000 0.702790
O O10 0.000000 0.000000 0.500000
O O11 0.634894 0.750000 0.632335
O O12 0.703978 0.979767 0.604793
O O13 0.500000 0.000000 0.500000
O O14 0.212319 0.250000 0.408195
#
# Coordination Sequence:
#
# PCOD8076532 Si02
#       5
#     4   4   4   4   4
#     4  11  23  38  58  88 119 150 191 240 291 346
#     4  10  22  38  58  83 112 147 189 234 284 339
#     4  11  23  40  61  86 117 154 193 237 287 343
#     4  10  22  39  60  86 117 152 195 242 290 344
#     4  10  21  39  60  83 113 153 195 237 288 346
#
# _framework density 19.568648
#
# number of rings (size 3 to 8) (size 9 to 14) (size 15 to 20)
#    0.000    1.600    0.000    4.200    0.000    9.600 
#    0.000    0.000    0.000    0.000    0.000    0.000 
#    0.000    0.000    0.000    0.000    0.000    0.000 
#
# Total GULP energy -248108.118912 kJ/mol
# GULP energy per Si atom -12405.405946 kJ/mol
# Density = 1.952411 g / cm^3
# Si number density = 19.568648 Si / 1000 Ang^3
#
#
#
# Elastic Constant Matrix: (Units=GPa)
#
#
# Indices 1 2 3 4 5 6 
#
# 1 183.6674 46.7277 97.7559 0.0000 -2.3672 0.0000
# 2 46.7277 48.4601 52.7318 0.0000 2.2250 0.0000
# 3 97.7559 52.7318 185.2543 0.0000 0.7851 0.0000
# 4 0.0000 0.0000 0.0000 32.9931 0.0000 1.5314
# 5 -2.3672 2.2250 0.7851 0.0000 48.0752 0.0000
# 6 0.0000 0.0000 0.0000 1.5314 0.0000 40.0978
#
#
#
# Elastic Compliance Matrix: (Units=1/GPa)
#
#
# Indices 1 2 3 4 5 6 
#
# 1 0.008259 -0.004707 -0.003021 0.000000 0.000674 0.000000
# 2 -0.004707 0.032653 -0.006804 0.000000 -0.001632 0.000000
# 3 -0.003021 -0.006804 0.008929 0.000000 0.000020 0.000000
# 4 0.000000 0.000000 0.000000 0.030363 0.000000 -0.001160
# 5 0.000674 -0.001632 0.000020 0.000000 0.020909 0.000000
# 6 0.000000 0.000000 0.000000 -0.001160 0.000000 0.024983
#
#
# Mechanical properties :
#
#
# Convention : Reuss Voigt Hill
#
# Bulk Modulus (GPa) = 48.13125 90.20142 69.16634
# Shear Modulus (GPa) = 30.84801 38.91097 34.87949
#
# Velocity S-wave (km/s) = 3.97470 4.46402 4.22645
# Velocity P-wave (km/s) = 6.76120 8.53024 7.69671
#
# Compressibility (1/GPa) = 0.02077652
#
# Stress axis : x y z
#
# Youngs Moduli (GPa) = 121.08277 30.62533 111.99872
#
# Poissons Ratio (x) = 0.14416 0.33835
# Poissons Ratio (y) = 0.56996 0.76200
# Poissons Ratio (z) = 0.36579 0.20836
#
# Static dielectric constant tensor:
#      x y z
#    x 3.761830 0.000000 0.001450 
#    y 0.000000 3.500090 0.000000 
#    z 0.001450 0.000000 3.857160 
# 
# 
# High freq. dielectric constant tensor:
#      x y z
#    x 1.782730 0.000000 -0.001230 
#    y 0.000000 1.759630 0.000000 
#    z -0.001230 0.000000 1.784610 
# 
# From -- ./inp_files/15890.got.cif
#   From: 2010.06.25/outbox.cif.g09.slc.cpg/sg11_8_cif.got.tgz:15890.got - 2010.06.27 23:14:04.
