data_PCOD8076066
_publ_section_title
;
Structure prediction by ZEFSAII (Michael W. Deem and Ramdas Pophale) SiO2 
 PCOD8076066
Probable space group: P 21/M
;
_chemical_formula_sum "Si O2"
_cell_formula_units_Z 32
_cell_length_a 15.480267
_cell_length_b 8.858537
_cell_length_c 21.326003
_cell_angle_alpha 90.000000
_cell_angle_beta 33.909154
_cell_angle_gamma 90.000000
_cell_volume 1631.506944
_symmetry_space_group_name_H-M "P 21/M"
_symmetry_group_IT_number 11
_symmetry_cell_setting 'monoclinic'
loop_
_space_group_symop_operation_xyz
x,y,z
-x,1/2+y,-z
-x,-y,-z
x,1/2-y,z
loop_
_atom_site_type_symbol
_atom_site_label
_atom_site_fract_x
_atom_site_fract_y
_atom_site_fract_z
Si Si1 0.700707 0.426715 0.422999
Si Si2 0.393925 0.570301 0.870489
Si Si3 0.721190 0.929453 0.632019
Si Si4 0.159312 0.416865 0.312925
Si Si5 0.360684 0.072712 0.669608
Si Si6 0.169650 0.570593 0.897892
Si Si7 0.492261 0.585371 0.940429
Si Si8 0.898206 0.927513 0.404453
O O1 0.710744 0.250000 0.402411
O O2 0.712813 0.515994 0.350785
O O3 0.544001 0.465821 0.556176
O O4 0.848781 0.482038 0.372636
O O5 0.407904 0.750000 0.865175
O O6 0.547954 0.504139 0.744072
O O7 0.245658 0.521838 0.918798
O O8 0.387423 0.510905 0.947176
O O9 0.715800 0.750000 0.635701
O O10 0.837335 0.981935 0.617909
O O11 0.789168 0.988461 0.525937
O O12 0.081747 0.250000 0.355950
O O13 0.336501 0.402136 0.188321
O O14 0.073589 0.531034 0.317455
O O15 0.330222 0.250000 0.695184
O O16 0.278618 0.988323 0.776481
O O17 0.157106 0.750000 0.899249
O O18 0.000000 0.500000 0.000000
O O19 0.423887 0.750000 0.996856
O O20 0.500000 0.500000 0.000000
O O21 0.883548 0.750000 0.401005
#
# Coordination Sequence:
#
# PCOD8076066 Si02
#       8
#     4   4   4   4   4   4   4   4
#     4  10  21  37  58  83 112 148 186 228 282 344
#     4   8  16  33  56  79 103 139 184 224 273 331
#     4   8  15  29  51  76 103 138 180 223 270 324
#     4   9  18  33  50  71 105 142 176 220 273 328
#     4  10  21  39  61  84 111 143 186 236 286 341
#     4  11  22  38  60  85 116 153 192 240 292 342
#     4   9  18  35  57  78 101 137 182 228 274 323
#     4  11  20  30  49  80 112 142 179 220 266 326
#
# _framework density 19.613769999999999
#
# number of rings (size 3 to 8) (size 9 to 14) (size 15 to 20)
#    0.000    2.500    0.000    4.125    0.000    3.000 
#    2.250    1.875    0.000    3.000    0.000    0.000 
#    0.000    0.000    0.000    0.000    0.000    0.000 
#
# Total GULP energy -396581.714792 kJ/mol
# GULP energy per Si atom -12393.178587 kJ/mol
# Density = 1.956913 g / cm^3
# Si number density = 19.613770 Si / 1000 Ang^3
#
#
#
# Elastic Constant Matrix: (Units=GPa)
#
#
# Indices 1 2 3 4 5 6 
#
# 1 166.2576 42.6297 44.7270 0.0000 4.3802 0.0000
# 2 42.6297 64.3425 26.4765 0.0000 3.9208 0.0000
# 3 44.7270 26.4765 52.9645 0.0000 10.2992 0.0000
# 4 0.0000 0.0000 0.0000 28.7640 0.0000 1.1861
# 5 4.3802 3.9208 10.2992 0.0000 30.1014 0.0000
# 6 0.0000 0.0000 0.0000 1.1861 0.0000 29.0108
#
#
#
# Elastic Compliance Matrix: (Units=1/GPa)
#
#
# Indices 1 2 3 4 5 6 
#
# 1 0.008339 -0.003280 -0.005623 0.000000 0.001138 0.000000
# 2 -0.003280 0.020878 -0.007746 0.000000 0.000408 0.000000
# 3 -0.005623 -0.007746 0.029081 0.000000 -0.008123 0.000000
# 4 0.000000 0.000000 0.000000 0.034824 0.000000 -0.001424
# 5 0.001138 0.000408 -0.008123 0.000000 0.035782 0.000000
# 6 0.000000 0.000000 0.000000 -0.001424 0.000000 0.034528
#
#
# Mechanical properties :
#
#
# Convention : Reuss Voigt Hill
#
# Bulk Modulus (GPa) = 40.00251 56.80345 48.40298
# Shear Modulus (GPa) = 24.38282 28.89068 26.63675
#
# Velocity S-wave (km/s) = 3.52966 3.84211 3.68919
# Velocity P-wave (km/s) = 6.08693 6.97899 6.54816
#
# Compressibility (1/GPa) = 0.02499843
#
# Stress axis : x y z
#
# Youngs Moduli (GPa) = 119.92406 47.89836 34.38683
#
# Poissons Ratio (x) = 0.15711 0.19337
# Poissons Ratio (y) = 0.39336 0.26636
# Poissons Ratio (z) = 0.67437 0.37102
#
# Static dielectric constant tensor:
#      x y z
#    x 0.175450 0.000000 -2.956480 
#    y 0.000000 3.326100 0.000000 
#    z -2.956480 0.000000 0.930410 
# 
# 
# High freq. dielectric constant tensor:
#      x y z
#    x 1.781390 0.000000 0.006410 
#    y 0.000000 1.742710 0.000000 
#    z 0.006410 0.000000 1.744980 
# 
# From -- ./inp_files/65211.got.cif
#   From: 2010.06.25/outbox.cif.g09.slc.cpg/sg11_33_cif.got.tgz:65211.got - 2010.06.27 23:14:04.
