data_PCOD8076570
_publ_section_title
;
Structure prediction by ZEFSAII (Michael W. Deem and Ramdas Pophale) SiO2 
 PCOD8076570
Probable space group: P 21/M
;
_chemical_formula_sum "Si O2"
_cell_formula_units_Z 28
_cell_length_a 26.930269
_cell_length_b 8.850435
_cell_length_c 9.232630
_cell_angle_alpha 90.000000
_cell_angle_beta 141.037703
_cell_angle_gamma 90.000000
_cell_volume 1383.723742
_symmetry_space_group_name_H-M "P 21/M"
_symmetry_group_IT_number 11
_symmetry_cell_setting 'monoclinic'
loop_
_space_group_symop_operation_xyz
x,y,z
-x,1/2+y,-z
-x,-y,-z
x,1/2-y,z
loop_
_atom_site_type_symbol
_atom_site_label
_atom_site_fract_x
_atom_site_fract_y
_atom_site_fract_z
Si Si1 0.663235 0.428807 0.210456
Si Si2 0.366707 0.070810 0.548412
Si Si3 0.064509 0.581873 0.737438
Si Si4 0.235649 0.930278 0.049660
Si Si5 0.964573 0.581533 0.785070
Si Si6 0.512223 0.426128 0.683185
Si Si7 0.208561 0.069915 0.686248
O O1 0.678720 0.250000 0.254835
O O2 0.635883 0.487446 0.304124
O O3 0.743056 0.515384 0.344796
O O4 0.596926 0.469360 0.941268
O O5 0.361866 0.250000 0.561514
O O6 0.446970 0.020309 0.650801
O O7 0.296262 0.015743 0.288218
O O8 0.068825 0.750000 0.685456
O O9 0.000000 0.500000 0.500000
O O10 0.037044 0.575754 0.839407
O O11 0.150965 0.511163 0.916143
O O12 0.247624 0.750000 0.087324
O O13 0.246298 0.985066 0.909314
O O14 0.943413 0.750000 0.784887
O O15 0.882429 0.513111 0.537423
O O16 0.000000 0.500000 0.000000
O O17 0.500000 0.500000 0.500000
O O18 0.504261 0.250000 0.638520
O O19 0.214617 0.250000 0.720809
#
# Coordination Sequence:
#
# PCOD8076570 Si02
#       7
#     4   4   4   4   4   4   4
#     4  11  24  42  64  92 126 162 203 252 304 361
#     4  11  24  42  64  93 126 162 203 250 304 361
#     4  10  21  39  61  87 118 157 203 252 304 359
#     4  11  23  39  62  92 123 161 206 254 306 363
#     4  10  23  40  59  86 120 159 203 252 305 362
#     4  10  23  42  66  94 124 161 203 247 298 359
#     4  11  23  41  62  89 123 162 206 254 306 364
#
# _framework density 20.235254000000001
#
# number of rings (size 3 to 8) (size 9 to 14) (size 15 to 20)
#    0.000    1.429    1.429    3.000    2.000    6.857 
#    0.000    0.000    0.000    0.000    0.000    0.000 
#    0.000    0.000    0.000    0.000    0.000    0.000 
#
# Total GULP energy -347232.876172 kJ/mol
# GULP energy per Si atom -12401.174149 kJ/mol
# Density = 2.018920 g / cm^3
# Si number density = 20.235254 Si / 1000 Ang^3
#
#
#
# Elastic Constant Matrix: (Units=GPa)
#
#
# Indices 1 2 3 4 5 6 
#
# 1 118.8463 29.1718 28.7498 0.0000 3.9102 0.0000
# 2 29.1718 50.9910 28.4078 0.0000 -1.0032 0.0000
# 3 28.7498 28.4078 91.9785 0.0000 -7.8929 0.0000
# 4 0.0000 0.0000 0.0000 37.9834 0.0000 -5.2232
# 5 3.9102 -1.0032 -7.8929 0.0000 40.3330 0.0000
# 6 0.0000 0.0000 0.0000 -5.2232 0.0000 37.0444
#
#
#
# Elastic Compliance Matrix: (Units=1/GPa)
#
#
# Indices 1 2 3 4 5 6 
#
# 1 0.010072 -0.004792 -0.001792 0.000000 -0.001446 0.000000
# 2 -0.004792 0.025996 -0.006546 0.000000 -0.000170 0.000000
# 3 -0.001792 -0.006546 0.013685 0.000000 0.002689 0.000000
# 4 0.000000 0.000000 0.000000 0.026848 0.000000 0.003785
# 5 -0.001446 -0.000170 0.002689 0.000000 0.025456 0.000000
# 6 0.000000 0.000000 0.000000 0.003785 0.000000 0.027528
#
#
# Mechanical properties :
#
#
# Convention : Reuss Voigt Hill
#
# Bulk Modulus (GPa) = 42.56638 48.27495 45.42066
# Shear Modulus (GPa) = 30.54835 34.77126 32.65981
#
# Velocity S-wave (km/s) = 3.88965 4.14980 4.02183
# Velocity P-wave (km/s) = 6.42292 6.84615 6.63791
#
# Compressibility (1/GPa) = 0.02349272
#
# Stress axis : x y z
#
# Youngs Moduli (GPa) = 99.28930 38.46730 73.07432
#
# Poissons Ratio (x) = 0.18433 0.13096
# Poissons Ratio (y) = 0.47579 0.47832
# Poissons Ratio (z) = 0.17795 0.25180
#
# Static dielectric constant tensor:
#      x y z
#    x 4.140070 0.000000 0.205390 
#    y 0.000000 3.655420 0.000000 
#    z 0.205390 0.000000 3.493200 
# 
# 
# High freq. dielectric constant tensor:
#      x y z
#    x 1.808170 0.000000 0.004850 
#    y 0.000000 1.791220 0.000000 
#    z 0.004850 0.000000 1.798420 
# 
# From -- ./inp_files/28635.got.cif
#   From: 2010.06.25/outbox.cif.g09.slc.cpg/sg11_15_cif.got.tgz:28635.got - 2010.06.27 23:14:04.
