data_PCOD8076203
_publ_section_title
;
Structure prediction by ZEFSAII (Michael W. Deem and Ramdas Pophale) SiO2 
 PCOD8076203
Probable space group: P 21/M
;
_chemical_formula_sum "Si O2"
_cell_formula_units_Z 28
_cell_length_a 9.383130
_cell_length_b 13.535231
_cell_length_c 12.882066
_cell_angle_alpha 90.000000
_cell_angle_beta 127.871309
_cell_angle_gamma 90.000000
_cell_volume 1291.491110
_symmetry_space_group_name_H-M "P 21/M"
_symmetry_group_IT_number 11
_symmetry_cell_setting 'monoclinic'
loop_
_space_group_symop_operation_xyz
x,y,z
-x,1/2+y,-z
-x,-y,-z
x,1/2-y,z
loop_
_atom_site_type_symbol
_atom_site_label
_atom_site_fract_x
_atom_site_fract_y
_atom_site_fract_z
Si Si1 0.028823 0.633517 0.224331
Si Si2 0.240885 0.143250 0.453108
Si Si3 0.804642 0.461277 0.891661
Si Si4 0.344543 0.143381 0.281105
Si Si5 0.837687 0.360655 0.321785
Si Si6 0.291862 0.522361 0.930573
Si Si7 0.711751 0.433550 0.478490
O O1 0.986663 0.750000 0.213371
O O2 0.171170 0.616215 0.192278
O O3 0.124254 0.595240 0.372276
O O4 0.838024 0.575347 0.126586
O O5 0.335157 0.250000 0.520997
O O6 0.201744 0.136718 0.311545
O O7 0.052138 0.138184 0.427001
O O8 0.355326 0.047624 0.538066
O O9 0.678648 0.555022 0.808936
O O10 0.722028 0.421346 0.963207
O O11 0.000000 0.500000 0.000000
O O12 0.324913 0.250000 0.215552
O O13 0.541309 0.136519 0.423947
O O14 0.761228 0.250000 0.299799
O O15 0.774725 0.401528 0.184161
O O16 0.766871 0.426574 0.383602
O O17 0.500000 0.500000 0.000000
#
# Coordination Sequence:
#
# PCOD8076203 Si02
#       7
#     4   4   4   4   4   4   4
#     4  11  24  42  65  95 130 172 216 273 342 398
#     4  10  21  37  62  93 126 164 206 259 323 387
#     4  10  22  42  64  92 129 174 220 272 322 381
#     4  11  22  39  66  97 128 170 216 265 321 392
#     4  11  23  41  65  91 123 172 216 260 328 405
#     4  11  24  43  65  94 131 172 223 279 328 386
#     4  12  22  42  64  96 137 167 211 270 332 398
#
# _framework density 21.680365999999999
#
# number of rings (size 3 to 8) (size 9 to 14) (size 15 to 20)
#    0.000    1.143    2.857    3.857    0.000    3.429 
#    0.000    0.000    0.000    1.714    0.000    0.000 
#    0.000    0.000    0.000    0.000    0.000    0.000 
#
# Total GULP energy -346979.570981 kJ/mol
# GULP energy per Si atom -12392.127535 kJ/mol
# Density = 2.163102 g / cm^3
# Si number density = 21.680366 Si / 1000 Ang^3
#
#
#
# Elastic Constant Matrix: (Units=GPa)
#
#
# Indices 1 2 3 4 5 6 
#
# 1 98.5550 14.8349 39.1003 0.0000 -15.3619 0.0000
# 2 14.8349 119.9548 46.3415 0.0000 -12.2400 0.0000
# 3 39.1003 46.3415 84.7648 0.0000 -19.1419 0.0000
# 4 0.0000 0.0000 0.0000 19.9967 0.0000 4.2204
# 5 -15.3619 -12.2400 -19.1419 0.0000 43.6999 0.0000
# 6 0.0000 0.0000 0.0000 4.2204 0.0000 23.3701
#
#
#
# Elastic Compliance Matrix: (Units=1/GPa)
#
#
# Indices 1 2 3 4 5 6 
#
# 1 0.012668 0.000916 -0.005860 0.000000 0.002143 0.000000
# 2 0.000916 0.010644 -0.006099 0.000000 0.000632 0.000000
# 3 -0.005860 -0.006099 0.018848 0.000000 0.004488 0.000000
# 4 0.000000 0.000000 0.000000 0.051990 0.000000 -0.009389
# 5 0.002143 0.000632 0.004488 0.000000 0.025779 0.000000
# 6 0.000000 0.000000 0.000000 -0.009389 0.000000 0.044485
#
#
# Mechanical properties :
#
#
# Convention : Reuss Voigt Hill
#
# Bulk Modulus (GPa) = 49.81698 55.98090 52.89894
# Shear Modulus (GPa) = 25.88104 30.94654 28.41379
#
# Velocity S-wave (km/s) = 3.45882 3.78219 3.62412
# Velocity P-wave (km/s) = 6.24332 6.70450 6.47802
#
# Compressibility (1/GPa) = 0.02007348
#
# Stress axis : x y z
#
# Youngs Moduli (GPa) = 78.94093 93.95131 53.05504
#
# Poissons Ratio (x) = -0.08606 0.31092
# Poissons Ratio (y) = -0.07231 0.32358
# Poissons Ratio (z) = 0.46261 0.57300
#
# Static dielectric constant tensor:
#      x y z
#    x 4.305200 0.000000 -0.270740 
#    y 0.000000 4.179440 0.000000 
#    z -0.270740 0.000000 3.812970 
# 
# 
# High freq. dielectric constant tensor:
#      x y z
#    x 1.862710 0.000000 -0.012980 
#    y 0.000000 1.850250 0.000000 
#    z -0.012980 0.000000 1.838440 
# 
# From -- ./inp_files/31973.got.cif
#   From: 2010.06.25/outbox.cif.g09.slc.cpg/sg11_16_cif.got.tgz:31973.got - 2010.06.27 23:14:04.
