data_PCOD8076183
_publ_section_title
;
Structure prediction by ZEFSAII (Michael W. Deem and Ramdas Pophale) SiO2 
 PCOD8076183
Probable space group: P 21/M
;
_chemical_formula_sum "Si O2"
_cell_formula_units_Z 24
_cell_length_a 12.138510
_cell_length_b 9.137021
_cell_length_c 11.061829
_cell_angle_alpha 90.000000
_cell_angle_beta 70.530911
_cell_angle_gamma 90.000000
_cell_volume 1156.715074
_symmetry_space_group_name_H-M "P 21/M"
_symmetry_group_IT_number 11
_symmetry_cell_setting 'monoclinic'
loop_
_space_group_symop_operation_xyz
x,y,z
-x,1/2+y,-z
-x,-y,-z
x,1/2-y,z
loop_
_atom_site_type_symbol
_atom_site_label
_atom_site_fract_x
_atom_site_fract_y
_atom_site_fract_z
Si Si1 0.128609 0.083951 0.188446
Si Si2 0.947883 0.916525 0.131501
Si Si3 0.282383 0.082825 0.909314
Si Si4 0.331636 0.919207 0.490028
Si Si5 0.122178 0.081445 0.460551
Si Si6 0.542424 0.081518 0.304517
O O1 0.096938 0.250000 0.164054
O O2 0.178837 0.073454 0.305299
O O3 0.224489 0.026507 0.056365
O O4 0.006115 0.992483 0.227834
O O5 0.989569 0.750000 0.114656
O O6 0.807997 0.928680 0.171042
O O7 0.000000 0.000000 0.000000
O O8 0.325188 0.250000 0.907881
O O9 0.392109 0.980539 0.837769
O O10 0.316094 0.750000 0.460571
O O11 0.373810 0.938325 0.611216
O O12 0.208309 0.001913 0.522448
O O13 0.424089 0.991234 0.364971
O O14 0.105237 0.250000 0.507853
O O15 0.000000 0.000000 0.500000
O O16 0.509404 0.250000 0.295031
#
# Coordination Sequence:
#
# PCOD8076183 Si02
#       6
#     4   4   4   4   4   4
#     4   9  20  37  54  78 114 152 191 237 284 337
#     4   9  17  29  48  76 110 148 186 229 279 331
#     4   9  18  33  54  82 113 147 187 234 288 338
#     4  10  22  41  61  85 116 151 192 238 287 341
#     4  11  24  41  61  85 117 155 196 238 286 346
#     4  10  21  37  61  89 115 147 189 240 290 339
#
# _framework density 20.748411999999998
#
# number of rings (size 3 to 8) (size 9 to 14) (size 15 to 20)
#    0.000    2.333    0.000    3.000    2.333    6.667 
#    0.000    0.833    0.000    0.000    0.000    0.000 
#    0.000    0.000    0.000    0.000    0.000    0.000 
#
# Total GULP energy -297543.645997 kJ/mol
# GULP energy per Si atom -12397.651917 kJ/mol
# Density = 2.070119 g / cm^3
# Si number density = 20.748412 Si / 1000 Ang^3
#
#
#
# Elastic Constant Matrix: (Units=GPa)
#
#
# Indices 1 2 3 4 5 6 
#
# 1 78.0100 46.5649 9.8921 0.0000 -10.8953 0.0000
# 2 46.5649 132.2312 23.5984 0.0000 -15.4641 0.0000
# 3 9.8921 23.5984 53.7089 0.0000 -14.9262 0.0000
# 4 0.0000 0.0000 0.0000 27.9883 0.0000 -4.0755
# 5 -10.8953 -15.4641 -14.9262 0.0000 29.1593 0.0000
# 6 0.0000 0.0000 0.0000 -4.0755 0.0000 37.6331
#
#
#
# Elastic Compliance Matrix: (Units=1/GPa)
#
#
# Indices 1 2 3 4 5 6 
#
# 1 0.016526 -0.005474 0.000316 0.000000 0.003433 0.000000
# 2 -0.005474 0.010239 -0.002973 0.000000 0.001863 0.000000
# 3 0.000316 -0.002973 0.022689 0.000000 0.010156 0.000000
# 4 0.000000 0.000000 0.000000 0.036302 0.000000 0.003931
# 5 0.003433 0.001863 0.010156 0.000000 0.041764 0.000000
# 6 0.000000 0.000000 0.000000 0.003931 0.000000 0.026998
#
#
# Mechanical properties :
#
#
# Convention : Reuss Voigt Hill
#
# Bulk Modulus (GPa) = 30.12850 47.11787 38.62319
# Shear Modulus (GPa) = 27.49607 31.21576 29.35592
#
# Velocity S-wave (km/s) = 3.64430 3.88298 3.76553
# Velocity P-wave (km/s) = 5.67981 6.54690 6.12871
#
# Compressibility (1/GPa) = 0.03319116
#
# Stress axis : x y z
#
# Youngs Moduli (GPa) = 60.51028 97.66872 44.07373
#
# Poissons Ratio (x) = 0.53468 -0.01391
# Poissons Ratio (y) = 0.33126 0.13102
# Poissons Ratio (z) = -0.01910 0.29034
#
# Static dielectric constant tensor:
#      x y z
#    x 3.165980 0.000000 -0.490020 
#    y 0.000000 3.956910 0.000000 
#    z -0.490020 0.000000 3.076350 
# 
# 
# High freq. dielectric constant tensor:
#      x y z
#    x 1.791080 0.000000 -0.004170 
#    y 0.000000 1.819150 0.000000 
#    z -0.004170 0.000000 1.805980 
# 
# From -- ./inp_files/33697.got.cif
#   From: 2010.06.25/outbox.cif.g09.slc.cpg/sg11_17_cif.got.tgz:33697.got - 2010.06.27 23:14:04.
