data_PCOD8076279
_publ_section_title
;
Structure prediction by ZEFSAII (Michael W. Deem and Ramdas Pophale) SiO2 
 PCOD8076279
Probable space group: P 21/M
;
_chemical_formula_sum "Si O2"
_cell_formula_units_Z 24
_cell_length_a 12.410944
_cell_length_b 21.627033
_cell_length_c 5.149007
_cell_angle_alpha 90.000000
_cell_angle_beta 124.425264
_cell_angle_gamma 90.000000
_cell_volume 1140.007608
_symmetry_space_group_name_H-M "P 21/M"
_symmetry_group_IT_number 11
_symmetry_cell_setting 'monoclinic'
loop_
_space_group_symop_operation_xyz
x,y,z
-x,1/2+y,-z
-x,-y,-z
x,1/2-y,z
loop_
_atom_site_type_symbol
_atom_site_label
_atom_site_fract_x
_atom_site_fract_y
_atom_site_fract_z
Si Si1 0.078351 0.401124 0.130010
Si Si2 0.717355 0.679320 0.860155
Si Si3 0.549953 0.820802 0.126263
Si Si4 0.110164 0.983335 0.446402
Si Si5 0.272783 0.628736 0.701275
Si Si6 0.859982 0.320872 0.988621
O O1 0.163093 0.367337 0.025567
O O2 0.165013 0.451422 0.406784
O O3 0.957410 0.439717 0.855655
O O4 0.006094 0.350105 0.210415
O O5 0.768431 0.750000 0.925851
O O6 0.658961 0.662214 0.060735
O O7 0.608994 0.669633 0.491265
O O8 0.503393 0.750000 0.021482
O O9 0.428799 0.866715 0.928388
O O10 0.231713 0.942432 0.716521
O O11 0.000000 0.000000 0.500000
O O12 0.228704 0.648422 0.354621
O O13 0.209371 0.673466 0.828468
O O14 0.878559 0.250000 0.942865
#
# Coordination Sequence:
#
# PCOD8076279 Si02
#       6
#     4   4   4   4   4   4
#     4  10  22  38  59  87 117 153 198 240 297 352
#     4  10  22  39  61  87 120 157 192 240 295 350
#     4  10  21  38  58  84 118 156 193 237 294 350
#     4  10  21  40  61  84 117 159 194 245 295 341
#     4  11  22  38  60  86 119 155 197 239 293 348
#     4  11  21  34  59  90 116 146 190 250 301 349
#
# _framework density 21.052492999999998
#
# number of rings (size 3 to 8) (size 9 to 14) (size 15 to 20)
#    0.000    1.667    1.667    3.000    2.333    1.333 
#    0.000    5.000    0.000    0.000    0.000    0.000 
#    0.000    0.000    0.000    0.000    0.000    0.000 
#
# Total GULP energy -297537.917574 kJ/mol
# GULP energy per Si atom -12397.413232 kJ/mol
# Density = 2.100458 g / cm^3
# Si number density = 21.052493 Si / 1000 Ang^3
#
#
#
# Elastic Constant Matrix: (Units=GPa)
#
#
# Indices 1 2 3 4 5 6 
#
# 1 76.2844 18.2001 -11.4509 0.0000 -1.0486 0.0000
# 2 18.2001 74.1999 -6.4850 0.0000 7.9581 0.0000
# 3 -11.4509 -6.4850 29.7982 0.0000 -8.1962 0.0000
# 4 0.0000 0.0000 0.0000 19.1766 0.0000 3.8987
# 5 -1.0486 7.9581 -8.1962 0.0000 30.3270 0.0000
# 6 0.0000 0.0000 0.0000 3.8987 0.0000 44.2782
#
#
#
# Elastic Compliance Matrix: (Units=1/GPa)
#
#
# Indices 1 2 3 4 5 6 
#
# 1 0.014840 -0.003455 0.005770 0.000000 0.002979 0.000000
# 2 -0.003455 0.014804 0.000856 0.000000 -0.003773 0.000000
# 3 0.005770 0.000856 0.038843 0.000000 0.010473 0.000000
# 4 0.000000 0.000000 0.000000 0.053097 0.000000 -0.004675
# 5 0.002979 -0.003773 0.010473 0.000000 0.036897 0.000000
# 6 0.000000 0.000000 0.000000 -0.004675 0.000000 0.022996
#
#
# Mechanical properties :
#
#
# Convention : Reuss Voigt Hill
#
# Bulk Modulus (GPa) = 13.36353 20.09009 16.72681
# Shear Modulus (GPa) = 24.99005 30.75757 27.87381
#
# Velocity S-wave (km/s) = 3.44908 3.82644 3.64265
# Velocity P-wave (km/s) = 4.71413 5.39312 5.06502
#
# Compressibility (1/GPa) = 0.07483050
#
# Stress axis : x y z
#
# Youngs Moduli (GPa) = 67.38386 67.54872 25.74439
#
# Poissons Ratio (x) = 0.23340 -0.14855
# Poissons Ratio (y) = 0.23283 -0.02204
# Poissons Ratio (z) = -0.38883 -0.05784
#
# Static dielectric constant tensor:
#      x y z
#    x 3.679690 0.000000 -0.147780 
#    y 0.000000 5.061550 0.000000 
#    z -0.147780 0.000000 3.707710 
# 
# 
# High freq. dielectric constant tensor:
#      x y z
#    x 1.821270 0.000000 -0.017310 
#    y 0.000000 1.829580 0.000000 
#    z -0.017310 0.000000 1.811650 
# 
# From -- ./inp_files/2720.got.cif
#   From: 2010.06.25/outbox.cif.g09.slc.cpg/sg11_2_cif.got.tgz:2720.got - 2010.06.27 23:14:04.
