data_PCOD8076043
_publ_section_title
;
Structure prediction by ZEFSAII (Michael W. Deem and Ramdas Pophale) SiO2 
 PCOD8076043
Probable space group: P 21/M
;
_chemical_formula_sum "Si O2"
_cell_formula_units_Z 28
_cell_length_a 15.523402
_cell_length_b 8.827192
_cell_length_c 21.121824
_cell_angle_alpha 90.000000
_cell_angle_beta 151.039370
_cell_angle_gamma 90.000000
_cell_volume 1401.436184
_symmetry_space_group_name_H-M "P 21/M"
_symmetry_group_IT_number 11
_symmetry_cell_setting 'monoclinic'
loop_
_space_group_symop_operation_xyz
x,y,z
-x,1/2+y,-z
-x,-y,-z
x,1/2-y,z
loop_
_atom_site_type_symbol
_atom_site_label
_atom_site_fract_x
_atom_site_fract_y
_atom_site_fract_z
Si Si1 0.232521 0.928532 0.304839
Si Si2 0.724734 0.574812 0.425616
Si Si3 0.592368 0.924450 0.475300
Si Si4 0.443170 0.074580 0.161404
Si Si5 0.928742 0.929717 0.019067
Si Si6 0.061727 0.429312 0.606091
Si Si7 0.425322 0.926270 0.888156
O O1 0.229897 0.750000 0.305938
O O2 0.402355 0.990225 0.374736
O O3 0.245667 0.992191 0.384444
O O4 0.056400 0.988284 0.157230
O O5 0.777050 0.750000 0.450162
O O6 0.601892 0.546683 0.407163
O O7 0.612907 0.521526 0.292988
O O8 0.901917 0.475564 0.550376
O O9 0.609526 0.750000 0.503976
O O10 0.476535 0.250000 0.199376
O O11 0.267005 0.015893 0.084769
O O12 0.432509 0.052876 0.078207
O O13 0.936086 0.750000 0.016349
O O14 0.000000 0.000000 0.000000
O O15 0.081792 0.250000 0.612767
O O16 0.241498 0.497196 0.749639
O O17 0.000000 0.500000 0.500000
O O18 0.390612 0.750000 0.879017
O O19 0.500000 0.000000 0.000000
#
# Coordination Sequence:
#
# PCOD8076043 Si02
#       7
#     4   4   4   4   4   4   4
#     4   9  18  34  54  77 113 154 192 238 293 351
#     4  11  22  37  61  90 120 154 199 250 304 365
#     4   9  19  34  53  81 113 149 193 242 293 353
#     4  10  22  39  60  86 120 159 203 252 305 370
#     4  10  21  37  57  84 116 154 198 244 297 360
#     4  12  24  41  65  92 122 159 203 254 309 368
#     4  11  24  43  65  93 130 170 211 260 316 377
#
# _framework density 19.979503999999999
#
# number of rings (size 3 to 8) (size 9 to 14) (size 15 to 20)
#    0.000    1.714    1.429    3.000    0.000    5.143 
#    0.000    4.286    0.000    0.000    0.000    0.000 
#    0.000    0.000    0.000    0.000    0.000    0.000 
#
# Total GULP energy -347150.359992 kJ/mol
# GULP energy per Si atom -12398.227143 kJ/mol
# Density = 1.993403 g / cm^3
# Si number density = 19.979504 Si / 1000 Ang^3
#
#
#
# Elastic Constant Matrix: (Units=GPa)
#
#
# Indices 1 2 3 4 5 6 
#
# 1 100.2255 43.1029 50.3836 0.0000 -1.5244 0.0000
# 2 43.1029 88.6902 52.7058 0.0000 -3.5898 0.0000
# 3 50.3836 52.7058 140.6311 0.0000 -4.8096 0.0000
# 4 0.0000 0.0000 0.0000 35.6177 0.0000 -3.5585
# 5 -1.5244 -3.5898 -4.8096 0.0000 34.6686 0.0000
# 6 0.0000 0.0000 0.0000 -3.5585 0.0000 32.4632
#
#
#
# Elastic Compliance Matrix: (Units=1/GPa)
#
#
# Indices 1 2 3 4 5 6 
#
# 1 0.013579 -0.004779 -0.003085 0.000000 -0.000326 0.000000
# 2 -0.004779 0.016208 -0.004332 0.000000 0.000867 0.000000
# 3 -0.003085 -0.004332 0.009867 0.000000 0.000785 0.000000
# 4 0.000000 0.000000 0.000000 0.028387 0.000000 0.003112
# 5 -0.000326 0.000867 0.000785 0.000000 0.029029 0.000000
# 6 0.000000 0.000000 0.000000 0.003112 0.000000 0.031145
#
#
# Mechanical properties :
#
#
# Convention : Reuss Voigt Hill
#
# Bulk Modulus (GPa) = 65.53075 69.10350 67.31713
# Shear Modulus (GPa) = 31.70723 32.77354 32.24039
#
# Velocity S-wave (km/s) = 3.98802 4.05453 4.02141
# Velocity P-wave (km/s) = 7.35364 7.52205 7.43832
#
# Compressibility (1/GPa) = 0.01526001
#
# Stress axis : x y z
#
# Youngs Moduli (GPa) = 73.64545 61.69969 101.35282
#
# Poissons Ratio (x) = 0.29487 0.31265
# Poissons Ratio (y) = 0.35196 0.43910
# Poissons Ratio (z) = 0.22718 0.26731
#
# Static dielectric constant tensor:
#      x y z
#    x 3.763630 0.000000 0.171980 
#    y 0.000000 3.626300 0.000000 
#    z 0.171980 0.000000 3.855710 
# 
# 
# High freq. dielectric constant tensor:
#      x y z
#    x 1.787060 0.000000 0.000740 
#    y 0.000000 1.776240 0.000000 
#    z 0.000740 0.000000 1.779880 
# 
# From -- ./inp_files/65477.got.cif
#   From: 2010.06.25/outbox.cif.g09.slc.cpg/sg11_33_cif.got.tgz:65477.got - 2010.06.27 23:14:04.
