data_PCOD8076230
_publ_section_title
;
Structure prediction by ZEFSAII (Michael W. Deem and Ramdas Pophale) SiO2 
 PCOD8076230
Probable space group: P 21/M
;
_chemical_formula_sum "Si O2"
_cell_formula_units_Z 28
_cell_length_a 9.681289
_cell_length_b 14.097435
_cell_length_c 16.531741
_cell_angle_alpha 90.000000
_cell_angle_beta 43.165249
_cell_angle_gamma 90.000000
_cell_volume 1543.528118
_symmetry_space_group_name_H-M "P 21/M"
_symmetry_group_IT_number 11
_symmetry_cell_setting 'monoclinic'
loop_
_space_group_symop_operation_xyz
x,y,z
-x,1/2+y,-z
-x,-y,-z
x,1/2-y,z
loop_
_atom_site_type_symbol
_atom_site_label
_atom_site_fract_x
_atom_site_fract_y
_atom_site_fract_z
Si Si1 0.547003 0.138810 0.825431
Si Si2 0.909426 0.637867 0.994389
Si Si3 0.788278 0.138363 0.570418
Si Si4 0.459539 0.511156 0.422900
Si Si5 0.107618 0.464778 0.832866
Si Si6 0.095918 0.858627 0.221367
Si Si7 0.168400 0.356817 0.506047
O O1 0.573715 0.250000 0.803103
O O2 0.316061 0.110312 0.938050
O O3 0.637157 0.096478 0.703792
O O4 0.680875 0.108214 0.845426
O O5 0.956291 0.750000 0.963461
O O6 0.934341 0.608362 0.076747
O O7 0.058933 0.574189 0.876241
O O8 0.768873 0.250000 0.566808
O O9 0.017620 0.111090 0.497829
O O10 0.717525 0.089374 0.516863
O O11 0.500000 0.500000 0.500000
O O12 0.661599 0.543053 0.291996
O O13 0.375748 0.415019 0.418568
O O14 0.964208 0.431526 0.822118
O O15 0.095334 0.750000 0.189631
O O16 0.943243 0.867958 0.361022
O O17 0.236346 0.250000 0.461748
#
# Coordination Sequence:
#
# PCOD8076230 Si02
#       7
#     4   4   4   4   4   4   4
#     4   8  15  31  56  78  97 134 180 223 263 301
#     4  10  21  38  56  75 104 142 182 224 265 316
#     4   9  18  34  56  78 102 140 186 223 260 314
#     4  12  22  33  52  84 116 142 173 218 272 328
#     4  11  22  34  54  82 108 142 180 215 273 325
#     4   9  17  32  54  80 107 133 176 226 264 311
#     4   9  19  35  54  76 106 146 183 221 265 310
#
# _framework density 18.140259
#
# number of rings (size 3 to 8) (size 9 to 14) (size 15 to 20)
#    0.000    2.286    2.857    2.571    0.000    2.286 
#    0.000    0.000    0.000    0.000    0.000    0.000 
#    0.000    0.000    0.000    0.000    0.000    0.000 
#
# Total GULP energy -347058.671522 kJ/mol
# GULP energy per Si atom -12394.952554 kJ/mol
# Density = 1.809897 g / cm^3
# Si number density = 18.140259 Si / 1000 Ang^3
#
#
#
# Elastic Constant Matrix: (Units=GPa)
#
#
# Indices 1 2 3 4 5 6 
#
# 1 136.6700 42.9005 18.4063 0.0000 8.8021 0.0000
# 2 42.9005 75.9744 9.1450 0.0000 6.3414 0.0000
# 3 18.4063 9.1450 21.1604 0.0000 6.5634 0.0000
# 4 0.0000 0.0000 0.0000 19.9536 0.0000 -2.8914
# 5 8.8021 6.3414 6.5634 0.0000 19.3438 0.0000
# 6 0.0000 0.0000 0.0000 -2.8914 0.0000 36.0705
#
#
#
# Elastic Compliance Matrix: (Units=1/GPa)
#
#
# Indices 1 2 3 4 5 6 
#
# 1 0.009653 -0.004646 -0.006146 0.000000 -0.000784 0.000000
# 2 -0.004646 0.016259 -0.002222 0.000000 -0.002462 0.000000
# 3 -0.006146 -0.002222 0.058643 0.000000 -0.016372 0.000000
# 4 0.000000 0.000000 0.000000 0.050705 0.000000 0.004065
# 5 -0.000784 -0.002462 -0.016372 0.000000 0.058415 0.000000
# 6 0.000000 0.000000 0.000000 0.004065 0.000000 0.028049
#
#
# Mechanical properties :
#
#
# Convention : Reuss Voigt Hill
#
# Bulk Modulus (GPa) = 17.08591 41.63426 29.36008
# Shear Modulus (GPa) = 18.70831 25.96378 22.33605
#
# Velocity S-wave (km/s) = 3.21489 3.78733 3.51279
# Velocity P-wave (km/s) = 4.81871 6.49048 5.71604
#
# Compressibility (1/GPa) = 0.05852776
#
# Stress axis : x y z
#
# Youngs Moduli (GPa) = 103.59026 61.50593 17.05242
#
# Poissons Ratio (x) = 0.28574 0.10480
# Poissons Ratio (y) = 0.48125 0.03789
# Poissons Ratio (z) = 0.63666 0.13665
#
# Static dielectric constant tensor:
#      x y z
#    x 3.748610 0.000000 -0.159080 
#    y 0.000000 3.264940 0.000000 
#    z -0.159080 0.000000 3.103020 
# 
# 
# High freq. dielectric constant tensor:
#      x y z
#    x 1.723700 0.000000 -0.005070 
#    y 0.000000 1.694650 0.000000 
#    z -0.005070 0.000000 1.665530 
# 
# From -- ./inp_files/17704.got.cif
#   From: 2010.06.25/outbox.cif.g09.slc.cpg/sg11_9_cif.got.tgz:17704.got - 2010.06.27 23:14:04.
