data_PCOD8076213
_publ_section_title
;
Structure prediction by ZEFSAII (Michael W. Deem and Ramdas Pophale) SiO2 
 PCOD8076213
Probable space group: P 21/M
;
_chemical_formula_sum "Si O2"
_cell_formula_units_Z 28
_cell_length_a 11.412602
_cell_length_b 14.630177
_cell_length_c 9.506022
_cell_angle_alpha 90.000000
_cell_angle_beta 122.234053
_cell_angle_gamma 90.000000
_cell_volume 1342.579244
_symmetry_space_group_name_H-M "P 21/M"
_symmetry_group_IT_number 11
_symmetry_cell_setting 'monoclinic'
loop_
_space_group_symop_operation_xyz
x,y,z
-x,1/2+y,-z
-x,-y,-z
x,1/2-y,z
loop_
_atom_site_type_symbol
_atom_site_label
_atom_site_fract_x
_atom_site_fract_y
_atom_site_fract_z
Si Si1 0.642780 0.851020 0.436314
Si Si2 0.210133 0.851361 0.271404
Si Si3 0.835152 0.413525 0.461627
Si Si4 0.947369 0.895226 0.621288
Si Si5 0.446477 0.996865 0.808606
Si Si6 0.057531 0.354600 0.073213
Si Si7 0.331621 0.037509 0.268196
O O1 0.578872 0.750000 0.417554
O O2 0.806226 0.838736 0.511229
O O3 0.616456 0.914656 0.555479
O O4 0.571657 0.899240 0.257456
O O5 0.256270 0.750000 0.248017
O O6 0.204937 0.846541 0.437460
O O7 0.317424 0.928396 0.287427
O O8 0.057946 0.875494 0.116293
O O9 0.913628 0.497975 0.584732
O O10 0.699123 0.444255 0.289675
O O11 0.938010 0.363420 0.418342
O O12 0.007114 0.876321 0.814927
O O13 0.557308 0.944315 0.782276
O O14 0.500000 0.000000 0.000000
O O15 0.109095 0.250000 0.099008
O O16 0.187454 0.419644 0.124536
#
# Coordination Sequence:
#
# PCOD8076213 Si02
#       7
#     4   4   4   4   4   4   4
#     4  10  21  42  70  94 119 164 216 259 308 368
#     4  11  23  37  59  94 125 159 207 258 316 367
#     4  10  21  38  57  90 119 161 197 253 305 373
#     4   9  18  35  65  87 119 153 199 250 318 357
#     4  11  25  42  62  90 127 169 212 250 314 377
#     4  10  21  37  63  95 119 156 208 256 310 369
#     4  11  21  41  65  88 126 166 207 257 309 370
#
# _framework density 20.855378000000002
#
# number of rings (size 3 to 8) (size 9 to 14) (size 15 to 20)
#    0.000    1.714    4.286    2.571    2.000    4.000 
#    0.000    4.286    0.000    0.000    0.000    0.000 
#    0.000    0.000    0.000    0.000    0.000    0.000 
#
# Total GULP energy -347206.991778 kJ/mol
# GULP energy per Si atom -12400.249706 kJ/mol
# Density = 2.080791 g / cm^3
# Si number density = 20.855378 Si / 1000 Ang^3
#
#
#
# Elastic Constant Matrix: (Units=GPa)
#
#
# Indices 1 2 3 4 5 6 
#
# 1 111.5303 19.0057 39.6492 0.0000 -18.4980 0.0000
# 2 19.0057 110.4341 40.3930 0.0000 -2.1926 0.0000
# 3 39.6492 40.3930 150.9224 0.0000 -3.5513 0.0000
# 4 0.0000 0.0000 0.0000 20.3448 0.0000 -1.1786
# 5 -18.4980 -2.1926 -3.5513 0.0000 19.7754 0.0000
# 6 0.0000 0.0000 0.0000 -1.1786 0.0000 6.8079
#
#
#
# Elastic Compliance Matrix: (Units=1/GPa)
#
#
# Indices 1 2 3 4 5 6 
#
# 1 0.011777 -0.000862 -0.002617 0.000000 0.010450 0.000000
# 2 -0.000862 0.010109 -0.002482 0.000000 -0.000131 0.000000
# 3 -0.002617 -0.002482 0.007947 0.000000 -0.001296 0.000000
# 4 0.000000 0.000000 0.000000 0.049651 0.000000 0.008595
# 5 0.010450 -0.000131 -0.001296 0.000000 0.060096 0.000000
# 6 0.000000 0.000000 0.000000 0.008595 0.000000 0.148376
#
#
# Mechanical properties :
#
#
# Convention : Reuss Voigt Hill
#
# Bulk Modulus (GPa) = 55.83456 63.44250 59.63853
# Shear Modulus (GPa) = 16.34798 27.64156 21.99477
#
# Velocity S-wave (km/s) = 2.80281 3.64454 3.25103
# Velocity P-wave (km/s) = 6.10776 6.94237 6.53840
#
# Compressibility (1/GPa) = 0.01791006
#
# Stress axis : x y z
#
# Youngs Moduli (GPa) = 84.91272 98.92365 125.82811
#
# Poissons Ratio (x) = 0.08527 0.32933
# Poissons Ratio (y) = 0.07319 0.31233
# Poissons Ratio (z) = 0.22224 0.24554
#
# Static dielectric constant tensor:
#      x y z
#    x 3.799430 0.000000 -0.001800 
#    y 0.000000 3.710070 0.000000 
#    z -0.001800 0.000000 3.676830 
# 
# 
# High freq. dielectric constant tensor:
#      x y z
#    x 1.810900 0.000000 0.005280 
#    y 0.000000 1.812820 0.000000 
#    z 0.005280 0.000000 1.811790 
# 
# From -- ./inp_files/18146.got.cif
#   From: 2010.06.25/outbox.cif.g09.slc.cpg/sg11_10_cif.got.tgz:18146.got - 2010.06.27 23:14:04.
