data_PCOD8076024
_publ_section_title
;
Structure prediction by ZEFSAII (Michael W. Deem and Ramdas Pophale) SiO2 
 PCOD8076024
Probable space group: P 21/M
;
_chemical_formula_sum "Si O2"
_cell_formula_units_Z 32
_cell_length_a 21.062601
_cell_length_b 8.837871
_cell_length_c 26.243232
_cell_angle_alpha 90.000000
_cell_angle_beta 159.352367
_cell_angle_gamma 90.000000
_cell_volume 1722.596569
_symmetry_space_group_name_H-M "P 21/M"
_symmetry_group_IT_number 11
_symmetry_cell_setting 'monoclinic'
loop_
_space_group_symop_operation_xyz
x,y,z
-x,1/2+y,-z
-x,-y,-z
x,1/2-y,z
loop_
_atom_site_type_symbol
_atom_site_label
_atom_site_fract_x
_atom_site_fract_y
_atom_site_fract_z
Si Si1 0.650974 0.571833 0.340519
Si Si2 0.306718 0.928352 0.363729
Si Si3 0.315003 0.929881 0.843971
Si Si4 0.749245 0.427979 0.944308
Si Si5 0.997817 0.427465 0.943528
Si Si6 0.192946 0.071060 0.650118
Si Si7 0.949441 0.572384 0.749812
Si Si8 0.027307 0.069897 0.348571
O O1 0.649174 0.750000 0.346405
O O2 0.452187 0.506970 0.201455
O O3 0.697949 0.529006 0.318364
O O4 0.798700 0.503852 0.490689
O O5 0.326954 0.750000 0.384176
O O6 0.182250 0.974197 0.222273
O O7 0.500000 0.000000 0.500000
O O8 0.218567 0.990582 0.349467
O O9 0.324636 0.750000 0.851595
O O10 0.153378 0.988097 0.759073
O O11 0.292241 0.989649 0.770287
O O12 0.500000 0.000000 0.000000
O O13 0.751482 0.250000 0.935191
O O14 0.828511 0.512707 0.955402
O O15 0.864137 0.465784 0.081302
O O16 0.012604 0.250000 0.960587
O O17 0.000000 0.500000 0.000000
O O18 0.180436 0.250000 0.649669
O O19 0.000000 0.000000 0.500000
O O20 0.908448 0.750000 0.719808
O O21 0.968164 0.511078 0.706174
O O22 0.028860 0.250000 0.351016
#
# Coordination Sequence:
#
# PCOD8076024 Si02
#       8
#     4   4   4   4   4   4   4   4
#     4   9  18  33  55  81 108 144 186 227 273 332
#     4  10  21  37  57  82 113 147 183 224 273 327
#     4  11  23  39  58  84 115 150 194 241 291 344
#     4   9  18  33  55  80 106 142 188 227 269 326
#     4  10  21  37  57  82 114 147 181 224 274 325
#     4  11  21  37  60  84 115 152 192 239 289 342
#     4   9  18  33  55  79 106 144 187 228 270 323
#     4   9  18  34  55  79 109 144 185 229 273 331
#
# _framework density 18.576606999999999
#
# number of rings (size 3 to 8) (size 9 to 14) (size 15 to 20)
#    0.000    2.250    1.250    1.500    1.750    2.500 
#    0.000    5.000    0.000    0.000    0.000    0.000 
#    0.000    0.000    0.000    0.000    0.000    0.000 
#
# Total GULP energy -396802.124071 kJ/mol
# GULP energy per Si atom -12400.066377 kJ/mol
# Density = 1.853433 g / cm^3
# Si number density = 18.576607 Si / 1000 Ang^3
#
#
#
# Elastic Constant Matrix: (Units=GPa)
#
#
# Indices 1 2 3 4 5 6 
#
# 1 175.2496 48.5966 104.2053 0.0000 -0.9324 0.0000
# 2 48.5966 50.9069 42.9460 0.0000 2.9149 0.0000
# 3 104.2053 42.9460 174.3412 0.0000 14.2283 0.0000
# 4 0.0000 0.0000 0.0000 28.4342 0.0000 0.8794
# 5 -0.9324 2.9149 14.2283 0.0000 35.3837 0.0000
# 6 0.0000 0.0000 0.0000 0.8794 0.0000 31.1247
#
#
#
# Elastic Compliance Matrix: (Units=1/GPa)
#
#
# Indices 1 2 3 4 5 6 
#
# 1 0.010255 -0.005791 -0.004926 0.000000 0.002728 0.000000
# 2 -0.005791 0.028073 -0.003363 0.000000 -0.001113 0.000000
# 3 -0.004926 -0.003363 0.009819 0.000000 -0.003801 0.000000
# 4 0.000000 0.000000 0.000000 0.035200 0.000000 -0.000995
# 5 0.002728 -0.001113 -0.003801 0.000000 0.029954 0.000000
# 6 0.000000 0.000000 0.000000 -0.000995 0.000000 0.032157
#
#
# Mechanical properties :
#
#
# Convention : Reuss Voigt Hill
#
# Bulk Modulus (GPa) = 50.03218 87.99929 69.01573
# Shear Modulus (GPa) = 27.73475 32.63851 30.18663
#
# Velocity S-wave (km/s) = 3.86812 4.19617 4.03548
# Velocity P-wave (km/s) = 6.85136 8.42324 7.67763
#
# Compressibility (1/GPa) = 0.01998714
#
# Stress axis : x y z
#
# Youngs Moduli (GPa) = 97.50925 35.62199 101.84434
#
# Poissons Ratio (x) = 0.20627 0.50169
# Poissons Ratio (y) = 0.56463 0.34253
# Poissons Ratio (z) = 0.48033 0.11981
#
# Static dielectric constant tensor:
#      x y z
#    x 3.554710 0.000000 0.002280 
#    y 0.000000 3.265930 0.000000 
#    z 0.002280 0.000000 3.679050 
# 
# 
# High freq. dielectric constant tensor:
#      x y z
#    x 1.731270 0.000000 -0.000040 
#    y 0.000000 1.700870 0.000000 
#    z -0.000040 0.000000 1.731570 
# 
# From -- ./inp_files/67132.got.cif
#   From: 2010.06.25/outbox.cif.g09.slc.cpg/sg11_34_cif.got.tgz:67132.got - 2010.06.27 23:14:04.
