data_PCOD8076038
_publ_section_title
;
Structure prediction by ZEFSAII (Michael W. Deem and Ramdas Pophale) SiO2 
 PCOD8076038
Probable space group: P 21/M
;
_chemical_formula_sum "Si O2"
_cell_formula_units_Z 28
_cell_length_a 15.378198
_cell_length_b 9.289885
_cell_length_c 20.271821
_cell_angle_alpha 90.000000
_cell_angle_beta 150.801370
_cell_angle_gamma 90.000000
_cell_volume 1412.813629
_symmetry_space_group_name_H-M "P 21/M"
_symmetry_group_IT_number 11
_symmetry_cell_setting 'monoclinic'
loop_
_space_group_symop_operation_xyz
x,y,z
-x,1/2+y,-z
-x,-y,-z
x,1/2-y,z
loop_
_atom_site_type_symbol
_atom_site_label
_atom_site_fract_x
_atom_site_fract_y
_atom_site_fract_z
Si Si1 0.658241 0.417117 0.069572
Si Si2 0.756425 0.416623 0.639973
Si Si3 0.836241 0.916972 0.074643
Si Si4 0.615457 0.584482 0.805098
Si Si5 0.930408 0.085903 0.362454
Si Si6 0.463670 0.917489 0.375282
Si Si7 0.756642 0.417335 0.381399
O O1 0.606065 0.250000 0.026367
O O2 0.700839 0.487464 0.027552
O O3 0.834538 0.436105 0.229849
O O4 0.500000 0.500000 0.000000
O O5 0.739565 0.250000 0.609239
O O6 0.671637 0.446623 0.654945
O O7 0.654034 0.508077 0.516418
O O8 0.961203 0.466432 0.779111
O O9 0.807913 0.750000 0.075086
O O10 0.787901 0.940395 0.965581
O O11 0.602995 0.750000 0.773606
O O12 0.629304 0.484542 0.750440
O O13 0.444371 0.539424 0.735174
O O14 0.984497 0.250000 0.410435
O O15 0.799917 0.033270 0.335226
O O16 0.111207 0.994993 0.480032
O O17 0.498906 0.750000 0.386637
O O18 0.788455 0.250000 0.412063
#
# Coordination Sequence:
#
# PCOD8076038 Si02
#       7
#     4   4   4   4   4   4   4
#     4  11  23  38  57  82 115 153 195 240 288 341
#     4   9  20  40  62  86 116 153 194 237 292 351
#     4  10  22  40  61  84 116 155 197 242 290 347
#     4  10  21  37  57  83 115 153 191 236 293 348
#     4   9  19  35  53  76 106 142 185 236 283 328
#     4  10  21  37  60  88 118 151 192 242 290 345
#     4   9  18  33  53  76 106 143 185 227 278 341
#
# _framework density 19.818608000000001
#
# number of rings (size 3 to 8) (size 9 to 14) (size 15 to 20)
#    0.000    2.286    0.000    1.714    2.000    6.286 
#    0.000    2.857    0.000    0.000    0.000    0.000 
#    0.000    0.000    0.000    0.000    0.000    0.000 
#
# Total GULP energy -347284.265306 kJ/mol
# GULP energy per Si atom -12403.009475 kJ/mol
# Density = 1.977350 g / cm^3
# Si number density = 19.818608 Si / 1000 Ang^3
#
#
#
# Elastic Constant Matrix: (Units=GPa)
#
#
# Indices 1 2 3 4 5 6 
#
# 1 65.8096 45.5063 35.1845 0.0000 -7.6072 0.0000
# 2 45.5063 83.1176 45.2593 0.0000 -3.4979 0.0000
# 3 35.1845 45.2593 89.0813 0.0000 0.1667 0.0000
# 4 0.0000 0.0000 0.0000 31.3463 0.0000 -4.8731
# 5 -7.6072 -3.4979 0.1667 0.0000 30.9773 0.0000
# 6 0.0000 0.0000 0.0000 -4.8731 0.0000 34.0371
#
#
#
# Elastic Compliance Matrix: (Units=1/GPa)
#
#
# Indices 1 2 3 4 5 6 
#
# 1 0.026292 -0.011776 -0.004411 0.000000 0.005151 0.000000
# 2 -0.011776 0.022022 -0.006537 0.000000 -0.000370 0.000000
# 3 -0.004411 -0.006537 0.016293 0.000000 -0.001909 0.000000
# 4 0.000000 0.000000 0.000000 0.032628 0.000000 0.004671
# 5 0.005151 -0.000370 -0.001909 0.000000 0.033515 0.000000
# 6 0.000000 0.000000 0.000000 0.004671 0.000000 0.030049
#
#
# Mechanical properties :
#
#
# Convention : Reuss Voigt Hill
#
# Bulk Modulus (GPa) = 52.19521 54.43430 53.31476
# Shear Modulus (GPa) = 23.51466 26.74271 25.12868
#
# Velocity S-wave (km/s) = 3.44829 3.67737 3.56467
# Velocity P-wave (km/s) = 6.49984 6.74956 6.62588
#
# Compressibility (1/GPa) = 0.01915884
#
# Stress axis : x y z
#
# Youngs Moduli (GPa) = 38.03433 45.40838 61.37673
#
# Poissons Ratio (x) = 0.53473 0.27075
# Poissons Ratio (y) = 0.44789 0.40122
# Poissons Ratio (z) = 0.16778 0.29683
#
# Static dielectric constant tensor:
#      x y z
#    x 3.542390 0.000000 -0.067910 
#    y 0.000000 3.571440 0.000000 
#    z -0.067910 0.000000 3.680480 
# 
# 
# High freq. dielectric constant tensor:
#      x y z
#    x 1.767450 0.000000 -0.004400 
#    y 0.000000 1.768330 0.000000 
#    z -0.004400 0.000000 1.776880 
# 
# From -- ./inp_files/65430.got.cif
#   From: 2010.06.25/outbox.cif.g09.slc.cpg/sg11_33_cif.got.tgz:65430.got - 2010.06.27 23:14:04.
