data_PCOD8076081
_publ_section_title
;
Structure prediction by ZEFSAII (Michael W. Deem and Ramdas Pophale) SiO2 
 PCOD8076081
Probable space group: P 21/M
;
_chemical_formula_sum "Si O2"
_cell_formula_units_Z 28
_cell_length_a 7.939609
_cell_length_b 9.170547
_cell_length_c 27.867686
_cell_angle_alpha 90.000000
_cell_angle_beta 135.418954
_cell_angle_gamma 90.000000
_cell_volume 1424.233892
_symmetry_space_group_name_H-M "P 21/M"
_symmetry_group_IT_number 11
_symmetry_cell_setting 'monoclinic'
loop_
_space_group_symop_operation_xyz
x,y,z
-x,1/2+y,-z
-x,-y,-z
x,1/2-y,z
loop_
_atom_site_type_symbol
_atom_site_label
_atom_site_fract_x
_atom_site_fract_y
_atom_site_fract_z
Si Si1 0.068323 0.085074 0.306031
Si Si2 0.538165 0.914926 0.693969
Si Si3 0.718662 0.090616 0.564562
Si Si4 0.273386 0.080204 0.832279
Si Si5 0.111995 0.580204 0.167722
Si Si6 0.895854 0.590616 0.435438
Si Si7 0.178556 0.579459 0.071422
O O1 0.995313 0.250000 0.304698
O O2 0.300735 0.083235 0.320294
O O3 0.131376 0.997046 0.365999
O O4 0.845322 0.010419 0.234483
O O5 0.471820 0.750000 0.695302
O O6 0.672904 0.989580 0.765517
O O7 0.301382 0.002955 0.634001
O O8 0.635011 0.250000 0.567780
O O9 0.884854 0.121437 0.553942
O O10 0.500000 0.000000 0.500000
O O11 0.246172 0.250000 0.814025
O O12 0.551806 0.033731 0.889319
O O13 0.141578 0.045573 0.856631
O O14 0.176052 0.750000 0.185977
O O15 0.105214 0.533735 0.110681
O O16 0.796112 0.750000 0.432220
O O17 0.000000 0.500000 0.500000
O O18 0.143540 0.750000 0.057414
O O19 0.000000 0.500000 0.000000
#
# Coordination Sequence:
#
# PCOD8076081 Si02
#       7
#     4   4   4   4   4   4   4
#     4  10  21  37  58  85 114 145 186 236 288 344
#     4  10  21  37  58  85 114 145 186 236 288 344
#     4  11  24  39  56  80 111 148 190 236 286 341
#     4   9  19  37  59  83 115 154 193 237 289 344
#     4   9  19  37  59  83 115 154 193 237 289 344
#     4  11  24  39  56  80 111 148 190 236 286 341
#     4  10  22  38  58  86 118 152 194 240 290 352
#
# _framework density 19.659692
#
# number of rings (size 3 to 8) (size 9 to 14) (size 15 to 20)
#    0.000    2.000    0.000    2.571    2.000    9.143 
#    0.000    0.000    0.000    0.000    0.000    0.000 
#    0.000    0.000    0.000    0.000    0.000    0.000 
#
# Total GULP energy -347155.712891 kJ/mol
# GULP energy per Si atom -12398.418318 kJ/mol
# Density = 1.961495 g / cm^3
# Si number density = 19.659692 Si / 1000 Ang^3
#
#
#
# Elastic Constant Matrix: (Units=GPa)
#
#
# Indices 1 2 3 4 5 6 
#
# 1 97.3834 49.9882 77.3744 0.0000 2.4530 0.0000
# 2 49.9882 138.2106 88.2174 0.0000 1.7608 0.0000
# 3 77.3744 88.2174 155.5753 0.0000 0.2294 0.0000
# 4 0.0000 0.0000 0.0000 42.2974 0.0000 1.0232
# 5 2.4530 1.7608 0.2294 0.0000 36.5215 0.0000
# 6 0.0000 0.0000 0.0000 1.0232 0.0000 20.0856
#
#
#
# Elastic Compliance Matrix: (Units=1/GPa)
#
#
# Indices 1 2 3 4 5 6 
#
# 1 0.017140 -0.001169 -0.007860 0.000000 -0.001046 0.000000
# 2 -0.001169 0.011429 -0.005898 0.000000 -0.000435 0.000000
# 3 -0.007860 -0.005898 0.013681 0.000000 0.000726 0.000000
# 4 0.000000 0.000000 0.000000 0.023671 0.000000 -0.001206
# 5 -0.001046 -0.000435 0.000726 0.000000 0.027468 0.000000
# 6 0.000000 0.000000 0.000000 -0.001206 0.000000 0.049848
#
#
# Mechanical properties :
#
#
# Convention : Reuss Voigt Hill
#
# Bulk Modulus (GPa) = 80.68310 91.36992 86.02651
# Shear Modulus (GPa) = 28.21298 31.48686 29.84992
#
# Velocity S-wave (km/s) = 3.79234 4.00633 3.90080
# Velocity P-wave (km/s) = 7.76561 8.24485 8.00882
#
# Compressibility (1/GPa) = 0.01239417
#
# Stress axis : x y z
#
# Youngs Moduli (GPa) = 58.34207 87.50036 73.09647
#
# Poissons Ratio (x) = 0.10228 0.57455
# Poissons Ratio (y) = 0.06820 0.43115
# Poissons Ratio (z) = 0.45858 0.51611
#
# Static dielectric constant tensor:
#      x y z
#    x 3.776900 0.000000 -0.007270 
#    y 0.000000 3.698310 0.000000 
#    z -0.007270 0.000000 3.618630 
# 
# 
# High freq. dielectric constant tensor:
#      x y z
#    x 1.771410 0.000000 -0.000440 
#    y 0.000000 1.778960 0.000000 
#    z -0.000440 0.000000 1.761920 
# 
# From -- ./inp_files/66693.got.cif
#   From: 2010.06.25/outbox.cif.g09.slc.cpg/sg11_34_cif.got.tgz:66693.got - 2010.06.27 23:14:04.
