data_PCOD8076461
_publ_section_title
;
Structure prediction by ZEFSAII (Michael W. Deem and Ramdas Pophale) SiO2 
 PCOD8076461
Probable space group: P 21/M
;
_chemical_formula_sum "Si O2"
_cell_formula_units_Z 32
_cell_length_a 11.666897
_cell_length_b 18.654406
_cell_length_c 8.981946
_cell_angle_alpha 90.000000
_cell_angle_beta 57.265853
_cell_angle_gamma 90.000000
_cell_volume 1644.374140
_symmetry_space_group_name_H-M "P 21/M"
_symmetry_group_IT_number 11
_symmetry_cell_setting 'monoclinic'
loop_
_space_group_symop_operation_xyz
x,y,z
-x,1/2+y,-z
-x,-y,-z
x,1/2-y,z
loop_
_atom_site_type_symbol
_atom_site_label
_atom_site_fract_x
_atom_site_fract_y
_atom_site_fract_z
Si Si1 0.537745 0.076752 0.043976
Si Si2 0.248675 0.074919 0.312676
Si Si3 0.785470 0.051210 0.447624
Si Si4 0.007862 0.668052 0.004860
Si Si5 0.742614 0.164886 0.707770
Si Si6 0.912675 0.950328 0.862722
Si Si7 0.030334 0.331491 0.634055
Si Si8 0.756426 0.066872 0.142356
O O1 0.395030 0.113852 0.192861
O O2 0.625893 0.067832 0.130719
O O3 0.611381 0.129539 0.877106
O O4 0.500000 0.000000 0.000000
O O5 0.202919 0.051104 0.180971
O O6 0.137478 0.125794 0.461865
O O7 0.275935 0.004637 0.392509
O O8 0.764032 0.131220 0.528846
O O9 0.708785 0.045494 0.342829
O O10 0.944349 0.031925 0.315417
O O11 0.007415 0.750000 0.954325
O O12 0.936900 0.658361 0.215399
O O13 0.165650 0.643026 0.901263
O O14 0.920856 0.624905 0.944187
O O15 0.721401 0.250000 0.708838
O O16 0.875379 0.143339 0.711948
O O17 0.873311 0.012110 0.006158
O O18 0.044720 0.250000 0.572472
#
# Coordination Sequence:
#
# PCOD8076461 Si02
#       8
#     4   4   4   4   4   4   4   4
#     4  12  24  42  64  92 129 169 212 252 310 384
#     4  12  23  38  63  92 129 161 208 258 307 372
#     4  11  22  36  63  94 121 161 208 269 308 364
#     4  10  21  38  62  91 123 159 206 263 317 369
#     4  11  23  42  64  90 125 166 211 259 316 374
#     4  11  21  36  62  92 128 157 205 258 320 362
#     4  10  21  39  63  90 122 162 208 260 313 366
#     4  11  22  39  61  94 129 165 208 254 317 366
#
# _framework density 19.460291999999999
#
# number of rings (size 3 to 8) (size 9 to 14) (size 15 to 20)
#    0.000    1.000    5.000    3.375    0.000    3.500 
#    0.000    0.000    0.000    1.500    0.000    0.000 
#    0.000    0.000    0.000    0.000    0.000    0.000 
#
# Total GULP energy -396853.894243 kJ/mol
# GULP energy per Si atom -12401.684195 kJ/mol
# Density = 1.941600 g / cm^3
# Si number density = 19.460292 Si / 1000 Ang^3
#
#
#
# Elastic Constant Matrix: (Units=GPa)
#
#
# Indices 1 2 3 4 5 6 
#
# 1 84.3320 20.7786 46.3991 0.0000 5.7017 0.0000
# 2 20.7786 82.3721 49.6215 0.0000 -3.8385 0.0000
# 3 46.3991 49.6215 109.6628 0.0000 2.6147 0.0000
# 4 0.0000 0.0000 0.0000 35.0436 0.0000 1.9923
# 5 5.7017 -3.8385 2.6147 0.0000 41.9603 0.0000
# 6 0.0000 0.0000 0.0000 1.9923 0.0000 19.1551
#
#
#
# Elastic Compliance Matrix: (Units=1/GPa)
#
#
# Indices 1 2 3 4 5 6 
#
# 1 0.015578 -0.000088 -0.006510 0.000000 -0.001719 0.000000
# 2 -0.000088 0.016859 -0.007640 0.000000 0.002030 0.000000
# 3 -0.006510 -0.007640 0.015349 0.000000 -0.000771 0.000000
# 4 0.000000 0.000000 0.000000 0.028706 0.000000 -0.002986
# 5 -0.001719 0.002030 -0.000771 0.000000 0.024299 0.000000
# 6 0.000000 0.000000 0.000000 -0.002986 0.000000 0.052516
#
#
# Mechanical properties :
#
#
# Convention : Reuss Voigt Hill
#
# Bulk Modulus (GPa) = 51.78759 56.66280 54.22519
# Shear Modulus (GPa) = 26.56481 29.86964 28.21722
#
# Velocity S-wave (km/s) = 3.69870 3.92203 3.81200
# Velocity P-wave (km/s) = 6.70151 7.04912 6.87751
#
# Compressibility (1/GPa) = 0.01930964
#
# Stress axis : x y z
#
# Youngs Moduli (GPa) = 64.19431 59.31522 65.15178
#
# Poissons Ratio (x) = 0.00521 0.42416
# Poissons Ratio (y) = 0.00563 0.49775
# Poissons Ratio (z) = 0.41793 0.45316
#
# Static dielectric constant tensor:
#      x y z
#    x 3.513760 0.000000 0.068990 
#    y 0.000000 3.510450 0.000000 
#    z 0.068990 0.000000 3.721080 
# 
# 
# High freq. dielectric constant tensor:
#      x y z
#    x 1.745260 0.000000 0.012530 
#    y 0.000000 1.753360 0.000000 
#    z 0.012530 0.000000 1.771580 
# 
# From -- ./inp_files/18812.got.cif
#   From: 2010.06.25/outbox.cif.g09.slc.cpg/sg11_10_cif.got.tgz:18812.got - 2010.06.27 23:14:04.
