data_PCOD8076437
_publ_section_title
;
Structure prediction by ZEFSAII (Michael W. Deem and Ramdas Pophale) SiO2 
 PCOD8076437
Probable space group: P 21/M
;
_chemical_formula_sum "Si O2"
_cell_formula_units_Z 24
_cell_length_a 13.400455
_cell_length_b 14.711147
_cell_length_c 11.148512
_cell_angle_alpha 90.000000
_cell_angle_beta 33.378736
_cell_angle_gamma 90.000000
_cell_volume 1209.151101
_symmetry_space_group_name_H-M "P 21/M"
_symmetry_group_IT_number 11
_symmetry_cell_setting 'monoclinic'
loop_
_space_group_symop_operation_xyz
x,y,z
-x,1/2+y,-z
-x,-y,-z
x,1/2-y,z
loop_
_atom_site_type_symbol
_atom_site_label
_atom_site_fract_x
_atom_site_fract_y
_atom_site_fract_z
Si Si1 0.529464 0.893991 0.477568
Si Si2 0.194610 0.512364 0.451444
Si Si3 0.165543 0.146978 0.656231
Si Si4 0.227463 0.015770 0.145500
Si Si5 0.514444 0.352651 0.749140
Si Si6 0.243541 0.850487 0.961427
O O1 0.730480 0.873478 0.324748
O O2 0.511426 0.848450 0.367176
O O3 0.383853 0.850786 0.712479
O O4 0.500000 0.000000 0.500000
O O5 0.235724 0.419210 0.480813
O O6 0.268535 0.498573 0.243662
O O7 0.300415 0.594969 0.406519
O O8 0.982970 0.537584 0.665765
O O9 0.201660 0.250000 0.576451
O O10 0.954349 0.129276 0.894995
O O11 0.341275 0.100428 0.983609
O O12 0.292627 0.924437 0.012657
O O13 0.528821 0.250000 0.783736
O O14 0.247516 0.750000 0.017298
#
# Coordination Sequence:
#
# PCOD8076437 Si02
#       6
#     4   4   4   4   4   4
#     4  12  22  39  62  84 119 158 196 242 296 351
#     4  10  22  41  63  88 120 156 197 244 293 346
#     4  10  21  38  62  89 116 153 199 244 294 351
#     4  10  22  41  63  88 120 156 197 244 293 346
#     4  12  25  39  58  89 123 158 198 239 294 351
#     4  10  21  38  62  89 116 153 199 244 294 351
#
# _framework density 19.848635000000002
#
# number of rings (size 3 to 8) (size 9 to 14) (size 15 to 20)
#    0.000    1.333    3.333    2.000    0.000    4.000 
#    0.000    3.333    0.000    0.000    0.000    0.000 
#    0.000    0.000    0.000    0.000    0.000    0.000 
#
# Total GULP energy -297697.768639 kJ/mol
# GULP energy per Si atom -12404.073693 kJ/mol
# Density = 1.980346 g / cm^3
# Si number density = 19.848635 Si / 1000 Ang^3
#
#
#
# Elastic Constant Matrix: (Units=GPa)
#
#
# Indices 1 2 3 4 5 6 
#
# 1 83.4550 10.8156 -3.0513 0.0000 5.8709 0.0000
# 2 10.8156 128.8358 -0.7643 0.0000 -5.6811 0.0000
# 3 -3.0513 -0.7643 48.5863 0.0000 5.9733 0.0000
# 4 0.0000 0.0000 0.0000 22.8440 0.0000 -10.0090
# 5 5.8709 -5.6811 5.9733 0.0000 29.4005 0.0000
# 6 0.0000 0.0000 0.0000 -10.0090 0.0000 15.9885
#
#
#
# Elastic Compliance Matrix: (Units=1/GPa)
#
#
# Indices 1 2 3 4 5 6 
#
# 1 0.012380 -0.001162 0.001119 0.000000 -0.002924 0.000000
# 2 -0.001162 0.007938 -0.000169 0.000000 0.001800 0.000000
# 3 0.001119 -0.000169 0.021211 0.000000 -0.004566 0.000000
# 4 0.000000 0.000000 0.000000 0.060320 0.000000 0.037761
# 5 -0.002924 0.001800 -0.004566 0.000000 0.035872 0.000000
# 6 0.000000 0.000000 0.000000 0.037761 0.000000 0.086184
#
#
# Mechanical properties :
#
#
# Convention : Reuss Voigt Hill
#
# Bulk Modulus (GPa) = 24.32879 30.54190 27.43534
# Shear Modulus (GPa) = 21.00574 30.57173 25.78874
#
# Velocity S-wave (km/s) = 3.25668 3.92885 3.60845
# Velocity P-wave (km/s) = 5.14053 6.00016 5.58690
#
# Compressibility (1/GPa) = 0.04110357
#
# Stress axis : x y z
#
# Youngs Moduli (GPa) = 80.77792 125.98105 47.14571
#
# Poissons Ratio (x) = 0.14633 -0.05274
# Poissons Ratio (y) = 0.09383 0.00799
# Poissons Ratio (z) = -0.09036 0.02134
#
# Static dielectric constant tensor:
#      x y z
#    x 3.798880 0.000000 -0.006230 
#    y 0.000000 3.698510 0.000000 
#    z -0.006230 0.000000 3.797870 
# 
# 
# High freq. dielectric constant tensor:
#      x y z
#    x 1.778730 0.000000 -0.010990 
#    y 0.000000 1.784330 0.000000 
#    z -0.010990 0.000000 1.777590 
# 
# From -- ./inp_files/39544.got.cif
#   From: 2010.06.25/outbox.cif.g09.slc.cpg/sg11_20_cif.got.tgz:39544.got - 2010.06.27 23:14:04.
