data_PCOD8076797
_publ_section_title
;
Structure prediction by ZEFSAII (Michael W. Deem and Ramdas Pophale) SiO2 
 PCOD8076797
Probable space group: P 21/M
;
_chemical_formula_sum "Si O2"
_cell_formula_units_Z 28
_cell_length_a 14.598235
_cell_length_b 16.600152
_cell_length_c 6.570046
_cell_angle_alpha 90.000000
_cell_angle_beta 121.742332
_cell_angle_gamma 90.000000
_cell_volume 1353.990570
_symmetry_space_group_name_H-M "P 21/M"
_symmetry_group_IT_number 11
_symmetry_cell_setting 'monoclinic'
loop_
_space_group_symop_operation_xyz
x,y,z
-x,1/2+y,-z
-x,-y,-z
x,1/2-y,z
loop_
_atom_site_type_symbol
_atom_site_label
_atom_site_fract_x
_atom_site_fract_y
_atom_site_fract_z
Si Si1 0.906635 0.429568 0.778363
Si Si2 0.012289 0.416240 0.297019
Si Si3 0.379601 0.419400 0.708274
Si Si4 0.262714 0.037752 0.179248
Si Si5 0.622879 0.066415 0.010959
Si Si6 0.827361 0.341378 0.326332
Si Si7 0.793952 0.657142 0.230842
O O1 0.822832 0.480504 0.812995
O O2 0.850525 0.356784 0.592539
O O3 0.960066 0.488166 0.668712
O O4 0.996261 0.393649 0.037664
O O5 0.899541 0.400653 0.275877
O O6 0.107462 0.363999 0.504199
O O7 0.330265 0.413414 0.425985
O O8 0.504887 0.395419 0.849001
O O9 0.318055 0.356945 0.782323
O O10 0.367253 0.510526 0.777301
O O11 0.348299 0.985249 0.153770
O O12 0.200722 0.101725 0.963488
O O13 0.703336 0.141028 0.132842
O O14 0.854653 0.250000 0.303434
O O15 0.803203 0.750000 0.176285
#
# Coordination Sequence:
#
# PCOD8076797 Si02
#       7
#     4   4   4   4   4   4   4
#     4  11  23  40  69  90 119 165 216 253 303 375
#     4  11  24  42  64  89 122 163 210 258 302 370
#     4  10  21  40  68  90 118 164 211 259 300 368
#     4  11  20  41  65  95 120 160 215 259 300 364
#     4  10  21  40  65  93 121 158 212 254 309 368
#     4  12  25  40  60  92 131 163 201 259 321 372
#     4  11  25  40  58  91 130 163 204 257 316 369
#
# _framework density 20.679613
#
# number of rings (size 3 to 8) (size 9 to 14) (size 15 to 20)
#    0.000    1.143    4.286    2.143    4.000    2.286 
#    0.000    0.000    0.000    0.000    0.000    0.000 
#    0.000    0.000    0.000    0.000    0.000    0.000 
#
# Total GULP energy -347236.286960 kJ/mol
# GULP energy per Si atom -12401.295963 kJ/mol
# Density = 2.063254 g / cm^3
# Si number density = 20.679613 Si / 1000 Ang^3
#
#
#
# Elastic Constant Matrix: (Units=GPa)
#
#
# Indices 1 2 3 4 5 6 
#
# 1 112.8571 34.4687 38.9712 0.0000 14.6990 0.0000
# 2 34.4687 74.1700 39.2224 0.0000 -2.3443 0.0000
# 3 38.9712 39.2224 115.0547 0.0000 1.8055 0.0000
# 4 0.0000 0.0000 0.0000 24.1776 0.0000 1.7249
# 5 14.6990 -2.3443 1.8055 0.0000 29.6016 0.0000
# 6 0.0000 0.0000 0.0000 1.7249 0.0000 17.9993
#
#
#
# Elastic Compliance Matrix: (Units=1/GPa)
#
#
# Indices 1 2 3 4 5 6 
#
# 1 0.011833 -0.004419 -0.002406 0.000000 -0.006079 0.000000
# 2 -0.004419 0.018178 -0.004762 0.000000 0.003924 0.000000
# 3 -0.002406 -0.004762 0.011128 0.000000 0.000139 0.000000
# 4 0.000000 0.000000 0.000000 0.041645 0.000000 -0.003991
# 5 -0.006079 0.003924 0.000139 0.000000 0.037103 0.000000
# 6 0.000000 0.000000 0.000000 -0.003991 0.000000 0.055940
#
#
# Mechanical properties :
#
#
# Convention : Reuss Voigt Hill
#
# Bulk Modulus (GPa) = 55.66341 58.60074 57.13207
# Shear Modulus (GPa) = 24.39149 26.98366 25.68757
#
# Velocity S-wave (km/s) = 3.43810 3.61618 3.52827
# Velocity P-wave (km/s) = 6.53729 6.77013 6.65473
#
# Compressibility (1/GPa) = 0.01796512
#
# Stress axis : x y z
#
# Youngs Moduli (GPa) = 84.50931 55.01086 89.86553
#
# Poissons Ratio (x) = 0.24308 0.21625
# Poissons Ratio (y) = 0.37342 0.42793
# Poissons Ratio (z) = 0.20336 0.26195
#
# Static dielectric constant tensor:
#      x y z
#    x 3.846790 0.000000 0.006510 
#    y 0.000000 3.322390 0.000000 
#    z 0.006510 0.000000 4.077080 
# 
# 
# High freq. dielectric constant tensor:
#      x y z
#    x 1.817920 0.000000 0.000720 
#    y 0.000000 1.771800 0.000000 
#    z 0.000720 0.000000 1.827390 
# 
# From -- ./inp_files/6879.got.cif
#   From: 2010.06.25/outbox.cif.g09.slc.cpg/sg11_4_cif.got.tgz:6879.got - 2010.06.27 23:14:04.
