data_PCOD8076645
_publ_section_title
;
Structure prediction by ZEFSAII (Michael W. Deem and Ramdas Pophale) SiO2 
 PCOD8076645
Probable space group: P 21/M
;
_chemical_formula_sum "Si O2"
_cell_formula_units_Z 28
_cell_length_a 21.623711
_cell_length_b 8.520017
_cell_length_c 14.639123
_cell_angle_alpha 90.000000
_cell_angle_beta 149.042392
_cell_angle_gamma 90.000000
_cell_volume 1387.362212
_symmetry_space_group_name_H-M "P 21/M"
_symmetry_group_IT_number 11
_symmetry_cell_setting 'monoclinic'
loop_
_space_group_symop_operation_xyz
x,y,z
-x,1/2+y,-z
-x,-y,-z
x,1/2-y,z
loop_
_atom_site_type_symbol
_atom_site_label
_atom_site_fract_x
_atom_site_fract_y
_atom_site_fract_z
Si Si1 0.283335 0.934119 0.736571
Si Si2 0.863035 0.067745 0.738046
Si Si3 0.645448 0.930504 0.355872
Si Si4 0.186598 0.069012 0.940052
Si Si5 0.887202 0.432198 0.975205
Si Si6 0.969488 0.566767 0.559538
Si Si7 0.625971 0.067807 0.951825
O O1 0.304869 0.750000 0.753162
O O2 0.361738 0.022694 0.759625
O O3 0.144219 0.975371 0.543622
O O4 0.324788 0.993956 0.888470
O O5 0.896969 0.250000 0.774582
O O6 0.740854 0.036814 0.529415
O O7 0.845981 0.016602 0.821785
O O8 0.971822 0.970346 0.831262
O O9 0.683436 0.750000 0.413126
O O10 0.515785 0.961070 0.235844
O O11 0.154976 0.250000 0.884009
O O12 0.194851 0.030335 0.058138
O O13 0.082216 0.959633 0.767655
O O14 0.312622 0.029674 0.051407
O O15 0.865086 0.250000 0.965102
O O16 0.939788 0.750000 0.515107
O O17 0.000000 0.500000 0.500000
O O18 0.659362 0.250000 0.983227
#
# Coordination Sequence:
#
# PCOD8076645 Si02
#       7
#     4   4   4   4   4   4   4
#     4  11  22  38  60  85 116 156 199 244 291 343
#     4  10  21  39  63  91 119 149 191 241 293 347
#     4  11  23  39  60  86 117 155 197 243 293 344
#     4  12  24  38  60  88 119 156 195 239 293 350
#     4  10  21  39  64  90 119 152 188 239 295 349
#     4  12  23  37  57  84 118 153 192 237 288 342
#     4  10  23  41  59  81 116 159 200 243 288 342
#
# _framework density 20.182183999999999
#
# number of rings (size 3 to 8) (size 9 to 14) (size 15 to 20)
#    0.000    1.143    1.429    5.571    0.000    3.429 
#    0.000    0.714    0.000    0.000    0.000    0.000 
#    0.000    0.000    0.000    0.000    0.000    0.000 
#
# Total GULP energy -347407.456763 kJ/mol
# GULP energy per Si atom -12407.409170 kJ/mol
# Density = 2.013625 g / cm^3
# Si number density = 20.182184 Si / 1000 Ang^3
#
#
#
# Elastic Constant Matrix: (Units=GPa)
#
#
# Indices 1 2 3 4 5 6 
#
# 1 133.3825 34.0559 33.3775 0.0000 -1.3107 0.0000
# 2 34.0559 63.0024 13.0322 0.0000 1.1509 0.0000
# 3 33.3775 13.0322 64.0596 0.0000 1.3388 0.0000
# 4 0.0000 0.0000 0.0000 27.1159 0.0000 0.7566
# 5 -1.3107 1.1509 1.3388 0.0000 23.8403 0.0000
# 6 0.0000 0.0000 0.0000 0.7566 0.0000 35.3973
#
#
#
# Elastic Compliance Matrix: (Units=1/GPa)
#
#
# Indices 1 2 3 4 5 6 
#
# 1 0.009668 -0.004382 -0.004166 0.000000 0.000977 0.000000
# 2 -0.004382 0.018565 -0.001471 0.000000 -0.001055 0.000000
# 3 -0.004166 -0.001471 0.018105 0.000000 -0.001175 0.000000
# 4 0.000000 0.000000 0.000000 0.036901 0.000000 -0.000789
# 5 0.000977 -0.001055 -0.001175 0.000000 0.042116 0.000000
# 6 0.000000 0.000000 0.000000 -0.000789 0.000000 0.028268
#
#
# Mechanical properties :
#
#
# Convention : Reuss Voigt Hill
#
# Bulk Modulus (GPa) = 38.02551 46.81952 42.42251
# Shear Modulus (GPa) = 27.40783 29.26928 28.33855
#
# Velocity S-wave (km/s) = 3.68913 3.81235 3.75125
# Velocity P-wave (km/s) = 6.08509 6.52897 6.31093
#
# Compressibility (1/GPa) = 0.02629814
#
# Stress axis : x y z
#
# Youngs Moduli (GPa) = 103.43027 53.86517 55.23260
#
# Poissons Ratio (x) = 0.23605 0.23013
# Poissons Ratio (y) = 0.45326 0.08127
# Poissons Ratio (z) = 0.43094 0.07926
#
# Static dielectric constant tensor:
#      x y z
#    x 3.876470 0.000000 -0.092750 
#    y 0.000000 3.627210 0.000000 
#    z -0.092750 0.000000 3.536310 
# 
# 
# High freq. dielectric constant tensor:
#      x y z
#    x 1.798940 0.000000 -0.000230 
#    y 0.000000 1.795440 0.000000 
#    z -0.000230 0.000000 1.770350 
# 
# From -- ./inp_files/49468.got.cif
#   From: 2010.06.25/outbox.cif.g09.slc.cpg/sg11_25_cif.got.tgz:49468.got - 2010.06.27 23:14:04.
