data_PCOD8076744
_publ_section_title
;
Structure prediction by ZEFSAII (Michael W. Deem and Ramdas Pophale) SiO2 
 PCOD8076744
Probable space group: P 21/M
;
_chemical_formula_sum "Si O2"
_cell_formula_units_Z 26
_cell_length_a 7.909803
_cell_length_b 22.503119
_cell_length_c 6.826612
_cell_angle_alpha 90.000000
_cell_angle_beta 74.013269
_cell_angle_gamma 90.000000
_cell_volume 1168.110878
_symmetry_space_group_name_H-M "P 21/M"
_symmetry_group_IT_number 11
_symmetry_cell_setting 'monoclinic'
loop_
_space_group_symop_operation_xyz
x,y,z
-x,1/2+y,-z
-x,-y,-z
x,1/2-y,z
loop_
_atom_site_type_symbol
_atom_site_label
_atom_site_fract_x
_atom_site_fract_y
_atom_site_fract_z
Si Si1 0.661827 0.457914 0.403834
Si Si2 0.797656 0.250000 0.705279
Si Si3 0.553274 0.750000 0.378434
Si Si4 0.152894 0.365395 0.150589
Si Si5 0.164732 0.429075 0.753816
Si Si6 0.929665 0.750000 0.050103
Si Si7 0.572040 0.636732 0.620940
Si Si8 0.891695 0.381346 0.568224
O O1 0.500000 0.500000 0.500000
O O2 0.817780 0.499059 0.266566
O O3 0.595079 0.406049 0.276251
O O4 0.720793 0.422017 0.581453
O O5 0.582808 0.250000 0.764134
O O6 0.862161 0.310413 0.579934
O O7 0.885480 0.250000 0.891596
O O8 0.756937 0.750000 0.245895
O O9 0.507696 0.695340 0.532843
O O10 0.332025 0.347878 0.206471
O O11 0.019214 0.395341 0.344568
O O12 0.198031 0.412513 0.967975
O O13 0.068071 0.307064 0.086078
O O14 0.304075 0.397295 0.570672
O O15 0.973715 0.405629 0.745008
#
# Coordination Sequence:
#
# PCOD8076744 Si02
#       8
#     4   2   2   4   4   2   4   4
#     4  10  22  41  65  89 127 171 219 266 321 381
#     4  12  23  41  73  96 129 170 216 272 328 394
#     4  12  21  41  71  92 129 174 218 264 338 386
#     4  11  22  38  65  91 131 168 207 268 335 382
#     4  10  21  40  66  90 122 172 213 263 321 384
#     4  12  22  44  64 102 134 168 216 270 332 394
#     4  10  21  40  62  93 126 168 211 268 323 384
#     4  11  22  42  64  95 126 165 216 269 327 385
#
# _framework density 22.258158999999999
#
# number of rings (size 3 to 8) (size 9 to 14) (size 15 to 20)
#    0.000    1.231    4.615    2.308    0.000    1.231 
#    2.769    3.077    0.000    0.000    0.000    0.000 
#    0.000    0.000    0.000    0.000    0.000    0.000 
#
# Total GULP energy -322228.989471 kJ/mol
# GULP energy per Si atom -12393.422672 kJ/mol
# Density = 2.220750 g / cm^3
# Si number density = 22.258159 Si / 1000 Ang^3
#
#
#
# Elastic Constant Matrix: (Units=GPa)
#
#
# Indices 1 2 3 4 5 6 
#
# 1 109.5182 45.2340 30.1533 0.0000 46.5875 0.0000
# 2 45.2340 126.7340 19.5297 0.0000 21.1021 0.0000
# 3 30.1533 19.5297 88.0432 0.0000 29.3206 0.0000
# 4 0.0000 0.0000 0.0000 18.1484 0.0000 10.8945
# 5 46.5875 21.1021 29.3206 0.0000 40.0315 0.0000
# 6 0.0000 0.0000 0.0000 10.8945 0.0000 42.3475
#
#
#
# Elastic Compliance Matrix: (Units=1/GPa)
#
#
# Indices 1 2 3 4 5 6 
#
# 1 0.019504 -0.003537 0.001379 0.000000 -0.021844 0.000000
# 2 -0.003537 0.009310 -0.000781 0.000000 -0.000220 0.000000
# 3 0.001379 -0.000781 0.015152 0.000000 -0.012292 0.000000
# 4 0.000000 0.000000 0.000000 0.065165 0.000000 -0.016765
# 5 -0.021844 -0.000220 -0.012292 0.000000 0.059521 0.000000
# 6 0.000000 0.000000 0.000000 -0.016765 0.000000 0.027927
#
#
# Mechanical properties :
#
#
# Convention : Reuss Voigt Hill
#
# Bulk Modulus (GPa) = 26.25349 57.12548 41.68948
# Shear Modulus (GPa) = 23.23937 35.39738 29.31838
#
# Velocity S-wave (km/s) = 3.23473 3.99220 3.63326
# Velocity P-wave (km/s) = 5.07661 6.85353 6.03087
#
# Compressibility (1/GPa) = 0.03809018
#
# Stress axis : x y z
#
# Youngs Moduli (GPa) = 51.27123 107.41398 65.99660
#
# Poissons Ratio (x) = 0.37990 -0.09103
# Poissons Ratio (y) = 0.18133 0.05152
# Poissons Ratio (z) = -0.07072 0.08385
#
# Static dielectric constant tensor:
#      x y z
#    x 4.362080 0.000000 0.415170 
#    y 0.000000 4.588420 0.000000 
#    z 0.415170 0.000000 3.686750 
# 
# 
# High freq. dielectric constant tensor:
#      x y z
#    x 1.879350 0.000000 0.032040 
#    y 0.000000 1.899340 0.000000 
#    z 0.032040 0.000000 1.842190 
# 
# From -- ./inp_files/2767.got.cif
#   From: 2010.06.25/outbox.cif.g09.slc.cpg/sg11_2_cif.got.tgz:2767.got - 2010.06.27 23:14:04.
