data_PCOD8076113
_publ_section_title
;
Structure prediction by ZEFSAII (Michael W. Deem and Ramdas Pophale) SiO2 
 PCOD8076113
Probable space group: P 21/M
;
_chemical_formula_sum "Si O2"
_cell_formula_units_Z 32
_cell_length_a 23.800861
_cell_length_b 8.891118
_cell_length_c 14.311012
_cell_angle_alpha 90.000000
_cell_angle_beta 147.400898
_cell_angle_gamma 90.000000
_cell_volume 1631.596565
_symmetry_space_group_name_H-M "P 21/M"
_symmetry_group_IT_number 11
_symmetry_cell_setting 'monoclinic'
loop_
_space_group_symop_operation_xyz
x,y,z
-x,1/2+y,-z
-x,-y,-z
x,1/2-y,z
loop_
_atom_site_type_symbol
_atom_site_label
_atom_site_fract_x
_atom_site_fract_y
_atom_site_fract_z
Si Si1 0.727018 0.422700 0.185375
Si Si2 0.804566 0.572204 0.477637
Si Si3 0.302964 0.428829 0.485872
Si Si4 0.538365 0.077237 0.795521
Si Si5 0.975182 0.577926 0.213815
Si Si6 0.405857 0.428064 0.312757
Si Si7 0.098421 0.422413 0.683870
Si Si8 0.215846 0.428418 0.169774
O O1 0.761278 0.250000 0.244883
O O2 0.739650 0.503823 0.301665
O O3 0.797641 0.496024 0.204315
O O4 0.606684 0.437705 0.985353
O O5 0.795496 0.750000 0.459018
O O6 0.754879 0.508260 0.503568
O O7 0.925143 0.527907 0.641496
O O8 0.300064 0.250000 0.482034
O O9 0.422513 0.485325 0.653380
O O10 0.242759 0.493078 0.310314
O O11 0.532805 0.250000 0.753818
O O12 0.593571 0.979832 0.793256
O O13 0.011608 0.750000 0.249729
O O14 0.907749 0.564734 0.213456
O O15 0.899997 0.521074 0.024495
O O16 0.500000 0.500000 0.500000
O O17 0.415191 0.250000 0.330837
O O18 0.300225 0.487077 0.213326
O O19 0.102037 0.250000 0.655814
O O20 0.000000 0.500000 0.500000
O O21 0.220644 0.250000 0.178577
#
# Coordination Sequence:
#
# PCOD8076113 Si02
#       8
#     4   4   4   4   4   4   4   4
#     4  11  23  38  59  86 117 152 189 239 294 341
#     4  11  23  38  59  82 110 152 197 242 287 341
#     4   9  19  38  60  82 111 151 195 235 287 344
#     4  10  21  39  61  85 116 153 192 237 288 345
#     4  10  21  37  59  85 113 148 188 232 283 340
#     4  11  20  34  60  90 120 153 188 230 285 345
#     4  11  21  35  58  86 118 152 187 228 283 346
#     4   9  18  35  60  84 113 152 187 224 279 345
#
# _framework density 19.612691000000002
#
# number of rings (size 3 to 8) (size 9 to 14) (size 15 to 20)
#    0.000    1.750    2.500    2.250    0.000    3.500 
#    0.000    2.500    0.000    0.000    0.000    0.000 
#    0.000    0.000    0.000    0.000    0.000    0.000 
#
# Total GULP energy -396855.606666 kJ/mol
# GULP energy per Si atom -12401.737708 kJ/mol
# Density = 1.956805 g / cm^3
# Si number density = 19.612691 Si / 1000 Ang^3
#
#
#
# Elastic Constant Matrix: (Units=GPa)
#
#
# Indices 1 2 3 4 5 6 
#
# 1 119.3960 30.4702 39.7536 0.0000 -18.9759 0.0000
# 2 30.4702 71.9266 30.2348 0.0000 -8.8842 0.0000
# 3 39.7536 30.2348 126.5188 0.0000 -24.4562 0.0000
# 4 0.0000 0.0000 0.0000 19.7086 0.0000 -1.6515
# 5 -18.9759 -8.8842 -24.4562 0.0000 19.5623 0.0000
# 6 0.0000 0.0000 0.0000 -1.6515 0.0000 24.3248
#
#
#
# Elastic Compliance Matrix: (Units=1/GPa)
#
#
# Indices 1 2 3 4 5 6 
#
# 1 0.010767 -0.003135 -0.001174 0.000000 0.007553 0.000000
# 2 -0.003135 0.016519 -0.002769 0.000000 0.000999 0.000000
# 3 -0.001174 -0.002769 0.011171 0.000000 0.011569 0.000000
# 4 0.000000 0.000000 0.000000 0.051030 0.000000 0.003465
# 5 0.007553 0.000999 0.011569 0.000000 0.073362 0.000000
# 6 0.000000 0.000000 0.000000 0.003465 0.000000 0.041345
#
#
# Mechanical properties :
#
#
# Convention : Reuss Voigt Hill
#
# Bulk Modulus (GPa) = 41.15240 57.63985 49.39613
# Shear Modulus (GPa) = 22.07999 27.21135 24.64567
#
# Velocity S-wave (km/s) = 3.35894 3.72887 3.54873
# Velocity P-wave (km/s) = 6.00594 6.92764 6.48319
#
# Compressibility (1/GPa) = 0.02429992
#
# Stress axis : x y z
#
# Youngs Moduli (GPa) = 92.87865 60.53799 89.51766
#
# Poissons Ratio (x) = 0.18977 0.10509
# Poissons Ratio (y) = 0.29115 0.24792
# Poissons Ratio (z) = 0.10904 0.16766
#
# Static dielectric constant tensor:
#      x y z
#    x 3.782780 0.000000 -0.131950 
#    y 0.000000 3.476970 0.000000 
#    z -0.131950 0.000000 3.724760 
# 
# 
# High freq. dielectric constant tensor:
#      x y z
#    x 1.761130 0.000000 -0.005760 
#    y 0.000000 1.743090 0.000000 
#    z -0.005760 0.000000 1.780050 
# 
# From -- ./inp_files/55768.got.cif
#   From: 2010.06.25/outbox.cif.g09.slc.cpg/sg11_28_cif.got.tgz:55768.got - 2010.06.27 23:14:04.
