data_PCOD8076489
_publ_section_title
;
Structure prediction by ZEFSAII (Michael W. Deem and Ramdas Pophale) SiO2 
 PCOD8076489
Probable space group: P 21/M
;
_chemical_formula_sum "Si O2"
_cell_formula_units_Z 28
_cell_length_a 14.388803
_cell_length_b 15.985527
_cell_length_c 9.122544
_cell_angle_alpha 90.000000
_cell_angle_beta 40.706549
_cell_angle_gamma 90.000000
_cell_volume 1368.479937
_symmetry_space_group_name_H-M "P 21/M"
_symmetry_group_IT_number 11
_symmetry_cell_setting 'monoclinic'
loop_
_space_group_symop_operation_xyz
x,y,z
-x,1/2+y,-z
-x,-y,-z
x,1/2-y,z
loop_
_atom_site_type_symbol
_atom_site_label
_atom_site_fract_x
_atom_site_fract_y
_atom_site_fract_z
Si Si1 0.453823 0.657101 0.901558
Si Si2 0.179235 0.439950 0.861160
Si Si3 0.127802 0.581938 0.706371
Si Si4 0.222073 0.158065 0.521196
Si Si5 0.139899 0.472575 0.416884
Si Si6 0.604582 0.342625 0.699658
Si Si7 0.624568 0.979293 0.106679
O O1 0.415108 0.750000 0.880058
O O2 0.621348 0.654962 0.735583
O O3 0.413520 0.578758 0.844409
O O4 0.374054 0.645746 0.151500
O O5 0.141466 0.530793 0.841419
O O6 0.233402 0.380771 0.668404
O O7 0.304534 0.452679 0.826414
O O8 0.040538 0.396781 0.104861
O O9 0.181633 0.534569 0.496864
O O10 0.240574 0.658043 0.568548
O O11 0.160119 0.250000 0.614109
O O12 0.114210 0.114284 0.535188
O O13 0.000000 0.500000 0.500000
O O14 0.269964 0.461912 0.152278
O O15 0.537444 0.250000 0.749044
O O16 0.512069 0.419483 0.746911
#
# Coordination Sequence:
#
# PCOD8076489 Si02
#       7
#     4   4   4   4   4   4   4
#     4  10  21  38  63  94 124 164 215 268 325 381
#     4  10  23  38  63  91 123 168 210 248 320 389
#     4  10  21  41  60  86 125 164 205 254 315 389
#     4  10  22  41  61  87 126 169 208 255 315 387
#     4  11  20  36  65  91 116 159 212 261 311 373
#     4  11  23  38  62  95 125 162 217 273 325 371
#     4  12  21  38  66  96 123 165 212 276 315 374
#
# _framework density 20.460657999999999
#
# number of rings (size 3 to 8) (size 9 to 14) (size 15 to 20)
#    0.000    1.429    4.286    2.143    0.000    3.429 
#    0.000    3.571    0.000    0.000    0.000    0.000 
#    0.000    0.000    0.000    0.000    0.000    0.000 
#
# Total GULP energy -346956.114055 kJ/mol
# GULP energy per Si atom -12391.289788 kJ/mol
# Density = 2.041409 g / cm^3
# Si number density = 20.460658 Si / 1000 Ang^3
#
#
#
# Elastic Constant Matrix: (Units=GPa)
#
#
# Indices 1 2 3 4 5 6 
#
# 1 113.1246 58.8042 27.4117 0.0000 3.7912 0.0000
# 2 58.8042 148.1732 31.8010 0.0000 -0.6763 0.0000
# 3 27.4117 31.8010 91.9886 0.0000 -5.5720 0.0000
# 4 0.0000 0.0000 0.0000 22.0426 0.0000 -3.8560
# 5 3.7912 -0.6763 -5.5720 0.0000 30.4715 0.0000
# 6 0.0000 0.0000 0.0000 -3.8560 0.0000 17.0669
#
#
#
# Elastic Compliance Matrix: (Units=1/GPa)
#
#
# Indices 1 2 3 4 5 6 
#
# 1 0.011576 -0.004145 -0.002133 0.000000 -0.001922 0.000000
# 2 -0.004145 0.008777 -0.001776 0.000000 0.000386 0.000000
# 3 -0.002133 -0.001776 0.012270 0.000000 0.002470 0.000000
# 4 0.000000 0.000000 0.000000 0.047233 0.000000 0.010672
# 5 -0.001922 0.000386 0.002470 0.000000 0.033517 0.000000
# 6 0.000000 0.000000 0.000000 0.010672 0.000000 0.061004
#
#
# Mechanical properties :
#
#
# Convention : Reuss Voigt Hill
#
# Bulk Modulus (GPa) = 60.54999 65.48002 63.01500
# Shear Modulus (GPa) = 25.51167 29.60084 27.55626
#
# Velocity S-wave (km/s) = 3.53493 3.80770 3.67385
# Velocity P-wave (km/s) = 6.80577 7.16965 6.99008
#
# Compressibility (1/GPa) = 0.01651528
#
# Stress axis : x y z
#
# Youngs Moduli (GPa) = 86.38792 113.93840 81.49996
#
# Poissons Ratio (x) = 0.47227 0.17384
# Poissons Ratio (y) = 0.35807 0.14471
# Poissons Ratio (z) = 0.18426 0.20231
#
# Static dielectric constant tensor:
#      x y z
#    x 3.535080 0.000000 -0.072680 
#    y 0.000000 3.880610 0.000000 
#    z -0.072680 0.000000 3.933350 
# 
# 
# High freq. dielectric constant tensor:
#      x y z
#    x 1.775870 0.000000 0.001260 
#    y 0.000000 1.793200 0.000000 
#    z 0.001260 0.000000 1.813810 
# 
# From -- ./inp_files/22701.got.cif
#   From: 2010.06.25/outbox.cif.g09.slc.cpg/sg11_12_cif.got.tgz:22701.got - 2010.06.27 23:14:04.
