data_PCOD8076771
_publ_section_title
;
Structure prediction by ZEFSAII (Michael W. Deem and Ramdas Pophale) SiO2 
 PCOD8076771
Probable space group: P 21/M
;
_chemical_formula_sum "Si O2"
_cell_formula_units_Z 28
_cell_length_a 17.992210
_cell_length_b 16.562866
_cell_length_c 5.038541
_cell_angle_alpha 90.000000
_cell_angle_beta 114.608685
_cell_angle_gamma 90.000000
_cell_volume 1365.121559
_symmetry_space_group_name_H-M "P 21/M"
_symmetry_group_IT_number 11
_symmetry_cell_setting 'monoclinic'
loop_
_space_group_symop_operation_xyz
x,y,z
-x,1/2+y,-z
-x,-y,-z
x,1/2-y,z
loop_
_atom_site_type_symbol
_atom_site_label
_atom_site_fract_x
_atom_site_fract_y
_atom_site_fract_z
Si Si1 0.862161 0.750000 0.461727
Si Si2 0.287739 0.567941 0.144598
Si Si3 0.367494 0.395047 0.340983
Si Si4 0.460004 0.343644 0.976530
Si Si5 0.063395 0.417435 0.318066
Si Si6 0.891109 0.488578 0.106557
Si Si7 0.650298 0.156480 0.261842
Si Si8 0.755040 0.750000 0.804067
O O1 0.920168 0.825524 0.592776
O O2 0.784798 0.750000 0.544399
O O3 0.831581 0.750000 0.115005
O O4 0.330804 0.481789 0.226991
O O5 0.327206 0.630258 0.408295
O O6 0.191747 0.560546 0.059231
O O7 0.298635 0.603064 0.867160
O O8 0.438223 0.373292 0.237753
O O9 0.295857 0.330181 0.214123
O O10 0.408072 0.395827 0.691085
O O11 0.436645 0.250000 0.903463
O O12 0.554942 0.358516 0.068530
O O13 0.106082 0.476062 0.593957
O O14 0.965778 0.427455 0.167425
O O15 0.103049 0.437847 0.092962
O O16 0.672855 0.250000 0.260331
#
# Coordination Sequence:
#
# PCOD8076771 Si02
#       8
#     2   4   4   4   4   4   4   2
#     4  12  22  36  60  94 125 154 205 250 294 374
#     4  12  24  41  66  96 123 158 220 263 306 367
#     4  12  23  38  63  95 125 166 203 254 315 375
#     4  11  22  42  62  85 131 169 206 248 317 379
#     4  10  21  40  64  90 123 168 200 240 314 370
#     4  10  22  42  64  87 127 166 199 250 310 370
#     4  11  26  45  64  87 122 172 211 267 320 355
#     4  12  24  38  60  98 133 160 189 256 320 370
#
# _framework density 20.510992000000002
#
# number of rings (size 3 to 8) (size 9 to 14) (size 15 to 20)
#    0.000    0.857    1.429    6.429    0.000    5.714 
#    2.571    0.000    0.000    0.000    0.000    0.000 
#    0.000    0.000    0.000    0.000    0.000    0.000 
#
# Total GULP energy -347455.724570 kJ/mol
# GULP energy per Si atom -12409.133020 kJ/mol
# Density = 2.046431 g / cm^3
# Si number density = 20.510992 Si / 1000 Ang^3
#
#
#
# Elastic Constant Matrix: (Units=GPa)
#
#
# Indices 1 2 3 4 5 6 
#
# 1 92.9808 39.4997 17.5691 0.0000 2.4032 0.0000
# 2 39.4997 97.7130 16.8214 0.0000 18.6139 0.0000
# 3 17.5691 16.8214 81.2861 0.0000 1.7413 0.0000
# 4 0.0000 0.0000 0.0000 27.8955 0.0000 -1.0662
# 5 2.4032 18.6139 1.7413 0.0000 34.7869 0.0000
# 6 0.0000 0.0000 0.0000 -1.0662 0.0000 19.2291
#
#
#
# Elastic Compliance Matrix: (Units=1/GPa)
#
#
# Indices 1 2 3 4 5 6 
#
# 1 0.013376 -0.005499 -0.001798 0.000000 0.002109 0.000000
# 2 -0.005499 0.014075 -0.001573 0.000000 -0.007073 0.000000
# 3 -0.001798 -0.001573 0.013010 0.000000 0.000314 0.000000
# 4 0.000000 0.000000 0.000000 0.035924 0.000000 0.001992
# 5 0.002109 -0.007073 0.000314 0.000000 0.032370 0.000000
# 6 0.000000 0.000000 0.000000 0.001992 0.000000 0.052115
#
#
# Mechanical properties :
#
#
# Convention : Reuss Voigt Hill
#
# Bulk Modulus (GPa) = 44.01275 46.64001 45.32638
# Shear Modulus (GPa) = 26.85513 29.58828 28.22170
#
# Velocity S-wave (km/s) = 3.62236 3.80222 3.71338
# Velocity P-wave (km/s) = 6.24500 6.48570 6.36648
#
# Compressibility (1/GPa) = 0.02272069
#
# Stress axis : x y z
#
# Youngs Moduli (GPa) = 74.75828 71.04689 76.86636
#
# Poissons Ratio (x) = 0.39072 0.13823
# Poissons Ratio (y) = 0.41113 0.12088
# Poissons Ratio (z) = 0.13444 0.11173
#
# Static dielectric constant tensor:
#      x y z
#    x 3.759490 0.000000 -0.073460 
#    y 0.000000 3.766320 0.000000 
#    z -0.073460 0.000000 3.820830 
# 
# 
# High freq. dielectric constant tensor:
#      x y z
#    x 1.808810 0.000000 -0.005820 
#    y 0.000000 1.801800 0.000000 
#    z -0.005820 0.000000 1.817570 
# 
# From -- ./inp_files/8155.got.cif
#   From: 2010.06.25/outbox.cif.g09.slc.cpg/sg11_5_cif.got.tgz:8155.got - 2010.06.27 23:14:04.
