data_PCOD8076992
_publ_section_title
;
Structure prediction by ZEFSAII (Michael W. Deem and Ramdas Pophale) SiO2 
 PCOD8076992
Probable space group: P 21/M
;
_chemical_formula_sum "Si O2"
_cell_formula_units_Z 28
_cell_length_a 11.439256
_cell_length_b 19.717228
_cell_length_c 17.210688
_cell_angle_alpha 90.000000
_cell_angle_beta 159.507257
_cell_angle_gamma 90.000000
_cell_volume 1359.001741
_symmetry_space_group_name_H-M "P 21/M"
_symmetry_group_IT_number 11
_symmetry_cell_setting 'monoclinic'
loop_
_space_group_symop_operation_xyz
x,y,z
-x,1/2+y,-z
-x,-y,-z
x,1/2-y,z
loop_
_atom_site_type_symbol
_atom_site_label
_atom_site_fract_x
_atom_site_fract_y
_atom_site_fract_z
Si Si1 0.131985 0.173388 0.297453
Si Si2 0.886587 0.930426 0.967425
Si Si3 0.126443 0.109767 0.455420
Si Si4 0.800514 0.328311 0.936556
Si Si5 0.871104 0.529787 0.244418
Si Si6 0.860644 0.429490 0.441631
Si Si7 0.306080 0.930056 0.377121
O O1 0.262188 0.250000 0.381171
O O2 0.008024 0.153177 0.306879
O O3 0.430541 0.129816 0.446397
O O4 0.823139 0.166356 0.044492
O O5 0.884134 0.867550 0.905190
O O6 0.149527 0.913634 0.197417
O O7 0.522060 0.935995 0.775539
O O8 0.000000 0.000000 0.000000
O O9 0.491354 0.130184 0.710391
O O10 0.898863 0.121835 0.391468
O O11 0.119978 0.032021 0.421893
O O12 0.790234 0.250000 0.903252
O O13 0.907620 0.585267 0.337469
O O14 0.005949 0.567891 0.252529
O O15 0.500000 0.500000 0.000000
O O16 0.000000 0.500000 0.500000
O O17 0.500000 0.000000 0.500000
#
# Coordination Sequence:
#
# PCOD8076992 Si02
#       7
#     4   4   4   4   4   4   4
#     4  11  24  41  67  97 130 172 225 277 329 397
#     4  12  23  39  65  96 133 167 216 274 331 392
#     4  11  22  41  64  91 135 173 214 266 329 401
#     4  11  24  43  68  94 127 173 228 277 329 397
#     4  11  23  38  62  98 137 168 214 274 334 396
#     4  10  22  38  58  94 130 167 208 262 326 391
#     4  12  21  37  64  97 127 168 217 272 326 388
#
# _framework density 20.603359000000001
#
# number of rings (size 3 to 8) (size 9 to 14) (size 15 to 20)
#    0.000    0.857    2.857    6.429    2.000    0.000 
#    0.000    1.429    0.000    6.857    0.000    0.000 
#    0.000    0.000    0.000    0.000    0.000    0.000 
#
# Total GULP energy -346921.806757 kJ/mol
# GULP energy per Si atom -12390.064527 kJ/mol
# Density = 2.055646 g / cm^3
# Si number density = 20.603359 Si / 1000 Ang^3
#
#
#
# Elastic Constant Matrix: (Units=GPa)
#
#
# Indices 1 2 3 4 5 6 
#
# 1 164.2186 54.5614 55.1035 0.0000 -5.7577 0.0000
# 2 54.5614 106.9492 38.2094 0.0000 -0.2031 0.0000
# 3 55.1035 38.2094 96.7233 0.0000 -8.4256 0.0000
# 4 0.0000 0.0000 0.0000 24.7161 0.0000 -6.7758
# 5 -5.7577 -0.2031 -8.4256 0.0000 46.9290 0.0000
# 6 0.0000 0.0000 0.0000 -6.7758 0.0000 28.9220
#
#
#
# Elastic Compliance Matrix: (Units=1/GPa)
#
#
# Indices 1 2 3 4 5 6 
#
# 1 0.008263 -0.002963 -0.003505 0.000000 0.000372 0.000000
# 2 -0.002963 0.011974 -0.003118 0.000000 -0.000872 0.000000
# 3 -0.003505 -0.003118 0.013744 0.000000 0.002024 0.000000
# 4 0.000000 0.000000 0.000000 0.043236 0.000000 0.010129
# 5 0.000372 -0.000872 0.002024 0.000000 0.021714 0.000000
# 6 0.000000 0.000000 0.000000 0.010129 0.000000 0.036949
#
#
# Mechanical properties :
#
#
# Convention : Reuss Voigt Hill
#
# Bulk Modulus (GPa) = 67.52510 73.73776 70.63143
# Shear Modulus (GPa) = 31.25252 34.78119 33.01686
#
# Velocity S-wave (km/s) = 3.89892 4.11315 4.00747
# Velocity P-wave (km/s) = 7.28792 7.64357 7.46786
#
# Compressibility (1/GPa) = 0.01480931
#
# Stress axis : x y z
#
# Youngs Moduli (GPa) = 121.02497 83.51399 72.76146
#
# Poissons Ratio (x) = 0.24742 0.25500
# Poissons Ratio (y) = 0.35854 0.22690
# Poissons Ratio (z) = 0.42415 0.26043
#
# Static dielectric constant tensor:
#      x y z
#    x 4.653270 0.000000 -0.504420 
#    y 0.000000 3.503530 0.000000 
#    z -0.504420 0.000000 3.750270 
# 
# 
# High freq. dielectric constant tensor:
#      x y z
#    x 1.831350 0.000000 -0.022650 
#    y 0.000000 1.772170 0.000000 
#    z -0.022650 0.000000 1.810500 
# 
# From -- ./inp_files/59720.got.cif
#   From: 2010.06.25/outbox.cif.g09.slc.cpg/sg11_30_cif.got.tgz:59720.got - 2010.06.27 23:14:04.
