data_PCOD8076904
_publ_section_title
;
Structure prediction by ZEFSAII (Michael W. Deem and Ramdas Pophale) SiO2 
 PCOD8076904
Probable space group: P 21/M
;
_chemical_formula_sum "Si O2"
_cell_formula_units_Z 32
_cell_length_a 13.544347
_cell_length_b 8.790996
_cell_length_c 13.165729
_cell_angle_alpha 90.000000
_cell_angle_beta 87.975121
_cell_angle_gamma 90.000000
_cell_volume 1566.642118
_symmetry_space_group_name_H-M "P 21/M"
_symmetry_group_IT_number 11
_symmetry_cell_setting 'monoclinic'
loop_
_space_group_symop_operation_xyz
x,y,z
-x,1/2+y,-z
-x,-y,-z
x,1/2-y,z
loop_
_atom_site_type_symbol
_atom_site_label
_atom_site_fract_x
_atom_site_fract_y
_atom_site_fract_z
Si Si1 0.947185 0.084379 0.913917
Si Si2 0.251851 0.427355 0.129629
Si Si3 0.603795 0.570740 0.469469
Si Si4 0.399306 0.569088 0.963015
Si Si5 0.327865 0.430698 0.759013
Si Si6 0.887877 0.585189 0.252094
Si Si7 0.248775 0.426677 0.358243
Si Si8 0.960772 0.068672 0.601693
O O1 0.902974 0.250000 0.946584
O O2 0.041655 0.113690 0.843136
O O3 0.861145 0.984281 0.866880
O O4 0.000000 0.000000 0.000000
O O5 0.254813 0.250000 0.101126
O O6 0.312541 0.516906 0.041990
O O7 0.294266 0.453797 0.243022
O O8 0.500000 0.500000 0.500000
O O9 0.594649 0.750000 0.476107
O O10 0.633857 0.519981 0.354360
O O11 0.680115 0.513790 0.554021
O O12 0.405510 0.750000 0.962903
O O13 0.500000 0.500000 0.000000
O O14 0.386346 0.512964 0.847478
O O15 0.337356 0.250000 0.775929
O O16 0.215431 0.495338 0.771882
O O17 0.855352 0.750000 0.299440
O O18 0.956293 0.494312 0.328104
O O19 0.224496 0.250000 0.375173
O O20 0.148518 0.519629 0.367216
O O21 0.963564 0.250000 0.606237
O O22 0.000000 0.000000 0.500000
#
# Coordination Sequence:
#
# PCOD8076904 Si02
#       8
#     4   4   4   4   4   4   4   4
#     4  11  21  36  59  91 127 169 214 260 315 375
#     4  11  23  41  65  96 134 172 213 265 322 386
#     4  10  23  42  66  95 128 168 214 267 327 384
#     4  12  27  46  69  96 127 165 214 270 329 392
#     4  10  21  42  67  93 127 168 215 267 324 383
#     4   9  19  36  59  85 122 164 204 249 305 366
#     4  10  22  41  64  94 131 170 212 263 319 381
#     4  11  21  36  59  90 127 169 212 256 306 368
#
# _framework density 20.425851000000002
#
# number of rings (size 3 to 8) (size 9 to 14) (size 15 to 20)
#    0.000    1.500    1.250    3.750    1.750    4.500 
#    0.000    3.125    0.000    0.000    0.000    0.000 
#    0.000    0.000    0.000    0.000    0.000    0.000 
#
# Total GULP energy -396472.400736 kJ/mol
# GULP energy per Si atom -12389.762523 kJ/mol
# Density = 2.037936 g / cm^3
# Si number density = 20.425851 Si / 1000 Ang^3
#
#
#
# Elastic Constant Matrix: (Units=GPa)
#
#
# Indices 1 2 3 4 5 6 
#
# 1 138.0717 42.7669 62.0209 0.0000 17.6397 0.0000
# 2 42.7669 90.8414 54.3553 0.0000 7.2866 0.0000
# 3 62.0209 54.3553 162.1291 0.0000 22.1589 0.0000
# 4 0.0000 0.0000 0.0000 26.7587 0.0000 -3.1756
# 5 17.6397 7.2866 22.1589 0.0000 40.9111 0.0000
# 6 0.0000 0.0000 0.0000 -3.1756 0.0000 33.0982
#
#
#
# Elastic Compliance Matrix: (Units=1/GPa)
#
#
# Indices 1 2 3 4 5 6 
#
# 1 0.009482 -0.002874 -0.002349 0.000000 -0.002304 0.000000
# 2 -0.002874 0.014642 -0.003912 0.000000 0.000750 0.000000
# 3 -0.002349 -0.003912 0.008795 0.000000 -0.003054 0.000000
# 4 0.000000 0.000000 0.000000 0.037801 0.000000 0.003627
# 5 -0.002304 0.000750 -0.003054 0.000000 0.026958 0.000000
# 6 0.000000 0.000000 0.000000 0.003627 0.000000 0.030561
#
#
# Mechanical properties :
#
#
# Convention : Reuss Voigt Hill
#
# Bulk Modulus (GPa) = 68.25901 78.81427 73.53664
# Shear Modulus (GPa) = 33.02679 35.61354 34.32016
#
# Velocity S-wave (km/s) = 4.02545 4.18012 4.10351
# Velocity P-wave (km/s) = 7.42268 7.87192 7.65060
#
# Compressibility (1/GPa) = 0.01465008
#
# Stress axis : x y z
#
# Youngs Moduli (GPa) = 105.45979 68.29815 113.69500
#
# Poissons Ratio (x) = 0.19627 0.26706
# Poissons Ratio (y) = 0.30307 0.44477
# Poissons Ratio (z) = 0.24772 0.26718
#
# Static dielectric constant tensor:
#      x y z
#    x 3.640350 0.000000 0.262220 
#    y 0.000000 3.519030 0.000000 
#    z 0.262220 0.000000 3.911290 
# 
# 
# High freq. dielectric constant tensor:
#      x y z
#    x 1.805970 0.000000 0.006270 
#    y 0.000000 1.786360 0.000000 
#    z 0.006270 0.000000 1.817930 
# 
# From -- ./inp_files/49388.got.cif
#   From: 2010.06.25/outbox.cif.g09.slc.cpg/sg11_25_cif.got.tgz:49388.got - 2010.06.27 23:14:04.
