data_PCOD8076716
_publ_section_title
;
Structure prediction by ZEFSAII (Michael W. Deem and Ramdas Pophale) SiO2 
 PCOD8076716
Probable space group: P 21/M
;
_chemical_formula_sum "Si O2"
_cell_formula_units_Z 24
_cell_length_a 7.958508
_cell_length_b 20.471003
_cell_length_c 8.966672
_cell_angle_alpha 90.000000
_cell_angle_beta 129.226946
_cell_angle_gamma 90.000000
_cell_volume 1131.634024
_symmetry_space_group_name_H-M "P 21/M"
_symmetry_group_IT_number 11
_symmetry_cell_setting 'monoclinic'
loop_
_space_group_symop_operation_xyz
x,y,z
-x,1/2+y,-z
-x,-y,-z
x,1/2-y,z
loop_
_atom_site_type_symbol
_atom_site_label
_atom_site_fract_x
_atom_site_fract_y
_atom_site_fract_z
Si Si1 0.203540 0.370614 0.920250
Si Si2 0.911273 0.176095 0.515892
Si Si3 0.242918 0.401964 0.496993
Si Si4 0.959228 0.012502 0.146886
Si Si5 0.529029 0.067317 0.929463
Si Si6 0.569516 0.827362 0.668503
O O1 0.118139 0.443254 0.831659
O O2 0.440857 0.370037 0.972955
O O3 0.039056 0.321466 0.746647
O O4 0.240859 0.353625 0.113982
O O5 0.898988 0.250000 0.447781
O O6 0.668806 0.148218 0.411708
O O7 0.041062 0.132029 0.469435
O O8 0.413935 0.434093 0.704544
O O9 0.371833 0.351477 0.463855
O O10 0.165524 0.463385 0.355010
O O11 0.787035 0.072456 0.054902
O O12 0.000000 0.000000 0.000000
O O13 0.500000 0.000000 0.000000
O O14 0.573402 0.750000 0.669862
#
# Coordination Sequence:
#
# PCOD8076716 Si02
#       6
#     4   4   4   4   4   4
#     4  10  21  40  60  85 125 159 200 252 304 362
#     4  10  23  42  63  88 121 162 206 253 303 356
#     4  11  23  40  65  88 124 164 202 253 304 366
#     4  11  22  37  59  93 124 158 199 246 307 365
#     4   9  22  39  58  87 121 159 197 240 299 367
#     4  11  23  39  62  90 118 159 209 255 303 360
#
# _framework density 21.208271
#
# number of rings (size 3 to 8) (size 9 to 14) (size 15 to 20)
#    0.000    1.667    1.667    2.000    2.333    9.333 
#    0.000    0.000    0.000    8.000    0.000    0.000 
#    0.000    0.000    0.000    0.000    0.000    0.000 
#
# Total GULP energy -297444.133633 kJ/mol
# GULP energy per Si atom -12393.505568 kJ/mol
# Density = 2.116000 g / cm^3
# Si number density = 21.208271 Si / 1000 Ang^3
#
#
#
# Elastic Constant Matrix: (Units=GPa)
#
#
# Indices 1 2 3 4 5 6 
#
# 1 84.2941 17.3324 19.2269 0.0000 -6.7936 0.0000
# 2 17.3324 66.2521 24.8162 0.0000 0.3007 0.0000
# 3 19.2269 24.8162 119.9331 0.0000 -18.7778 0.0000
# 4 0.0000 0.0000 0.0000 30.8665 0.0000 1.4230
# 5 -6.7936 0.3007 -18.7778 0.0000 31.8113 0.0000
# 6 0.0000 0.0000 0.0000 1.4230 0.0000 17.5409
#
#
#
# Elastic Compliance Matrix: (Units=1/GPa)
#
#
# Indices 1 2 3 4 5 6 
#
# 1 0.012900 -0.002964 -0.001123 0.000000 0.002120 0.000000
# 2 -0.002964 0.017207 -0.003537 0.000000 -0.002883 0.000000
# 3 -0.001123 -0.003537 0.010156 0.000000 0.005789 0.000000
# 4 0.000000 0.000000 0.000000 0.032519 0.000000 -0.002638
# 5 0.002120 -0.002883 0.005789 0.000000 0.035332 0.000000
# 6 0.000000 0.000000 0.000000 -0.002638 0.000000 0.057224
#
#
# Mechanical properties :
#
#
# Convention : Reuss Voigt Hill
#
# Bulk Modulus (GPa) = 39.97408 43.69227 41.83317
# Shear Modulus (GPa) = 26.46576 29.98398 28.22487
#
# Velocity S-wave (km/s) = 3.53639 3.76412 3.65203
# Velocity P-wave (km/s) = 5.96356 6.28790 6.12787
#
# Compressibility (1/GPa) = 0.02501621
#
# Stress axis : x y z
#
# Youngs Moduli (GPa) = 77.52180 58.11566 98.46274
#
# Poissons Ratio (x) = 0.17224 0.11055
# Poissons Ratio (y) = 0.22976 0.34824
# Poissons Ratio (z) = 0.08704 0.20554
#
# Static dielectric constant tensor:
#      x y z
#    x 4.605520 0.000000 0.247690 
#    y 0.000000 4.966640 0.000000 
#    z 0.247690 0.000000 3.925290 
# 
# 
# High freq. dielectric constant tensor:
#      x y z
#    x 1.839460 0.000000 -0.000500 
#    y 0.000000 1.813070 0.000000 
#    z -0.000500 0.000000 1.841320 
# 
# From -- ./inp_files/14410.got.cif
#   From: 2010.06.25/outbox.cif.g09.slc.cpg/sg11_8_cif.got.tgz:14410.got - 2010.06.27 23:14:04.
