data_PCOD8076309
_publ_section_title
;
Structure prediction by ZEFSAII (Michael W. Deem and Ramdas Pophale) SiO2 
 PCOD8076309
Probable space group: P 21/M
;
_chemical_formula_sum "Si O2"
_cell_formula_units_Z 32
_cell_length_a 26.061889
_cell_length_b 8.812404
_cell_length_c 20.744233
_cell_angle_alpha 90.000000
_cell_angle_beta 20.769147
_cell_angle_gamma 90.000000
_cell_volume 1689.431992
_symmetry_space_group_name_H-M "P 21/M"
_symmetry_group_IT_number 11
_symmetry_cell_setting 'monoclinic'
loop_
_space_group_symop_operation_xyz
x,y,z
-x,1/2+y,-z
-x,-y,-z
x,1/2-y,z
loop_
_atom_site_type_symbol
_atom_site_label
_atom_site_fract_x
_atom_site_fract_y
_atom_site_fract_z
Si Si1 0.730466 0.571627 0.975132
Si Si2 0.137171 0.573546 0.305553
Si Si3 0.149184 0.929065 0.803669
Si Si4 0.560827 0.424324 0.991288
Si Si5 0.343398 0.070718 0.681154
Si Si6 0.861018 0.572152 0.959816
Si Si7 0.851485 0.573828 0.330692
Si Si8 0.545348 0.573701 0.749519
O O1 0.732011 0.750000 0.962675
O O2 0.829032 0.497613 0.803874
O O3 0.794149 0.526995 0.969811
O O4 0.564605 0.513614 0.168827
O O5 0.108024 0.750000 0.328451
O O6 0.268753 0.545603 0.200408
O O7 0.000000 0.500000 0.500000
O O8 0.146059 0.750000 0.817549
O O9 0.274994 0.002345 0.697439
O O10 0.174350 0.968181 0.700156
O O11 0.000000 0.000000 0.000000
O O12 0.524344 0.250000 0.026874
O O13 0.500000 0.500000 0.000000
O O14 0.478280 0.490021 0.150724
O O15 0.354557 0.250000 0.661172
O O16 0.500000 0.000000 0.500000
O O17 0.250970 0.024789 0.852580
O O18 0.897312 0.750000 0.921684
O O19 0.007742 0.477472 0.795531
O O20 0.866780 0.750000 0.292674
O O21 0.711862 0.545492 0.538482
O O22 0.501544 0.750000 0.796940
#
# Coordination Sequence:
#
# PCOD8076309 Si02
#       8
#     4   4   4   4   4   4   4   4
#     4  10  21  38  60  87 117 154 196 240 291 347
#     4  10  21  38  59  86 118 154 194 240 289 345
#     4  12  24  41  63  88 119 155 196 246 300 356
#     4   9  19  36  57  83 117 150 188 236 281 333
#     4  11  24  42  62  89 121 156 198 247 297 353
#     4  10  23  41  59  84 120 155 195 245 294 348
#     4  11  23  39  62  89 116 155 201 243 295 354
#     4   9  21  40  58  84 118 152 194 239 286 345
#
# _framework density 18.941278000000001
#
# number of rings (size 3 to 8) (size 9 to 14) (size 15 to 20)
#    0.000    1.750    1.250    3.375    1.750    6.000 
#    0.000    2.500    0.000    0.000    0.000    0.000 
#    0.000    0.000    0.000    0.000    0.000    0.000 
#
# Total GULP energy -396875.195365 kJ/mol
# GULP energy per Si atom -12402.349855 kJ/mol
# Density = 1.889817 g / cm^3
# Si number density = 18.941278 Si / 1000 Ang^3
#
#
#
# Elastic Constant Matrix: (Units=GPa)
#
#
# Indices 1 2 3 4 5 6 
#
# 1 148.6892 55.6413 59.8398 0.0000 -13.2039 0.0000
# 2 55.6413 93.9133 58.1150 0.0000 -8.9167 0.0000
# 3 59.8398 58.1150 139.0929 0.0000 -13.6052 0.0000
# 4 0.0000 0.0000 0.0000 35.1274 0.0000 -3.7916
# 5 -13.2039 -8.9167 -13.6052 0.0000 26.7038 0.0000
# 6 0.0000 0.0000 0.0000 -3.7916 0.0000 36.3177
#
#
#
# Elastic Compliance Matrix: (Units=1/GPa)
#
#
# Indices 1 2 3 4 5 6 
#
# 1 0.009253 -0.003971 -0.002109 0.000000 0.002175 0.000000
# 2 -0.003971 0.016150 -0.004951 0.000000 0.000907 0.000000
# 3 -0.002109 -0.004951 0.010421 0.000000 0.002613 0.000000
# 4 0.000000 0.000000 0.000000 0.028792 0.000000 0.003006
# 5 0.002175 0.000907 0.002613 0.000000 0.040158 0.000000
# 6 0.000000 0.000000 0.000000 0.003006 0.000000 0.027849
#
#
# Mechanical properties :
#
#
# Convention : Reuss Voigt Hill
#
# Bulk Modulus (GPa) = 72.65721 80.98751 76.82236
# Shear Modulus (GPa) = 31.39276 33.50309 32.44793
#
# Velocity S-wave (km/s) = 4.07550 4.21026 4.14343
# Velocity P-wave (km/s) = 7.78388 8.15383 7.97100
#
# Compressibility (1/GPa) = 0.01376326
#
# Stress axis : x y z
#
# Youngs Moduli (GPa) = 108.06991 61.91767 95.95989
#
# Poissons Ratio (x) = 0.24585 0.20239
# Poissons Ratio (y) = 0.42911 0.47509
# Poissons Ratio (z) = 0.22794 0.30655
#
# Static dielectric constant tensor:
#      x y z
#    x 3.055080 0.000000 -0.523760 
#    y 0.000000 3.628230 0.000000 
#    z -0.523760 0.000000 3.179060 
# 
# 
# High freq. dielectric constant tensor:
#      x y z
#    x 1.743690 0.000000 -0.001540 
#    y 0.000000 1.744690 0.000000 
#    z -0.001540 0.000000 1.744310 
# 
# From -- ./inp_files/66951.got.cif
#   From: 2010.06.25/outbox.cif.g09.slc.cpg/sg11_34_cif.got.tgz:66951.got - 2010.06.27 23:14:04.
