data_PCOD8076376
_publ_section_title
;
Structure prediction by ZEFSAII (Michael W. Deem and Ramdas Pophale) SiO2 
 PCOD8076376
Probable space group: P 21/M
;
_chemical_formula_sum "Si O2"
_cell_formula_units_Z 32
_cell_length_a 9.493683
_cell_length_b 13.911234
_cell_length_c 15.073552
_cell_angle_alpha 90.000000
_cell_angle_beta 118.578506
_cell_angle_gamma 90.000000
_cell_volume 1748.199005
_symmetry_space_group_name_H-M "P 21/M"
_symmetry_group_IT_number 11
_symmetry_cell_setting 'monoclinic'
loop_
_space_group_symop_operation_xyz
x,y,z
-x,1/2+y,-z
-x,-y,-z
x,1/2-y,z
loop_
_atom_site_type_symbol
_atom_site_label
_atom_site_fract_x
_atom_site_fract_y
_atom_site_fract_z
Si Si1 0.387153 0.135842 0.740066
Si Si2 0.186616 0.992301 0.567462
Si Si3 0.321805 0.513668 0.420008
Si Si4 0.887644 0.641144 0.730981
Si Si5 0.787180 0.357801 0.266509
Si Si6 0.277377 0.637866 0.244067
Si Si7 0.337447 0.486758 0.896835
Si Si8 0.010298 0.008864 0.899012
O O1 0.360257 0.250000 0.729013
O O2 0.570377 0.107582 0.770749
O O3 0.350347 0.098356 0.828176
O O4 0.266631 0.089555 0.630948
O O5 0.240986 0.905280 0.646821
O O6 0.231875 0.964585 0.482581
O O7 0.000000 0.000000 0.500000
O O8 0.500000 0.500000 0.500000
O O9 0.262298 0.417932 0.351620
O O10 0.306834 0.606412 0.353647
O O11 0.834400 0.750000 0.737128
O O12 0.954410 0.592420 0.840499
O O13 0.023821 0.639402 0.696844
O O14 0.719763 0.250000 0.248436
O O15 0.689570 0.412841 0.161222
O O16 0.252212 0.750000 0.233650
O O17 0.112103 0.592670 0.162044
O O18 0.188553 0.463951 0.917826
O O19 0.500000 0.500000 0.000000
O O20 0.000000 0.000000 0.000000
#
# Coordination Sequence:
#
# PCOD8076376 Si02
#       8
#     4   4   4   4   4   4   4   4
#     4  10  22  39  59  83 113 152 195 235 281 341
#     4  11  21  36  57  84 113 150 191 231 282 335
#     4  11  21  36  57  82 115 150 187 233 279 333
#     4   9  19  36  58  81 107 145 188 224 270 335
#     4   9  19  36  57  82 109 142 187 230 270 327
#     4  10  22  39  58  83 115 151 192 237 286 339
#     4  10  21  38  61  85 114 149 186 231 285 345
#     4  10  21  38  61  86 114 147 184 236 289 337
#
# _framework density 18.304552999999999
#
# number of rings (size 3 to 8) (size 9 to 14) (size 15 to 20)
#    0.000    2.000    2.500    0.750    1.750    3.500 
#    0.000    2.500    0.000    0.000    0.000    0.000 
#    0.000    0.000    0.000    0.000    0.000    0.000 
#
# Total GULP energy -396738.116322 kJ/mol
# GULP energy per Si atom -12398.066135 kJ/mol
# Density = 1.826289 g / cm^3
# Si number density = 18.304553 Si / 1000 Ang^3
#
#
#
# Elastic Constant Matrix: (Units=GPa)
#
#
# Indices 1 2 3 4 5 6 
#
# 1 140.0401 49.1913 67.1353 0.0000 -2.4806 0.0000
# 2 49.1913 112.8986 37.6122 0.0000 0.1715 0.0000
# 3 67.1353 37.6122 114.9977 0.0000 -1.6580 0.0000
# 4 0.0000 0.0000 0.0000 13.6532 0.0000 0.0930
# 5 -2.4806 0.1715 -1.6580 0.0000 47.0003 0.0000
# 6 0.0000 0.0000 0.0000 0.0930 0.0000 26.5347
#
#
#
# Elastic Compliance Matrix: (Units=1/GPa)
#
#
# Indices 1 2 3 4 5 6 
#
# 1 0.010705 -0.002901 -0.005295 0.000000 0.000389 0.000000
# 2 -0.002901 0.010728 -0.001819 0.000000 -0.000256 0.000000
# 3 -0.005295 -0.001819 0.012384 0.000000 0.000164 0.000000
# 4 0.000000 0.000000 0.000000 0.073245 0.000000 -0.000257
# 5 0.000389 -0.000256 0.000164 0.000000 0.021304 0.000000
# 6 0.000000 0.000000 0.000000 -0.000257 0.000000 0.037687
#
#
# Mechanical properties :
#
#
# Convention : Reuss Voigt Hill
#
# Bulk Modulus (GPa) = 72.53014 75.09045 73.81029
# Shear Modulus (GPa) = 26.22205 31.70414 28.96310
#
# Velocity S-wave (km/s) = 3.78900 4.16629 3.98212
# Velocity P-wave (km/s) = 7.67152 8.01597 7.84564
#
# Compressibility (1/GPa) = 0.01378737
#
# Stress axis : x y z
#
# Youngs Moduli (GPa) = 93.41220 93.21566 80.74620
#
# Poissons Ratio (x) = 0.27041 0.42758
# Poissons Ratio (y) = 0.27098 0.14687
# Poissons Ratio (z) = 0.49465 0.16955
#
# Static dielectric constant tensor:
#      x y z
#    x 3.417240 0.000000 0.112120 
#    y 0.000000 3.398390 0.000000 
#    z 0.112120 0.000000 3.301020 
# 
# 
# High freq. dielectric constant tensor:
#      x y z
#    x 1.718000 0.000000 -0.000410 
#    y 0.000000 1.705080 0.000000 
#    z -0.000410 0.000000 1.718650 
# 
# From -- ./inp_files/18042.got.cif
#   From: 2010.06.25/outbox.cif.g09.slc.cpg/sg11_10_cif.got.tgz:18042.got - 2010.06.27 23:14:04.
