data_PCOD8076932
_publ_section_title
;
Structure prediction by ZEFSAII (Michael W. Deem and Ramdas Pophale) SiO2 
 PCOD8076932
Probable space group: P 21/M
;
_chemical_formula_sum "Si O2"
_cell_formula_units_Z 28
_cell_length_a 10.563513
_cell_length_b 8.824312
_cell_length_c 14.533573
_cell_angle_alpha 90.000000
_cell_angle_beta 100.769600
_cell_angle_gamma 90.000000
_cell_volume 1330.895703
_symmetry_space_group_name_H-M "P 21/M"
_symmetry_group_IT_number 11
_symmetry_cell_setting 'monoclinic'
loop_
_space_group_symop_operation_xyz
x,y,z
-x,1/2+y,-z
-x,-y,-z
x,1/2-y,z
loop_
_atom_site_type_symbol
_atom_site_label
_atom_site_fract_x
_atom_site_fract_y
_atom_site_fract_z
Si Si1 0.900357 0.070601 0.058690
Si Si2 0.541282 0.083758 0.096278
Si Si3 0.481937 0.569832 0.398322
Si Si4 0.737866 0.918304 0.902209
Si Si5 0.213922 0.924427 0.273849
Si Si6 0.688574 0.430997 0.288994
Si Si7 0.068234 0.074151 0.738815
O O1 0.912721 0.250000 0.067428
O O2 0.916342 0.998767 0.159649
O O3 0.761453 0.021751 0.996956
O O4 0.000000 0.000000 0.000000
O O5 0.588040 0.250000 0.073219
O O6 0.412848 0.089129 0.141370
O O7 0.647809 0.014276 0.179692
O O8 0.500000 0.000000 0.000000
O O9 0.500000 0.500000 0.500000
O O10 0.492348 0.750000 0.403969
O O11 0.339542 0.517799 0.345519
O O12 0.595320 0.506802 0.349936
O O13 0.793950 0.750000 0.928131
O O14 0.809336 0.984425 0.823188
O O15 0.233442 0.750000 0.248876
O O16 0.081295 0.946263 0.314356
O O17 0.681527 0.250000 0.298609
O O18 0.835568 0.490391 0.320246
O O19 0.105624 0.250000 0.748108
#
# Coordination Sequence:
#
# PCOD8076932 Si02
#       7
#     4   4   4   4   4   4   4
#     4  12  23  35  52  82 123 172 222 268 313 371
#     4  10  22  36  54  83 121 165 211 258 309 367
#     4  11  24  45  73 102 127 163 208 266 331 393
#     4  11  21  35  56  83 117 162 212 262 313 368
#     4  10  22  40  64  91 123 161 206 257 315 378
#     4  11  23  42  64  94 131 170 212 265 321 384
#     4  11  23  40  61  91 128 170 214 263 317 380
#
# _framework density 21.038464000000001
#
# number of rings (size 3 to 8) (size 9 to 14) (size 15 to 20)
#    0.000    1.143    2.857    3.857    0.000    5.714 
#    0.000    0.714    0.000    0.000    0.000    0.000 
#    0.000    0.000    0.000    0.000    0.000    0.000 
#
# Total GULP energy -347065.788299 kJ/mol
# GULP energy per Si atom -12395.206725 kJ/mol
# Density = 2.099058 g / cm^3
# Si number density = 21.038464 Si / 1000 Ang^3
#
#
#
# Elastic Constant Matrix: (Units=GPa)
#
#
# Indices 1 2 3 4 5 6 
#
# 1 140.7780 44.7282 42.9064 0.0000 0.5795 0.0000
# 2 44.7282 99.0025 38.4618 0.0000 -7.6149 0.0000
# 3 42.9064 38.4618 92.1075 0.0000 -7.3733 0.0000
# 4 0.0000 0.0000 0.0000 30.6563 0.0000 -5.2651
# 5 0.5795 -7.6149 -7.3733 0.0000 21.8135 0.0000
# 6 0.0000 0.0000 0.0000 -5.2651 0.0000 32.7231
#
#
#
# Elastic Compliance Matrix: (Units=1/GPa)
#
#
# Indices 1 2 3 4 5 6 
#
# 1 0.009034 -0.003049 -0.003124 0.000000 -0.002360 0.000000
# 2 -0.003049 0.013229 -0.003831 0.000000 0.003404 0.000000
# 3 -0.003124 -0.003831 0.014195 0.000000 0.003544 0.000000
# 4 0.000000 0.000000 0.000000 0.033547 0.000000 0.005398
# 5 -0.002360 0.003404 0.003544 0.000000 0.048292 0.000000
# 6 0.000000 0.000000 0.000000 0.005398 0.000000 0.031428
#
#
# Mechanical properties :
#
#
# Convention : Reuss Voigt Hill
#
# Bulk Modulus (GPa) = 60.79177 64.89787 62.84482
# Shear Modulus (GPa) = 28.53609 30.75802 29.64706
#
# Velocity S-wave (km/s) = 3.68690 3.82775 3.75798
# Velocity P-wave (km/s) = 6.86167 7.10280 6.98328
#
# Compressibility (1/GPa) = 0.01644960
#
# Stress axis : x y z
#
# Youngs Moduli (GPa) = 110.69199 75.59401 70.44493
#
# Poissons Ratio (x) = 0.23052 0.22007
# Poissons Ratio (y) = 0.33755 0.26987
# Poissons Ratio (z) = 0.34579 0.28959
#
# Static dielectric constant tensor:
#      x y z
#    x 4.539430 0.000000 0.288410 
#    y 0.000000 3.937420 0.000000 
#    z 0.288410 0.000000 3.630980 
# 
# 
# High freq. dielectric constant tensor:
#      x y z
#    x 1.855540 0.000000 0.007890 
#    y 0.000000 1.829920 0.000000 
#    z 0.007890 0.000000 1.787150 
# 
# From -- ./inp_files/49023.got.cif
#   From: 2010.06.25/outbox.cif.g09.slc.cpg/sg11_25_cif.got.tgz:49023.got - 2010.06.27 23:14:04.
