data_PCOD8076164
_publ_section_title
;
Structure prediction by ZEFSAII (Michael W. Deem and Ramdas Pophale) SiO2 
 PCOD8076164
Probable space group: P 21/M
;
_chemical_formula_sum "Si O2"
_cell_formula_units_Z 28
_cell_length_a 14.485100
_cell_length_b 8.789728
_cell_length_c 21.507219
_cell_angle_alpha 90.000000
_cell_angle_beta 149.039906
_cell_angle_gamma 90.000000
_cell_volume 1408.694162
_symmetry_space_group_name_H-M "P 21/M"
_symmetry_group_IT_number 11
_symmetry_cell_setting 'monoclinic'
loop_
_space_group_symop_operation_xyz
x,y,z
-x,1/2+y,-z
-x,-y,-z
x,1/2-y,z
loop_
_atom_site_type_symbol
_atom_site_label
_atom_site_fract_x
_atom_site_fract_y
_atom_site_fract_z
Si Si1 0.195937 0.430176 0.115481
Si Si2 0.411548 0.570472 0.888962
Si Si3 0.516964 0.930248 0.816275
Si Si4 0.848926 0.069237 0.455826
Si Si5 0.392919 0.573642 0.345216
Si Si6 0.745628 0.073596 0.600257
Si Si7 0.998399 0.070188 0.337103
O O1 0.179176 0.250000 0.106943
O O2 0.304487 0.485437 0.116594
O O3 0.301210 0.481882 0.237137
O O4 0.000000 0.500000 0.000000
O O5 0.427329 0.750000 0.903293
O O6 0.510991 0.509022 0.884048
O O7 0.204613 0.519657 0.766931
O O8 0.500000 0.500000 0.000000
O O9 0.509012 0.750000 0.813425
O O10 0.343210 0.989838 0.679040
O O11 0.863321 0.250000 0.462500
O O12 0.000000 0.000000 0.500000
O O13 0.870885 0.006870 0.537556
O O14 0.407375 0.750000 0.335285
O O15 0.271255 0.550011 0.335928
O O16 0.589539 0.509860 0.471938
O O17 0.741299 0.250000 0.579631
O O18 0.934921 0.996675 0.690468
O O19 0.019279 0.250000 0.351000
#
# Coordination Sequence:
#
# PCOD8076164 Si02
#       7
#     4   4   4   4   4   4   4
#     4  11  23  40  63  87 117 159 205 254 303 358
#     4  10  22  41  59  80 113 152 196 240 289 350
#     4   9  20  40  61  82 116 156 191 239 301 354
#     4  11  20  35  60  89 120 154 195 242 300 363
#     4  10  21  39  61  87 120 156 198 248 302 359
#     4  10  21  37  60  89 121 157 195 241 302 363
#     4  11  22  37  58  87 121 155 196 247 295 350
#
# _framework density 19.876563000000001
#
# number of rings (size 3 to 8) (size 9 to 14) (size 15 to 20)
#    0.000    1.714    1.429    3.000    0.000    5.143 
#    0.000    7.857    0.000    0.000    0.000    0.000 
#    0.000    0.000    0.000    0.000    0.000    0.000 
#
# Total GULP energy -347238.966589 kJ/mol
# GULP energy per Si atom -12401.391664 kJ/mol
# Density = 1.983132 g / cm^3
# Si number density = 19.876563 Si / 1000 Ang^3
#
#
#
# Elastic Constant Matrix: (Units=GPa)
#
#
# Indices 1 2 3 4 5 6 
#
# 1 172.4187 56.6076 77.1149 0.0000 10.7724 0.0000
# 2 56.6076 70.7276 32.1354 0.0000 5.4155 0.0000
# 3 77.1149 32.1354 99.2711 0.0000 -6.6786 0.0000
# 4 0.0000 0.0000 0.0000 35.5902 0.0000 -1.0498
# 5 10.7724 5.4155 -6.6786 0.0000 33.2071 0.0000
# 6 0.0000 0.0000 0.0000 -1.0498 0.0000 35.3972
#
#
#
# Elastic Compliance Matrix: (Units=1/GPa)
#
#
# Indices 1 2 3 4 5 6 
#
# 1 0.010941 -0.005221 -0.007086 0.000000 -0.004123 0.000000
# 2 -0.005221 0.019565 -0.002411 0.000000 -0.001982 0.000000
# 3 -0.007086 -0.002411 0.016766 0.000000 0.006064 0.000000
# 4 0.000000 0.000000 0.000000 0.028122 0.000000 0.000834
# 5 -0.004123 -0.001982 0.006064 0.000000 0.032994 0.000000
# 6 0.000000 0.000000 0.000000 0.000834 0.000000 0.028276
#
#
# Mechanical properties :
#
#
# Convention : Reuss Voigt Hill
#
# Bulk Modulus (GPa) = 56.06760 74.90370 65.48565
# Shear Modulus (GPa) = 29.06195 32.60952 30.83574
#
# Velocity S-wave (km/s) = 3.82792 4.05483 3.94301
# Velocity P-wave (km/s) = 6.91422 7.72583 7.33126
#
# Compressibility (1/GPa) = 0.01783561
#
# Stress axis : x y z
#
# Youngs Moduli (GPa) = 91.39881 51.11215 59.64301
#
# Poissons Ratio (x) = 0.26688 0.42265
# Poissons Ratio (y) = 0.47723 0.14378
# Poissons Ratio (z) = 0.64768 0.12321
#
# Static dielectric constant tensor:
#      x y z
#    x 4.066950 0.000000 -0.011530 
#    y 0.000000 3.566630 0.000000 
#    z -0.011530 0.000000 3.621920 
# 
# 
# High freq. dielectric constant tensor:
#      x y z
#    x 1.798990 0.000000 0.000820 
#    y 0.000000 1.770250 0.000000 
#    z 0.000820 0.000000 1.765340 
# 
# From -- ./inp_files/65444.got.cif
#   From: 2010.06.25/outbox.cif.g09.slc.cpg/sg11_33_cif.got.tgz:65444.got - 2010.06.27 23:14:04.
