data_PCOD8076605
_publ_section_title
;
Structure prediction by ZEFSAII (Michael W. Deem and Ramdas Pophale) SiO2 
 PCOD8076605
Probable space group: P 21/M
;
_chemical_formula_sum "Si O2"
_cell_formula_units_Z 24
_cell_length_a 12.102862
_cell_length_b 8.990647
_cell_length_c 22.942830
_cell_angle_alpha 90.000000
_cell_angle_beta 151.767781
_cell_angle_gamma 90.000000
_cell_volume 1180.944910
_symmetry_space_group_name_H-M "P 21/M"
_symmetry_group_IT_number 11
_symmetry_cell_setting 'monoclinic'
loop_
_space_group_symop_operation_xyz
x,y,z
-x,1/2+y,-z
-x,-y,-z
x,1/2-y,z
loop_
_atom_site_type_symbol
_atom_site_label
_atom_site_fract_x
_atom_site_fract_y
_atom_site_fract_z
Si Si1 0.227360 0.421619 0.131450
Si Si2 0.090939 0.920098 0.273744
Si Si3 0.920556 0.922413 0.608891
Si Si4 0.438098 0.918380 0.336789
Si Si5 0.562259 0.420164 0.183465
Si Si6 0.658139 0.425113 0.025260
O O1 0.162298 0.250000 0.106521
O O2 0.293519 0.479101 0.225951
O O3 0.454836 0.448123 0.197059
O O4 0.000000 0.500000 0.000000
O O5 0.003449 0.750000 0.235743
O O6 0.339337 0.932873 0.356770
O O7 0.102634 0.979951 0.344314
O O8 0.918629 0.016440 0.153915
O O9 0.903669 0.750000 0.619579
O O10 0.710615 0.964740 0.467279
O O11 0.162011 0.956629 0.687588
O O12 0.411673 0.750000 0.301630
O O13 0.519480 0.250000 0.143165
O O14 0.432069 0.532053 0.080111
O O15 0.650920 0.250000 0.030199
O O16 0.500000 0.500000 0.000000
#
# Coordination Sequence:
#
# PCOD8076605 Si02
#       6
#     4   4   4   4   4   4
#     4  11  24  42  64  89 118 156 201 251 300 355
#     4  11  22  37  59  89 124 158 200 251 298 351
#     4  10  21  39  62  87 120 161 199 244 304 358
#     4  10  23  41  61  88 122 160 201 247 298 355
#     4  10  22  40  61  88 122 156 198 250 300 350
#     4  12  23  36  58  88 120 155 197 243 297 355
#
# _framework density 20.322710000000001
#
# number of rings (size 3 to 8) (size 9 to 14) (size 15 to 20)
#    0.000    1.333    1.667    4.000    0.000    8.000 
#    0.000    0.000    0.000    0.000    0.000    0.000 
#    0.000    0.000    0.000    0.000    0.000    0.000 
#
# Total GULP energy -297677.793113 kJ/mol
# GULP energy per Si atom -12403.241380 kJ/mol
# Density = 2.027645 g / cm^3
# Si number density = 20.322710 Si / 1000 Ang^3
#
#
#
# Elastic Constant Matrix: (Units=GPa)
#
#
# Indices 1 2 3 4 5 6 
#
# 1 99.9037 45.4678 44.0231 0.0000 5.2985 0.0000
# 2 45.4678 126.8585 58.4947 0.0000 0.8155 0.0000
# 3 44.0231 58.4947 136.2210 0.0000 6.7586 0.0000
# 4 0.0000 0.0000 0.0000 32.3919 0.0000 -5.5803
# 5 5.2985 0.8155 6.7586 0.0000 25.8449 0.0000
# 6 0.0000 0.0000 0.0000 -5.5803 0.0000 30.9128
#
#
#
# Elastic Compliance Matrix: (Units=1/GPa)
#
#
# Indices 1 2 3 4 5 6 
#
# 1 0.012785 -0.003376 -0.002591 0.000000 -0.001837 0.000000
# 2 -0.003376 0.010737 -0.003584 0.000000 0.001290 0.000000
# 3 -0.002591 -0.003584 0.009813 0.000000 -0.001922 0.000000
# 4 0.000000 0.000000 0.000000 0.031863 0.000000 0.005752
# 5 -0.001837 0.001290 -0.001922 0.000000 0.039531 0.000000
# 6 0.000000 0.000000 0.000000 0.005752 0.000000 0.033387
#
#
# Mechanical properties :
#
#
# Convention : Reuss Voigt Hill
#
# Bulk Modulus (GPa) = 70.25599 73.21715 71.73657
# Shear Modulus (GPa) = 30.87161 32.16309 31.51735
#
# Velocity S-wave (km/s) = 3.90175 3.98253 3.94235
# Velocity P-wave (km/s) = 7.41239 7.56656 7.48987
#
# Compressibility (1/GPa) = 0.01423366
#
# Stress axis : x y z
#
# Youngs Moduli (GPa) = 78.21517 93.13748 101.91031
#
# Poissons Ratio (x) = 0.31442 0.26406
# Poissons Ratio (y) = 0.26404 0.36520
# Poissons Ratio (z) = 0.20266 0.33376
#
# Static dielectric constant tensor:
#      x y z
#    x 3.660120 0.000000 0.321910 
#    y 0.000000 3.703630 0.000000 
#    z 0.321910 0.000000 3.659430 
# 
# 
# High freq. dielectric constant tensor:
#      x y z
#    x 1.794690 0.000000 0.014040 
#    y 0.000000 1.797290 0.000000 
#    z 0.014040 0.000000 1.799800 
# 
# From -- ./inp_files/43872.got.cif
#   From: 2010.06.25/outbox.cif.g09.slc.cpg/sg11_22_cif.got.tgz:43872.got - 2010.06.27 23:14:04.
