data_PCOD8076795
_publ_section_title
;
Structure prediction by ZEFSAII (Michael W. Deem and Ramdas Pophale) SiO2 
 PCOD8076795
Probable space group: P 21/M
;
_chemical_formula_sum "Si O2"
_cell_formula_units_Z 32
_cell_length_a 23.528582
_cell_length_b 8.714566
_cell_length_c 14.229350
_cell_angle_alpha 90.000000
_cell_angle_beta 147.514055
_cell_angle_gamma 90.000000
_cell_volume 1567.024663
_symmetry_space_group_name_H-M "P 21/M"
_symmetry_group_IT_number 11
_symmetry_cell_setting 'monoclinic'
loop_
_space_group_symop_operation_xyz
x,y,z
-x,1/2+y,-z
-x,-y,-z
x,1/2-y,z
loop_
_atom_site_type_symbol
_atom_site_label
_atom_site_fract_x
_atom_site_fract_y
_atom_site_fract_z
Si Si1 0.715655 0.575231 0.183158
Si Si2 0.814500 0.427975 0.494516
Si Si3 0.296403 0.570679 0.466571
Si Si4 0.539581 0.928068 0.797223
Si Si5 0.957720 0.430455 0.191067
Si Si6 0.400467 0.930234 0.308607
Si Si7 0.094268 0.428430 0.690078
Si Si8 0.212960 0.430538 0.164117
O O1 0.725661 0.750000 0.232776
O O2 0.736116 0.463474 0.298924
O O3 0.797350 0.544029 0.213246
O O4 0.599179 0.541457 0.978983
O O5 0.845340 0.250000 0.535831
O O6 0.755346 0.473917 0.507052
O O7 0.919467 0.527816 0.630487
O O8 0.285456 0.750000 0.428855
O O9 0.418597 0.520462 0.640446
O O10 0.235887 0.476036 0.302885
O O11 0.548660 0.750000 0.781164
O O12 0.595536 0.027694 0.795106
O O13 0.945519 0.250000 0.163869
O O14 0.895910 0.486305 0.197186
O O15 0.904628 0.511537 0.026674
O O16 0.403088 0.750000 0.326169
O O17 0.500000 0.000000 0.500000
O O18 0.294017 0.992741 0.205472
O O19 0.070755 0.250000 0.674842
O O20 0.000000 0.500000 0.500000
O O21 0.220332 0.250000 0.163530
#
# Coordination Sequence:
#
# PCOD8076795 Si02
#       8
#     4   4   4   4   4   4   4   4
#     4  10  22  39  62  92 125 164 206 252 313 373
#     4  11  24  42  64  90 123 165 213 263 314 372
#     4  10  23  43  65  90 123 165 212 263 315 368
#     4  10  21  40  65  92 127 166 209 259 310 368
#     4  12  25  42  65  93 126 165 208 259 315 377
#     4  12  23  38  63  96 131 167 206 252 310 375
#     4  11  21  36  61  93 129 165 203 251 310 376
#     4  12  25  42  66  95 126 164 207 258 316 377
#
# _framework density 20.420867000000001
#
# number of rings (size 3 to 8) (size 9 to 14) (size 15 to 20)
#    0.000    1.000    2.500    4.875    0.000    4.000 
#    0.000    0.000    0.000    0.000    0.000    0.000 
#    0.000    0.000    0.000    0.000    0.000    0.000 
#
# Total GULP energy -397016.788774 kJ/mol
# GULP energy per Si atom -12406.774649 kJ/mol
# Density = 2.037439 g / cm^3
# Si number density = 20.420867 Si / 1000 Ang^3
#
#
#
# Elastic Constant Matrix: (Units=GPa)
#
#
# Indices 1 2 3 4 5 6 
#
# 1 110.1121 47.9107 33.2779 0.0000 -18.8338 0.0000
# 2 47.9107 119.1237 36.5001 0.0000 -17.2067 0.0000
# 3 33.2779 36.5001 118.4266 0.0000 -29.2713 0.0000
# 4 0.0000 0.0000 0.0000 33.5663 0.0000 -9.0199
# 5 -18.8338 -17.2067 -29.2713 0.0000 17.1770 0.0000
# 6 0.0000 0.0000 0.0000 -9.0199 0.0000 27.0759
#
#
#
# Elastic Compliance Matrix: (Units=1/GPa)
#
#
# Indices 1 2 3 4 5 6 
#
# 1 0.012320 -0.003523 0.000156 0.000000 0.010245 0.000000
# 2 -0.003523 0.010895 -0.001080 0.000000 0.005211 0.000000
# 3 0.000156 -0.001080 0.014699 0.000000 0.024138 0.000000
# 4 0.000000 0.000000 0.000000 0.032721 0.000000 0.010900
# 5 0.010245 0.005211 0.024138 0.000000 0.115804 0.000000
# 6 0.000000 0.000000 0.000000 0.010900 0.000000 0.040565
#
#
# Mechanical properties :
#
#
# Convention : Reuss Voigt Hill
#
# Bulk Modulus (GPa) = 34.45842 64.78219 49.62031
# Shear Modulus (GPa) = 20.36071 30.89542 25.62807
#
# Velocity S-wave (km/s) = 3.16104 3.89386 3.54643
# Velocity P-wave (km/s) = 5.49852 7.21170 6.41258
#
# Compressibility (1/GPa) = 0.02902048
#
# Stress axis : x y z
#
# Youngs Moduli (GPa) = 81.17126 91.78427 68.03047
#
# Poissons Ratio (x) = 0.32335 -0.01063
# Poissons Ratio (y) = 0.28596 0.07348
# Poissons Ratio (z) = -0.01268 0.09914
#
# Static dielectric constant tensor:
#      x y z
#    x 3.743800 0.000000 0.022910 
#    y 0.000000 3.808370 0.000000 
#    z 0.022910 0.000000 3.930560 
# 
# 
# High freq. dielectric constant tensor:
#      x y z
#    x 1.792440 0.000000 -0.005140 
#    y 0.000000 1.802080 0.000000 
#    z -0.005140 0.000000 1.815160 
# 
# From -- ./inp_files/55769.got.cif
#   From: 2010.06.25/outbox.cif.g09.slc.cpg/sg11_28_cif.got.tgz:55769.got - 2010.06.27 23:14:04.
