data_PCOD8076863
_publ_section_title
;
Structure prediction by ZEFSAII (Michael W. Deem and Ramdas Pophale) SiO2 
 PCOD8076863
Probable space group: P 21/M
;
_chemical_formula_sum "Si O2"
_cell_formula_units_Z 32
_cell_length_a 11.771193
_cell_length_b 8.841254
_cell_length_c 14.946314
_cell_angle_alpha 90.000000
_cell_angle_beta 86.906043
_cell_angle_gamma 90.000000
_cell_volume 1553.227055
_symmetry_space_group_name_H-M "P 21/M"
_symmetry_group_IT_number 11
_symmetry_cell_setting 'monoclinic'
loop_
_space_group_symop_operation_xyz
x,y,z
-x,1/2+y,-z
-x,-y,-z
x,1/2-y,z
loop_
_atom_site_type_symbol
_atom_site_label
_atom_site_fract_x
_atom_site_fract_y
_atom_site_fract_z
Si Si1 0.875509 0.929463 0.002333
Si Si2 0.756658 0.929399 0.827803
Si Si3 0.545750 0.422683 0.586757
Si Si4 0.512860 0.571184 0.774942
Si Si5 0.796201 0.422455 0.519301
Si Si6 0.842174 0.575822 0.337682
Si Si7 0.708562 0.923753 0.164646
Si Si8 0.076836 0.428550 0.333378
O O1 0.890031 0.750000 0.999596
O O2 0.806955 0.990721 0.918890
O O3 0.803545 0.983410 0.091441
O O4 0.000000 0.000000 0.000000
O O5 0.757534 0.750000 0.828716
O O6 0.628368 0.988731 0.817227
O O7 0.836313 0.989975 0.744834
O O8 0.500000 0.500000 0.500000
O O9 0.503254 0.250000 0.590327
O O10 0.498658 0.504558 0.676342
O O11 0.681867 0.433449 0.581776
O O12 0.513676 0.750000 0.766217
O O13 0.407709 0.518187 0.840860
O O14 0.827059 0.250000 0.493312
O O15 0.780840 0.517444 0.429559
O O16 0.897736 0.492805 0.573045
O O17 0.878689 0.750000 0.346632
O O18 0.752825 0.553614 0.262699
O O19 0.951247 0.475210 0.309212
O O20 0.680095 0.750000 0.144545
O O21 0.086115 0.250000 0.344943
#
# Coordination Sequence:
#
# PCOD8076863 Si02
#       8
#     4   4   4   4   4   4   4   4
#     4  10  21  41  66  93 125 158 200 250 304 367
#     4   9  20  38  62  90 121 159 198 247 308 361
#     4  11  23  38  59  86 119 160 206 254 301 358
#     4  11  22  39  62  88 121 160 205 250 300 363
#     4  11  23  38  56  83 115 153 199 244 297 357
#     4  11  23  38  56  82 118 157 198 246 300 356
#     4  10  23  41  61  88 123 160 198 249 306 356
#     4  11  21  37  60  85 117 155 197 245 299 358
#
# _framework density 20.602269
#
# number of rings (size 3 to 8) (size 9 to 14) (size 15 to 20)
#    0.000    1.500    1.250    3.750    0.000    5.500 
#    0.000    1.875    0.000    0.000    0.000    0.000 
#    0.000    0.000    0.000    0.000    0.000    0.000 
#
# Total GULP energy -396954.898779 kJ/mol
# GULP energy per Si atom -12404.840587 kJ/mol
# Density = 2.055538 g / cm^3
# Si number density = 20.602269 Si / 1000 Ang^3
#
#
#
# Elastic Constant Matrix: (Units=GPa)
#
#
# Indices 1 2 3 4 5 6 
#
# 1 124.7563 38.0932 47.9395 0.0000 -10.2792 0.0000
# 2 38.0932 70.9761 37.6391 0.0000 1.6031 0.0000
# 3 47.9395 37.6391 123.8138 0.0000 -3.9107 0.0000
# 4 0.0000 0.0000 0.0000 20.7706 0.0000 -3.4118
# 5 -10.2792 1.6031 -3.9107 0.0000 37.2326 0.0000
# 6 0.0000 0.0000 0.0000 -3.4118 0.0000 36.1276
#
#
#
# Elastic Compliance Matrix: (Units=1/GPa)
#
#
# Indices 1 2 3 4 5 6 
#
# 1 0.010608 -0.004324 -0.002704 0.000000 0.002831 0.000000
# 2 -0.004324 0.018619 -0.004063 0.000000 -0.002422 0.000000
# 3 -0.002704 -0.004063 0.010375 0.000000 0.000518 0.000000
# 4 0.000000 0.000000 0.000000 0.048904 0.000000 0.004618
# 5 0.002831 -0.002422 0.000518 0.000000 0.027798 0.000000
# 6 0.000000 0.000000 0.000000 0.004618 0.000000 0.028116
#
#
# Mechanical properties :
#
#
# Convention : Reuss Voigt Hill
#
# Bulk Modulus (GPa) = 57.39775 62.98778 60.19277
# Shear Modulus (GPa) = 29.00132 31.88446 30.44289
#
# Velocity S-wave (km/s) = 3.75597 3.93825 3.84819
# Velocity P-wave (km/s) = 6.83595 7.16375 7.00177
#
# Compressibility (1/GPa) = 0.01742228
#
# Stress axis : x y z
#
# Youngs Moduli (GPa) = 94.26943 53.70913 96.38753
#
# Poissons Ratio (x) = 0.23221 0.26058
# Poissons Ratio (y) = 0.40758 0.39158
# Poissons Ratio (z) = 0.25486 0.21820
#
# Static dielectric constant tensor:
#      x y z
#    x 3.836720 0.000000 -0.038090 
#    y 0.000000 3.620090 0.000000 
#    z -0.038090 0.000000 3.797160 
# 
# 
# High freq. dielectric constant tensor:
#      x y z
#    x 1.819720 0.000000 -0.002580 
#    y 0.000000 1.795370 0.000000 
#    z -0.002580 0.000000 1.807550 
# 
# From -- ./inp_files/38156.got.cif
#   From: 2010.06.25/outbox.cif.g09.slc.cpg/sg11_20_cif.got.tgz:38156.got - 2010.06.27 23:14:04.
