data_PCOD8076969
_publ_section_title
;
Structure prediction by ZEFSAII (Michael W. Deem and Ramdas Pophale) SiO2 
 PCOD8076969
Probable space group: P 21/M
;
_chemical_formula_sum "Si O2"
_cell_formula_units_Z 32
_cell_length_a 9.752309
_cell_length_b 13.857068
_cell_length_c 15.133351
_cell_angle_alpha 90.000000
_cell_angle_beta 119.352802
_cell_angle_gamma 90.000000
_cell_volume 1782.543137
_symmetry_space_group_name_H-M "P 21/M"
_symmetry_group_IT_number 11
_symmetry_cell_setting 'monoclinic'
loop_
_space_group_symop_operation_xyz
x,y,z
-x,1/2+y,-z
-x,-y,-z
x,1/2-y,z
loop_
_atom_site_type_symbol
_atom_site_label
_atom_site_fract_x
_atom_site_fract_y
_atom_site_fract_z
Si Si1 0.680655 0.637048 0.263960
Si Si2 0.855568 0.641982 0.770537
Si Si3 0.908505 0.014210 0.060792
Si Si4 0.554997 0.016412 0.919757
Si Si5 0.545398 0.858626 0.776670
Si Si6 0.407461 0.493383 0.605793
Si Si7 0.266194 0.974209 0.378177
Si Si8 0.034667 0.137155 0.773314
O O1 0.661744 0.750000 0.274814
O O2 0.537177 0.602391 0.157289
O O3 0.675740 0.584195 0.356981
O O4 0.844601 0.612174 0.267443
O O5 0.882949 0.750000 0.744090
O O6 0.728608 0.639162 0.808946
O O7 0.795677 0.579392 0.669343
O O8 0.018379 0.600940 0.859184
O O9 0.912130 0.916884 0.120505
O O10 0.735804 0.046503 0.978210
O O11 0.000000 0.000000 0.000000
O O12 0.525414 0.915444 0.861241
O O13 0.500000 0.000000 0.000000
O O14 0.483969 0.750000 0.770455
O O15 0.440709 0.907503 0.667747
O O16 0.570160 0.448513 0.619346
O O17 0.288917 0.521790 0.490306
O O18 0.139945 0.893055 0.312208
O O19 0.035699 0.250000 0.795930
#
# Coordination Sequence:
#
# PCOD8076969 Si02
#       8
#     4   4   4   4   4   4   4   4
#     4  10  22  38  55  80 112 146 185 225 270 324
#     4   9  18  33  53  78 106 137 175 218 263 315
#     4  11  21  36  55  79 108 142 183 226 270 320
#     4  11  21  36  55  77 108 144 179 223 272 317
#     4   9  18  33  54  77 104 139 176 214 262 322
#     4   9  19  36  58  84 110 139 178 226 273 319
#     4   9  19  36  58  83 111 140 177 224 274 323
#     4  10  22  38  56  80 111 147 185 223 268 328
#
# _framework density 17.951879999999999
#
# number of rings (size 3 to 8) (size 9 to 14) (size 15 to 20)
#    0.000    2.250    2.500    0.000    1.750    4.000 
#    0.000    2.500    0.000    0.000    0.000    0.000 
#    0.000    0.000    0.000    0.000    0.000    0.000 
#
# Total GULP energy -396854.043480 kJ/mol
# GULP energy per Si atom -12401.688859 kJ/mol
# Density = 1.791102 g / cm^3
# Si number density = 17.951880 Si / 1000 Ang^3
#
#
#
# Elastic Constant Matrix: (Units=GPa)
#
#
# Indices 1 2 3 4 5 6 
#
# 1 82.3839 34.5655 30.9288 0.0000 -7.1186 0.0000
# 2 34.5655 112.7965 29.8614 0.0000 -9.0560 0.0000
# 3 30.9288 29.8614 94.0516 0.0000 -10.5547 0.0000
# 4 0.0000 0.0000 0.0000 13.9474 0.0000 -1.7706
# 5 -7.1186 -9.0560 -10.5547 0.0000 33.5603 0.0000
# 6 0.0000 0.0000 0.0000 -1.7706 0.0000 26.3258
#
#
#
# Elastic Compliance Matrix: (Units=1/GPa)
#
#
# Indices 1 2 3 4 5 6 
#
# 1 0.015123 -0.003563 -0.003721 0.000000 0.001076 0.000000
# 2 -0.003563 0.010614 -0.002033 0.000000 0.001469 0.000000
# 3 -0.003721 -0.002033 0.012804 0.000000 0.002689 0.000000
# 4 0.000000 0.000000 0.000000 0.072316 0.000000 0.004864
# 5 0.001076 0.001469 0.002689 0.000000 0.031267 0.000000
# 6 0.000000 0.000000 0.000000 0.004864 0.000000 0.038313
#
#
# Mechanical properties :
#
#
# Convention : Reuss Voigt Hill
#
# Bulk Modulus (GPa) = 50.23777 53.32706 51.78241
# Shear Modulus (GPa) = 24.30657 27.69178 25.99918
#
# Velocity S-wave (km/s) = 3.68364 3.93180 3.80974
# Velocity P-wave (km/s) = 6.79248 7.09804 6.94694
#
# Compressibility (1/GPa) = 0.01990534
#
# Stress axis : x y z
#
# Youngs Moduli (GPa) = 66.12373 94.21933 78.10354
#
# Poissons Ratio (x) = 0.33568 0.29065
# Poissons Ratio (y) = 0.23559 0.15881
# Poissons Ratio (z) = 0.24607 0.19158
#
# Static dielectric constant tensor:
#      x y z
#    x 3.455110 0.000000 -0.049390 
#    y 0.000000 3.293360 0.000000 
#    z -0.049390 0.000000 3.401210 
# 
# 
# High freq. dielectric constant tensor:
#      x y z
#    x 1.693280 0.000000 -0.001200 
#    y 0.000000 1.689470 0.000000 
#    z -0.001200 0.000000 1.701450 
# 
# From -- ./inp_files/22256.got.cif
#   From: 2010.06.25/outbox.cif.g09.slc.cpg/sg11_12_cif.got.tgz:22256.got - 2010.06.27 23:14:04.
