data_PCOD8076293
_publ_section_title
;
Structure prediction by ZEFSAII (Michael W. Deem and Ramdas Pophale) SiO2 
 PCOD8076293
Probable space group: P 21/M
;
_chemical_formula_sum "Si O2"
_cell_formula_units_Z 32
_cell_length_a 6.945188
_cell_length_b 17.378492
_cell_length_c 15.522865
_cell_angle_alpha 90.000000
_cell_angle_beta 62.829740
_cell_angle_gamma 90.000000
_cell_volume 1666.820657
_symmetry_space_group_name_H-M "P 21/M"
_symmetry_group_IT_number 11
_symmetry_cell_setting 'monoclinic'
loop_
_space_group_symop_operation_xyz
x,y,z
-x,1/2+y,-z
-x,-y,-z
x,1/2-y,z
loop_
_atom_site_type_symbol
_atom_site_label
_atom_site_fract_x
_atom_site_fract_y
_atom_site_fract_z
Si Si1 0.369231 0.661171 0.571554
Si Si2 0.062272 0.082394 0.948017
Si Si3 0.435533 0.162564 0.290665
Si Si4 0.376962 0.338605 0.644543
Si Si5 0.099164 0.661119 0.858741
Si Si6 0.053538 0.083987 0.272604
Si Si7 0.066606 0.589283 0.221196
Si Si8 0.507548 0.839439 0.187047
O O1 0.288197 0.750000 0.579438
O O2 0.551710 0.655937 0.608468
O O3 0.472182 0.628478 0.462531
O O4 0.169909 0.606239 0.635660
O O5 0.318290 0.101565 0.890357
O O6 0.955532 0.088858 0.876944
O O7 0.963138 0.147263 0.030070
O O8 0.000000 0.000000 0.000000
O O9 0.396041 0.250000 0.269268
O O10 0.658418 0.129905 0.205112
O O11 0.244176 0.111662 0.294435
O O12 0.336565 0.250000 0.633897
O O13 0.498469 0.353206 0.709410
O O14 0.142923 0.376532 0.690294
O O15 0.089504 0.750000 0.836643
O O16 0.936245 0.618959 0.825931
O O17 0.092016 0.994015 0.256462
O O18 0.272939 0.641907 0.198228
O O19 0.567060 0.750000 0.154405
#
# Coordination Sequence:
#
# PCOD8076293 Si02
#       8
#     4   4   4   4   4   4   4   4
#     4   9  19  37  61  85 113 153 199 242 287 345
#     4  11  23  41  62  85 116 153 195 244 295 345
#     4   9  19  34  56  84 115 150 191 238 290 349
#     4   9  20  41  63  83 113 154 198 244 291 343
#     4  10  21  38  59  83 114 153 195 239 289 350
#     4  11  21  35  56  85 121 153 188 239 295 353
#     4  11  24  38  60  86 118 156 193 243 296 350
#     4  10  23  41  62  87 117 154 200 244 290 350
#
# _framework density 19.198226999999999
#
# number of rings (size 3 to 8) (size 9 to 14) (size 15 to 20)
#    0.000    2.000    1.250    2.625    1.750    5.500 
#    0.000    6.250    0.000    0.000    0.000    0.000 
#    0.000    0.000    0.000    0.000    0.000    0.000 
#
# Total GULP energy -396803.575589 kJ/mol
# GULP energy per Si atom -12400.111737 kJ/mol
# Density = 1.915453 g / cm^3
# Si number density = 19.198227 Si / 1000 Ang^3
#
#
#
# Elastic Constant Matrix: (Units=GPa)
#
#
# Indices 1 2 3 4 5 6 
#
# 1 104.6470 32.9684 34.6712 0.0000 4.2489 0.0000
# 2 32.9684 63.1328 30.7213 0.0000 -0.7625 0.0000
# 3 34.6712 30.7213 129.7147 0.0000 -0.4704 0.0000
# 4 0.0000 0.0000 0.0000 32.2285 0.0000 -4.8977
# 5 4.2489 -0.7625 -0.4704 0.0000 14.5435 0.0000
# 6 0.0000 0.0000 0.0000 -4.8977 0.0000 22.6138
#
#
#
# Elastic Compliance Matrix: (Units=1/GPa)
#
#
# Indices 1 2 3 4 5 6 
#
# 1 0.012061 -0.005391 -0.001961 0.000000 -0.003870 0.000000
# 2 -0.005391 0.020322 -0.003363 0.000000 0.002532 0.000000
# 3 -0.001961 -0.003363 0.009032 0.000000 0.000689 0.000000
# 4 0.000000 0.000000 0.000000 0.032084 0.000000 0.006949
# 5 -0.003870 0.002532 0.000689 0.000000 0.070045 0.000000
# 6 0.000000 0.000000 0.000000 0.006949 0.000000 0.045726
#
#
# Mechanical properties :
#
#
# Convention : Reuss Voigt Hill
#
# Bulk Modulus (GPa) = 50.03590 54.91293 52.47442
# Shear Modulus (GPa) = 23.00311 27.15273 25.07792
#
# Velocity S-wave (km/s) = 3.46524 3.76484 3.61815
# Velocity P-wave (km/s) = 6.49075 6.89666 6.69678
#
# Compressibility (1/GPa) = 0.01998565
#
# Stress axis : x y z
#
# Youngs Moduli (GPa) = 82.91084 49.20836 110.71316
#
# Poissons Ratio (x) = 0.26528 0.21712
# Poissons Ratio (y) = 0.44696 0.37231
# Poissons Ratio (z) = 0.16259 0.16548
#
# Static dielectric constant tensor:
#      x y z
#    x 3.414630 0.000000 0.013390 
#    y 0.000000 3.539170 0.000000 
#    z 0.013390 0.000000 3.753630 
# 
# 
# High freq. dielectric constant tensor:
#      x y z
#    x 1.742790 0.000000 0.003880 
#    y 0.000000 1.747240 0.000000 
#    z 0.003880 0.000000 1.754040 
# 
# From -- ./inp_files/46018.got.cif
#   From: 2010.06.25/outbox.cif.g09.slc.cpg/sg11_24_cif.got.tgz:46018.got - 2010.06.27 23:14:04.
