data_PCOD8076257
_publ_section_title
;
Structure prediction by ZEFSAII (Michael W. Deem and Ramdas Pophale) SiO2 
 PCOD8076257
Probable space group: P 21/M
;
_chemical_formula_sum "Si O2"
_cell_formula_units_Z 28
_cell_length_a 16.601459
_cell_length_b 9.158540
_cell_length_c 9.859983
_cell_angle_alpha 90.000000
_cell_angle_beta 89.098187
_cell_angle_gamma 90.000000
_cell_volume 1498.976667
_symmetry_space_group_name_H-M "P 21/M"
_symmetry_group_IT_number 11
_symmetry_cell_setting 'monoclinic'
loop_
_space_group_symop_operation_xyz
x,y,z
-x,1/2+y,-z
-x,-y,-z
x,1/2-y,z
loop_
_atom_site_type_symbol
_atom_site_label
_atom_site_fract_x
_atom_site_fract_y
_atom_site_fract_z
Si Si1 0.829173 0.416741 0.155225
Si Si2 0.993655 0.919071 0.858960
Si Si3 0.678364 0.919629 0.208390
Si Si4 0.158027 0.579820 0.161093
Si Si5 0.584545 0.580037 0.484156
Si Si6 0.323806 0.583173 0.291214
Si Si7 0.416690 0.918095 0.014825
O O1 0.800598 0.250000 0.173809
O O2 0.768190 0.521463 0.238817
O O3 0.919116 0.437671 0.215825
O O4 0.827683 0.459350 0.996434
O O5 0.974650 0.750000 0.884965
O O6 0.919560 0.991612 0.778241
O O7 0.000000 0.000000 0.000000
O O8 0.682204 0.750000 0.171534
O O9 0.618689 0.948626 0.334012
O O10 0.648766 0.009243 0.079896
O O11 0.139888 0.750000 0.178136
O O12 0.235818 0.532008 0.244606
O O13 0.500000 0.500000 0.500000
O O14 0.570636 0.750000 0.512373
O O15 0.649634 0.520414 0.588037
O O16 0.321315 0.750000 0.342598
O O17 0.387883 0.568254 0.169343
O O18 0.427738 0.750000 0.972369
O O19 0.500000 0.000000 0.000000
#
# Coordination Sequence:
#
# PCOD8076257 Si02
#       7
#     4   4   4   4   4   4   4
#     4   9  17  32  52  78 112 146 180 221 270 322
#     4   9  17  28  46  76 112 146 179 219 266 319
#     4  11  23  37  55  81 111 142 182 228 273 323
#     4   9  17  32  52  79 112 143 178 221 272 324
#     4  11  25  42  58  80 108 143 187 230 273 330
#     4  10  21  38  58  80 110 144 180 227 274 325
#     4  11  22  37  56  81 110 138 176 225 276 328
#
# _framework density 18.679410000000001
#
# number of rings (size 3 to 8) (size 9 to 14) (size 15 to 20)
#    0.000    2.000    1.429    3.429    0.000   10.286 
#    0.000    0.000    0.000    0.857    0.000    0.000 
#    0.000    0.000    0.000    0.000    0.000    0.000 
#
# Total GULP energy -347185.456975 kJ/mol
# GULP energy per Si atom -12399.480606 kJ/mol
# Density = 1.863689 g / cm^3
# Si number density = 18.679410 Si / 1000 Ang^3
#
#
#
# Elastic Constant Matrix: (Units=GPa)
#
#
# Indices 1 2 3 4 5 6 
#
# 1 132.2914 60.4448 11.0908 0.0000 6.7985 0.0000
# 2 60.4448 106.8393 27.1687 0.0000 -3.1485 0.0000
# 3 11.0908 27.1687 30.7183 0.0000 5.9515 0.0000
# 4 0.0000 0.0000 0.0000 26.8039 0.0000 1.7657
# 5 6.7985 -3.1485 5.9515 0.0000 22.7297 0.0000
# 6 0.0000 0.0000 0.0000 1.7657 0.0000 42.6312
#
#
#
# Elastic Compliance Matrix: (Units=1/GPa)
#
#
# Indices 1 2 3 4 5 6 
#
# 1 0.010788 -0.007114 0.003385 0.000000 -0.005099 0.000000
# 2 -0.007114 0.017266 -0.014303 0.000000 0.008265 0.000000
# 3 0.003385 -0.014303 0.046944 0.000000 -0.015285 0.000000
# 4 0.000000 0.000000 0.000000 0.037410 0.000000 -0.001549
# 5 -0.005099 0.008265 -0.015285 0.000000 0.050667 0.000000
# 6 0.000000 0.000000 0.000000 -0.001549 0.000000 0.023521
#
#
# Mechanical properties :
#
#
# Convention : Reuss Voigt Hill
#
# Bulk Modulus (GPa) = 25.68556 51.91750 38.80153
# Shear Modulus (GPa) = 21.21899 29.84260 25.53079
#
# Velocity S-wave (km/s) = 3.37405 4.00136 3.70102
# Velocity P-wave (km/s) = 5.38141 7.01442 6.25147
#
# Compressibility (1/GPa) = 0.03893238
#
# Stress axis : x y z
#
# Youngs Moduli (GPa) = 92.69654 57.91857 21.30216
#
# Poissons Ratio (x) = 0.41205 -0.07211
# Poissons Ratio (y) = 0.65948 0.30469
# Poissons Ratio (z) = -0.31379 0.82842
#
# Static dielectric constant tensor:
#      x y z
#    x 4.150460 0.000000 0.099960 
#    y 0.000000 3.587030 0.000000 
#    z 0.099960 0.000000 3.086190 
# 
# 
# High freq. dielectric constant tensor:
#      x y z
#    x 1.748630 0.000000 0.003360 
#    y 0.000000 1.733930 0.000000 
#    z 0.003360 0.000000 1.680100 
# 
# From -- ./inp_files/24076.got.cif
#   From: 2010.06.25/outbox.cif.g09.slc.cpg/sg11_13_cif.got.tgz:24076.got - 2010.06.27 23:14:04.
