data_PCOD8076040
_publ_section_title
;
Structure prediction by ZEFSAII (Michael W. Deem and Ramdas Pophale) SiO2 
 PCOD8076040
Probable space group: P 21/M
;
_chemical_formula_sum "Si O2"
_cell_formula_units_Z 24
_cell_length_a 15.020494
_cell_length_b 13.678335
_cell_length_c 5.210752
_cell_angle_alpha 90.000000
_cell_angle_beta 65.303417
_cell_angle_gamma 90.000000
_cell_volume 972.654519
_symmetry_space_group_name_H-M "P 21/M"
_symmetry_group_IT_number 11
_symmetry_cell_setting 'monoclinic'
loop_
_space_group_symop_operation_xyz
x,y,z
-x,1/2+y,-z
-x,-y,-z
x,1/2-y,z
loop_
_atom_site_type_symbol
_atom_site_label
_atom_site_fract_x
_atom_site_fract_y
_atom_site_fract_z
Si Si1 0.081706 0.562403 0.643482
Si Si2 0.481124 0.365178 0.903801
Si Si3 0.205368 0.558150 0.973336
Si Si4 0.417617 0.863679 0.719636
Si Si5 0.263929 0.142811 0.025355
Si Si6 0.933152 0.855198 0.471594
O O1 0.135579 0.600829 0.832958
O O2 0.043231 0.449431 0.736709
O O3 0.988258 0.628861 0.681581
O O4 0.154430 0.564721 0.311223
O O5 0.501311 0.250000 0.887894
O O6 0.534324 0.411133 0.591100
O O7 0.365492 0.387254 0.037211
O O8 0.530620 0.414506 0.095619
O O9 0.301348 0.623919 0.865847
O O10 0.233821 0.445174 0.869640
O O11 0.443081 0.750000 0.693826
O O12 0.272825 0.250000 0.874754
O O13 0.182769 0.150436 0.344402
O O14 0.967556 0.750000 0.312513
#
# Coordination Sequence:
#
# PCOD8076040 Si02
#       6
#     4   4   4   4   4   4
#     4  10  23  40  59  89 119 146 192 240 279 340
#     4   9  19  36  57  83 115 150 193 240 281 334
#     4  11  23  39  60  86 118 153 190 236 285 339
#     4  10  21  37  57  83 117 155 192 234 285 337
#     4   9  20  38  60  86 115 150 193 239 288 339
#     4   9  20  40  64  87 116 153 189 234 291 341
#
# _framework density 24.674742999999999
#
# number of rings (size 3 to 8) (size 9 to 14) (size 15 to 20)
#    0.000    2.333    0.000    1.000    0.000   12.000 
#    0.000    8.333    0.000    0.000    0.000    0.000 
#    0.000    0.000    0.000    0.000    0.000    0.000 
#
# Total GULP energy -297462.038255 kJ/mol
# GULP energy per Si atom -12394.251594 kJ/mol
# Density = 2.461858 g / cm^3
# Si number density = 24.674743 Si / 1000 Ang^3
#
#
#
# Elastic Constant Matrix: (Units=GPa)
#
#
# Indices 1 2 3 4 5 6 
#
# 1 139.8380 -9.1667 47.1747 0.0000 -1.8441 0.0000
# 2 -9.1667 45.4664 15.6612 0.0000 -5.3045 0.0000
# 3 47.1747 15.6612 84.1438 0.0000 10.0561 0.0000
# 4 0.0000 0.0000 0.0000 17.5419 0.0000 -7.1505
# 5 -1.8441 -5.3045 10.0561 0.0000 42.0228 0.0000
# 6 0.0000 0.0000 0.0000 -7.1505 0.0000 33.2518
#
#
#
# Elastic Compliance Matrix: (Units=1/GPa)
#
#
# Indices 1 2 3 4 5 6 
#
# 1 0.009706 0.004528 -0.006592 0.000000 0.002575 0.000000
# 2 0.004528 0.026331 -0.008092 0.000000 0.005459 0.000000
# 3 -0.006592 -0.008092 0.017750 0.000000 -0.005558 0.000000
# 4 0.000000 0.000000 0.000000 0.062484 0.000000 0.013436
# 5 0.002575 0.005459 -0.005558 0.000000 0.025929 0.000000
# 6 0.000000 0.000000 0.000000 0.013436 0.000000 0.032963
#
#
# Mechanical properties :
#
#
# Convention : Reuss Voigt Hill
#
# Bulk Modulus (GPa) = 29.87235 41.86516 35.86876
# Shear Modulus (GPa) = 24.19750 32.94858 28.57304
#
# Velocity S-wave (km/s) = 3.13494 3.65816 3.40661
# Velocity P-wave (km/s) = 5.02360 5.90309 5.48102
#
# Compressibility (1/GPa) = 0.03347577
#
# Stress axis : x y z
#
# Youngs Moduli (GPa) = 103.03236 37.97768 56.33649
#
# Poissons Ratio (x) = -0.17196 0.37136
# Poissons Ratio (y) = -0.46651 0.45586
# Poissons Ratio (z) = 0.67918 0.30731
#
# Static dielectric constant tensor:
#      x y z
#    x 4.559880 0.000000 -0.052020 
#    y 0.000000 4.672370 0.000000 
#    z -0.052020 0.000000 4.164550 
# 
# 
# High freq. dielectric constant tensor:
#      x y z
#    x 1.993340 0.000000 -0.015420 
#    y 0.000000 1.982200 0.000000 
#    z -0.015420 0.000000 1.956560 
# 
# From -- ./inp_files/6346.got.cif
#   From: 2010.06.25/outbox.cif.g09.slc.cpg/sg11_4_cif.got.tgz:6346.got - 2010.06.27 23:14:04.
