data_PCOD8076072
_publ_section_title
;
Structure prediction by ZEFSAII (Michael W. Deem and Ramdas Pophale) SiO2 
 PCOD8076072
Probable space group: P 21/M
;
_chemical_formula_sum "Si O2"
_cell_formula_units_Z 24
_cell_length_a 21.140699
_cell_length_b 8.608285
_cell_length_c 9.932389
_cell_angle_alpha 90.000000
_cell_angle_beta 44.828061
_cell_angle_gamma 90.000000
_cell_volume 1274.287751
_symmetry_space_group_name_H-M "P 21/M"
_symmetry_group_IT_number 11
_symmetry_cell_setting 'monoclinic'
loop_
_space_group_symop_operation_xyz
x,y,z
-x,1/2+y,-z
-x,-y,-z
x,1/2-y,z
loop_
_atom_site_type_symbol
_atom_site_label
_atom_site_fract_x
_atom_site_fract_y
_atom_site_fract_z
Si Si1 0.235597 0.431510 0.287233
Si Si2 0.570957 0.068770 0.291710
Si Si3 0.226487 0.568025 0.012305
Si Si4 0.424448 0.565338 0.018116
Si Si5 0.894136 0.070848 0.305934
Si Si6 0.899168 0.570508 0.018104
O O1 0.241663 0.250000 0.245371
O O2 0.329703 0.492362 0.204701
O O3 0.160224 0.461420 0.511916
O O4 0.208933 0.524407 0.193363
O O5 0.558618 0.250000 0.314501
O O6 0.671842 0.022849 0.182351
O O7 0.500000 0.000000 0.500000
O O8 0.552192 0.009931 0.168587
O O9 0.208109 0.750000 0.021249
O O10 0.160306 0.470065 0.020305
O O11 0.417579 0.750000 0.039638
O O12 0.500000 0.500000 0.000000
O O13 0.870882 0.250000 0.369113
O O14 0.998301 0.033032 0.173697
O O15 0.867431 0.031152 0.192911
O O16 0.887494 0.750000 0.073937
#
# Coordination Sequence:
#
# PCOD8076072 Si02
#       6
#     4   4   4   4   4   4
#     4  11  22  37  58  83 110 144 187 232 277 327
#     4   9  20  36  55  79 107 140 178 220 266 319
#     4  10  21  38  57  80 112 147 183 226 278 331
#     4  10  21  38  57  81 112 145 183 226 275 330
#     4  10  21  38  58  81 112 147 182 226 278 330
#     4  10  21  37  58  84 111 143 185 228 273 329
#
# _framework density 18.834050000000001
#
# number of rings (size 3 to 8) (size 9 to 14) (size 15 to 20)
#    0.000    2.000    0.000    4.500    0.000    8.000 
#    0.000    3.333    0.000    0.000    0.000    0.000 
#    0.000    0.000    0.000    0.000    0.000    0.000 
#
# Total GULP energy -297690.267860 kJ/mol
# GULP energy per Si atom -12403.761161 kJ/mol
# Density = 1.879118 g / cm^3
# Si number density = 18.834050 Si / 1000 Ang^3
#
#
#
# Elastic Constant Matrix: (Units=GPa)
#
#
# Indices 1 2 3 4 5 6 
#
# 1 123.8531 25.2259 41.8802 0.0000 -1.5087 0.0000
# 2 25.2259 60.5814 31.9048 0.0000 -7.9170 0.0000
# 3 41.8802 31.9048 115.3174 0.0000 -8.9043 0.0000
# 4 0.0000 0.0000 0.0000 36.3731 0.0000 1.6565
# 5 -1.5087 -7.9170 -8.9043 0.0000 13.5567 0.0000
# 6 0.0000 0.0000 0.0000 1.6565 0.0000 34.2340
#
#
#
# Elastic Compliance Matrix: (Units=1/GPa)
#
#
# Indices 1 2 3 4 5 6 
#
# 1 0.009594 -0.002788 -0.002903 0.000000 -0.002468 0.000000
# 2 -0.002788 0.021036 -0.004090 0.000000 0.009288 0.000000
# 3 -0.002903 -0.004090 0.011217 0.000000 0.004656 0.000000
# 4 0.000000 0.000000 0.000000 0.027554 0.000000 -0.001333
# 5 -0.002468 0.009288 0.004656 0.000000 0.081972 0.000000
# 6 0.000000 0.000000 0.000000 -0.001333 0.000000 0.029275
#
#
# Mechanical properties :
#
#
# Convention : Reuss Voigt Hill
#
# Bulk Modulus (GPa) = 44.87692 55.30817 50.09255
# Shear Modulus (GPa) = 24.08037 30.21548 27.14793
#
# Velocity S-wave (km/s) = 3.57957 4.00972 3.80073
# Velocity P-wave (km/s) = 6.40029 7.13210 6.77608
#
# Compressibility (1/GPa) = 0.02228317
#
# Stress axis : x y z
#
# Youngs Moduli (GPa) = 104.23567 47.53861 89.14859
#
# Poissons Ratio (x) = 0.13255 0.25882
# Poissons Ratio (y) = 0.29063 0.36463
# Poissons Ratio (z) = 0.30262 0.19444
#
# Static dielectric constant tensor:
#      x y z
#    x 3.446370 0.000000 -0.064490 
#    y 0.000000 3.522120 0.000000 
#    z -0.064490 0.000000 3.190420 
# 
# 
# High freq. dielectric constant tensor:
#      x y z
#    x 1.734650 0.000000 -0.000540 
#    y 0.000000 1.743400 0.000000 
#    z -0.000540 0.000000 1.732060 
# 
# From -- ./inp_files/25718.got.cif
#   From: 2010.06.25/outbox.cif.g09.slc.cpg/sg11_13_cif.got.tgz:25718.got - 2010.06.27 23:14:04.
