data_PCOD8076172
_publ_section_title
;
Structure prediction by ZEFSAII (Michael W. Deem and Ramdas Pophale) SiO2 
 PCOD8076172
Probable space group: P 21/M
;
_chemical_formula_sum "Si O2"
_cell_formula_units_Z 28
_cell_length_a 12.493518
_cell_length_b 8.774231
_cell_length_c 12.598705
_cell_angle_alpha 90.000000
_cell_angle_beta 75.257797
_cell_angle_gamma 90.000000
_cell_volume 1335.618355
_symmetry_space_group_name_H-M "P 21/M"
_symmetry_group_IT_number 11
_symmetry_cell_setting 'monoclinic'
loop_
_space_group_symop_operation_xyz
x,y,z
-x,1/2+y,-z
-x,-y,-z
x,1/2-y,z
loop_
_atom_site_type_symbol
_atom_site_label
_atom_site_fract_x
_atom_site_fract_y
_atom_site_fract_z
Si Si1 0.234425 0.573126 0.202877
Si Si2 0.295334 0.071276 0.961853
Si Si3 0.638606 0.573480 0.639085
Si Si4 0.609921 0.426371 0.249934
Si Si5 0.017765 0.422757 0.730098
Si Si6 0.748443 0.924291 0.398051
Si Si7 0.093371 0.925533 0.909222
O O1 0.251699 0.750000 0.180240
O O2 0.315007 0.517624 0.273405
O O3 0.107804 0.537416 0.272998
O O4 0.270827 0.496682 0.083260
O O5 0.309101 0.250000 0.972586
O O6 0.397872 0.004421 0.866581
O O7 0.199986 0.026471 0.903703
O O8 0.669328 0.750000 0.647048
O O9 0.507540 0.547771 0.664161
O O10 0.692566 0.507049 0.517946
O O11 0.636941 0.250000 0.223955
O O12 0.705615 0.488123 0.304401
O O13 0.017960 0.250000 0.778316
O O14 0.117020 0.433781 0.618364
O O15 0.053585 0.555757 0.800072
O O16 0.710707 0.750000 0.392868
O O17 0.113797 0.750000 0.933754
O O18 0.000000 0.000000 0.000000
#
# Coordination Sequence:
#
# PCOD8076172 Si02
#       7
#     4   4   4   4   4   4   4
#     4  11  24  41  62  90 126 166 208 252 303 375
#     4  12  24  39  62  91 125 163 203 255 314 373
#     4  10  24  44  63  87 124 167 210 258 308 366
#     4  11  23  40  64  94 124 157 207 264 313 367
#     4  10  21  37  60  91 126 161 201 253 306 361
#     4  10  21  40  66  93 123 161 205 256 314 368
#     4  12  22  34  57  90 126 163 202 250 306 368
#
# _framework density 20.964072000000002
#
# number of rings (size 3 to 8) (size 9 to 14) (size 15 to 20)
#    0.000    1.143    2.857    3.857    0.000    3.429 
#    0.000    0.000    0.000    0.000    0.000    0.000 
#    0.000    0.000    0.000    0.000    0.000    0.000 
#
# Total GULP energy -346963.133324 kJ/mol
# GULP energy per Si atom -12391.540476 kJ/mol
# Density = 2.091636 g / cm^3
# Si number density = 20.964072 Si / 1000 Ang^3
#
#
#
# Elastic Constant Matrix: (Units=GPa)
#
#
# Indices 1 2 3 4 5 6 
#
# 1 59.4309 26.5445 32.0970 0.0000 -2.3132 0.0000
# 2 26.5445 98.8413 47.5213 0.0000 -1.8689 0.0000
# 3 32.0970 47.5213 127.2839 0.0000 -15.7070 0.0000
# 4 0.0000 0.0000 0.0000 27.5259 0.0000 -3.0297
# 5 -2.3132 -1.8689 -15.7070 0.0000 34.8090 0.0000
# 6 0.0000 0.0000 0.0000 -3.0297 0.0000 20.5924
#
#
#
# Elastic Compliance Matrix: (Units=1/GPa)
#
#
# Indices 1 2 3 4 5 6 
#
# 1 0.020536 -0.003658 -0.003885 0.000000 -0.000585 0.000000
# 2 -0.003658 0.013057 -0.004125 0.000000 -0.001404 0.000000
# 3 -0.003885 -0.004125 0.010925 0.000000 0.004450 0.000000
# 4 0.000000 0.000000 0.000000 0.036927 0.000000 0.005433
# 5 -0.000585 -0.001404 0.004450 0.000000 0.030622 0.000000
# 6 0.000000 0.000000 0.000000 0.005433 0.000000 0.049361
#
#
# Mechanical properties :
#
#
# Convention : Reuss Voigt Hill
#
# Bulk Modulus (GPa) = 47.21269 55.32017 51.26643
# Shear Modulus (GPa) = 26.06541 28.54500 27.30521
#
# Velocity S-wave (km/s) = 3.52992 3.69401 3.61290
# Velocity P-wave (km/s) = 6.25967 6.68129 6.47391
#
# Compressibility (1/GPa) = 0.02118075
#
# Stress axis : x y z
#
# Youngs Moduli (GPa) = 48.69614 76.58989 91.52957
#
# Poissons Ratio (x) = 0.28019 0.35557
# Poissons Ratio (y) = 0.17814 0.37759
# Poissons Ratio (z) = 0.18917 0.31596
#
# Static dielectric constant tensor:
#      x y z
#    x 3.786240 0.000000 -0.307170 
#    y 0.000000 3.665440 0.000000 
#    z -0.307170 0.000000 3.936250 
# 
# 
# High freq. dielectric constant tensor:
#      x y z
#    x 1.814690 0.000000 -0.026710 
#    y 0.000000 1.820810 0.000000 
#    z -0.026710 0.000000 1.830150 
# 
# From -- ./inp_files/48908.got.cif
#   From: 2010.06.25/outbox.cif.g09.slc.cpg/sg11_25_cif.got.tgz:48908.got - 2010.06.27 23:14:04.
