data_PCOD8076208
_publ_section_title
;
Structure prediction by ZEFSAII (Michael W. Deem and Ramdas Pophale) SiO2 
 PCOD8076208
Probable space group: P 21/M
;
_chemical_formula_sum "Si O2"
_cell_formula_units_Z 16
_cell_length_a 9.438325
_cell_length_b 5.179981
_cell_length_c 19.108222
_cell_angle_alpha 90.000000
_cell_angle_beta 129.359383
_cell_angle_gamma 90.000000
_cell_volume 722.313714
_symmetry_space_group_name_H-M "P 21/M"
_symmetry_group_IT_number 11
_symmetry_cell_setting 'monoclinic'
loop_
_space_group_symop_operation_xyz
x,y,z
-x,1/2+y,-z
-x,-y,-z
x,1/2-y,z
loop_
_atom_site_type_symbol
_atom_site_label
_atom_site_fract_x
_atom_site_fract_y
_atom_site_fract_z
Si Si1 0.371919 0.750000 0.465408
Si Si2 0.462501 0.750000 0.738029
Si Si3 0.258237 0.750000 0.019173
Si Si4 0.298738 0.750000 0.190311
Si Si5 0.872478 0.250000 0.469530
Si Si6 0.076310 0.750000 0.253951
Si Si7 0.116691 0.750000 0.836985
Si Si8 0.494828 0.250000 0.090693
O O1 0.500000 0.500000 0.500000
O O2 0.240388 0.750000 0.492500
O O3 0.247989 0.750000 0.358222
O O4 0.578548 0.498610 0.754946
O O5 0.272612 0.750000 0.638004
O O6 0.414244 0.750000 0.804210
O O7 0.203823 0.750000 0.083995
O O8 0.374762 0.498297 0.039232
O O9 0.079730 0.750000 0.910592
O O10 0.131997 0.750000 0.190823
O O11 0.000000 0.500000 0.500000
O O12 0.956738 0.495205 0.228620
O O13 0.335931 0.750000 0.908675
#
# Coordination Sequence:
#
# PCOD8076208 Si02
#       8
#     2   2   2   2   2   2   2   2
#     4  12  26  48  72  94 135 185 226 265 336 422
#     4  10  21  39  64  85 119 161 203 259 310 380
#     4  10  21  39  62  88 119 170 208 251 305 377
#     4  10  21  41  61  88 118 165 217 243 304 381
#     4  12  26  41  68 101 134 164 219 288 338 388
#     4  12  26  39  64  92 126 162 207 265 315 372
#     4  12  24  38  60  93 130 158 203 264 316 365
#     4  10  21  37  63  85 123 163 207 247 310 383
#
# _framework density 22.151039999999998
#
# number of rings (size 3 to 8) (size 9 to 14) (size 15 to 20)
#    0.000    1.000    0.000    6.750    3.500    1.000 
#    0.000    0.000    0.000    0.000    0.000    0.000 
#    0.000    0.000    0.000    0.000    0.000    0.000 
#
# Total GULP energy -198388.684371 kJ/mol
# GULP energy per Si atom -12399.292773 kJ/mol
# Density = 2.210062 g / cm^3
# Si number density = 22.151040 Si / 1000 Ang^3
#
#
#
# Elastic Constant Matrix: (Units=GPa)
#
#
# Indices 1 2 3 4 5 6 
#
# 1 97.1005 38.9809 2.1880 0.0000 -5.5995 0.0000
# 2 38.9809 207.9435 40.3958 0.0000 6.5481 0.0000
# 3 2.1880 40.3958 110.3186 0.0000 -9.5700 0.0000
# 4 0.0000 0.0000 0.0000 0.7388 0.0000 -31.9714
# 5 -5.5995 6.5481 -9.5700 0.0000 22.2837 0.0000
# 6 0.0000 0.0000 0.0000 -31.9714 0.0000 30.3117
#
#
#
# Elastic Compliance Matrix: (Units=1/GPa)
#
#
# Indices 1 2 3 4 5 6 
#
# 1 0.011508 -0.002486 0.001035 0.000000 0.004067 0.000000
# 2 -0.002486 0.005844 -0.002383 0.000000 -0.003365 0.000000
# 3 0.001035 -0.002383 0.010387 0.000000 0.005421 0.000000
# 4 0.000000 0.000000 0.000000 -0.030319 0.000000 -0.031979
# 5 0.004067 -0.003365 0.005421 0.000000 0.049215 0.000000
# 6 0.000000 0.000000 0.000000 -0.031979 0.000000 -0.000739
#
#
# Mechanical properties :
#
#
# Convention : Reuss Voigt Hill
#
# Bulk Modulus (GPa) = 49.82340 64.27688 57.05014
# Shear Modulus (GPa) = 82.98195 32.92004 57.95100
#
# Velocity S-wave (km/s) = 6.12725 3.85926 5.12040
# Velocity P-wave (km/s) = 8.52051 6.99565 7.79545
#
# Compressibility (1/GPa) = 0.02007089
#
# Stress axis : x y z
#
# Youngs Moduli (GPa) = 86.89624 171.11855 96.27605
#
# Poissons Ratio (x) = 0.42547 -0.09965
# Poissons Ratio (y) = 0.21606 0.22938
# Poissons Ratio (z) = -0.08994 0.40769
#
# Static dielectric constant tensor:
#      x y z
#    x 4.009780 0.000000 -0.206710 
#    y 0.000000 4.864660 0.000000 
#    z -0.206710 0.000000 4.025990 
# 
# 
# High freq. dielectric constant tensor:
#      x y z
#    x 1.868450 0.000000 -0.010970 
#    y 0.000000 1.899130 0.000000 
#    z -0.010970 0.000000 1.886470 
# 
# From -- ./inp_files/20023.got.cif
#   From: 2010.06.25/outbox.cif.g09.slc.cpg/sg11_11_cif.got.tgz:20023.got - 2010.06.27 23:14:04.
