data_PCOD8076678
_publ_section_title
;
Structure prediction by ZEFSAII (Michael W. Deem and Ramdas Pophale) SiO2 
 PCOD8076678
Probable space group: P 21/M
;
_chemical_formula_sum "Si O2"
_cell_formula_units_Z 28
_cell_length_a 8.477380
_cell_length_b 27.227241
_cell_length_c 9.380569
_cell_angle_alpha 90.000000
_cell_angle_beta 146.571207
_cell_angle_gamma 90.000000
_cell_volume 1192.799383
_symmetry_space_group_name_H-M "P 21/M"
_symmetry_group_IT_number 11
_symmetry_cell_setting 'monoclinic'
loop_
_space_group_symop_operation_xyz
x,y,z
-x,1/2+y,-z
-x,-y,-z
x,1/2-y,z
loop_
_atom_site_type_symbol
_atom_site_label
_atom_site_fract_x
_atom_site_fract_y
_atom_site_fract_z
Si Si1 0.622269 0.645779 0.341334
Si Si2 0.266271 0.055553 0.233760
Si Si3 0.611377 0.750000 0.370164
Si Si4 0.820208 0.093624 0.543251
Si Si5 0.951403 0.750000 0.910350
Si Si6 0.089784 0.000509 0.829009
Si Si7 0.774430 0.402005 0.189646
Si Si8 0.081760 0.648091 0.123646
O O1 0.735211 0.700788 0.389443
O O2 0.410347 0.651174 0.316459
O O3 0.898125 0.614119 0.595005
O O4 0.462210 0.625568 0.081514
O O5 0.584012 0.076341 0.479764
O O6 0.199543 0.025293 0.327306
O O7 0.048635 0.101317 0.057466
O O8 0.265690 0.018864 0.098030
O O9 0.269784 0.750000 0.086272
O O10 0.704643 0.750000 0.606114
O O11 0.702678 0.109643 0.300994
O O12 0.952955 0.139315 0.731119
O O13 0.033920 0.047276 0.684121
O O14 0.914614 0.699334 0.971886
O O15 0.263282 0.960101 0.869126
#
# Coordination Sequence:
#
# PCOD8076678 Si02
#       8
#     4   4   2   4   2   4   4   4
#     4  11  24  44  69  97 127 171 220 274 328 389
#     4  10  21  39  64  92 128 175 224 274 322 386
#     4  10  22  42  70 101 125 162 223 277 323 387
#     4  11  25  39  63  93 140 174 220 267 334 393
#     4  10  22  38  70 103 123 160 217 281 329 377
#     4  10  22  39  61  95 124 183 222 275 317 386
#     4  12  26  41  67  96 136 175 218 272 330 393
#     4  10  22  41  66  95 127 167 221 275 326 392
#
# _framework density 23.474191999999999
#
# number of rings (size 3 to 8) (size 9 to 14) (size 15 to 20)
#    0.000    1.429    1.429    3.429   10.000    0.571 
#    0.000    1.429    0.000    0.000    0.000    0.000 
#    0.000    0.000    0.000    0.000    0.000    0.000 
#
# Total GULP energy -347044.449083 kJ/mol
# GULP energy per Si atom -12394.444610 kJ/mol
# Density = 2.342076 g / cm^3
# Si number density = 23.474192 Si / 1000 Ang^3
#
#
#
# Elastic Constant Matrix: (Units=GPa)
#
#
# Indices 1 2 3 4 5 6 
#
# 1 30.2644 16.5706 -0.0149 0.0000 -15.6301 0.0000
# 2 16.5706 143.3762 38.4174 0.0000 -18.1399 0.0000
# 3 -0.0149 38.4174 79.8686 0.0000 -14.5965 0.0000
# 4 0.0000 0.0000 0.0000 29.2301 0.0000 -4.5621
# 5 -15.6301 -18.1399 -14.5965 0.0000 36.2712 0.0000
# 6 0.0000 0.0000 0.0000 -4.5621 0.0000 17.5039
#
#
#
# Elastic Compliance Matrix: (Units=1/GPa)
#
#
# Indices 1 2 3 4 5 6 
#
# 1 0.045623 -0.004293 0.005693 0.000000 0.019804 0.000000
# 2 -0.004293 0.008653 -0.004005 0.000000 0.000866 0.000000
# 3 0.005693 -0.004005 0.015684 0.000000 0.006762 0.000000
# 4 0.000000 0.000000 0.000000 0.035662 0.000000 0.009295
# 5 0.019804 0.000866 0.006762 0.000000 0.039259 0.000000
# 6 0.000000 0.000000 0.000000 0.009295 0.000000 0.059553
#
#
# Mechanical properties :
#
#
# Convention : Reuss Voigt Hill
#
# Bulk Modulus (GPa) = 15.44387 40.38396 27.91391
# Shear Modulus (GPa) = 21.62379 29.83677 25.73028
#
# Velocity S-wave (km/s) = 3.03838 3.56904 3.31435
# Velocity P-wave (km/s) = 4.34768 5.85021 5.15399
#
# Compressibility (1/GPa) = 0.06475063
#
# Stress axis : x y z
#
# Youngs Moduli (GPa) = 21.91873 115.56053 63.76024
#
# Poissons Ratio (x) = 0.49605 -0.36296
# Poissons Ratio (y) = 0.09409 0.25535
# Poissons Ratio (z) = -0.12477 0.46280
#
# Static dielectric constant tensor:
#      x y z
#    x 3.824730 0.000000 0.030100 
#    y 0.000000 4.864990 0.000000 
#    z 0.030100 0.000000 4.094650 
# 
# 
# High freq. dielectric constant tensor:
#      x y z
#    x 1.890080 0.000000 -0.003240 
#    y 0.000000 1.943720 0.000000 
#    z -0.003240 0.000000 1.933470 
# 
# From -- ./inp_files/3229.got.cif
#   From: 2010.06.25/outbox.cif.g09.slc.cpg/sg11_2_cif.got.tgz:3229.got - 2010.06.27 23:14:04.
