data_PCOD8076100
_publ_section_title
;
Structure prediction by ZEFSAII (Michael W. Deem and Ramdas Pophale) SiO2 
 PCOD8076100
Probable space group: P 21/M
;
_chemical_formula_sum "Si O2"
_cell_formula_units_Z 32
_cell_length_a 12.309303
_cell_length_b 19.002307
_cell_length_c 8.652024
_cell_angle_alpha 90.000000
_cell_angle_beta 129.979540
_cell_angle_gamma 90.000000
_cell_volume 1550.749173
_symmetry_space_group_name_H-M "P 21/M"
_symmetry_group_IT_number 11
_symmetry_cell_setting 'monoclinic'
loop_
_space_group_symop_operation_xyz
x,y,z
-x,1/2+y,-z
-x,-y,-z
x,1/2-y,z
loop_
_atom_site_type_symbol
_atom_site_label
_atom_site_fract_x
_atom_site_fract_y
_atom_site_fract_z
Si Si1 0.419437 0.551052 0.234328
Si Si2 0.339808 0.555111 0.489882
Si Si3 0.364478 0.124533 0.781921
Si Si4 0.150463 0.327895 0.351316
Si Si5 0.719327 0.827215 0.852800
Si Si6 0.205495 0.041903 0.874301
Si Si7 0.950332 0.522562 0.782172
Si Si8 0.444609 0.826146 0.763275
O O1 0.347970 0.585225 0.322200
O O2 0.509137 0.481302 0.349177
O O3 0.518223 0.605170 0.236231
O O4 0.289949 0.525520 0.012059
O O5 0.212205 0.500230 0.391623
O O6 0.325961 0.615583 0.610856
O O7 0.247472 0.173520 0.593992
O O8 0.272007 0.059077 0.766672
O O9 0.453584 0.161688 0.997342
O O10 0.076114 0.250000 0.274834
O O11 0.253386 0.340973 0.301230
O O12 0.038931 0.392898 0.240414
O O13 0.779230 0.750000 0.959051
O O14 0.549437 0.827447 0.712233
O O15 0.791426 0.887906 0.019055
O O16 0.042173 0.016624 0.733250
O O17 0.000000 0.500000 0.000000
O O18 0.369815 0.750000 0.714360
#
# Coordination Sequence:
#
# PCOD8076100 Si02
#       8
#     4   4   4   4   4   4   4   4
#     4  11  20  36  62  93 118 150 207 259 302 343
#     4  11  21  37  65  89 121 153 204 259 296 356
#     4  11  22  36  62  93 123 158 203 253 304 365
#     4  11  22  38  61  89 123 161 203 252 301 364
#     4   9  17  33  58  86 117 155 204 250 298 351
#     4  11  22  38  61  91 124 160 202 250 302 363
#     4  12  23  41  64  93 121 159 208 252 299 360
#     4  10  21  37  58  89 125 161 198 251 311 360
#
# _framework density 20.635186000000001
#
# number of rings (size 3 to 8) (size 9 to 14) (size 15 to 20)
#    0.000    1.250    6.250    1.500    0.000    1.000 
#    0.000    1.875    0.000    3.000    0.000    0.000 
#    0.000    0.000    0.000    0.000    0.000    0.000 
#
# Total GULP energy -396447.538108 kJ/mol
# GULP energy per Si atom -12388.985566 kJ/mol
# Density = 2.058822 g / cm^3
# Si number density = 20.635186 Si / 1000 Ang^3
#
#
#
# Elastic Constant Matrix: (Units=GPa)
#
#
# Indices 1 2 3 4 5 6 
#
# 1 64.0958 9.1116 10.8318 0.0000 4.9439 0.0000
# 2 9.1116 123.1862 34.0699 0.0000 5.8491 0.0000
# 3 10.8318 34.0699 59.3246 0.0000 -4.2398 0.0000
# 4 0.0000 0.0000 0.0000 21.6218 0.0000 6.1701
# 5 4.9439 5.8491 -4.2398 0.0000 19.9815 0.0000
# 6 0.0000 0.0000 0.0000 6.1701 0.0000 17.0374
#
#
#
# Elastic Compliance Matrix: (Units=1/GPa)
#
#
# Indices 1 2 3 4 5 6 
#
# 1 0.016541 -0.000080 -0.003315 0.000000 -0.004773 0.000000
# 2 -0.000080 0.009987 -0.006020 0.000000 -0.004181 0.000000
# 3 -0.003315 -0.006020 0.021428 0.000000 0.007129 0.000000
# 4 0.000000 0.000000 0.000000 0.051580 0.000000 -0.018680
# 5 -0.004773 -0.004181 0.007129 0.000000 0.053964 0.000000
# 6 0.000000 0.000000 0.000000 -0.018680 0.000000 0.065459
#
#
# Mechanical properties :
#
#
# Convention : Reuss Voigt Hill
#
# Bulk Modulus (GPa) = 34.33277 39.40371 36.86824
# Shear Modulus (GPa) = 20.20205 24.56769 22.38487
#
# Velocity S-wave (km/s) = 3.13231 3.45421 3.29719
# Velocity P-wave (km/s) = 5.45490 5.91993 5.69217
#
# Compressibility (1/GPa) = 0.02912669
#
# Stress axis : x y z
#
# Youngs Moduli (GPa) = 60.45423 100.12883 46.66699
#
# Poissons Ratio (x) = 0.00800 0.15472
# Poissons Ratio (y) = 0.00483 0.28093
# Poissons Ratio (z) = 0.20043 0.60275
#
# Static dielectric constant tensor:
#      x y z
#    x 3.796400 0.000000 -0.263050 
#    y 0.000000 3.816950 0.000000 
#    z -0.263050 0.000000 3.670870 
# 
# 
# High freq. dielectric constant tensor:
#      x y z
#    x 1.793640 0.000000 -0.021720 
#    y 0.000000 1.802320 0.000000 
#    z -0.021720 0.000000 1.791160 
# 
# From -- ./inp_files/19438.got.cif
#   From: 2010.06.25/outbox.cif.g09.slc.cpg/sg11_10_cif.got.tgz:19438.got - 2010.06.27 23:14:04.
