data_PCOD8076421
_publ_section_title
;
Structure prediction by ZEFSAII (Michael W. Deem and Ramdas Pophale) SiO2 
 PCOD8076421
Probable space group: P 21/M
;
_chemical_formula_sum "Si O2"
_cell_formula_units_Z 32
_cell_length_a 11.865576
_cell_length_b 9.115830
_cell_length_c 28.118704
_cell_angle_alpha 90.000000
_cell_angle_beta 30.280956
_cell_angle_gamma 90.000000
_cell_volume 1533.621439
_symmetry_space_group_name_H-M "P 21/M"
_symmetry_group_IT_number 11
_symmetry_cell_setting 'monoclinic'
loop_
_space_group_symop_operation_xyz
x,y,z
-x,1/2+y,-z
-x,-y,-z
x,1/2-y,z
loop_
_atom_site_type_symbol
_atom_site_label
_atom_site_fract_x
_atom_site_fract_y
_atom_site_fract_z
Si Si1 0.355732 0.086132 0.649763
Si Si2 0.778322 0.919719 0.638252
Si Si3 0.983734 0.587748 0.147460
Si Si4 0.590638 0.420391 0.792307
Si Si5 0.153200 0.578662 0.981953
Si Si6 0.704166 0.582674 0.905337
Si Si7 0.237923 0.080967 0.465106
Si Si8 0.928915 0.416731 0.746641
O O1 0.442277 0.250000 0.606567
O O2 0.259586 0.085847 0.739058
O O3 0.180821 0.037721 0.671099
O O4 0.561180 0.973326 0.574226
O O5 0.784711 0.750000 0.650801
O O6 0.695892 0.939497 0.614239
O O7 0.604074 0.004870 0.735636
O O8 0.023537 0.985473 0.555676
O O9 0.090127 0.750000 0.119404
O O10 0.095156 0.449835 0.132378
O O11 0.006670 0.558458 0.083292
O O12 0.523047 0.250000 0.811460
O O13 0.396844 0.500248 0.894093
O O14 0.843037 0.432419 0.723528
O O15 0.187971 0.750000 0.957471
O O16 0.000000 0.500000 0.000000
O O17 0.645812 0.750000 0.922420
O O18 0.753443 0.522634 0.835478
O O19 0.500000 0.500000 0.000000
O O20 0.186268 0.250000 0.495764
O O21 0.896652 0.250000 0.776346
#
# Coordination Sequence:
#
# PCOD8076421 Si02
#       8
#     4   4   4   4   4   4   4   4
#     4   9  18  35  60  87 118 154 192 241 295 344
#     4  10  22  40  62  89 118 154 193 240 296 351
#     4   9  20  37  54  77 110 149 192 237 285 337
#     4  11  23  40  62  86 118 158 198 243 294 352
#     4  11  24  40  57  83 117 157 202 245 293 349
#     4  11  20  30  50  76 104 142 188 238 286 334
#     4  10  21  38  61  91 120 148 191 243 292 350
#     4   9  20  38  57  82 115 153 195 238 289 347
#
# _framework density 20.865646000000002
#
# number of rings (size 3 to 8) (size 9 to 14) (size 15 to 20)
#    0.000    2.000    0.000    4.125    1.750    7.500 
#    0.000    0.625    0.000    0.000    0.000    0.000 
#    0.000    0.000    0.000    0.000    0.000    0.000 
#
# Total GULP energy -396435.915455 kJ/mol
# GULP energy per Si atom -12388.622358 kJ/mol
# Density = 2.081815 g / cm^3
# Si number density = 20.865646 Si / 1000 Ang^3
#
#
#
# Elastic Constant Matrix: (Units=GPa)
#
#
# Indices 1 2 3 4 5 6 
#
# 1 69.0395 18.1119 7.0905 0.0000 -11.9653 0.0000
# 2 18.1119 114.9724 18.1581 0.0000 -7.4687 0.0000
# 3 7.0905 18.1581 30.2379 0.0000 -9.9357 0.0000
# 4 0.0000 0.0000 0.0000 34.0955 0.0000 -4.0601
# 5 -11.9653 -7.4687 -9.9357 0.0000 34.1058 0.0000
# 6 0.0000 0.0000 0.0000 -4.0601 0.0000 30.3878
#
#
#
# Elastic Compliance Matrix: (Units=1/GPa)
#
#
# Indices 1 2 3 4 5 6 
#
# 1 0.015963 -0.002055 -0.000904 0.000000 0.004887 0.000000
# 2 -0.002055 0.009880 -0.005504 0.000000 -0.000161 0.000000
# 3 -0.000904 -0.005504 0.039908 0.000000 0.010104 0.000000
# 4 0.000000 0.000000 0.000000 0.029804 0.000000 0.003982
# 5 0.004887 -0.000161 0.010104 0.000000 0.033943 0.000000
# 6 0.000000 0.000000 0.000000 0.003982 0.000000 0.033440
#
#
# Mechanical properties :
#
#
# Convention : Reuss Voigt Hill
#
# Bulk Modulus (GPa) = 20.48050 33.44120 26.96085
# Shear Modulus (GPa) = 25.49215 31.11043 28.30129
#
# Velocity S-wave (km/s) = 3.49911 3.86552 3.68687
# Velocity P-wave (km/s) = 5.11486 5.99873 5.57434
#
# Compressibility (1/GPa) = 0.04882694
#
# Stress axis : x y z
#
# Youngs Moduli (GPa) = 62.64382 101.21192 25.05759
#
# Poissons Ratio (x) = 0.20794 0.02264
# Poissons Ratio (y) = 0.12870 0.13792
# Poissons Ratio (z) = 0.05661 0.55709
#
# Static dielectric constant tensor:
#      x y z
#    x 3.680990 0.000000 0.091620 
#    y 0.000000 3.703860 0.000000 
#    z 0.091620 0.000000 3.561510 
# 
# 
# High freq. dielectric constant tensor:
#      x y z
#    x 1.810840 0.000000 -0.002160 
#    y 0.000000 1.824290 0.000000 
#    z -0.002160 0.000000 1.801280 
# 
# From -- ./inp_files/73105.got.cif
#   From: 2010.06.25/outbox.cif.g09.slc.cpg/sg11_37_cif.got.tgz:73105.got - 2010.06.27 23:14:04.
