data_PCOD8076495
_publ_section_title
;
Structure prediction by ZEFSAII (Michael W. Deem and Ramdas Pophale) SiO2 
 PCOD8076495
Probable space group: P 21/M
;
_chemical_formula_sum "Si O2"
_cell_formula_units_Z 28
_cell_length_a 11.747480
_cell_length_b 14.627740
_cell_length_c 8.465168
_cell_angle_alpha 90.000000
_cell_angle_beta 65.354054
_cell_angle_gamma 90.000000
_cell_volume 1322.131298
_symmetry_space_group_name_H-M "P 21/M"
_symmetry_group_IT_number 11
_symmetry_cell_setting 'monoclinic'
loop_
_space_group_symop_operation_xyz
x,y,z
-x,1/2+y,-z
-x,-y,-z
x,1/2-y,z
loop_
_atom_site_type_symbol
_atom_site_label
_atom_site_fract_x
_atom_site_fract_y
_atom_site_fract_z
Si Si1 0.399809 0.986271 0.692583
Si Si2 0.778893 0.147022 0.712877
Si Si3 0.325936 0.149541 0.951536
Si Si4 0.033324 0.354411 0.747623
Si Si5 0.532229 0.099254 0.041010
Si Si6 0.168312 0.969049 0.614986
Si Si7 0.954531 0.855441 0.891669
O O1 0.267631 0.956271 0.697247
O O2 0.500000 0.000000 0.500000
O O3 0.388571 0.082252 0.789778
O O4 0.445889 0.905163 0.782890
O O5 0.784425 0.250000 0.639167
O O6 0.656263 0.138671 0.889818
O O7 0.773310 0.072102 0.578017
O O8 0.897873 0.127929 0.753255
O O9 0.316016 0.250000 0.877874
O O10 0.411071 0.158547 0.060723
O O11 0.186481 0.116509 0.076513
O O12 0.079072 0.250000 0.693552
O O13 0.134021 0.423648 0.610730
O O14 0.023250 0.377916 0.938109
O O15 0.500000 0.000000 0.000000
O O16 0.042612 0.915556 0.730964
O O17 0.982861 0.750000 0.837709
#
# Coordination Sequence:
#
# PCOD8076495 Si02
#       7
#     4   4   4   4   4   4   4
#     4  11  24  42  65  96 125 162 223 270 318 394
#     4  11  24  42  62  92 131 172 217 273 326 388
#     4  10  21  41  64  89 129 171 210 267 329 387
#     4  10  22  39  61  91 128 168 218 268 326 394
#     4  10  22  40  65  88 123 164 212 256 324 389
#     4  12  22  38  67  93 131 173 215 271 336 382
#     4  10  21  38  63  97 129 167 217 267 328 400
#
# _framework density 21.177928000000001
#
# number of rings (size 3 to 8) (size 9 to 14) (size 15 to 20)
#    0.000    1.429    1.429    4.286    4.000    0.000 
#    2.571    4.286    0.000    2.571    0.000    0.000 
#    0.000    0.000    0.000    0.000    0.000    0.000 
#
# Total GULP energy -347209.735509 kJ/mol
# GULP energy per Si atom -12400.347697 kJ/mol
# Density = 2.112973 g / cm^3
# Si number density = 21.177928 Si / 1000 Ang^3
#
#
#
# Elastic Constant Matrix: (Units=GPa)
#
#
# Indices 1 2 3 4 5 6 
#
# 1 166.4099 32.5176 53.8786 0.0000 9.3045 0.0000
# 2 32.5176 87.4762 40.5486 0.0000 -1.1471 0.0000
# 3 53.8786 40.5486 108.4261 0.0000 -1.1796 0.0000
# 4 0.0000 0.0000 0.0000 27.3034 0.0000 -1.1500
# 5 9.3045 -1.1471 -1.1796 0.0000 28.4422 0.0000
# 6 0.0000 0.0000 0.0000 -1.1500 0.0000 29.6199
#
#
#
# Elastic Compliance Matrix: (Units=1/GPa)
#
#
# Indices 1 2 3 4 5 6 
#
# 1 0.007463 -0.001302 -0.003250 0.000000 -0.002629 0.000000
# 2 -0.001302 0.014059 -0.004602 0.000000 0.000802 0.000000
# 3 -0.003250 -0.004602 0.012574 0.000000 0.001399 0.000000
# 4 0.000000 0.000000 0.000000 0.036685 0.000000 0.001424
# 5 -0.002629 0.000802 0.001399 0.000000 0.036109 0.000000
# 6 0.000000 0.000000 0.000000 0.001424 0.000000 0.033816
#
#
# Mechanical properties :
#
#
# Convention : Reuss Voigt Hill
#
# Bulk Modulus (GPa) = 63.33941 68.46685 65.90313
# Shear Modulus (GPa) = 30.43599 32.76426 31.60013
#
# Velocity S-wave (km/s) = 3.79510 3.93758 3.86699
# Velocity P-wave (km/s) = 7.01262 7.28507 7.15014
#
# Compressibility (1/GPa) = 0.01578796
#
# Stress axis : x y z
#
# Youngs Moduli (GPa) = 133.99496 71.12630 79.52804
#
# Poissons Ratio (x) = 0.09262 0.25847
# Poissons Ratio (y) = 0.17448 0.36600
# Poissons Ratio (z) = 0.43550 0.32733
#
# Static dielectric constant tensor:
#      x y z
#    x 7.647730 0.000000 0.529500 
#    y 0.000000 4.123610 0.000000 
#    z 0.529500 0.000000 3.627010 
# 
# 
# High freq. dielectric constant tensor:
#      x y z
#    x 1.856000 0.000000 0.001040 
#    y 0.000000 1.835760 0.000000 
#    z 0.001040 0.000000 1.804480 
# 
# From -- ./inp_files/17902.got.cif
#   From: 2010.06.25/outbox.cif.g09.slc.cpg/sg11_9_cif.got.tgz:17902.got - 2010.06.27 23:14:04.
