data_PCOD8076870
_publ_section_title
;
Structure prediction by ZEFSAII (Michael W. Deem and Ramdas Pophale) SiO2 
 PCOD8076870
Probable space group: P 21/M
;
_chemical_formula_sum "Si O2"
_cell_formula_units_Z 28
_cell_length_a 8.771630
_cell_length_b 13.977084
_cell_length_c 11.457908
_cell_angle_alpha 90.000000
_cell_angle_beta 114.845074
_cell_angle_gamma 90.000000
_cell_volume 1274.745784
_symmetry_space_group_name_H-M "P 21/M"
_symmetry_group_IT_number 11
_symmetry_cell_setting 'monoclinic'
loop_
_space_group_symop_operation_xyz
x,y,z
-x,1/2+y,-z
-x,-y,-z
x,1/2-y,z
loop_
_atom_site_type_symbol
_atom_site_label
_atom_site_fract_x
_atom_site_fract_y
_atom_site_fract_z
Si Si1 0.078292 0.146657 0.196580
Si Si2 0.732183 0.137314 0.204263
Si Si3 0.406605 0.138912 0.959099
Si Si4 0.936583 0.909030 0.050659
Si Si5 0.804361 0.016098 0.449249
Si Si6 0.440371 0.361402 0.696958
Si Si7 0.227557 0.950284 0.300484
O O1 0.125860 0.250000 0.269127
O O2 0.898389 0.109402 0.185434
O O3 0.212918 0.064788 0.271362
O O4 0.070281 0.169048 0.054702
O O5 0.723183 0.250000 0.222648
O O6 0.730575 0.085514 0.327558
O O7 0.570122 0.101431 0.080329
O O8 0.370885 0.250000 0.973970
O O9 0.245166 0.078375 0.948150
O O10 0.436750 0.122029 0.833314
O O11 0.072351 0.889268 0.196233
O O12 0.000000 0.000000 0.000000
O O13 0.765710 0.067061 0.559410
O O14 0.719544 0.911665 0.414012
O O15 0.000000 0.000000 0.500000
O O16 0.437738 0.250000 0.662553
O O17 0.604669 0.412201 0.702023
#
# Coordination Sequence:
#
# PCOD8076870 Si02
#       7
#     4   4   4   4   4   4   4
#     4  10  21  41  67 100 137 175 226 283 341 400
#     4  10  23  42  69 102 134 177 228 285 346 408
#     4  10  22  43  69 100 134 175 229 285 344 408
#     4  10  22  38  67 103 132 172 224 279 350 403
#     4  12  25  45  71  99 140 180 236 281 338 414
#     4  11  27  47  71 100 138 186 232 286 343 405
#     4  11  24  45  67 102 139 184 227 279 342 410
#
# _framework density 21.965163
#
# number of rings (size 3 to 8) (size 9 to 14) (size 15 to 20)
#    0.000    1.429    1.429    2.571    6.000    4.571 
#    0.000    0.000    0.000    0.000    0.000    0.000 
#    0.000    0.000    0.000    0.000    0.000    0.000 
#
# Total GULP energy -347181.873473 kJ/mol
# GULP energy per Si atom -12399.352624 kJ/mol
# Density = 2.191517 g / cm^3
# Si number density = 21.965163 Si / 1000 Ang^3
#
#
#
# Elastic Constant Matrix: (Units=GPa)
#
#
# Indices 1 2 3 4 5 6 
#
# 1 188.8924 72.9332 70.1509 0.0000 0.1830 0.0000
# 2 72.9332 77.8392 30.3570 0.0000 6.0834 0.0000
# 3 70.1509 30.3570 135.1958 0.0000 -8.8529 0.0000
# 4 0.0000 0.0000 0.0000 26.1887 0.0000 -0.0053
# 5 0.1830 6.0834 -8.8529 0.0000 42.6158 0.0000
# 6 0.0000 0.0000 0.0000 -0.0053 0.0000 36.4883
#
#
#
# Elastic Compliance Matrix: (Units=1/GPa)
#
#
# Indices 1 2 3 4 5 6 
#
# 1 0.009400 -0.007613 -0.003142 0.000000 0.000394 0.000000
# 2 -0.007613 0.020559 -0.000868 0.000000 -0.003082 0.000000
# 3 -0.003142 -0.000868 0.009358 0.000000 0.002082 0.000000
# 4 0.000000 0.000000 0.000000 0.038184 0.000000 0.000005
# 5 0.000394 -0.003082 0.002082 0.000000 0.024336 0.000000
# 6 0.000000 0.000000 0.000000 0.000005 0.000000 0.027406
#
#
# Mechanical properties :
#
#
# Convention : Reuss Voigt Hill
#
# Bulk Modulus (GPa) = 62.22260 83.20105 72.71183
# Shear Modulus (GPa) = 31.67599 36.29099 33.98349
#
# Velocity S-wave (km/s) = 3.80162 4.06914 3.93765
# Velocity P-wave (km/s) = 6.90356 7.74843 7.33816
#
# Compressibility (1/GPa) = 0.01607133
#
# Stress axis : x y z
#
# Youngs Moduli (GPa) = 106.38263 48.63933 106.85554
#
# Poissons Ratio (x) = 0.37028 0.33578
# Poissons Ratio (y) = 0.80987 0.09276
# Poissons Ratio (z) = 0.33429 0.04223
#
# Static dielectric constant tensor:
#      x y z
#    x 4.037510 0.000000 -0.221510 
#    y 0.000000 4.596010 0.000000 
#    z -0.221510 0.000000 4.579250 
# 
# 
# High freq. dielectric constant tensor:
#      x y z
#    x 1.873640 0.000000 -0.007490 
#    y 0.000000 1.868210 0.000000 
#    z -0.007490 0.000000 1.867350 
# 
# From -- ./inp_files/31952.got.cif
#   From: 2010.06.25/outbox.cif.g09.slc.cpg/sg11_16_cif.got.tgz:31952.got - 2010.06.27 23:14:04.
