data_PCOD8076732
_publ_section_title
;
Structure prediction by ZEFSAII (Michael W. Deem and Ramdas Pophale) SiO2 
 PCOD8076732
Probable space group: P 21/M
;
_chemical_formula_sum "Si O2"
_cell_formula_units_Z 20
_cell_length_a 12.308785
_cell_length_b 8.766347
_cell_length_c 18.761963
_cell_angle_alpha 90.000000
_cell_angle_beta 149.999734
_cell_angle_gamma 90.000000
_cell_volume 1012.244941
_symmetry_space_group_name_H-M "P 21/M"
_symmetry_group_IT_number 11
_symmetry_cell_setting 'monoclinic'
loop_
_space_group_symop_operation_xyz
x,y,z
-x,1/2+y,-z
-x,-y,-z
x,1/2-y,z
loop_
_atom_site_type_symbol
_atom_site_label
_atom_site_fract_x
_atom_site_fract_y
_atom_site_fract_z
Si Si1 0.906561 0.569255 0.628105
Si Si2 0.108933 0.069158 0.220270
Si Si3 0.358100 0.073885 0.857800
Si Si4 0.483329 0.429581 0.328549
Si Si5 0.337323 0.573498 0.101816
O O1 0.918706 0.750000 0.634660
O O2 0.875305 0.504599 0.690534
O O3 0.709930 0.514951 0.467278
O O4 0.126334 0.505799 0.719257
O O5 0.102055 0.250000 0.218545
O O6 0.315386 0.010348 0.293060
O O7 0.887767 0.010269 0.058471
O O8 0.327452 0.250000 0.859484
O O9 0.473834 0.051743 0.848203
O O10 0.500000 0.000000 0.000000
O O11 0.520184 0.250000 0.355789
O O12 0.388398 0.468825 0.197894
O O13 0.317081 0.750000 0.113673
#
# Coordination Sequence:
#
# PCOD8076732 Si02
#       5
#     4   4   4   4   4
#     4  11  22  40  63  87 120 160 197 243 298 349
#     4   9  19  38  62  87 119 156 198 244 292 348
#     4  11  22  39  64  90 118 152 197 246 293 352
#     4  11  23  38  58  90 124 155 198 246 292 351
#     4  10  21  40  62  86 119 158 194 240 299 353
#
# _framework density 19.758064000000001
#
# number of rings (size 3 to 8) (size 9 to 14) (size 15 to 20)
#    0.000    1.600    2.000    3.000    0.000    2.400 
#    0.000    4.000    0.000    0.000    0.000    0.000 
#    0.000    0.000    0.000    0.000    0.000    0.000 
#
# Total GULP energy -248105.543536 kJ/mol
# GULP energy per Si atom -12405.277177 kJ/mol
# Density = 1.971309 g / cm^3
# Si number density = 19.758064 Si / 1000 Ang^3
#
#
#
# Elastic Constant Matrix: (Units=GPa)
#
#
# Indices 1 2 3 4 5 6 
#
# 1 58.9431 28.3307 12.9658 0.0000 13.8877 0.0000
# 2 28.3307 71.4083 21.3856 0.0000 8.9530 0.0000
# 3 12.9658 21.3856 98.5600 0.0000 15.7208 0.0000
# 4 0.0000 0.0000 0.0000 32.0582 0.0000 -0.8438
# 5 13.8877 8.9530 15.7208 0.0000 38.6077 0.0000
# 6 0.0000 0.0000 0.0000 -0.8438 0.0000 28.1183
#
#
#
# Elastic Compliance Matrix: (Units=1/GPa)
#
#
# Indices 1 2 3 4 5 6 
#
# 1 0.022299 -0.008019 -0.000225 0.000000 -0.006070 0.000000
# 2 -0.008019 0.018054 -0.002839 0.000000 -0.000146 0.000000
# 3 -0.000225 -0.002839 0.011415 0.000000 -0.003909 0.000000
# 4 0.000000 0.000000 0.000000 0.031218 0.000000 0.000937
# 5 -0.006070 -0.000146 -0.003909 0.000000 0.029711 0.000000
# 6 0.000000 0.000000 0.000000 0.000937 0.000000 0.035592
#
#
# Mechanical properties :
#
#
# Convention : Reuss Voigt Hill
#
# Bulk Modulus (GPa) = 33.78126 39.36396 36.57261
# Shear Modulus (GPa) = 27.72805 30.83880 29.28342
#
# Velocity S-wave (km/s) = 3.75023 3.95501 3.85398
# Velocity P-wave (km/s) = 5.99057 6.38924 6.19311
#
# Compressibility (1/GPa) = 0.02960221
#
# Stress axis : x y z
#
# Youngs Moduli (GPa) = 44.84433 55.38981 87.60208
#
# Poissons Ratio (x) = 0.44414 0.01975
# Poissons Ratio (y) = 0.35959 0.24872
# Poissons Ratio (z) = 0.01011 0.15726
#
# Static dielectric constant tensor:
#      x y z
#    x 3.809660 0.000000 0.103430 
#    y 0.000000 3.454810 0.000000 
#    z 0.103430 0.000000 3.625200 
# 
# 
# High freq. dielectric constant tensor:
#      x y z
#    x 1.780110 0.000000 0.006100 
#    y 0.000000 1.758510 0.000000 
#    z 0.006100 0.000000 1.782380 
# 
# From -- ./inp_files/15914.got.cif
#   From: 2010.06.25/outbox.cif.g09.slc.cpg/sg11_8_cif.got.tgz:15914.got - 2010.06.27 23:14:04.
