data_PCOD8076432
_publ_section_title
;
Structure prediction by ZEFSAII (Michael W. Deem and Ramdas Pophale) SiO2 
 PCOD8076432
Probable space group: P 21/M
;
_chemical_formula_sum "Si O2"
_cell_formula_units_Z 32
_cell_length_a 9.255186
_cell_length_b 14.009523
_cell_length_c 14.561511
_cell_angle_alpha 90.000000
_cell_angle_beta 119.006282
_cell_angle_gamma 90.000000
_cell_volume 1651.230885
_symmetry_space_group_name_H-M "P 21/M"
_symmetry_group_IT_number 11
_symmetry_cell_setting 'monoclinic'
loop_
_space_group_symop_operation_xyz
x,y,z
-x,1/2+y,-z
-x,-y,-z
x,1/2-y,z
loop_
_atom_site_type_symbol
_atom_site_label
_atom_site_fract_x
_atom_site_fract_y
_atom_site_fract_z
Si Si1 0.457762 0.481061 0.234023
Si Si2 0.304690 0.140988 0.691131
Si Si3 0.332149 0.477317 0.000647
Si Si4 0.906498 0.637328 0.198999
Si Si5 0.865034 0.140687 0.127660
Si Si6 0.237362 0.642455 0.697379
Si Si7 0.837115 0.971332 0.722198
Si Si8 0.130815 0.360829 0.447628
O O1 0.521991 0.588390 0.238532
O O2 0.622096 0.420564 0.306012
O O3 0.339376 0.477847 0.284479
O O4 0.366470 0.442830 0.114705
O O5 0.352557 0.250000 0.714746
O O6 0.170255 0.112729 0.725872
O O7 0.229078 0.115076 0.569542
O O8 0.225861 0.394383 0.918970
O O9 0.228557 0.575753 0.975185
O O10 0.500000 0.500000 0.000000
O O11 0.946905 0.750000 0.199635
O O12 0.073683 0.574870 0.244992
O O13 0.854307 0.250000 0.093428
O O14 0.779796 0.120513 0.199621
O O15 0.055086 0.108640 0.192025
O O16 0.293804 0.750000 0.699338
O O17 0.063592 0.621359 0.594171
O O18 0.803624 0.934028 0.609009
O O19 0.155647 0.250000 0.424160
#
# Coordination Sequence:
#
# PCOD8076432 Si02
#       8
#     4   4   4   4   4   4   4   4
#     4  12  23  35  54  87 118 146 188 232 285 334
#     4  10  21  38  62  86 108 144 193 237 279 334
#     4  11  20  36  57  83 114 149 188 237 280 327
#     4  10  22  40  59  82 113 152 194 232 276 331
#     4   9  18  35  57  78 105 148 192 229 276 329
#     4   9  18  33  55  81 106 139 189 238 274 322
#     4  10  22  37  56  82 119 150 182 231 283 341
#     4   9  19  39  63  84 110 147 188 231 282 339
#
# _framework density 19.379483
#
# number of rings (size 3 to 8) (size 9 to 14) (size 15 to 20)
#    0.000    2.000    2.500    2.625    0.000    7.500 
#    0.000    1.250    0.000    3.000    0.000    0.000 
#    0.000    0.000    0.000    0.000    0.000    0.000 
#
# Total GULP energy -396795.877178 kJ/mol
# GULP energy per Si atom -12399.871162 kJ/mol
# Density = 1.933537 g / cm^3
# Si number density = 19.379483 Si / 1000 Ang^3
#
#
#
# Elastic Constant Matrix: (Units=GPa)
#
#
# Indices 1 2 3 4 5 6 
#
# 1 122.9900 47.7404 25.0820 0.0000 -1.8811 0.0000
# 2 47.7404 100.7022 24.7546 0.0000 -2.0128 0.0000
# 3 25.0820 24.7546 76.5041 0.0000 -7.0922 0.0000
# 4 0.0000 0.0000 0.0000 27.7381 0.0000 1.9871
# 5 -1.8811 -2.0128 -7.0922 0.0000 13.9905 0.0000
# 6 0.0000 0.0000 0.0000 1.9871 0.0000 14.8839
#
#
#
# Elastic Compliance Matrix: (Units=1/GPa)
#
#
# Indices 1 2 3 4 5 6 
#
# 1 0.010223 -0.004369 -0.001961 0.000000 -0.000248 0.000000
# 2 -0.004369 0.012657 -0.002674 0.000000 -0.000122 0.000000
# 3 -0.001961 -0.002674 0.015235 0.000000 0.007075 0.000000
# 4 0.000000 0.000000 0.000000 0.036400 0.000000 -0.004860
# 5 -0.000248 -0.000122 0.007075 0.000000 0.075012 0.000000
# 6 0.000000 0.000000 0.000000 -0.004860 0.000000 0.067836
#
#
# Mechanical properties :
#
#
# Convention : Reuss Voigt Hill
#
# Bulk Modulus (GPa) = 49.73626 55.03892 52.38759
# Shear Modulus (GPa) = 20.65495 24.83046 22.74270
#
# Velocity S-wave (km/s) = 3.26822 3.58337 3.42942
# Velocity P-wave (km/s) = 6.32154 6.75152 6.54006
#
# Compressibility (1/GPa) = 0.02010605
#
# Stress axis : x y z
#
# Youngs Moduli (GPa) = 97.82002 79.01023 65.63756
#
# Poissons Ratio (x) = 0.34522 0.12870
# Poissons Ratio (y) = 0.42741 0.17552
# Poissons Ratio (z) = 0.19180 0.21128
#
# Static dielectric constant tensor:
#      x y z
#    x 3.293540 0.000000 0.066590 
#    y 0.000000 3.659550 0.000000 
#    z 0.066590 0.000000 3.532770 
# 
# 
# High freq. dielectric constant tensor:
#      x y z
#    x 1.732560 0.000000 0.009520 
#    y 0.000000 1.763530 0.000000 
#    z 0.009520 0.000000 1.750210 
# 
# From -- ./inp_files/47608.got.cif
#   From: 2010.06.25/outbox.cif.g09.slc.cpg/sg11_24_cif.got.tgz:47608.got - 2010.06.27 23:14:04.
