data_PCOD8076914
_publ_section_title
;
Structure prediction by ZEFSAII (Michael W. Deem and Ramdas Pophale) SiO2 
 PCOD8076914
Probable space group: P 21/M
;
_chemical_formula_sum "Si O2"
_cell_formula_units_Z 18
_cell_length_a 11.643520
_cell_length_b 10.525316
_cell_length_c 11.895778
_cell_angle_alpha 90.000000
_cell_angle_beta 37.957636
_cell_angle_gamma 90.000000
_cell_volume 896.691280
_symmetry_space_group_name_H-M "P 21/M"
_symmetry_group_IT_number 11
_symmetry_cell_setting 'monoclinic'
loop_
_space_group_symop_operation_xyz
x,y,z
-x,1/2+y,-z
-x,-y,-z
x,1/2-y,z
loop_
_atom_site_type_symbol
_atom_site_label
_atom_site_fract_x
_atom_site_fract_y
_atom_site_fract_z
Si Si1 0.253318 0.027352 0.910415
Si Si2 0.193650 0.250000 0.122183
Si Si3 0.169876 0.750000 0.477363
Si Si4 0.670870 0.514665 0.593317
Si Si5 0.124320 0.392278 0.771763
Si Si6 0.184845 0.250000 0.377685
O O1 0.214949 0.100457 0.824418
O O2 0.451544 0.956525 0.750650
O O3 0.260270 0.125216 0.007189
O O4 0.094759 0.923247 0.054343
O O5 0.966977 0.250000 0.307721
O O6 0.283455 0.250000 0.178319
O O7 0.299391 0.625161 0.377135
O O8 0.040756 0.750000 0.464665
O O9 0.766531 0.515272 0.396956
O O10 0.761448 0.621813 0.600599
O O11 0.146040 0.250000 0.708715
#
# Coordination Sequence:
#
# PCOD8076914 Si02
#       6
#     4   2   2   4   4   2
#     4  11  24  41  65  96 128 172 208 267 321 388
#     4  10  21  44  62  91 131 167 216 250 340 366
#     4  10  23  41  67  90 133 174 202 267 319 382
#     4  12  23  44  68  97 128 169 221 258 323 382
#     4  11  23  41  65  95 133 167 211 268 320 379
#     4  10  24  41  69  97 124 167 224 269 309 382
#
# _framework density 20.073798
#
# number of rings (size 3 to 8) (size 9 to 14) (size 15 to 20)
#    0.667    0.444    4.444    2.000    1.556    0.889 
#    0.000    2.222    0.000    0.000    0.000    0.000 
#    0.000    0.000    0.000    0.000    0.000    0.000 
#
# Total GULP energy -223224.522942 kJ/mol
# GULP energy per Si atom -12401.362386 kJ/mol
# Density = 2.002811 g / cm^3
# Si number density = 20.073798 Si / 1000 Ang^3
#
#
#
# Elastic Constant Matrix: (Units=GPa)
#
#
# Indices 1 2 3 4 5 6 
#
# 1 66.6826 25.1288 61.4425 0.0000 0.5673 0.0000
# 2 25.1288 100.7603 15.7890 0.0000 5.7731 0.0000
# 3 61.4425 15.7890 99.2862 0.0000 -11.4719 0.0000
# 4 0.0000 0.0000 0.0000 16.9700 0.0000 1.6396
# 5 0.5673 5.7731 -11.4719 0.0000 40.1746 0.0000
# 6 0.0000 0.0000 0.0000 1.6396 0.0000 19.2916
#
#
#
# Elastic Compliance Matrix: (Units=1/GPa)
#
#
# Indices 1 2 3 4 5 6 
#
# 1 0.039743 -0.005692 -0.024467 0.000000 -0.006730 0.000000
# 2 -0.005692 0.011150 0.001627 0.000000 -0.001057 0.000000
# 3 -0.024467 0.001627 0.025819 0.000000 0.007484 0.000000
# 4 0.000000 0.000000 0.000000 0.059415 0.000000 -0.005050
# 5 -0.006730 -0.001057 0.007484 0.000000 0.027275 0.000000
# 6 0.000000 0.000000 0.000000 -0.005050 0.000000 0.052265
#
#
# Mechanical properties :
#
#
# Convention : Reuss Voigt Hill
#
# Bulk Modulus (GPa) = 50.89547 52.38329 51.63938
# Shear Modulus (GPa) = 17.90310 26.24517 22.07413
#
# Velocity S-wave (km/s) = 2.98965 3.61977 3.31969
# Velocity P-wave (km/s) = 6.10955 6.60472 6.36195
#
# Compressibility (1/GPa) = 0.01964811
#
# Stress axis : x y z
#
# Youngs Moduli (GPa) = 25.16159 89.68870 38.73086
#
# Poissons Ratio (x) = 0.51051 0.94763
# Poissons Ratio (y) = 0.14322 -0.06303
# Poissons Ratio (z) = 0.61563 -0.14595
#
# Static dielectric constant tensor:
#      x y z
#    x 3.595580 0.000000 0.002490 
#    y 0.000000 3.435370 0.000000 
#    z 0.002490 0.000000 3.632320 
# 
# 
# High freq. dielectric constant tensor:
#      x y z
#    x 1.782930 0.000000 0.002150 
#    y 0.000000 1.784290 0.000000 
#    z 0.002150 0.000000 1.784380 
# 
# From -- ./inp_files/34574.got.cif
#   From: 2010.06.25/outbox.cif.g09.slc.cpg/sg11_18_cif.got.tgz:34574.got - 2010.06.27 23:14:04.
