data_PCOD8076682
_publ_section_title
;
Structure prediction by ZEFSAII (Michael W. Deem and Ramdas Pophale) SiO2 
 PCOD8076682
Probable space group: P 21/M
;
_chemical_formula_sum "Si O2"
_cell_formula_units_Z 32
_cell_length_a 27.419692
_cell_length_b 8.735827
_cell_length_c 21.317768
_cell_angle_alpha 90.000000
_cell_angle_beta 161.301819
_cell_angle_gamma 90.000000
_cell_volume 1637.000105
_symmetry_space_group_name_H-M "P 21/M"
_symmetry_group_IT_number 11
_symmetry_cell_setting 'monoclinic'
loop_
_space_group_symop_operation_xyz
x,y,z
-x,1/2+y,-z
-x,-y,-z
x,1/2-y,z
loop_
_atom_site_type_symbol
_atom_site_label
_atom_site_fract_x
_atom_site_fract_y
_atom_site_fract_z
Si Si1 0.082680 0.072531 0.658547
Si Si2 0.236083 0.573409 0.313810
Si Si3 0.406821 0.569704 0.068664
Si Si4 0.455714 0.929627 0.269096
Si Si5 0.151246 0.070846 0.954070
Si Si6 0.925657 0.573519 0.996692
Si Si7 0.421527 0.071718 0.843585
Si Si8 0.931606 0.928391 0.590388
O O1 0.094352 0.250000 0.660692
O O2 0.246825 0.005049 0.864473
O O3 0.000000 0.000000 0.500000
O O4 0.992319 0.037856 0.610907
O O5 0.285169 0.750000 0.375726
O O6 0.384432 0.471081 0.505053
O O7 0.105845 0.537568 0.207204
O O8 0.171706 0.535090 0.166817
O O9 0.388969 0.750000 0.042671
O O10 0.470627 0.521615 0.214347
O O11 0.510799 0.506392 0.138966
O O12 0.423866 0.750000 0.237697
O O13 0.317487 0.018074 0.133980
O O14 0.132290 0.250000 0.915716
O O15 0.129971 0.037020 0.001387
O O16 0.017370 0.974329 0.758379
O O17 0.895312 0.750000 0.941568
O O18 0.452446 0.250000 0.887182
O O19 0.245255 0.033685 0.622362
O O20 0.500000 0.000000 0.000000
O O21 0.962525 0.750000 0.613364
#
# Coordination Sequence:
#
# PCOD8076682 Si02
#       8
#     4   4   4   4   4   4   4   4
#     4  12  24  39  62  88 118 158 201 248 299 354
#     4  10  21  39  64  93 124 159 202 249 297 356
#     4  10  22  41  61  86 120 157 201 250 297 356
#     4  11  23  39  62  89 123 163 202 248 300 355
#     4  11  23  40  62  90 123 159 201 249 299 354
#     4   9  21  41  63  91 125 160 201 248 298 356
#     4  10  23  41  61  87 118 154 198 248 302 358
#     4  11  23  40  61  89 122 156 199 247 300 362
#
# _framework density 19.547951999999999
#
# number of rings (size 3 to 8) (size 9 to 14) (size 15 to 20)
#    0.000    1.500    1.250    3.375    1.750    6.000 
#    0.000    0.000    0.000    0.000    0.000    0.000 
#    0.000    0.000    0.000    0.000    0.000    0.000 
#
# Total GULP energy -396851.318056 kJ/mol
# GULP energy per Si atom -12401.603689 kJ/mol
# Density = 1.950346 g / cm^3
# Si number density = 19.547952 Si / 1000 Ang^3
#
#
#
# Elastic Constant Matrix: (Units=GPa)
#
#
# Indices 1 2 3 4 5 6 
#
# 1 147.2079 56.0962 57.8146 0.0000 10.6461 0.0000
# 2 56.0962 185.8314 64.1230 0.0000 14.7101 0.0000
# 3 57.8146 64.1230 139.8754 0.0000 10.1525 0.0000
# 4 0.0000 0.0000 0.0000 43.4257 0.0000 0.2392
# 5 10.6461 14.7101 10.1525 0.0000 30.6397 0.0000
# 6 0.0000 0.0000 0.0000 0.2392 0.0000 32.6218
#
#
#
# Elastic Compliance Matrix: (Units=1/GPa)
#
#
# Indices 1 2 3 4 5 6 
#
# 1 0.008547 -0.001531 -0.002734 0.000000 -0.001328 0.000000
# 2 -0.001531 0.006808 -0.002346 0.000000 -0.001959 0.000000
# 3 -0.002734 -0.002346 0.009431 0.000000 -0.001049 0.000000
# 4 0.000000 0.000000 0.000000 0.023029 0.000000 -0.000169
# 5 -0.001328 -0.001959 -0.001049 0.000000 0.034387 0.000000
# 6 0.000000 0.000000 0.000000 -0.000169 0.000000 0.030656
#
#
# Mechanical properties :
#
#
# Convention : Reuss Voigt Hill
#
# Bulk Modulus (GPa) = 86.48415 92.10915 89.29665
# Shear Modulus (GPa) = 38.48119 40.99617 39.73868
#
# Velocity S-wave (km/s) = 4.44165 4.58450 4.51364
# Velocity P-wave (km/s) = 8.40491 8.67441 8.54072
#
# Compressibility (1/GPa) = 0.01156281
#
# Stress axis : x y z
#
# Youngs Moduli (GPa) = 117.00679 146.88555 106.03516
#
# Poissons Ratio (x) = 0.22493 0.28991
# Poissons Ratio (y) = 0.17917 0.24874
# Poissons Ratio (z) = 0.31991 0.34457
#
# Static dielectric constant tensor:
#      x y z
#    x 3.993460 0.000000 0.000480 
#    y 0.000000 3.535570 0.000000 
#    z 0.000480 0.000000 3.605620 
# 
# 
# High freq. dielectric constant tensor:
#      x y z
#    x 1.773590 0.000000 0.001670 
#    y 0.000000 1.766540 0.000000 
#    z 0.001670 0.000000 1.771560 
# 
# From -- ./inp_files/67167.got.cif
#   From: 2010.06.25/outbox.cif.g09.slc.cpg/sg11_34_cif.got.tgz:67167.got - 2010.06.27 23:14:04.
