data_PCOD8076734
_publ_section_title
;
Structure prediction by ZEFSAII (Michael W. Deem and Ramdas Pophale) SiO2 
 PCOD8076734
Probable space group: P 21/M
;
_chemical_formula_sum "Si O2"
_cell_formula_units_Z 28
_cell_length_a 18.663015
_cell_length_b 13.123391
_cell_length_c 6.927290
_cell_angle_alpha 90.000000
_cell_angle_beta 129.523778
_cell_angle_gamma 90.000000
_cell_volume 1308.725793
_symmetry_space_group_name_H-M "P 21/M"
_symmetry_group_IT_number 11
_symmetry_cell_setting 'monoclinic'
loop_
_space_group_symop_operation_xyz
x,y,z
-x,1/2+y,-z
-x,-y,-z
x,1/2-y,z
loop_
_atom_site_type_symbol
_atom_site_label
_atom_site_fract_x
_atom_site_fract_y
_atom_site_fract_z
Si Si1 0.585909 0.867953 0.123937
Si Si2 0.876166 0.130197 0.384179
Si Si3 0.551842 0.471599 0.393398
Si Si4 0.759548 0.630147 0.162837
Si Si5 0.038012 0.368399 0.391847
Si Si6 0.746202 0.042466 0.871661
Si Si7 0.893196 0.130578 0.844642
O O1 0.581081 0.750000 0.170457
O O2 0.685065 0.897309 0.200340
O O3 0.571390 0.928957 0.296842
O O4 0.506321 0.891113 0.830551
O O5 0.881899 0.250000 0.394121
O O6 0.889461 0.088696 0.622328
O O7 0.962532 0.084832 0.411039
O O8 0.776706 0.100416 0.121078
O O9 0.500000 0.500000 0.500000
O O10 0.648295 0.418207 0.621161
O O11 0.760935 0.750000 0.124615
O O12 0.859496 0.583218 0.404527
O O13 0.735684 0.576412 0.917132
O O14 0.051143 0.250000 0.458779
O O15 0.997812 0.384670 0.106501
O O16 0.822487 0.060081 0.839891
O O17 0.864219 0.250000 0.815243
#
# Coordination Sequence:
#
# PCOD8076734 Si02
#       7
#     4   4   4   4   4   4   4
#     4  10  24  45  68  93 120 156 202 250 304 371
#     4   9  19  36  59  88 124 162 203 251 299 351
#     4  11  24  44  67  92 124 157 196 255 311 365
#     4  10  21  40  62  86 123 162 202 248 293 354
#     4   8  16  35  57  83 120 162 204 248 294 344
#     4  11  22  36  63  88 122 156 198 248 305 358
#     4   9  19  36  57  87 124 162 205 251 298 350
#
# _framework density 21.394856000000001
#
# number of rings (size 3 to 8) (size 9 to 14) (size 15 to 20)
#    0.000    2.286    1.429    1.286    2.000    4.571 
#    2.571    2.857    0.000    0.000    0.000    0.000 
#    0.000    0.000    0.000    0.000    0.000    0.000 
#
# Total GULP energy -347125.835263 kJ/mol
# GULP energy per Si atom -12397.351259 kJ/mol
# Density = 2.134616 g / cm^3
# Si number density = 21.394856 Si / 1000 Ang^3
#
#
#
# Elastic Constant Matrix: (Units=GPa)
#
#
# Indices 1 2 3 4 5 6 
#
# 1 117.5943 35.4360 87.6356 0.0000 12.2632 0.0000
# 2 35.4360 49.5612 24.4983 0.0000 -5.6393 0.0000
# 3 87.6356 24.4983 157.5469 0.0000 -4.5592 0.0000
# 4 0.0000 0.0000 0.0000 26.8622 0.0000 0.8495
# 5 12.2632 -5.6393 -4.5592 0.0000 44.4428 0.0000
# 6 0.0000 0.0000 0.0000 0.8495 0.0000 31.0940
#
#
#
# Elastic Compliance Matrix: (Units=1/GPa)
#
#
# Indices 1 2 3 4 5 6 
#
# 1 0.019330 -0.010030 -0.009412 0.000000 -0.007572 0.000000
# 2 -0.010030 0.027327 0.001515 0.000000 0.006391 0.000000
# 3 -0.009412 0.001515 0.011462 0.000000 0.003965 0.000000
# 4 0.000000 0.000000 0.000000 0.037259 0.000000 -0.001018
# 5 -0.007572 0.006391 0.003965 0.000000 0.025808 0.000000
# 6 0.000000 0.000000 0.000000 -0.001018 0.000000 0.032188
#
#
# Mechanical properties :
#
#
# Convention : Reuss Voigt Hill
#
# Bulk Modulus (GPa) = 44.91415 68.87134 56.89275
# Shear Modulus (GPa) = 25.42597 32.28864 28.85730
#
# Velocity S-wave (km/s) = 3.45108 3.88903 3.67658
# Velocity P-wave (km/s) = 6.07606 7.24062 6.68375
#
# Compressibility (1/GPa) = 0.02226470
#
# Stress axis : x y z
#
# Youngs Moduli (GPa) = 51.73332 36.59401 87.24642
#
# Poissons Ratio (x) = 0.36704 0.82114
# Poissons Ratio (y) = 0.51889 -0.13217
# Poissons Ratio (z) = 0.48690 -0.05544
#
# Static dielectric constant tensor:
#      x y z
#    x 3.990720 0.000000 0.113260 
#    y 0.000000 3.743650 0.000000 
#    z 0.113260 0.000000 4.193490 
# 
# 
# High freq. dielectric constant tensor:
#      x y z
#    x 1.831580 0.000000 0.004730 
#    y 0.000000 1.841240 0.000000 
#    z 0.004730 0.000000 1.852080 
# 
# From -- ./inp_files/8144.got.cif
#   From: 2010.06.25/outbox.cif.g09.slc.cpg/sg11_5_cif.got.tgz:8144.got - 2010.06.27 23:14:04.
