data_PCOD8076148
_publ_section_title
;
Structure prediction by ZEFSAII (Michael W. Deem and Ramdas Pophale) SiO2 
 PCOD8076148
Probable space group: P 21/M
;
_chemical_formula_sum "Si O2"
_cell_formula_units_Z 24
_cell_length_a 9.566992
_cell_length_b 8.713192
_cell_length_c 14.923347
_cell_angle_alpha 90.000000
_cell_angle_beta 99.145010
_cell_angle_gamma 90.000000
_cell_volume 1228.183741
_symmetry_space_group_name_H-M "P 21/M"
_symmetry_group_IT_number 11
_symmetry_cell_setting 'monoclinic'
loop_
_space_group_symop_operation_xyz
x,y,z
-x,1/2+y,-z
-x,-y,-z
x,1/2-y,z
loop_
_atom_site_type_symbol
_atom_site_label
_atom_site_fract_x
_atom_site_fract_y
_atom_site_fract_z
Si Si1 0.389916 0.932598 0.419449
Si Si2 0.847482 0.567208 0.244972
Si Si3 0.121230 0.069744 0.954137
Si Si4 0.462740 0.069789 0.743197
Si Si5 0.067763 0.567799 0.417463
Si Si6 0.393157 0.931093 0.057886
O O1 0.391792 0.750000 0.423967
O O2 0.447160 0.996169 0.330431
O O3 0.229340 0.991713 0.420925
O O4 0.500000 0.000000 0.500000
O O5 0.840414 0.750000 0.240496
O O6 0.873769 0.502804 0.146999
O O7 0.696947 0.501053 0.266201
O O8 0.973956 0.511901 0.323049
O O9 0.104007 0.250000 0.946120
O O10 0.253211 0.024384 0.026871
O O11 0.000000 0.000000 0.000000
O O12 0.446463 0.250000 0.730525
O O13 0.552814 0.026880 0.838659
O O14 0.064236 0.750000 0.424447
O O15 0.000000 0.500000 0.500000
O O16 0.371903 0.750000 0.042418
O O17 0.500000 0.000000 0.000000
#
# Coordination Sequence:
#
# PCOD8076148 Si02
#       6
#     4   4   4   4   4   4
#     4  10  21  37  60  87 113 145 190 236 284 342
#     4   9  18  35  58  82 111 151 193 231 280 348
#     4  11  23  39  59  86 119 157 200 243 291 346
#     4   9  18  34  58  84 111 150 193 231 280 346
#     4  10  21  37  60  86 113 148 190 234 283 342
#     4  11  21  37  61  88 119 157 198 241 288 343
#
# _framework density 19.541049999999998
#
# number of rings (size 3 to 8) (size 9 to 14) (size 15 to 20)
#    0.000    2.000    1.667    2.000    2.333    2.000 
#    0.000    3.333    0.000    0.000    0.000    0.000 
#    0.000    0.000    0.000    0.000    0.000    0.000 
#
# Total GULP energy -297484.824454 kJ/mol
# GULP energy per Si atom -12395.201019 kJ/mol
# Density = 1.949657 g / cm^3
# Si number density = 19.541050 Si / 1000 Ang^3
#
#
#
# Elastic Constant Matrix: (Units=GPa)
#
#
# Indices 1 2 3 4 5 6 
#
# 1 206.2650 22.3774 101.3723 0.0000 -12.9611 0.0000
# 2 22.3774 23.9331 26.7692 0.0000 -2.5770 0.0000
# 3 101.3723 26.7692 167.1687 0.0000 -14.7756 0.0000
# 4 0.0000 0.0000 0.0000 30.4674 0.0000 0.7213
# 5 -12.9611 -2.5770 -14.7756 0.0000 37.0893 0.0000
# 6 0.0000 0.0000 0.0000 0.7213 0.0000 31.4749
#
#
#
# Elastic Compliance Matrix: (Units=1/GPa)
#
#
# Indices 1 2 3 4 5 6 
#
# 1 0.007021 -0.002187 -0.003839 0.000000 0.000772 0.000000
# 2 -0.002187 0.051584 -0.006929 0.000000 0.000059 0.000000
# 3 -0.003839 -0.006929 0.009596 0.000000 0.002000 0.000000
# 4 0.000000 0.000000 0.000000 0.032840 0.000000 -0.000753
# 5 0.000772 0.000059 0.002000 0.000000 0.028033 0.000000
# 6 0.000000 0.000000 0.000000 -0.000753 0.000000 0.031789
#
#
# Mechanical properties :
#
#
# Convention : Reuss Voigt Hill
#
# Bulk Modulus (GPa) = 23.64543 77.60052 50.62297
# Shear Modulus (GPa) = 24.89182 36.26285 30.57734
#
# Velocity S-wave (km/s) = 3.57294 4.31249 3.96001
# Velocity P-wave (km/s) = 5.39887 8.03707 6.84625
#
# Compressibility (1/GPa) = 0.04229147
#
# Stress axis : x y z
#
# Youngs Moduli (GPa) = 142.43766 19.38568 104.20832
#
# Poissons Ratio (x) = 0.04240 0.40004
# Poissons Ratio (y) = 0.31157 0.72203
# Poissons Ratio (z) = 0.54679 0.13432
#
# Static dielectric constant tensor:
#      x y z
#    x 8.655120 0.000000 -0.316820 
#    y 0.000000 3.269060 0.000000 
#    z -0.316820 0.000000 3.718020 
# 
# 
# High freq. dielectric constant tensor:
#      x y z
#    x 1.782720 0.000000 -0.000800 
#    y 0.000000 1.723140 0.000000 
#    z -0.000800 0.000000 1.778270 
# 
# From -- ./inp_files/29138.got.cif
#   From: 2010.06.25/outbox.cif.g09.slc.cpg/sg11_15_cif.got.tgz:29138.got - 2010.06.27 23:14:04.
