data_PCOD8076328
_publ_section_title
;
Structure prediction by ZEFSAII (Michael W. Deem and Ramdas Pophale) SiO2 
 PCOD8076328
Probable space group: P 21/M
;
_chemical_formula_sum "Si O2"
_cell_formula_units_Z 32
_cell_length_a 25.265167
_cell_length_b 13.897834
_cell_length_c 9.507859
_cell_angle_alpha 90.000000
_cell_angle_beta 150.825788
_cell_angle_gamma 90.000000
_cell_volume 1627.410063
_symmetry_space_group_name_H-M "P 21/M"
_symmetry_group_IT_number 11
_symmetry_cell_setting 'monoclinic'
loop_
_space_group_symop_operation_xyz
x,y,z
-x,1/2+y,-z
-x,-y,-z
x,1/2-y,z
loop_
_atom_site_type_symbol
_atom_site_label
_atom_site_fract_x
_atom_site_fract_y
_atom_site_fract_z
Si Si1 0.646181 0.974220 0.715957
Si Si2 0.816807 0.641205 0.602648
Si Si3 0.049228 0.638311 0.240093
Si Si4 0.429021 0.636201 0.257836
Si Si5 0.276091 0.637901 0.644697
Si Si6 0.012971 0.518695 0.692024
Si Si7 0.254147 0.989552 0.345921
Si Si8 0.815917 0.861269 0.286302
O O1 0.551835 0.896316 0.517888
O O2 0.619803 0.077553 0.723824
O O3 0.664808 0.990452 0.594081
O O4 0.753158 0.929088 0.032604
O O5 0.795091 0.750000 0.596300
O O6 0.753157 0.582980 0.572746
O O7 0.771421 0.620109 0.341200
O O8 0.946453 0.620962 0.900048
O O9 0.064420 0.750000 0.317794
O O10 0.156457 0.598831 0.410243
O O11 0.031629 0.578568 0.340506
O O12 0.423964 0.750000 0.280235
O O13 0.361531 0.608981 0.962464
O O14 0.273642 0.750000 0.615507
O O15 0.307307 0.592549 0.567101
O O16 0.000000 0.500000 0.500000
O O17 0.942684 0.611243 0.573891
O O18 0.136778 0.542461 0.017440
O O19 0.802682 0.750000 0.213172
#
# Coordination Sequence:
#
# PCOD8076328 Si02
#       8
#     4   4   4   4   4   4   4   4
#     4  11  23  40  63  89 118 152 194 244 302 351
#     4   9  19  34  55  84 115 153 195 233 279 344
#     4   9  18  34  56  79 111 155 197 233 278 342
#     4  10  23  43  64  85 113 153 200 245 295 356
#     4  10  21  38  60  83 111 152 198 241 289 342
#     4  11  21  34  51  86 124 154 192 234 290 350
#     4  11  22  36  59  87 121 148 188 245 293 350
#     4  11  22  38  59  84 121 163 199 234 282 350
#
# _framework density 19.663145
#
# number of rings (size 3 to 8) (size 9 to 14) (size 15 to 20)
#    0.000    1.750    1.250    3.375    0.000    6.000 
#    0.000    0.000    0.000    3.000    0.000    0.000 
#    0.000    0.000    0.000    0.000    0.000    0.000 
#
# Total GULP energy -396878.213690 kJ/mol
# GULP energy per Si atom -12402.444178 kJ/mol
# Density = 1.961839 g / cm^3
# Si number density = 19.663145 Si / 1000 Ang^3
#
#
#
# Elastic Constant Matrix: (Units=GPa)
#
#
# Indices 1 2 3 4 5 6 
#
# 1 109.9274 40.6305 18.6439 0.0000 -17.5890 0.0000
# 2 40.6305 77.1832 30.7909 0.0000 -5.2503 0.0000
# 3 18.6439 30.7909 47.9930 0.0000 -10.6112 0.0000
# 4 0.0000 0.0000 0.0000 31.7401 0.0000 -5.7557
# 5 -17.5890 -5.2503 -10.6112 0.0000 31.9116 0.0000
# 6 0.0000 0.0000 0.0000 -5.7557 0.0000 17.1068
#
#
#
# Elastic Compliance Matrix: (Units=1/GPa)
#
#
# Indices 1 2 3 4 5 6 
#
# 1 0.012270 -0.006286 0.000575 0.000000 0.005920 0.000000
# 2 -0.006286 0.020658 -0.011685 0.000000 -0.003951 0.000000
# 3 0.000575 -0.011685 0.029957 0.000000 0.008356 0.000000
# 4 0.000000 0.000000 0.000000 0.033553 0.000000 0.011289
# 5 0.005920 -0.003951 0.008356 0.000000 0.036728 0.000000
# 6 0.000000 0.000000 0.000000 0.011289 0.000000 0.062254
#
#
# Mechanical properties :
#
#
# Convention : Reuss Voigt Hill
#
# Bulk Modulus (GPa) = 35.59566 46.13713 40.86640
# Shear Modulus (GPa) = 20.87010 25.82093 23.34552
#
# Velocity S-wave (km/s) = 3.26142 3.62769 3.44942
# Velocity P-wave (km/s) = 5.68546 6.40793 6.05748
#
# Compressibility (1/GPa) = 0.02809331
#
# Stress axis : x y z
#
# Youngs Moduli (GPa) = 81.50013 48.40734 33.38079
#
# Poissons Ratio (x) = 0.30428 -0.01920
# Poissons Ratio (y) = 0.51230 0.39007
# Poissons Ratio (z) = -0.04688 0.56566
#
# Static dielectric constant tensor:
#      x y z
#    x 3.517050 0.000000 -0.078720 
#    y 0.000000 3.757650 0.000000 
#    z -0.078720 0.000000 3.680720 
# 
# 
# High freq. dielectric constant tensor:
#      x y z
#    x 1.757690 0.000000 -0.012340 
#    y 0.000000 1.774920 0.000000 
#    z -0.012340 0.000000 1.765800 
# 
# From -- ./inp_files/22197.got.cif
#   From: 2010.06.25/outbox.cif.g09.slc.cpg/sg11_12_cif.got.tgz:22197.got - 2010.06.27 23:14:04.
