data_PCOD8076509
_publ_section_title
;
Structure prediction by ZEFSAII (Michael W. Deem and Ramdas Pophale) SiO2 
 PCOD8076509
Probable space group: P 21/M
;
_chemical_formula_sum "Si O2"
_cell_formula_units_Z 28
_cell_length_a 9.059292
_cell_length_b 19.544957
_cell_length_c 13.819888
_cell_angle_alpha 90.000000
_cell_angle_beta 148.299109
_cell_angle_gamma 90.000000
_cell_volume 1285.860119
_symmetry_space_group_name_H-M "P 21/M"
_symmetry_group_IT_number 11
_symmetry_cell_setting 'monoclinic'
loop_
_space_group_symop_operation_xyz
x,y,z
-x,1/2+y,-z
-x,-y,-z
x,1/2-y,z
loop_
_atom_site_type_symbol
_atom_site_label
_atom_site_fract_x
_atom_site_fract_y
_atom_site_fract_z
Si Si1 0.387665 0.879818 0.553055
Si Si2 0.040564 0.384661 0.184989
Si Si3 0.465542 0.921104 0.216572
Si Si4 0.815558 0.456773 0.747839
Si Si5 0.571949 0.932898 0.853743
Si Si6 0.824226 0.674073 0.308490
Si Si7 0.366916 0.829790 0.892813
O O1 0.674880 0.840944 0.679639
O O2 0.263981 0.925288 0.398489
O O3 0.491063 0.927999 0.697023
O O4 0.148691 0.828932 0.457960
O O5 0.144266 0.463166 0.250331
O O6 0.920148 0.353840 0.216904
O O7 0.805252 0.377433 0.970384
O O8 0.425998 0.940535 0.307051
O O9 0.746904 0.876341 0.354735
O O10 0.497211 0.987373 0.162923
O O11 0.097232 0.421626 0.945795
O O12 0.396182 0.877628 0.815610
O O13 0.760045 0.750000 0.309641
O O14 0.632278 0.655665 0.109405
O O15 0.349351 0.750000 0.852426
#
# Coordination Sequence:
#
# PCOD8076509 Si02
#       7
#     4   4   4   4   4   4   4
#     4  12  23  38  67  98 128 164 211 269 315 386
#     4  10  21  38  65  96 128 166 218 260 319 386
#     4  10  21  41  67  93 135 169 213 269 321 384
#     4  11  21  41  64 100 133 163 203 275 324 376
#     4  11  22  40  67  98 126 168 215 264 325 380
#     4  10  24  43  63  94 131 172 218 264 322 388
#     4  10  23  44  65  89 131 176 214 263 326 387
#
# _framework density 21.775307000000002
#
# number of rings (size 3 to 8) (size 9 to 14) (size 15 to 20)
#    0.000    1.429    4.286    1.286    2.000    4.571 
#    0.000    1.429    0.000    0.000    0.000    0.000 
#    0.000    0.000    0.000    0.000    0.000    0.000 
#
# Total GULP energy -347011.008920 kJ/mol
# GULP energy per Si atom -12393.250319 kJ/mol
# Density = 2.172574 g / cm^3
# Si number density = 21.775307 Si / 1000 Ang^3
#
#
#
# Elastic Constant Matrix: (Units=GPa)
#
#
# Indices 1 2 3 4 5 6 
#
# 1 141.9284 71.3762 56.0820 0.0000 16.8795 0.0000
# 2 71.3762 92.6429 37.3076 0.0000 11.0073 0.0000
# 3 56.0820 37.3076 91.3933 0.0000 7.3404 0.0000
# 4 0.0000 0.0000 0.0000 10.9105 0.0000 6.1348
# 5 16.8795 11.0073 7.3404 0.0000 46.0778 0.0000
# 6 0.0000 0.0000 0.0000 6.1348 0.0000 18.2857
#
#
#
# Elastic Compliance Matrix: (Units=1/GPa)
#
#
# Indices 1 2 3 4 5 6 
#
# 1 0.013169 -0.008023 -0.004631 0.000000 -0.002170 0.000000
# 2 -0.008023 0.018045 -0.002363 0.000000 -0.000995 0.000000
# 3 -0.004631 -0.002363 0.014756 0.000000 -0.000089 0.000000
# 4 0.000000 0.000000 0.000000 0.112965 0.000000 -0.037899
# 5 -0.002170 -0.000995 -0.000089 0.000000 0.022749 0.000000
# 6 0.000000 0.000000 0.000000 -0.037899 0.000000 0.067403
#
#
# Mechanical properties :
#
#
# Convention : Reuss Voigt Hill
#
# Bulk Modulus (GPa) = 62.75704 72.83290 67.79497
# Shear Modulus (GPa) = 17.57886 25.80137 21.69011
#
# Velocity S-wave (km/s) = 2.84436 3.44596 3.15951
# Velocity P-wave (km/s) = 6.29841 7.02516 6.67169
#
# Compressibility (1/GPa) = 0.01593447
#
# Stress axis : x y z
#
# Youngs Moduli (GPa) = 75.93801 55.41643 67.77083
#
# Poissons Ratio (x) = 0.44460 0.31388
# Poissons Ratio (y) = 0.60924 0.16016
# Poissons Ratio (z) = 0.35170 0.13096
#
# Static dielectric constant tensor:
#      x y z
#    x 4.033390 0.000000 0.290050 
#    y 0.000000 3.652900 0.000000 
#    z 0.290050 0.000000 4.197880 
# 
# 
# High freq. dielectric constant tensor:
#      x y z
#    x 1.857120 0.000000 0.009120 
#    y 0.000000 1.829920 0.000000 
#    z 0.009120 0.000000 1.861080 
# 
# From -- ./inp_files/48313.got.cif
#   From: 2010.06.25/outbox.cif.g09.slc.cpg/sg11_25_cif.got.tgz:48313.got - 2010.06.27 23:14:04.
