data_PCOD8076023
_publ_section_title
;
Structure prediction by ZEFSAII (Michael W. Deem and Ramdas Pophale) SiO2 
 PCOD8076023
Probable space group: P 21/M
;
_chemical_formula_sum "Si O2"
_cell_formula_units_Z 24
_cell_length_a 9.373084
_cell_length_b 14.438800
_cell_length_c 9.373152
_cell_angle_alpha 90.000000
_cell_angle_beta 91.268435
_cell_angle_gamma 90.000000
_cell_volume 1268.214854
_symmetry_space_group_name_H-M "P 21/M"
_symmetry_group_IT_number 11
_symmetry_cell_setting 'monoclinic'
loop_
_space_group_symop_operation_xyz
x,y,z
-x,1/2+y,-z
-x,-y,-z
x,1/2-y,z
loop_
_atom_site_type_symbol
_atom_site_label
_atom_site_fract_x
_atom_site_fract_y
_atom_site_fract_z
Si Si1 0.437985 0.250000 0.302978
Si Si2 0.792793 0.052138 0.088522
Si Si3 0.580220 0.750000 0.163336
Si Si4 0.663339 0.250000 0.080220
Si Si5 0.588522 0.947861 0.292795
Si Si6 0.197020 0.250000 0.062016
Si Si7 0.103809 0.438808 0.164590
Si Si8 0.664591 0.938808 0.603808
O O1 0.594411 0.250000 0.236504
O O2 0.326120 0.250000 0.173879
O O3 0.417012 0.340556 0.398171
O O4 0.761853 0.160206 0.069692
O O5 0.938377 0.034044 0.181238
O O6 0.662898 0.000002 0.162902
O O7 0.810749 0.011939 0.930165
O O8 0.569691 0.839794 0.261849
O O9 0.454466 0.750000 0.045532
O O10 0.736506 0.750000 0.094408
O O11 0.681242 0.965952 0.438375
O O12 0.430165 0.988059 0.310757
O O13 0.101826 0.340555 0.082990
O O14 0.179426 0.433735 0.320573
#
# Coordination Sequence:
#
# PCOD8076023 Si02
#       8
#     2   4   2   2   4   2   4   4
#     4   9  17  32  56  80 104 140 180 221 271 321
#     4  11  22  36  57  84 110 145 186 226 273 327
#     4  11  21  34  57  84 110 140 181 233 276 319
#     4  11  21  34  57  84 110 140 181 233 276 319
#     4  11  22  36  57  84 110 145 186 226 273 327
#     4   9  17  32  56  80 104 140 180 221 271 321
#     4  10  21  37  57  82 113 146 182 225 274 327
#     4  10  21  37  57  82 113 146 182 225 274 327
#
# _framework density 18.924239
#
# number of rings (size 3 to 8) (size 9 to 14) (size 15 to 20)
#    0.000    1.667    3.333    2.000    0.000    2.000 
#    0.000    0.000    0.000    0.000    0.000    0.000 
#    0.000    0.000    0.000    0.000    0.000    0.000 
#
# Total GULP energy -297644.459580 kJ/mol
# GULP energy per Si atom -12401.852483 kJ/mol
# Density = 1.888117 g / cm^3
# Si number density = 18.924239 Si / 1000 Ang^3
#
#
#
# Elastic Constant Matrix: (Units=GPa)
#
#
# Indices 1 2 3 4 5 6 
#
# 1 55.6527 9.8442 29.4293 0.0000 10.9520 0.0000
# 2 9.8442 117.0766 11.1652 0.0000 -3.7379 0.0000
# 3 29.4293 11.1652 49.7685 0.0000 5.7538 0.0000
# 4 0.0000 0.0000 0.0000 17.4958 0.0000 6.9443
# 5 10.9520 -3.7379 5.7538 0.0000 25.9194 0.0000
# 6 0.0000 0.0000 0.0000 6.9443 0.0000 19.9445
#
#
#
# Elastic Compliance Matrix: (Units=1/GPa)
#
#
# Indices 1 2 3 4 5 6 
#
# 1 0.027937 -0.001167 -0.015265 0.000000 -0.008584 0.000000
# 2 -0.001167 0.008854 -0.001540 0.000000 0.002112 0.000000
# 3 -0.015265 -0.001540 0.029503 0.000000 -0.000321 0.000000
# 4 0.000000 0.000000 0.000000 0.066322 0.000000 -0.023092
# 5 -0.008584 0.002112 -0.000321 0.000000 0.042584 0.000000
# 6 0.000000 0.000000 0.000000 -0.023092 0.000000 0.058179
#
#
# Mechanical properties :
#
#
# Convention : Reuss Voigt Hill
#
# Bulk Modulus (GPa) = 32.95185 35.93059 34.44122
# Shear Modulus (GPa) = 17.89289 24.14254 21.01772
#
# Velocity S-wave (km/s) = 3.07824 3.57563 3.33622
# Velocity P-wave (km/s) = 5.48492 6.00622 5.75148
#
# Compressibility (1/GPa) = 0.03034731
#
# Stress axis : x y z
#
# Youngs Moduli (GPa) = 35.79518 112.94483 33.89542
#
# Poissons Ratio (x) = 0.13184 0.51743
# Poissons Ratio (y) = 0.04178 0.05221
# Poissons Ratio (z) = 0.54643 0.17396
#
# Static dielectric constant tensor:
#      x y z
#    x 3.280680 0.000000 -0.038160 
#    y 0.000000 3.698060 0.000000 
#    z -0.038160 0.000000 3.294190 
# 
# 
# High freq. dielectric constant tensor:
#      x y z
#    x 1.723580 0.000000 0.000130 
#    y 0.000000 1.749810 0.000000 
#    z 0.000130 0.000000 1.723530 
# 
# From -- ./inp_files/12515.got.cif
#   From: 2010.06.25/outbox.cif.g09.slc.cpg/sg11_7_cif.got.tgz:12515.got - 2010.06.27 23:14:04.
