data_PCOD8076497
_publ_section_title
;
Structure prediction by ZEFSAII (Michael W. Deem and Ramdas Pophale) SiO2 
 PCOD8076497
Probable space group: P 21/M
;
_chemical_formula_sum "Si O2"
_cell_formula_units_Z 28
_cell_length_a 8.610609
_cell_length_b 14.094111
_cell_length_c 12.143461
_cell_angle_alpha 90.000000
_cell_angle_beta 120.350447
_cell_angle_gamma 90.000000
_cell_volume 1271.745394
_symmetry_space_group_name_H-M "P 21/M"
_symmetry_group_IT_number 11
_symmetry_cell_setting 'monoclinic'
loop_
_space_group_symop_operation_xyz
x,y,z
-x,1/2+y,-z
-x,-y,-z
x,1/2-y,z
loop_
_atom_site_type_symbol
_atom_site_label
_atom_site_fract_x
_atom_site_fract_y
_atom_site_fract_z
Si Si1 0.124677 0.021003 0.793302
Si Si2 0.787414 0.497052 0.940417
Si Si3 0.794309 0.142206 0.763387
Si Si4 0.190443 0.358957 0.616470
Si Si5 0.451265 0.137310 0.274440
Si Si6 0.855219 0.357717 0.355567
Si Si7 0.567266 0.857377 0.489055
O O1 0.232725 0.083962 0.742980
O O2 0.955051 0.079926 0.773857
O O3 0.066798 0.922527 0.714903
O O4 0.253147 0.994915 0.943141
O O5 0.719194 0.403065 0.851184
O O6 0.691814 0.590584 0.858440
O O7 0.000000 0.500000 0.000000
O O8 0.858531 0.250000 0.808919
O O9 0.640700 0.140525 0.617292
O O10 0.245408 0.250000 0.657158
O O11 0.309391 0.405541 0.560703
O O12 0.980131 0.369497 0.508623
O O13 0.424759 0.250000 0.261798
O O14 0.653838 0.110580 0.312938
O O15 0.414084 0.094608 0.383885
O O16 0.863151 0.250000 0.315694
O O17 0.637434 0.750000 0.525035
#
# Coordination Sequence:
#
# PCOD8076497 Si02
#       7
#     4   4   4   4   4   4   4
#     4  11  23  41  64  94 130 172 212 260 322 385
#     4  10  25  41  62  94 124 168 219 258 310 382
#     4  10  22  43  65  92 127 169 217 268 326 382
#     4  10  21  38  64 100 131 165 213 268 326 379
#     4  10  22  43  67  93 128 171 215 263 319 383
#     4  10  23  42  64  95 131 168 214 268 325 378
#     4   9  20  38  66  97 126 164 214 269 320 375
#
# _framework density 22.016987
#
# number of rings (size 3 to 8) (size 9 to 14) (size 15 to 20)
#    0.000    2.000    0.000    1.714    6.000    6.857 
#    0.000    0.000    0.000    0.000    0.000    0.000 
#    0.000    0.000    0.000    0.000    0.000    0.000 
#
# Total GULP energy -347133.650996 kJ/mol
# GULP energy per Si atom -12397.630393 kJ/mol
# Density = 2.196688 g / cm^3
# Si number density = 22.016987 Si / 1000 Ang^3
#
#
#
# Elastic Constant Matrix: (Units=GPa)
#
#
# Indices 1 2 3 4 5 6 
#
# 1 93.7452 40.4105 35.0960 0.0000 -14.6439 0.0000
# 2 40.4105 106.4682 40.3530 0.0000 -24.4319 0.0000
# 3 35.0960 40.3530 115.4399 0.0000 -40.0253 0.0000
# 4 0.0000 0.0000 0.0000 29.5122 0.0000 -8.4911
# 5 -14.6439 -24.4319 -40.0253 0.0000 37.7978 0.0000
# 6 0.0000 0.0000 0.0000 -8.4911 0.0000 7.0206
#
#
#
# Elastic Compliance Matrix: (Units=1/GPa)
#
#
# Indices 1 2 3 4 5 6 
#
# 1 0.013427 -0.004138 -0.002780 0.000000 -0.000417 0.000000
# 2 -0.004138 0.012664 -0.001401 0.000000 0.005099 0.000000
# 3 -0.002780 -0.001401 0.014711 0.000000 0.013596 0.000000
# 4 0.000000 0.000000 0.000000 0.051968 0.000000 0.062852
# 5 -0.000417 0.005099 0.013596 0.000000 0.043988 0.000000
# 6 0.000000 0.000000 0.000000 0.062852 0.000000 0.218453
#
#
# Mechanical properties :
#
#
# Convention : Reuss Voigt Hill
#
# Bulk Modulus (GPa) = 41.38306 60.81913 51.10109
# Shear Modulus (GPa) = 13.16124 28.18572 20.67348
#
# Velocity S-wave (km/s) = 2.44760 3.58184 3.06760
# Velocity P-wave (km/s) = 5.17923 6.69252 5.98391
#
# Compressibility (1/GPa) = 0.02416448
#
# Stress axis : x y z
#
# Youngs Moduli (GPa) = 74.47859 78.96261 67.97536
#
# Poissons Ratio (x) = 0.32676 0.18897
# Poissons Ratio (y) = 0.30820 0.09522
# Poissons Ratio (z) = 0.20705 0.11061
#
# Static dielectric constant tensor:
#      x y z
#    x 3.932260 0.000000 -0.324380 
#    y 0.000000 4.092580 0.000000 
#    z -0.324380 0.000000 4.390320 
# 
# 
# High freq. dielectric constant tensor:
#      x y z
#    x 1.859960 0.000000 -0.007010 
#    y 0.000000 1.870220 0.000000 
#    z -0.007010 0.000000 1.863180 
# 
# From -- ./inp_files/17966.got.cif
#   From: 2010.06.25/outbox.cif.g09.slc.cpg/sg11_9_cif.got.tgz:17966.got - 2010.06.27 23:14:04.
