data_PCOD8076355
_publ_section_title
;
Structure prediction by ZEFSAII (Michael W. Deem and Ramdas Pophale) SiO2 
 PCOD8076355
Probable space group: P 21/M
;
_chemical_formula_sum "Si O2"
_cell_formula_units_Z 32
_cell_length_a 12.257038
_cell_length_b 8.792627
_cell_length_c 14.656525
_cell_angle_alpha 90.000000
_cell_angle_beta 91.889310
_cell_angle_gamma 90.000000
_cell_volume 1578.697940
_symmetry_space_group_name_H-M "P 21/M"
_symmetry_group_IT_number 11
_symmetry_cell_setting 'monoclinic'
loop_
_space_group_symop_operation_xyz
x,y,z
-x,1/2+y,-z
-x,-y,-z
x,1/2-y,z
loop_
_atom_site_type_symbol
_atom_site_label
_atom_site_fract_x
_atom_site_fract_y
_atom_site_fract_z
Si Si1 0.116851 0.925464 0.312249
Si Si2 0.702167 0.070493 0.154365
Si Si3 0.129718 0.424283 0.702555
Si Si4 0.529791 0.571432 0.266168
Si Si5 0.167977 0.578622 0.513225
Si Si6 0.314666 0.072057 0.218485
Si Si7 0.618226 0.570959 0.983838
Si Si8 0.590100 0.422004 0.442825
O O1 0.154476 0.750000 0.313424
O O2 0.117271 0.985507 0.417487
O O3 0.995346 0.944391 0.269048
O O4 0.195914 0.020001 0.248625
O O5 0.704976 0.250000 0.147365
O O6 0.796660 0.019998 0.226146
O O7 0.581769 0.015322 0.181863
O O8 0.711473 0.996647 0.054340
O O9 0.167680 0.250000 0.709643
O O10 0.136971 0.475131 0.597786
O O11 0.534363 0.750000 0.250450
O O12 0.406427 0.515538 0.280105
O O13 0.605364 0.523160 0.353010
O O14 0.126793 0.750000 0.532339
O O15 0.297446 0.577383 0.499674
O O16 0.326717 0.250000 0.236121
O O17 0.335088 0.028044 0.114105
O O18 0.608574 0.750000 0.997283
O O19 0.500000 0.500000 0.000000
O O20 0.500000 0.500000 0.500000
O O21 0.555381 0.250000 0.416084
#
# Coordination Sequence:
#
# PCOD8076355 Si02
#       8
#     4   4   4   4   4   4   4   4
#     4  10  23  42  63  91 126 165 211 258 310 369
#     4  12  24  40  63  92 124 159 206 257 309 372
#     4  11  23  40  64  92 124 165 213 261 310 368
#     4  12  23  37  60  87 123 163 202 252 312 371
#     4  10  21  38  60  87 122 163 209 259 306 364
#     4  11  24  41  64  94 127 161 205 253 309 379
#     4  11  23  40  65  96 128 162 202 252 310 376
#     4  11  22  35  54  84 124 165 207 252 307 373
#
# _framework density 20.269867999999999
#
# number of rings (size 3 to 8) (size 9 to 14) (size 15 to 20)
#    0.000    1.000    2.500    4.875    0.000    4.500 
#    0.000    0.625    0.000    0.000    0.000    0.000 
#    0.000    0.000    0.000    0.000    0.000    0.000 
#
# Total GULP energy -396865.687090 kJ/mol
# GULP energy per Si atom -12402.052722 kJ/mol
# Density = 2.022373 g / cm^3
# Si number density = 20.269868 Si / 1000 Ang^3
#
#
#
# Elastic Constant Matrix: (Units=GPa)
#
#
# Indices 1 2 3 4 5 6 
#
# 1 86.2242 34.5954 30.6301 0.0000 0.9556 0.0000
# 2 34.5954 115.3036 44.5169 0.0000 -0.5430 0.0000
# 3 30.6301 44.5169 97.5656 0.0000 7.8117 0.0000
# 4 0.0000 0.0000 0.0000 36.0753 0.0000 -2.4672
# 5 0.9556 -0.5430 7.8117 0.0000 21.1587 0.0000
# 6 0.0000 0.0000 0.0000 -2.4672 0.0000 30.5937
#
#
#
# Elastic Compliance Matrix: (Units=1/GPa)
#
#
# Indices 1 2 3 4 5 6 
#
# 1 0.013867 -0.002992 -0.003021 0.000000 0.000412 0.000000
# 2 -0.002992 0.011265 -0.004363 0.000000 0.002035 0.000000
# 3 -0.003021 -0.004363 0.013589 0.000000 -0.004992 0.000000
# 4 0.000000 0.000000 0.000000 0.027874 0.000000 0.002248
# 5 0.000412 0.002035 -0.004992 0.000000 0.049139 0.000000
# 6 0.000000 0.000000 0.000000 0.002248 0.000000 0.032868
#
#
# Mechanical properties :
#
#
# Convention : Reuss Voigt Hill
#
# Bulk Modulus (GPa) = 55.65849 57.61980 56.63915
# Shear Modulus (GPa) = 28.51557 30.18892 29.35225
#
# Velocity S-wave (km/s) = 3.75480 3.86340 3.80948
# Velocity P-wave (km/s) = 6.80561 6.95623 6.88133
#
# Compressibility (1/GPa) = 0.01796671
#
# Stress axis : x y z
#
# Youngs Moduli (GPa) = 72.11428 88.77244 73.59097
#
# Poissons Ratio (x) = 0.26563 0.22233
# Poissons Ratio (y) = 0.21578 0.32111
# Poissons Ratio (z) = 0.21787 0.38735
#
# Static dielectric constant tensor:
#      x y z
#    x 3.633380 0.000000 0.149570 
#    y 0.000000 3.672810 0.000000 
#    z 0.149570 0.000000 3.963620 
# 
# 
# High freq. dielectric constant tensor:
#      x y z
#    x 1.787960 0.000000 0.008320 
#    y 0.000000 1.800070 0.000000 
#    z 0.008320 0.000000 1.792810 
# 
# From -- ./inp_files/49411.got.cif
#   From: 2010.06.25/outbox.cif.g09.slc.cpg/sg11_25_cif.got.tgz:49411.got - 2010.06.27 23:14:04.
