data_PCOD8076834
_publ_section_title
;
Structure prediction by ZEFSAII (Michael W. Deem and Ramdas Pophale) SiO2 
 PCOD8076834
Probable space group: P 21/M
;
_chemical_formula_sum "Si O2"
_cell_formula_units_Z 24
_cell_length_a 11.374231
_cell_length_b 13.576129
_cell_length_c 14.526850
_cell_angle_alpha 90.000000
_cell_angle_beta 31.775480
_cell_angle_gamma 90.000000
_cell_volume 1181.255206
_symmetry_space_group_name_H-M "P 21/M"
_symmetry_group_IT_number 11
_symmetry_cell_setting 'monoclinic'
loop_
_space_group_symop_operation_xyz
x,y,z
-x,1/2+y,-z
-x,-y,-z
x,1/2-y,z
loop_
_atom_site_type_symbol
_atom_site_label
_atom_site_fract_x
_atom_site_fract_y
_atom_site_fract_z
Si Si1 0.301423 0.364259 0.012742
Si Si2 0.297379 0.640167 0.900954
Si Si3 0.503375 0.948935 0.300999
Si Si4 0.682617 0.136274 0.898510
Si Si5 0.064164 0.497920 0.671486
Si Si6 0.208880 0.362095 0.731345
O O1 0.241091 0.250000 0.055596
O O2 0.071489 0.423323 0.176575
O O3 0.425104 0.388182 0.835725
O O4 0.462564 0.394832 0.989697
O O5 0.380876 0.750000 0.820128
O O6 0.418962 0.562472 0.754921
O O7 0.357629 0.615372 0.966797
O O8 0.033375 0.631058 0.059665
O O9 0.604239 0.896845 0.322685
O O10 0.233667 0.947071 0.489396
O O11 0.743811 0.250000 0.839855
O O12 0.893733 0.070377 0.726304
O O13 0.215897 0.430812 0.637130
O O14 0.257548 0.250000 0.668456
#
# Coordination Sequence:
#
# PCOD8076834 Si02
#       6
#     4   4   4   4   4   4
#     4  11  24  41  61  86 125 162 196 248 301 349
#     4   9  19  36  63  88 115 160 205 242 290 353
#     4  12  23  38  62  92 123 150 203 247 303 353
#     4   9  19  41  64  87 122 162 197 241 297 353
#     4  11  23  39  65  87 118 159 204 245 295 357
#     4  10  21  41  62  86 123 160 197 246 296 357
#
# _framework density 20.31737
#
# number of rings (size 3 to 8) (size 9 to 14) (size 15 to 20)
#    0.000    1.667    3.333    3.500    0.000    3.333 
#    0.000    0.000    0.000    0.000    0.000    0.000 
#    0.000    0.000    0.000    0.000    0.000    0.000 
#
# Total GULP energy -297657.394995 kJ/mol
# GULP energy per Si atom -12402.391458 kJ/mol
# Density = 2.027113 g / cm^3
# Si number density = 20.317370 Si / 1000 Ang^3
#
#
#
# Elastic Constant Matrix: (Units=GPa)
#
#
# Indices 1 2 3 4 5 6 
#
# 1 58.8054 36.0076 18.2509 0.0000 -14.8269 0.0000
# 2 36.0076 88.6750 30.1840 0.0000 -9.1900 0.0000
# 3 18.2509 30.1840 96.7986 0.0000 -8.1454 0.0000
# 4 0.0000 0.0000 0.0000 12.7362 0.0000 0.3253
# 5 -14.8269 -9.1900 -8.1454 0.0000 14.6898 0.0000
# 6 0.0000 0.0000 0.0000 0.3253 0.0000 37.0650
#
#
#
# Elastic Compliance Matrix: (Units=1/GPa)
#
#
# Indices 1 2 3 4 5 6 
#
# 1 0.028427 -0.008966 -0.000652 0.000000 0.022721 0.000000
# 2 -0.008966 0.015968 -0.003367 0.000000 -0.000927 0.000000
# 3 -0.000652 -0.003367 0.011822 0.000000 0.003791 0.000000
# 4 0.000000 0.000000 0.000000 0.078534 0.000000 -0.000689
# 5 0.022721 -0.000927 0.003791 0.000000 0.092530 0.000000
# 6 0.000000 0.000000 0.000000 -0.000689 0.000000 0.026986
#
#
# Mechanical properties :
#
#
# Convention : Reuss Voigt Hill
#
# Bulk Modulus (GPa) = 33.06072 45.90711 39.48391
# Shear Modulus (GPa) = 17.22245 23.55397 20.38821
#
# Velocity S-wave (km/s) = 2.91464 3.40855 3.17122
# Velocity P-wave (km/s) = 5.25683 6.17535 5.73451
#
# Compressibility (1/GPa) = 0.03024737
#
# Stress axis : x y z
#
# Youngs Moduli (GPa) = 35.17825 62.62562 84.58479
#
# Poissons Ratio (x) = 0.56153 0.05513
# Poissons Ratio (y) = 0.31542 0.28476
# Poissons Ratio (z) = 0.02293 0.21084
#
# Static dielectric constant tensor:
#      x y z
#    x 3.643500 0.000000 -0.139300 
#    y 0.000000 3.933630 0.000000 
#    z -0.139300 0.000000 3.390970 
# 
# 
# High freq. dielectric constant tensor:
#      x y z
#    x 1.786750 0.000000 -0.010830 
#    y 0.000000 1.816260 0.000000 
#    z -0.010830 0.000000 1.767720 
# 
# From -- ./inp_files/50306.got.cif
#   From: 2010.06.25/outbox.cif.g09.slc.cpg/sg11_26_cif.got.tgz:50306.got - 2010.06.27 23:14:04.
