data_PCOD8076193
_publ_section_title
;
Structure prediction by ZEFSAII (Michael W. Deem and Ramdas Pophale) SiO2 
 PCOD8076193
Probable space group: P 21/M
;
_chemical_formula_sum "Si O2"
_cell_formula_units_Z 28
_cell_length_a 21.577010
_cell_length_b 8.815675
_cell_length_c 14.529748
_cell_angle_alpha 90.000000
_cell_angle_beta 150.356675
_cell_angle_gamma 90.000000
_cell_volume 1366.967946
_symmetry_space_group_name_H-M "P 21/M"
_symmetry_group_IT_number 11
_symmetry_cell_setting 'monoclinic'
loop_
_space_group_symop_operation_xyz
x,y,z
-x,1/2+y,-z
-x,-y,-z
x,1/2-y,z
loop_
_atom_site_type_symbol
_atom_site_label
_atom_site_fract_x
_atom_site_fract_y
_atom_site_fract_z
Si Si1 0.889601 0.928168 0.914382
Si Si2 0.372928 0.927509 0.732765
Si Si3 0.657732 0.571349 0.492459
Si Si4 0.542418 0.574414 0.648845
Si Si5 0.663284 0.927806 0.125436
Si Si6 0.164185 0.425371 0.952239
Si Si7 0.883359 0.070812 0.296829
O O1 0.904926 0.750000 0.929897
O O2 0.758223 0.975578 0.699266
O O3 0.893391 0.982855 0.025146
O O4 0.000000 0.000000 0.000000
O O5 0.347766 0.750000 0.709758
O O6 0.304190 0.992778 0.554235
O O7 0.309431 0.009458 0.737566
O O8 0.520231 0.965362 0.914959
O O9 0.648878 0.750000 0.466138
O O10 0.524273 0.507296 0.352044
O O11 0.500000 0.500000 0.500000
O O12 0.504844 0.750000 0.598373
O O13 0.688093 0.551724 0.852630
O O14 0.691218 0.750000 0.158718
O O15 0.752805 0.008725 0.168028
O O16 0.130573 0.250000 0.890585
O O17 0.105428 0.526399 0.795840
O O18 0.887703 0.250000 0.313227
O O19 0.000000 0.000000 0.500000
#
# Coordination Sequence:
#
# PCOD8076193 Si02
#       7
#     4   4   4   4   4   4   4
#     4  10  23  42  61  84 118 160 201 246 297 354
#     4  10  21  37  61  93 125 161 201 249 308 365
#     4  11  22  38  58  88 125 161 202 250 304 363
#     4  11  21  36  61  91 125 161 200 249 307 367
#     4  10  21  40  63  89 123 161 202 253 308 365
#     4  10  22  43  64  88 125 162 199 254 312 362
#     4  12  26  43  65  92 121 160 209 259 311 371
#
# _framework density 20.48329
#
# number of rings (size 3 to 8) (size 9 to 14) (size 15 to 20)
#    0.000    1.429    1.429    3.857    0.000    9.143 
#    0.000    2.857    0.000    0.000    0.000    0.000 
#    0.000    0.000    0.000    0.000    0.000    0.000 
#
# Total GULP energy -347339.101061 kJ/mol
# GULP energy per Si atom -12404.967895 kJ/mol
# Density = 2.043667 g / cm^3
# Si number density = 20.483290 Si / 1000 Ang^3
#
#
#
# Elastic Constant Matrix: (Units=GPa)
#
#
# Indices 1 2 3 4 5 6 
#
# 1 151.9017 51.7181 48.3914 0.0000 -16.2406 0.0000
# 2 51.7181 101.9936 47.8255 0.0000 -9.0701 0.0000
# 3 48.3914 47.8255 67.2679 0.0000 -16.5696 0.0000
# 4 0.0000 0.0000 0.0000 33.2739 0.0000 -1.5423
# 5 -16.2406 -9.0701 -16.5696 0.0000 40.4846 0.0000
# 6 0.0000 0.0000 0.0000 -1.5423 0.0000 43.3620
#
#
#
# Elastic Compliance Matrix: (Units=1/GPa)
#
#
# Indices 1 2 3 4 5 6 
#
# 1 0.008929 -0.002323 -0.004468 0.000000 0.001233 0.000000
# 2 -0.002323 0.015356 -0.009596 0.000000 -0.001419 0.000000
# 3 -0.004468 -0.009596 0.026615 0.000000 0.006951 0.000000
# 4 0.000000 0.000000 0.000000 0.030103 0.000000 0.001071
# 5 0.001233 -0.001419 0.006951 0.000000 0.027722 0.000000
# 6 0.000000 0.000000 0.000000 0.001071 0.000000 0.023100
#
#
# Mechanical properties :
#
#
# Convention : Reuss Voigt Hill
#
# Bulk Modulus (GPa) = 55.17093 68.55924 61.86508
# Shear Modulus (GPa) = 29.30106 34.97264 32.13685
#
# Velocity S-wave (km/s) = 3.78628 4.13652 3.96527
# Velocity P-wave (km/s) = 6.79026 7.50719 7.15771
#
# Compressibility (1/GPa) = 0.01812549
#
# Stress axis : x y z
#
# Youngs Moduli (GPa) = 111.98933 65.12152 37.57266
#
# Poissons Ratio (x) = 0.15127 0.16789
# Poissons Ratio (y) = 0.26014 0.36055
# Poissons Ratio (z) = 0.50042 0.62491
#
# Static dielectric constant tensor:
#      x y z
#    x 3.907700 0.000000 0.000230 
#    y 0.000000 3.727170 0.000000 
#    z 0.000230 0.000000 3.494910 
# 
# 
# High freq. dielectric constant tensor:
#      x y z
#    x 1.816920 0.000000 -0.011170 
#    y 0.000000 1.805290 0.000000 
#    z -0.011170 0.000000 1.794820 
# 
# From -- ./inp_files/37926.got.cif
#   From: 2010.06.25/outbox.cif.g09.slc.cpg/sg11_19_cif.got.tgz:37926.got - 2010.06.27 23:14:04.
