data_PCOD8076899
_publ_section_title
;
Structure prediction by ZEFSAII (Michael W. Deem and Ramdas Pophale) SiO2 
 PCOD8076899
Probable space group: P 21/M
;
_chemical_formula_sum "Si O2"
_cell_formula_units_Z 24
_cell_length_a 14.656727
_cell_length_b 9.003382
_cell_length_c 9.285838
_cell_angle_alpha 90.000000
_cell_angle_beta 80.737355
_cell_angle_gamma 90.000000
_cell_volume 1209.382588
_symmetry_space_group_name_H-M "P 21/M"
_symmetry_group_IT_number 11
_symmetry_cell_setting 'monoclinic'
loop_
_space_group_symop_operation_xyz
x,y,z
-x,1/2+y,-z
-x,-y,-z
x,1/2-y,z
loop_
_atom_site_type_symbol
_atom_site_label
_atom_site_fract_x
_atom_site_fract_y
_atom_site_fract_z
Si Si1 0.083545 0.571427 0.067052
Si Si2 0.072667 0.078400 0.379314
Si Si3 0.431312 0.586683 0.418694
Si Si4 0.550383 0.913262 0.109914
Si Si5 0.753188 0.926058 0.146214
Si Si6 0.252096 0.082600 0.525797
O O1 0.075905 0.750000 0.067877
O O2 0.079204 0.512776 0.230592
O O3 0.179554 0.519536 0.972740
O O4 0.000000 0.500000 0.000000
O O5 0.045057 0.250000 0.355767
O O6 0.168487 0.070130 0.438045
O O7 0.000000 0.000000 0.500000
O O8 0.500000 0.500000 0.500000
O O9 0.418730 0.750000 0.487121
O O10 0.474950 0.592216 0.252084
O O11 0.331680 0.513675 0.434750
O O12 0.572148 0.750000 0.044857
O O13 0.648536 0.979814 0.137711
O O14 0.500000 0.000000 0.000000
O O15 0.768046 0.750000 0.116894
O O16 0.775205 0.970157 0.306226
O O17 0.289635 0.250000 0.529687
#
# Coordination Sequence:
#
# PCOD8076899 Si02
#       6
#     4   4   4   4   4   4
#     4  12  26  44  67  95 128 166 210 261 316 380
#     4  11  24  43  69  99 129 165 208 258 317 377
#     4  11  22  39  62  91 124 164 211 258 308 369
#     4  10  23  40  60  88 126 167 210 260 310 368
#     4  10  21  42  65  90 126 166 209 260 316 373
#     4  10  22  41  65  92 125 164 206 257 314 371
#
# _framework density 19.844837999999999
#
# number of rings (size 3 to 8) (size 9 to 14) (size 15 to 20)
#    0.000    1.333    1.667    3.500    2.333    5.333 
#    0.000    0.000    0.000    0.000    0.000    0.000 
#    0.000    0.000    0.000    0.000    0.000    0.000 
#
# Total GULP energy -297597.190353 kJ/mol
# GULP energy per Si atom -12399.882931 kJ/mol
# Density = 1.979967 g / cm^3
# Si number density = 19.844838 Si / 1000 Ang^3
#
#
#
# Elastic Constant Matrix: (Units=GPa)
#
#
# Indices 1 2 3 4 5 6 
#
# 1 102.1101 69.3390 60.3161 0.0000 -9.6035 0.0000
# 2 69.3390 137.9692 67.0918 0.0000 -5.1432 0.0000
# 3 60.3161 67.0918 133.0657 0.0000 2.9436 0.0000
# 4 0.0000 0.0000 0.0000 37.3867 0.0000 -1.0939
# 5 -9.6035 -5.1432 2.9436 0.0000 43.3123 0.0000
# 6 0.0000 0.0000 0.0000 -1.0939 0.0000 38.0139
#
#
#
# Elastic Compliance Matrix: (Units=1/GPa)
#
#
# Indices 1 2 3 4 5 6 
#
# 1 0.017080 -0.006170 -0.004706 0.000000 0.003374 0.000000
# 2 -0.006170 0.011926 -0.003222 0.000000 0.000267 0.000000
# 3 -0.004706 -0.003222 0.011321 0.000000 -0.002195 0.000000
# 4 0.000000 0.000000 0.000000 0.026770 0.000000 0.000770
# 5 0.003374 0.000267 -0.002195 0.000000 0.024017 0.000000
# 6 0.000000 0.000000 0.000000 0.000770 0.000000 0.026328
#
#
# Mechanical properties :
#
#
# Convention : Reuss Voigt Hill
#
# Bulk Modulus (GPa) = 82.43092 85.18207 83.80649
# Shear Modulus (GPa) = 33.40413 35.50244 34.45328
#
# Velocity S-wave (km/s) = 4.10721 4.23425 4.17121
# Velocity P-wave (km/s) = 8.00751 8.18061 8.09452
#
# Compressibility (1/GPa) = 0.01213137
#
# Stress axis : x y z
#
# Youngs Moduli (GPa) = 58.54764 83.85363 88.32846
#
# Poissons Ratio (x) = 0.51735 0.41567
# Poissons Ratio (y) = 0.36122 0.28461
# Poissons Ratio (z) = 0.27552 0.27019
#
# Static dielectric constant tensor:
#      x y z
#    x 3.359590 0.000000 -0.115720 
#    y 0.000000 3.855760 0.000000 
#    z -0.115720 0.000000 3.642870 
# 
# 
# High freq. dielectric constant tensor:
#      x y z
#    x 1.788420 0.000000 -0.000110 
#    y 0.000000 1.778630 0.000000 
#    z -0.000110 0.000000 1.785080 
# 
# From -- ./inp_files/20396.got.cif
#   From: 2010.06.25/outbox.cif.g09.slc.cpg/sg11_11_cif.got.tgz:20396.got - 2010.06.27 23:14:04.
