data_PCOD8076277
_publ_section_title
;
Structure prediction by ZEFSAII (Michael W. Deem and Ramdas Pophale) SiO2 
 PCOD8076277
Probable space group: P 21/M
;
_chemical_formula_sum "Si O2"
_cell_formula_units_Z 28
_cell_length_a 9.242222
_cell_length_b 8.673495
_cell_length_c 29.173547
_cell_angle_alpha 90.000000
_cell_angle_beta 142.347235
_cell_angle_gamma 90.000000
_cell_volume 1428.603766
_symmetry_space_group_name_H-M "P 21/M"
_symmetry_group_IT_number 11
_symmetry_cell_setting 'monoclinic'
loop_
_space_group_symop_operation_xyz
x,y,z
-x,1/2+y,-z
-x,-y,-z
x,1/2-y,z
loop_
_atom_site_type_symbol
_atom_site_label
_atom_site_fract_x
_atom_site_fract_y
_atom_site_fract_z
Si Si1 0.703124 0.567888 0.646216
Si Si2 0.001987 0.567681 0.361370
Si Si3 0.752778 0.425120 0.068614
Si Si4 0.510017 0.933983 0.767090
Si Si5 0.166464 0.568766 0.226887
Si Si6 0.080420 0.421809 0.066038
Si Si7 0.837539 0.068668 0.498438
O O1 0.726738 0.750000 0.659588
O O2 0.829021 0.478471 0.719038
O O3 0.431133 0.513802 0.575819
O O4 0.827456 0.520881 0.630389
O O5 0.032991 0.750000 0.362915
O O6 0.733299 0.519872 0.284523
O O7 0.071818 0.510902 0.429557
O O8 0.733772 0.250000 0.082018
O O9 0.909673 0.521913 0.143483
O O10 0.863299 0.429225 0.046176
O O11 0.500000 0.500000 0.000000
O O12 0.477992 0.750000 0.759386
O O13 0.686772 0.994054 0.851503
O O14 0.621715 0.980711 0.746224
O O15 0.204462 0.750000 0.230697
O O16 0.147975 0.250000 0.069420
O O17 0.000000 0.500000 0.000000
O O18 0.858172 0.250000 0.500532
O O19 0.000000 0.000000 0.500000
#
# Coordination Sequence:
#
# PCOD8076277 Si02
#       7
#     4   4   4   4   4   4   4
#     4  11  23  40  60  85 117 155 192 235 291 348
#     4  11  23  39  59  88 119 150 191 241 289 340
#     4  10  21  38  58  84 116 152 193 239 290 348
#     4  10  21  39  59  83 115 153 193 236 287 349
#     4  11  22  38  60  86 114 150 195 244 291 344
#     4   9  20  36  56  81 111 145 186 231 279 334
#     4  10  23  40  61  87 116 151 193 236 285 343
#
# _framework density 19.599557000000001
#
# number of rings (size 3 to 8) (size 9 to 14) (size 15 to 20)
#    0.000    1.714    0.000    5.143    0.000    9.143 
#    0.000    2.857    0.000    0.000    0.000    0.000 
#    0.000    0.000    0.000    0.000    0.000    0.000 
#
# Total GULP energy -347287.528095 kJ/mol
# GULP energy per Si atom -12403.126003 kJ/mol
# Density = 1.955495 g / cm^3
# Si number density = 19.599557 Si / 1000 Ang^3
#
#
#
# Elastic Constant Matrix: (Units=GPa)
#
#
# Indices 1 2 3 4 5 6 
#
# 1 108.9153 18.1123 72.3275 0.0000 3.1441 0.0000
# 2 18.1123 59.9616 39.1421 0.0000 -1.0805 0.0000
# 3 72.3275 39.1421 128.4878 0.0000 -1.0623 0.0000
# 4 0.0000 0.0000 0.0000 32.1030 0.0000 -1.0760
# 5 3.1441 -1.0805 -1.0623 0.0000 42.9819 0.0000
# 6 0.0000 0.0000 0.0000 -1.0760 0.0000 39.0044
#
#
#
# Elastic Compliance Matrix: (Units=1/GPa)
#
#
# Indices 1 2 3 4 5 6 
#
# 1 0.014800 0.001188 -0.008704 0.000000 -0.001268 0.000000
# 2 0.001188 0.020918 -0.007039 0.000000 0.000265 0.000000
# 3 -0.008704 -0.007039 0.014834 0.000000 0.000826 0.000000
# 4 0.000000 0.000000 0.000000 0.031179 0.000000 0.000860
# 5 -0.001268 0.000265 0.000826 0.000000 0.023385 0.000000
# 6 0.000000 0.000000 0.000000 0.000860 0.000000 0.025662
#
#
# Mechanical properties :
#
#
# Convention : Reuss Voigt Hill
#
# Bulk Modulus (GPa) = 46.63588 61.83650 54.23619
# Shear Modulus (GPa) = 29.93384 34.00337 31.96860
#
# Velocity S-wave (km/s) = 3.91227 4.16974 4.04305
# Velocity P-wave (km/s) = 6.65236 7.40275 7.03756
#
# Compressibility (1/GPa) = 0.02144272
#
# Stress axis : x y z
#
# Youngs Moduli (GPa) = 67.56580 47.80514 67.41490
#
# Poissons Ratio (x) = -0.05680 0.58676
# Poissons Ratio (y) = -0.08028 0.47454
# Poissons Ratio (z) = 0.58808 0.33651
#
# Static dielectric constant tensor:
#      x y z
#    x 3.450940 0.000000 -0.010680 
#    y 0.000000 3.566880 0.000000 
#    z -0.010680 0.000000 3.817690 
# 
# 
# High freq. dielectric constant tensor:
#      x y z
#    x 1.765020 0.000000 0.001100 
#    y 0.000000 1.769490 0.000000 
#    z 0.001100 0.000000 1.779140 
# 
# From -- ./inp_files/70908.got.cif
#   From: 2010.06.25/outbox.cif.g09.slc.cpg/sg11_36_cif.got.tgz:70908.got - 2010.06.27 23:14:04.
