data_PCOD8076893
_publ_section_title
;
Structure prediction by ZEFSAII (Michael W. Deem and Ramdas Pophale) SiO2 
 PCOD8076893
Probable space group: P 21/M
;
_chemical_formula_sum "Si O2"
_cell_formula_units_Z 26
_cell_length_a 12.683831
_cell_length_b 18.269531
_cell_length_c 9.700913
_cell_angle_alpha 90.000000
_cell_angle_beta 146.136670
_cell_angle_gamma 90.000000
_cell_volume 1252.599693
_symmetry_space_group_name_H-M "P 21/M"
_symmetry_group_IT_number 11
_symmetry_cell_setting 'monoclinic'
loop_
_space_group_symop_operation_xyz
x,y,z
-x,1/2+y,-z
-x,-y,-z
x,1/2-y,z
loop_
_atom_site_type_symbol
_atom_site_label
_atom_site_fract_x
_atom_site_fract_y
_atom_site_fract_z
Si Si1 0.267773 0.482824 0.615482
Si Si2 0.108172 0.250000 0.663545
Si Si3 0.887782 0.250000 0.706730
Si Si4 0.001330 0.622117 0.971214
Si Si5 0.611832 0.110502 0.060541
Si Si6 0.462880 0.750000 0.836097
Si Si7 0.975878 0.366937 0.305822
Si Si8 0.709097 0.000545 0.667336
O O1 0.291174 0.543177 0.756294
O O2 0.298610 0.520779 0.502066
O O3 0.058002 0.449487 0.401133
O O4 0.411970 0.414550 0.783497
O O5 0.963704 0.250000 0.633157
O O6 0.079120 0.320296 0.535868
O O7 0.315272 0.250000 0.957327
O O8 0.956880 0.178264 0.861336
O O9 0.659013 0.250000 0.438810
O O10 0.170511 0.564273 0.130142
O O11 0.983951 0.664187 0.805087
O O12 0.808313 0.578600 0.799070
O O13 0.587811 0.178554 0.133344
O O14 0.750807 0.132404 0.086802
O O15 0.500000 0.000000 0.500000
#
# Coordination Sequence:
#
# PCOD8076893 Si02
#       8
#     4   2   2   4   4   2   4   4
#     4  10  22  36  62  94 129 157 217 258 313 377
#     4  12  25  41  65  91 127 170 214 266 318 380
#     4  12  25  44  63  94 131 171 212 268 326 382
#     4  10  24  41  67  94 131 170 216 263 322 388
#     4  11  21  38  61  95 122 169 201 266 314 378
#     4  12  24  41  62  89 130 165 218 260 328 376
#     4  11  21  42  64  92 122 168 211 259 317 377
#     4  10  21  42  64  95 131 173 211 267 319 386
#
# _framework density 20.756830999999998
#
# number of rings (size 3 to 8) (size 9 to 14) (size 15 to 20)
#    0.000    1.231    3.077    2.769    0.000    2.462 
#    2.769    0.000    0.000    0.000    0.000    0.000 
#    0.000    0.000    0.000    0.000    0.000    0.000 
#
# Total GULP energy -322426.829487 kJ/mol
# GULP energy per Si atom -12401.031903 kJ/mol
# Density = 2.070959 g / cm^3
# Si number density = 20.756831 Si / 1000 Ang^3
#
#
#
# Elastic Constant Matrix: (Units=GPa)
#
#
# Indices 1 2 3 4 5 6 
#
# 1 83.8139 24.6109 37.1624 0.0000 4.9881 0.0000
# 2 24.6109 75.8582 27.1322 0.0000 -0.7309 0.0000
# 3 37.1624 27.1322 104.4260 0.0000 -2.5957 0.0000
# 4 0.0000 0.0000 0.0000 48.5408 0.0000 8.9064
# 5 4.9881 -0.7309 -2.5957 0.0000 44.2903 0.0000
# 6 0.0000 0.0000 0.0000 8.9064 0.0000 42.2190
#
#
#
# Elastic Compliance Matrix: (Units=1/GPa)
#
#
# Indices 1 2 3 4 5 6 
#
# 1 0.015027 -0.003268 -0.004549 0.000000 -0.002013 0.000000
# 2 -0.003268 0.015244 -0.002786 0.000000 0.000456 0.000000
# 3 -0.004549 -0.002786 0.011948 0.000000 0.001167 0.000000
# 4 0.000000 0.000000 0.000000 0.021431 0.000000 -0.004521
# 5 -0.002013 0.000456 0.001167 0.000000 0.022881 0.000000
# 6 0.000000 0.000000 0.000000 -0.004521 0.000000 0.024640
#
#
# Mechanical properties :
#
#
# Convention : Reuss Voigt Hill
#
# Bulk Modulus (GPa) = 47.58963 49.10103 48.34533
# Shear Modulus (GPa) = 35.87292 38.68953 37.28122
#
# Velocity S-wave (km/s) = 4.16173 4.32202 4.24263
# Velocity P-wave (km/s) = 6.78751 6.97232 6.88053
#
# Compressibility (1/GPa) = 0.02101298
#
# Stress axis : x y z
#
# Youngs Moduli (GPa) = 66.54479 65.60093 83.69646
#
# Poissons Ratio (x) = 0.21437 0.38072
# Poissons Ratio (y) = 0.21746 0.23321
# Poissons Ratio (z) = 0.30270 0.18279
#
# Static dielectric constant tensor:
#      x y z
#    x 3.637820 0.000000 0.051000 
#    y 0.000000 3.632890 0.000000 
#    z 0.051000 0.000000 4.052730 
# 
# 
# High freq. dielectric constant tensor:
#      x y z
#    x 1.806820 0.000000 0.000950 
#    y 0.000000 1.810110 0.000000 
#    z 0.000950 0.000000 1.826750 
# 
# From -- ./inp_files/19490.got.cif
#   From: 2010.06.25/outbox.cif.g09.slc.cpg/sg11_10_cif.got.tgz:19490.got - 2010.06.27 23:14:04.
