data_PCOD8076400
_publ_section_title
;
Structure prediction by ZEFSAII (Michael W. Deem and Ramdas Pophale) SiO2 
 PCOD8076400
Probable space group: P 21/M
;
_chemical_formula_sum "Si O2"
_cell_formula_units_Z 28
_cell_length_a 12.374111
_cell_length_b 15.114945
_cell_length_c 8.454405
_cell_angle_alpha 90.000000
_cell_angle_beta 59.965462
_cell_angle_gamma 90.000000
_cell_volume 1368.935566
_symmetry_space_group_name_H-M "P 21/M"
_symmetry_group_IT_number 11
_symmetry_cell_setting 'monoclinic'
loop_
_space_group_symop_operation_xyz
x,y,z
-x,1/2+y,-z
-x,-y,-z
x,1/2-y,z
loop_
_atom_site_type_symbol
_atom_site_label
_atom_site_fract_x
_atom_site_fract_y
_atom_site_fract_z
Si Si1 0.984304 0.148922 0.897210
Si Si2 0.502245 0.937694 0.846095
Si Si3 0.276322 0.350157 0.165007
Si Si4 0.098698 0.445187 0.519711
Si Si5 0.754569 0.646403 0.158493
Si Si6 0.710377 0.355824 0.184304
Si Si7 0.673655 0.000430 0.458662
O O1 0.959090 0.250000 0.878437
O O2 0.022436 0.106986 0.705482
O O3 0.094813 0.134568 0.943158
O O4 0.852827 0.110504 0.056603
O O5 0.601843 0.862072 0.816705
O O6 0.371141 0.889073 0.906500
O O7 0.548735 0.990741 0.656135
O O8 0.500000 0.000000 0.000000
O O9 0.253707 0.250000 0.138820
O O10 0.156649 0.379827 0.349272
O O11 0.287023 0.393711 0.981573
O O12 0.205975 0.506984 0.515871
O O13 0.000000 0.500000 0.500000
O O14 0.718704 0.750000 0.214775
O O15 0.685920 0.586531 0.339148
O O16 0.697664 0.250000 0.217495
O O17 0.660925 0.406907 0.375655
#
# Coordination Sequence:
#
# PCOD8076400 Si02
#       7
#     4   4   4   4   4   4   4
#     4   9  20  37  57  86 122 158 195 241 301 366
#     4  11  24  42  63  86 119 155 208 255 304 354
#     4  10  21  38  61  88 119 157 201 252 299 353
#     4  10  22  34  59  90 121 157 197 245 306 357
#     4   9  19  37  64  93 120 155 202 254 301 352
#     4  11  24  41  62  88 124 165 202 245 303 366
#     4  10  23  40  62  88 116 161 204 253 298 358
#
# _framework density 20.453847
#
# number of rings (size 3 to 8) (size 9 to 14) (size 15 to 20)
#    0.000    2.000    0.000    2.143    8.000    5.143 
#    0.000    3.571    0.000    0.000    0.000    0.000 
#    0.000    0.000    0.000    0.000    0.000    0.000 
#
# Total GULP energy -347135.862313 kJ/mol
# GULP energy per Si atom -12397.709368 kJ/mol
# Density = 2.040729 g / cm^3
# Si number density = 20.453847 Si / 1000 Ang^3
#
#
#
# Elastic Constant Matrix: (Units=GPa)
#
#
# Indices 1 2 3 4 5 6 
#
# 1 67.3342 19.5581 20.9923 0.0000 -1.0520 0.0000
# 2 19.5581 73.6933 40.4087 0.0000 3.2107 0.0000
# 3 20.9923 40.4087 109.0547 0.0000 3.6768 0.0000
# 4 0.0000 0.0000 0.0000 23.4449 0.0000 8.4185
# 5 -1.0520 3.2107 3.6768 0.0000 34.5096 0.0000
# 6 0.0000 0.0000 0.0000 8.4185 0.0000 29.2893
#
#
#
# Elastic Compliance Matrix: (Units=1/GPa)
#
#
# Indices 1 2 3 4 5 6 
#
# 1 0.016448 -0.003332 -0.001966 0.000000 0.001021 0.000000
# 2 -0.003332 0.017734 -0.005892 0.000000 -0.001124 0.000000
# 3 -0.001966 -0.005892 0.011757 0.000000 -0.000764 0.000000
# 4 0.000000 0.000000 0.000000 0.047562 0.000000 -0.013670
# 5 0.001021 -0.001124 -0.000764 0.000000 0.029195 0.000000
# 6 0.000000 0.000000 0.000000 -0.013670 0.000000 0.038071
#
#
# Mechanical properties :
#
#
# Convention : Reuss Voigt Hill
#
# Bulk Modulus (GPa) = 42.44542 45.77781 44.11161
# Shear Modulus (GPa) = 26.17822 28.72363 27.45093
#
# Velocity S-wave (km/s) = 3.58141 3.75148 3.66743
# Velocity P-wave (km/s) = 6.15620 6.41829 6.28861
#
# Compressibility (1/GPa) = 0.02355967
#
# Stress axis : x y z
#
# Youngs Moduli (GPa) = 60.79798 56.39016 85.05556
#
# Poissons Ratio (x) = 0.18788 0.16722
# Poissons Ratio (y) = 0.20256 0.50112
# Poissons Ratio (z) = 0.11953 0.33223
#
# Static dielectric constant tensor:
#      x y z
#    x 4.233910 0.000000 0.030780 
#    y 0.000000 3.657050 0.000000 
#    z 0.030780 0.000000 3.668440 
# 
# 
# High freq. dielectric constant tensor:
#      x y z
#    x 1.816980 0.000000 0.004330 
#    y 0.000000 1.791390 0.000000 
#    z 0.004330 0.000000 1.800630 
# 
# From -- ./inp_files/17718.got.cif
#   From: 2010.06.25/outbox.cif.g09.slc.cpg/sg11_9_cif.got.tgz:17718.got - 2010.06.27 23:14:04.
