data_PCOD8076416
_publ_section_title
;
Structure prediction by ZEFSAII (Michael W. Deem and Ramdas Pophale) SiO2 
 PCOD8076416
Probable space group: P 21/M
;
_chemical_formula_sum "Si O2"
_cell_formula_units_Z 32
_cell_length_a 12.168043
_cell_length_b 8.656069
_cell_length_c 31.352084
_cell_angle_alpha 90.000000
_cell_angle_beta 151.994816
_cell_angle_gamma 90.000000
_cell_volume 1550.568810
_symmetry_space_group_name_H-M "P 21/M"
_symmetry_group_IT_number 11
_symmetry_cell_setting 'monoclinic'
loop_
_space_group_symop_operation_xyz
x,y,z
-x,1/2+y,-z
-x,-y,-z
x,1/2-y,z
loop_
_atom_site_type_symbol
_atom_site_label
_atom_site_fract_x
_atom_site_fract_y
_atom_site_fract_z
Si Si1 0.189990 0.073290 0.507993
Si Si2 0.502739 0.066482 0.082419
Si Si3 0.908582 0.432935 0.104439
Si Si4 0.685014 0.077157 0.362662
Si Si5 0.476739 0.434717 0.444683
Si Si6 0.702283 0.072719 0.817954
Si Si7 0.983769 0.567367 0.764005
Si Si8 0.256217 0.068679 0.083285
O O1 0.273014 0.250000 0.544169
O O2 0.908912 0.067972 0.408369
O O3 0.258168 0.959391 0.569276
O O4 0.299615 0.004381 0.502818
O O5 0.487949 0.250000 0.072343
O O6 0.772674 0.010687 0.173525
O O7 0.397044 0.005227 0.090818
O O8 0.357791 0.990964 0.993585
O O9 0.915804 0.250000 0.104224
O O10 0.015437 0.490212 0.186395
O O11 0.054032 0.505326 0.115453
O O12 0.576645 0.250000 0.323918
O O13 0.497164 0.949886 0.285262
O O14 0.500000 0.500000 0.500000
O O15 0.486137 0.250000 0.448799
O O16 0.239385 0.495264 0.339402
O O17 0.743890 0.250000 0.843126
O O18 0.609682 0.983171 0.828062
O O19 0.971745 0.750000 0.759319
O O20 0.238565 0.250000 0.074105
O O21 0.000000 0.000000 0.000000
#
# Coordination Sequence:
#
# PCOD8076416 Si02
#       8
#     4   4   4   4   4   4   4   4
#     4  10  21  39  63  90 121 156 197 247 306 369
#     4  10  21  39  61  85 117 157 199 243 297 356
#     4  11  21  36  61  89 120 156 197 246 301 359
#     4  10  21  38  61  90 122 156 197 249 307 363
#     4  11  23  41  64  88 121 162 205 255 308 365
#     4  12  24  37  57  86 121 160 204 249 294 353
#     4   9  21  40  61  87 117 154 197 243 299 362
#     4  11  22  37  58  82 116 157 196 239 292 352
#
# _framework density 20.637587
#
# number of rings (size 3 to 8) (size 9 to 14) (size 15 to 20)
#    0.000    1.500    1.250    4.125    0.000    4.000 
#    0.000    6.250    0.000    0.000    0.000    0.000 
#    0.000    0.000    0.000    0.000    0.000    0.000 
#
# Total GULP energy -396782.708974 kJ/mol
# GULP energy per Si atom -12399.459655 kJ/mol
# Density = 2.059061 g / cm^3
# Si number density = 20.637587 Si / 1000 Ang^3
#
#
#
# Elastic Constant Matrix: (Units=GPa)
#
#
# Indices 1 2 3 4 5 6 
#
# 1 132.0852 35.9722 34.3048 0.0000 -1.8313 0.0000
# 2 35.9722 73.5266 22.6991 0.0000 3.9013 0.0000
# 3 34.3048 22.6991 79.6744 0.0000 -1.5710 0.0000
# 4 0.0000 0.0000 0.0000 34.1852 0.0000 -2.1233
# 5 -1.8313 3.9013 -1.5710 0.0000 27.2673 0.0000
# 6 0.0000 0.0000 0.0000 -2.1233 0.0000 25.4558
#
#
#
# Elastic Compliance Matrix: (Units=1/GPa)
#
#
# Indices 1 2 3 4 5 6 
#
# 1 0.009365 -0.003723 -0.002952 0.000000 0.000992 0.000000
# 2 -0.003723 0.016548 -0.003167 0.000000 -0.002800 0.000000
# 3 -0.002952 -0.003167 0.014746 0.000000 0.001104 0.000000
# 4 0.000000 0.000000 0.000000 0.029405 0.000000 0.002453
# 5 0.000992 -0.002800 0.001104 0.000000 0.037205 0.000000
# 6 0.000000 0.000000 0.000000 0.002453 0.000000 0.039488
#
#
# Mechanical properties :
#
#
# Convention : Reuss Voigt Hill
#
# Bulk Modulus (GPa) = 47.67408 52.35980 50.01694
# Shear Modulus (GPa) = 28.82953 30.20234 29.51594
#
# Velocity S-wave (km/s) = 3.74162 3.82967 3.78591
# Velocity P-wave (km/s) = 6.46661 6.70681 6.58781
#
# Compressibility (1/GPa) = 0.02097576
#
# Stress axis : x y z
#
# Youngs Moduli (GPa) = 106.77741 60.42942 67.81455
#
# Poissons Ratio (x) = 0.22499 0.20019
# Poissons Ratio (y) = 0.39755 0.21475
# Poissons Ratio (z) = 0.31521 0.19136
#
# Static dielectric constant tensor:
#      x y z
#    x 4.030140 0.000000 0.008150 
#    y 0.000000 3.615600 0.000000 
#    z 0.008150 0.000000 3.923250 
# 
# 
# High freq. dielectric constant tensor:
#      x y z
#    x 1.815590 0.000000 0.000640 
#    y 0.000000 1.799420 0.000000 
#    z 0.000640 0.000000 1.808540 
# 
# From -- ./inp_files/73198.got.cif
#   From: 2010.06.25/outbox.cif.g09.slc.cpg/sg11_37_cif.got.tgz:73198.got - 2010.06.27 23:14:04.
