data_PCOD8076548
_publ_section_title
;
Structure prediction by ZEFSAII (Michael W. Deem and Ramdas Pophale) SiO2 
 PCOD8076548
Probable space group: P 21/M
;
_chemical_formula_sum "Si O2"
_cell_formula_units_Z 28
_cell_length_a 14.980299
_cell_length_b 8.614089
_cell_length_c 10.876317
_cell_angle_alpha 90.000000
_cell_angle_beta 113.828737
_cell_angle_gamma 90.000000
_cell_volume 1283.859524
_symmetry_space_group_name_H-M "P 21/M"
_symmetry_group_IT_number 11
_symmetry_cell_setting 'monoclinic'
loop_
_space_group_symop_operation_xyz
x,y,z
-x,1/2+y,-z
-x,-y,-z
x,1/2-y,z
loop_
_atom_site_type_symbol
_atom_site_label
_atom_site_fract_x
_atom_site_fract_y
_atom_site_fract_z
Si Si1 0.465869 0.067311 0.849814
Si Si2 0.254830 0.932870 0.719192
Si Si3 0.059053 0.078021 0.189641
Si Si4 0.248652 0.926363 0.201808
Si Si5 0.846827 0.429202 0.094615
Si Si6 0.092524 0.078675 0.492443
Si Si7 0.446398 0.068798 0.350956
O O1 0.482347 0.250000 0.863745
O O2 0.354174 0.026498 0.765076
O O3 0.524143 0.004745 0.763487
O O4 0.500000 0.000000 0.000000
O O5 0.277601 0.750000 0.740445
O O6 0.193084 0.999049 0.800637
O O7 0.189268 0.973229 0.564605
O O8 0.070389 0.250000 0.134943
O O9 0.071621 0.095822 0.339825
O O10 0.951116 0.000931 0.105580
O O11 0.140864 0.960573 0.189954
O O12 0.277029 0.750000 0.250217
O O13 0.330710 0.038586 0.303895
O O14 0.240977 0.951757 0.050750
O O15 0.871487 0.250000 0.131965
O O16 0.108879 0.250000 0.559196
O O17 0.000000 0.000000 0.500000
O O18 0.468837 0.250000 0.359363
O O19 0.500000 0.000000 0.500000
#
# Coordination Sequence:
#
# PCOD8076548 Si02
#       7
#     4   4   4   4   4   4   4
#     4  12  26  47  73 105 139 177 226 282 342 408
#     4  11  22  40  66  95 130 172 216 268 330 392
#     4  10  21  39  60  87 127 172 213 260 318 384
#     4  11  23  40  65  95 127 167 215 267 324 393
#     4   9  19  38  62  91 129 170 210 259 315 375
#     4  11  22  38  60  88 126 169 216 268 325 390
#     4  12  27  49  73  99 133 177 228 287 347 409
#
# _framework density 21.809239999999999
#
# number of rings (size 3 to 8) (size 9 to 14) (size 15 to 20)
#    0.000    1.143    1.429    5.143    2.000    2.286 
#    0.000    2.857    0.000    0.000    0.000    0.000 
#    0.000    0.000    0.000    0.000    0.000    0.000 
#
# Total GULP energy -347151.294678 kJ/mol
# GULP energy per Si atom -12398.260524 kJ/mol
# Density = 2.175960 g / cm^3
# Si number density = 21.809240 Si / 1000 Ang^3
#
#
#
# Elastic Constant Matrix: (Units=GPa)
#
#
# Indices 1 2 3 4 5 6 
#
# 1 94.6320 28.6492 28.2190 0.0000 14.5137 0.0000
# 2 28.6492 122.8785 43.7223 0.0000 -2.2040 0.0000
# 3 28.2190 43.7223 109.5284 0.0000 17.3955 0.0000
# 4 0.0000 0.0000 0.0000 32.8832 0.0000 2.6434
# 5 14.5137 -2.2040 17.3955 0.0000 37.9158 0.0000
# 6 0.0000 0.0000 0.0000 2.6434 0.0000 34.2940
#
#
#
# Elastic Compliance Matrix: (Units=1/GPa)
#
#
# Indices 1 2 3 4 5 6 
#
# 1 0.012404 -0.002407 -0.001573 0.000000 -0.004166 0.000000
# 2 -0.002407 0.010172 -0.003970 0.000000 0.003334 0.000000
# 3 -0.001573 -0.003970 0.011930 0.000000 -0.005102 0.000000
# 4 0.000000 0.000000 0.000000 0.030600 0.000000 -0.002359
# 5 -0.004166 0.003334 -0.005102 0.000000 0.030504 0.000000
# 6 0.000000 0.000000 0.000000 -0.002359 0.000000 0.029341
#
#
# Mechanical properties :
#
#
# Convention : Reuss Voigt Hill
#
# Bulk Modulus (GPa) = 53.74578 58.69110 56.21844
# Shear Modulus (GPa) = 34.00129 36.11517 35.05823
#
# Velocity S-wave (km/s) = 3.95274 4.07376 4.01371
# Velocity P-wave (km/s) = 6.74754 7.00692 6.87845
#
# Compressibility (1/GPa) = 0.01860611
#
# Stress axis : x y z
#
# Youngs Moduli (GPa) = 80.61885 98.31294 83.81961
#
# Poissons Ratio (x) = 0.23663 0.13187
# Poissons Ratio (y) = 0.19404 0.33274
# Poissons Ratio (z) = 0.12684 0.39028
#
# Static dielectric constant tensor:
#      x y z
#    x 3.940360 0.000000 0.227620 
#    y 0.000000 4.891240 0.000000 
#    z 0.227620 0.000000 3.995290 
# 
# 
# High freq. dielectric constant tensor:
#      x y z
#    x 1.863540 0.000000 0.007890 
#    y 0.000000 1.849870 0.000000 
#    z 0.007890 0.000000 1.872580 
# 
# From -- ./inp_files/38421.got.cif
#   From: 2010.06.25/outbox.cif.g09.slc.cpg/sg11_20_cif.got.tgz:38421.got - 2010.06.27 23:14:04.
