data_PCOD8076068
_publ_section_title
;
Structure prediction by ZEFSAII (Michael W. Deem and Ramdas Pophale) SiO2 
 PCOD8076068
Probable space group: P 21/M
;
_chemical_formula_sum "Si O2"
_cell_formula_units_Z 28
_cell_length_a 29.201156
_cell_length_b 8.885067
_cell_length_c 9.327544
_cell_angle_alpha 90.000000
_cell_angle_beta 142.993246
_cell_angle_gamma 90.000000
_cell_volume 1456.662740
_symmetry_space_group_name_H-M "P 21/M"
_symmetry_group_IT_number 11
_symmetry_cell_setting 'monoclinic'
loop_
_space_group_symop_operation_xyz
x,y,z
-x,1/2+y,-z
-x,-y,-z
x,1/2-y,z
loop_
_atom_site_type_symbol
_atom_site_label
_atom_site_fract_x
_atom_site_fract_y
_atom_site_fract_z
Si Si1 0.059805 0.577510 0.749979
Si Si2 0.233186 0.575424 0.179288
Si Si3 0.357006 0.071358 0.297287
Si Si4 0.233189 0.424579 0.486657
Si Si5 0.642983 0.428642 0.012226
Si Si6 0.500003 0.926482 0.155011
Si Si7 0.940191 0.577507 0.950934
O O1 0.037450 0.750000 0.709760
O O2 0.050301 0.499986 0.875750
O O3 0.000000 0.500000 0.500000
O O4 0.146065 0.557500 0.910890
O O5 0.256718 0.750000 0.250154
O O6 0.280298 0.492733 0.174162
O O7 0.248575 0.499981 0.371430
O O8 0.350969 0.250000 0.266106
O O9 0.426236 0.021740 0.572305
O O10 0.370668 0.000010 0.176671
O O11 0.256716 0.250000 0.533475
O O12 0.280307 0.507296 0.727334
O O13 0.146070 0.442527 0.319456
O O14 0.649008 0.250000 0.011186
O O15 0.573749 0.478272 0.941068
O O16 0.499996 0.750000 0.131092
O O17 0.500000 0.000000 0.000000
O O18 0.962538 0.750000 0.022446
O O19 0.000000 0.500000 0.000000
#
# Coordination Sequence:
#
# PCOD8076068 Si02
#       7
#     4   4   4   4   4   4   4
#     4  10  21  37  58  83 113 148 188 233 282 335
#     4  10  21  38  59  84 113 148 189 233 280 335
#     4  11  23  39  59  85 116 150 188 233 282 332
#     4  10  21  38  59  84 113 148 189 233 280 335
#     4  11  23  39  59  85 116 150 188 233 282 332
#     4  10  23  40  60  86 114 148 189 230 277 332
#     4  10  21  37  58  83 113 148 188 233 282 335
#
# _framework density 19.222021999999999
#
# number of rings (size 3 to 8) (size 9 to 14) (size 15 to 20)
#    0.000    1.714    0.000    3.857    0.000    9.143 
#    0.000    0.000    0.000    0.000    0.000    0.000 
#    0.000    0.000    0.000    0.000    0.000    0.000 
#
# Total GULP energy -347292.609955 kJ/mol
# GULP energy per Si atom -12403.307498 kJ/mol
# Density = 1.917827 g / cm^3
# Si number density = 19.222022 Si / 1000 Ang^3
#
#
#
# Elastic Constant Matrix: (Units=GPa)
#
#
# Indices 1 2 3 4 5 6 
#
# 1 142.2121 78.0775 68.7631 0.0000 0.2817 0.0000
# 2 78.0775 140.0810 77.5672 0.0000 -0.7873 0.0000
# 3 68.7631 77.5672 138.6819 0.0000 -6.2700 0.0000
# 4 0.0000 0.0000 0.0000 36.6061 0.0000 -4.8195
# 5 0.2817 -0.7873 -6.2700 0.0000 25.3921 0.0000
# 6 0.0000 0.0000 0.0000 -4.8195 0.0000 39.3829
#
#
#
# Elastic Compliance Matrix: (Units=1/GPa)
#
#
# Indices 1 2 3 4 5 6 
#
# 1 0.010908 -0.004441 -0.002969 0.000000 -0.000992 0.000000
# 2 -0.004441 0.012181 -0.004644 0.000000 -0.000720 0.000000
# 3 -0.002969 -0.004644 0.011403 0.000000 0.002705 0.000000
# 4 0.000000 0.000000 0.000000 0.027765 0.000000 0.003398
# 5 -0.000992 -0.000720 0.002705 0.000000 0.040039 0.000000
# 6 0.000000 0.000000 0.000000 0.003398 0.000000 0.025808
#
#
# Mechanical properties :
#
#
# Convention : Reuss Voigt Hill
#
# Bulk Modulus (GPa) = 96.30673 96.64341 96.47507
# Shear Modulus (GPa) = 32.11866 33.38069 32.74967
#
# Velocity S-wave (km/s) = 4.09214 4.17176 4.13214
# Velocity P-wave (km/s) = 8.51695 8.57854 8.54780
#
# Compressibility (1/GPa) = 0.01038349
#
# Stress axis : x y z
#
# Youngs Moduli (GPa) = 91.67870 82.09211 87.69887
#
# Poissons Ratio (x) = 0.36457 0.26040
# Poissons Ratio (y) = 0.40715 0.40726
# Poissons Ratio (z) = 0.27222 0.38122
#
# Static dielectric constant tensor:
#      x y z
#    x 3.546320 0.000000 0.037200 
#    y 0.000000 3.705010 0.000000 
#    z 0.037200 0.000000 3.567560 
# 
# 
# High freq. dielectric constant tensor:
#      x y z
#    x 1.754640 0.000000 0.004800 
#    y 0.000000 1.765200 0.000000 
#    z 0.004800 0.000000 1.757410 
# 
# From -- ./inp_files/28584.got.cif
#   From: 2010.06.25/outbox.cif.g09.slc.cpg/sg11_15_cif.got.tgz:28584.got - 2010.06.27 23:14:04.
