data_PCOD8076036
_publ_section_title
;
Structure prediction by ZEFSAII (Michael W. Deem and Ramdas Pophale) SiO2 
 PCOD8076036
Probable space group: P 21/M
;
_chemical_formula_sum "Si O2"
_cell_formula_units_Z 32
_cell_length_a 8.916639
_cell_length_b 20.064499
_cell_length_c 12.913512
_cell_angle_alpha 90.000000
_cell_angle_beta 133.668848
_cell_angle_gamma 90.000000
_cell_volume 1671.159733
_symmetry_space_group_name_H-M "P 21/M"
_symmetry_group_IT_number 11
_symmetry_cell_setting 'monoclinic'
loop_
_space_group_symop_operation_xyz
x,y,z
-x,1/2+y,-z
-x,-y,-z
x,1/2-y,z
loop_
_atom_site_type_symbol
_atom_site_label
_atom_site_fract_x
_atom_site_fract_y
_atom_site_fract_z
Si Si1 0.487313 0.560727 0.915401
Si Si2 0.690993 0.325627 0.614224
Si Si3 0.168056 0.827413 0.092491
Si Si4 0.962546 0.674373 0.385777
Si Si5 0.835170 0.057558 0.409970
Si Si6 0.484771 0.442442 0.409970
Si Si7 0.156510 0.439273 0.084599
Si Si8 0.483074 0.172587 0.907509
O O1 0.267417 0.556822 0.752040
O O2 0.677395 0.556648 0.927395
O O3 0.500000 0.500000 0.000000
O O4 0.493792 0.630933 0.977053
O O5 0.609621 0.250000 0.568398
O O6 0.725770 0.347684 0.748833
O O7 0.513374 0.371248 0.479503
O O8 0.908748 0.334367 0.658747
O O9 0.104731 0.750000 0.062827
O O10 0.328904 0.844715 0.078904
O O11 0.960313 0.869067 0.977052
O O12 0.972826 0.750000 0.431603
O O13 0.728103 0.652316 0.251167
O O14 0.054368 0.628752 0.520497
O O15 0.663083 0.044337 0.413083
O O16 0.000000 0.000000 0.500000
O O17 0.500000 0.500000 0.500000
O O18 0.263337 0.443177 0.247960
O O19 0.000000 0.500000 0.000000
O O20 0.479078 0.250000 0.937173
#
# Coordination Sequence:
#
# PCOD8076036 Si02
#       8
#     4   4   4   4   4   4   4   4
#     4  11  23  38  57  82 112 146 185 228 274 325
#     4   9  18  35  58  81 106 139 179 222 270 323
#     4  10  21  37  57  83 114 146 182 224 270 323
#     4   9  18  35  58  81 106 139 179 222 270 323
#     4  10  22  37  55  80 108 140 179 225 273 323
#     4  10  22  37  55  80 108 140 179 225 273 323
#     4  11  23  38  57  82 112 146 185 228 274 325
#     4  10  21  37  57  83 114 146 182 224 270 323
#
# _framework density 19.148378999999998
#
# number of rings (size 3 to 8) (size 9 to 14) (size 15 to 20)
#    0.000    2.000    0.000    3.000    0.000    9.500 
#    0.000    2.500    0.000    3.000    0.000    0.000 
#    0.000    0.000    0.000    0.000    0.000    0.000 
#
# Total GULP energy -396933.747448 kJ/mol
# GULP energy per Si atom -12404.179608 kJ/mol
# Density = 1.910480 g / cm^3
# Si number density = 19.148379 Si / 1000 Ang^3
#
#
#
# Elastic Constant Matrix: (Units=GPa)
#
#
# Indices 1 2 3 4 5 6 
#
# 1 68.2709 47.6039 59.2675 0.0000 3.5634 0.0000
# 2 47.6039 116.5295 93.6332 0.0000 3.1956 0.0000
# 3 59.2675 93.6332 180.3787 0.0000 4.2195 0.0000
# 4 0.0000 0.0000 0.0000 41.6637 0.0000 0.3949
# 5 3.5634 3.1956 4.2195 0.0000 30.2117 0.0000
# 6 0.0000 0.0000 0.0000 0.3949 0.0000 35.9749
#
#
#
# Elastic Compliance Matrix: (Units=1/GPa)
#
#
# Indices 1 2 3 4 5 6 
#
# 1 0.022472 -0.005550 -0.004469 0.000000 -0.001439 0.000000
# 2 -0.005550 0.016100 -0.006531 0.000000 -0.000136 0.000000
# 3 -0.004469 -0.006531 0.010408 0.000000 -0.000236 0.000000
# 4 0.000000 0.000000 0.000000 0.024004 0.000000 -0.000264
# 5 -0.001439 -0.000136 -0.000236 0.000000 0.033317 0.000000
# 6 0.000000 0.000000 0.000000 -0.000264 0.000000 0.027800
#
#
# Mechanical properties :
#
#
# Convention : Reuss Voigt Hill
#
# Bulk Modulus (GPa) = 62.96910 85.13204 74.05057
# Shear Modulus (GPa) = 28.98653 32.54833 30.76743
#
# Velocity S-wave (km/s) = 3.89496 4.12733 4.01283
# Velocity P-wave (km/s) = 7.29272 8.20176 7.76056
#
# Compressibility (1/GPa) = 0.01588080
#
# Stress axis : x y z
#
# Youngs Moduli (GPa) = 44.49943 62.11246 96.08043
#
# Poissons Ratio (x) = 0.34470 0.42942
# Poissons Ratio (y) = 0.24695 0.62747
# Poissons Ratio (z) = 0.19888 0.40564
#
# Static dielectric constant tensor:
#      x y z
#    x 3.526270 0.000000 0.013850 
#    y 0.000000 3.478000 0.000000 
#    z 0.013850 0.000000 3.725770 
# 
# 
# High freq. dielectric constant tensor:
#      x y z
#    x 1.746200 0.000000 0.000040 
#    y 0.000000 1.757950 0.000000 
#    z 0.000040 0.000000 1.746750 
# 
# From -- ./inp_files/19445.got.cif
#   From: 2010.06.25/outbox.cif.g09.slc.cpg/sg11_10_cif.got.tgz:19445.got - 2010.06.27 23:14:04.
