data_PCOD8076147
_publ_section_title
;
Structure prediction by ZEFSAII (Michael W. Deem and Ramdas Pophale) SiO2 
 PCOD8076147
Probable space group: P 21/M
;
_chemical_formula_sum "Si O2"
_cell_formula_units_Z 28
_cell_length_a 13.817507
_cell_length_b 18.189349
_cell_length_c 6.576099
_cell_angle_alpha 90.000000
_cell_angle_beta 120.647678
_cell_angle_gamma 90.000000
_cell_volume 1421.917077
_symmetry_space_group_name_H-M "P 21/M"
_symmetry_group_IT_number 11
_symmetry_cell_setting 'monoclinic'
loop_
_space_group_symop_operation_xyz
x,y,z
-x,1/2+y,-z
-x,-y,-z
x,1/2-y,z
loop_
_atom_site_type_symbol
_atom_site_label
_atom_site_fract_x
_atom_site_fract_y
_atom_site_fract_z
Si Si1 0.371277 0.062889 0.283731
Si Si2 0.467828 0.662933 0.815341
Si Si3 0.069737 0.593950 0.932324
Si Si4 0.022056 0.833029 0.481902
Si Si5 0.511642 0.054627 0.823493
Si Si6 0.778248 0.334726 0.598100
Si Si7 0.114524 0.068169 0.933186
O O1 0.441194 0.123419 0.230748
O O2 0.403921 0.062486 0.558429
O O3 0.389700 0.980555 0.210854
O O4 0.242002 0.084871 0.129722
O O5 0.490701 0.750000 0.844776
O O6 0.347323 0.642662 0.592895
O O7 0.466618 0.634012 0.049098
O O8 0.040737 0.656039 0.739314
O O9 0.093783 0.516365 0.850956
O O10 0.183043 0.616233 0.171214
O O11 0.961788 0.591153 0.960012
O O12 0.985816 0.750000 0.398016
O O13 0.139877 0.852756 0.501591
O O14 0.919575 0.883959 0.298178
O O15 0.500000 0.000000 0.000000
O O16 0.785550 0.250000 0.669392
#
# Coordination Sequence:
#
# PCOD8076147 Si02
#       7
#     4   4   4   4   4   4   4
#     4  10  22  39  59  85 118 160 194 243 298 353
#     4  10  22  39  59  90 122 152 195 245 297 358
#     4  10  21  37  60  85 116 156 195 242 295 343
#     4  10  21  39  60  84 114 154 197 239 295 348
#     4   9  21  38  59  86 114 157 200 235 291 350
#     4   9  20  36  57  86 118 148 192 245 291 348
#     4  10  23  38  56  88 119 149 198 245 287 350
#
# _framework density 19.691724000000001
#
# number of rings (size 3 to 8) (size 9 to 14) (size 15 to 20)
#    0.000    2.286    0.000    0.857    8.000    4.000 
#    0.000    2.857    0.000    0.000    0.000    0.000 
#    0.000    0.000    0.000    0.000    0.000    0.000 
#
# Total GULP energy -347129.222969 kJ/mol
# GULP energy per Si atom -12397.472249 kJ/mol
# Density = 1.964690 g / cm^3
# Si number density = 19.691724 Si / 1000 Ang^3
#
#
#
# Elastic Constant Matrix: (Units=GPa)
#
#
# Indices 1 2 3 4 5 6 
#
# 1 83.5213 35.3383 59.0649 0.0000 28.1818 0.0000
# 2 35.3383 80.9609 56.3458 0.0000 0.3277 0.0000
# 3 59.0649 56.3458 141.9248 0.0000 5.9626 0.0000
# 4 0.0000 0.0000 0.0000 36.3252 0.0000 1.2348
# 5 28.1818 0.3277 5.9626 0.0000 31.0912 0.0000
# 6 0.0000 0.0000 0.0000 1.2348 0.0000 23.5261
#
#
#
# Elastic Compliance Matrix: (Units=1/GPa)
#
#
# Indices 1 2 3 4 5 6 
#
# 1 0.029100 -0.006764 -0.008387 0.000000 -0.024697 0.000000
# 2 -0.006764 0.018679 -0.004889 0.000000 0.006872 0.000000
# 3 -0.008387 -0.004889 0.012255 0.000000 0.005304 0.000000
# 4 0.000000 0.000000 0.000000 0.027578 0.000000 -0.001448
# 5 -0.024697 0.006872 0.005304 0.000000 0.053460 0.000000
# 6 0.000000 0.000000 0.000000 -0.001448 0.000000 0.042582
#
#
# Mechanical properties :
#
#
# Convention : Reuss Voigt Hill
#
# Bulk Modulus (GPa) = 50.12162 67.54501 58.83331
# Shear Modulus (GPa) = 21.70268 28.56570 25.13419
#
# Velocity S-wave (km/s) = 3.32342 3.81287 3.57653
# Velocity P-wave (km/s) = 6.34313 7.33209 6.85547
#
# Compressibility (1/GPa) = 0.01995147
#
# Stress axis : x y z
#
# Youngs Moduli (GPa) = 34.36478 53.53526 81.60021
#
# Poissons Ratio (x) = 0.36213 0.68440
# Poissons Ratio (y) = 0.23246 0.39898
# Poissons Ratio (z) = 0.28823 0.26176
#
# Static dielectric constant tensor:
#      x y z
#    x 3.427890 0.000000 -0.039940 
#    y 0.000000 3.737650 0.000000 
#    z -0.039940 0.000000 3.735620 
# 
# 
# High freq. dielectric constant tensor:
#      x y z
#    x 1.754790 0.000000 0.000090 
#    y 0.000000 1.771560 0.000000 
#    z 0.000090 0.000000 1.775400 
# 
# From -- ./inp_files/5028.got.cif
#   From: 2010.06.25/outbox.cif.g09.slc.cpg/sg11_3_cif.got.tgz:5028.got - 2010.06.27 23:14:04.
