data_PCOD8076016
_publ_section_title
;
Structure prediction by ZEFSAII (Michael W. Deem and Ramdas Pophale) SiO2 
 PCOD8076016
Probable space group: P 21/M
;
_chemical_formula_sum "Si O2"
_cell_formula_units_Z 32
_cell_length_a 15.649453
_cell_length_b 8.624386
_cell_length_c 25.310177
_cell_angle_alpha 90.000000
_cell_angle_beta 29.835168
_cell_angle_gamma 90.000000
_cell_volume 1699.500471
_symmetry_space_group_name_H-M "P 21/M"
_symmetry_group_IT_number 11
_symmetry_cell_setting 'monoclinic'
loop_
_space_group_symop_operation_xyz
x,y,z
-x,1/2+y,-z
-x,-y,-z
x,1/2-y,z
loop_
_atom_site_type_symbol
_atom_site_label
_atom_site_fract_x
_atom_site_fract_y
_atom_site_fract_z
Si Si1 0.157763 0.430016 0.845796
Si Si2 0.368619 0.929565 0.639742
Si Si3 0.483406 0.930930 0.169116
Si Si4 0.603428 0.933159 0.896034
Si Si5 0.223538 0.930202 0.918750
Si Si6 0.721657 0.071069 0.430233
Si Si7 0.101770 0.929148 0.397613
Si Si8 0.043321 0.932173 0.312511
O O1 0.186406 0.250000 0.818488
O O2 0.233791 0.528532 0.757167
O O3 0.252583 0.473381 0.849522
O O4 0.957581 0.474551 0.957431
O O5 0.419315 0.750000 0.616108
O O6 0.282635 0.967460 0.629577
O O7 0.540940 0.029621 0.554482
O O8 0.530480 0.750000 0.145881
O O9 0.303798 0.965754 0.294836
O O10 0.471711 0.983983 0.115212
O O11 0.628517 0.030075 0.119638
O O12 0.579377 0.750000 0.904188
O O13 0.802860 0.975353 0.798176
O O14 0.500000 0.000000 0.000000
O O15 0.228099 0.750000 0.901543
O O16 0.763310 0.250000 0.418934
O O17 0.867252 0.964644 0.377234
O O18 0.064744 0.750000 0.419788
O O19 0.030662 0.992583 0.379798
O O20 0.000000 0.000000 0.500000
O O21 0.086901 0.750000 0.287621
#
# Coordination Sequence:
#
# PCOD8076016 Si02
#       8
#     4   4   4   4   4   4   4   4
#     4  10  21  37  57  81 110 144 183 228 276 328
#     4  10  21  37  57  81 110 144 183 228 276 328
#     4  10  21  38  57  81 113 146 183 228 276 327
#     4  11  22  38  59  83 111 145 185 229 278 330
#     4  10  21  37  57  82 111 145 185 227 275 329
#     4  10  21  37  57  82 111 145 185 227 275 329
#     4   9  20  36  55  79 107 141 179 221 268 318
#     4  10  21  38  57  81 113 146 183 228 276 327
#
# _framework density 18.829063000000001
#
# number of rings (size 3 to 8) (size 9 to 14) (size 15 to 20)
#    0.000    2.000    0.000    4.125    0.000    8.000 
#    0.000    5.000    0.000    0.000    0.000    0.000 
#    0.000    0.000    0.000    0.000    0.000    0.000 
#
# Total GULP energy -396928.321859 kJ/mol
# GULP energy per Si atom -12404.010058 kJ/mol
# Density = 1.878621 g / cm^3
# Si number density = 18.829063 Si / 1000 Ang^3
#
#
#
# Elastic Constant Matrix: (Units=GPa)
#
#
# Indices 1 2 3 4 5 6 
#
# 1 84.4572 21.6347 54.1165 0.0000 -8.2942 0.0000
# 2 21.6347 48.7197 34.1183 0.0000 3.3661 0.0000
# 3 54.1165 34.1183 119.6587 0.0000 17.8119 0.0000
# 4 0.0000 0.0000 0.0000 34.8458 0.0000 -0.5718
# 5 -8.2942 3.3661 17.8119 0.0000 29.4831 0.0000
# 6 0.0000 0.0000 0.0000 -0.5718 0.0000 34.5806
#
#
#
# Elastic Compliance Matrix: (Units=1/GPa)
#
#
# Indices 1 2 3 4 5 6 
#
# 1 0.020270 -0.002690 -0.010213 0.000000 0.012179 0.000000
# 2 -0.002690 0.026076 -0.006222 0.000000 0.000025 0.000000
# 3 -0.010213 -0.006222 0.016561 0.000000 -0.012168 0.000000
# 4 0.000000 0.000000 0.000000 0.028706 0.000000 0.000475
# 5 0.012179 0.000025 -0.012168 0.000000 0.044692 0.000000
# 6 0.000000 0.000000 0.000000 0.000475 0.000000 0.028926
#
#
# Mechanical properties :
#
#
# Convention : Reuss Voigt Hill
#
# Bulk Modulus (GPa) = 40.55790 52.50829 46.53310
# Shear Modulus (GPa) = 23.61833 29.31297 26.46565
#
# Velocity S-wave (km/s) = 3.54553 3.94990 3.75317
# Velocity P-wave (km/s) = 6.19256 6.98210 6.59915
#
# Compressibility (1/GPa) = 0.02465611
#
# Stress axis : x y z
#
# Youngs Moduli (GPa) = 49.33498 38.34978 60.38157
#
# Poissons Ratio (x) = 0.10318 0.61667
# Poissons Ratio (y) = 0.13273 0.37569
# Poissons Ratio (z) = 0.50386 0.23861
#
# Static dielectric constant tensor:
#      x y z
#    x 3.159140 0.000000 -0.227770 
#    y 0.000000 3.915300 0.000000 
#    z -0.227770 0.000000 3.246580 
# 
# 
# High freq. dielectric constant tensor:
#      x y z
#    x 1.732140 0.000000 0.000870 
#    y 0.000000 1.743920 0.000000 
#    z 0.000870 0.000000 1.733710 
# 
# From -- ./inp_files/69021.got.cif
#   From: 2010.06.25/outbox.cif.g09.slc.cpg/sg11_35_cif.got.tgz:69021.got - 2010.06.27 23:14:04.
