data_PCOD8076424
_publ_section_title
;
Structure prediction by ZEFSAII (Michael W. Deem and Ramdas Pophale) SiO2 
 PCOD8076424
Probable space group: P 21/M
;
_chemical_formula_sum "Si O2"
_cell_formula_units_Z 24
_cell_length_a 12.423256
_cell_length_b 8.551911
_cell_length_c 12.384782
_cell_angle_alpha 90.000000
_cell_angle_beta 70.807858
_cell_angle_gamma 90.000000
_cell_volume 1242.661441
_symmetry_space_group_name_H-M "P 21/M"
_symmetry_group_IT_number 11
_symmetry_cell_setting 'monoclinic'
loop_
_space_group_symop_operation_xyz
x,y,z
-x,1/2+y,-z
-x,-y,-z
x,1/2-y,z
loop_
_atom_site_type_symbol
_atom_site_label
_atom_site_fract_x
_atom_site_fract_y
_atom_site_fract_z
Si Si1 0.613847 0.433797 0.512363
Si Si2 0.004269 0.567521 0.118159
Si Si3 0.777247 0.069145 0.273655
Si Si4 0.768158 0.931870 0.875457
Si Si5 0.392629 0.933276 0.241992
Si Si6 0.369168 0.929835 0.886563
O O1 0.500000 0.500000 0.500000
O O2 0.601808 0.250000 0.512152
O O3 0.723078 0.484613 0.405289
O O4 0.630896 0.493694 0.628792
O O5 0.031918 0.750000 0.101739
O O6 0.101447 0.482466 0.154460
O O7 0.885332 0.539779 0.217395
O O8 0.000000 0.500000 0.000000
O O9 0.815970 0.250000 0.261314
O O10 0.681232 0.040465 0.215082
O O11 0.761711 0.750000 0.850269
O O12 0.717878 0.028698 0.792079
O O13 0.699553 0.964500 0.007397
O O14 0.419105 0.750000 0.231450
O O15 0.498994 0.023693 0.155372
O O16 0.357318 0.750000 0.926395
#
# Coordination Sequence:
#
# PCOD8076424 Si02
#       6
#     4   4   4   4   4   4
#     4  10  21  38  62  89 121 158 198 245 293 350
#     4  12  24  40  63  90 120 156 199 246 298 356
#     4  10  21  38  61  91 123 156 198 246 294 348
#     4  12  25  41  61  86 121 161 203 248 301 357
#     4  11  23  39  60  89 125 161 201 246 299 357
#     4  11  21  36  61  90 125 159 196 246 299 357
#
# _framework density 19.313386000000001
#
# number of rings (size 3 to 8) (size 9 to 14) (size 15 to 20)
#    0.000    1.000    3.333    4.500    0.000    2.000 
#    0.000    0.833    0.000    0.000    0.000    0.000 
#    0.000    0.000    0.000    0.000    0.000    0.000 
#
# Total GULP energy -297753.592573 kJ/mol
# GULP energy per Si atom -12406.399691 kJ/mol
# Density = 1.926943 g / cm^3
# Si number density = 19.313386 Si / 1000 Ang^3
#
#
#
# Elastic Constant Matrix: (Units=GPa)
#
#
# Indices 1 2 3 4 5 6 
#
# 1 108.3464 15.6163 28.3244 0.0000 -2.3659 0.0000
# 2 15.6163 56.9142 24.7238 0.0000 -4.3363 0.0000
# 3 28.3244 24.7238 86.1092 0.0000 -6.4790 0.0000
# 4 0.0000 0.0000 0.0000 23.2273 0.0000 -3.6705
# 5 -2.3659 -4.3363 -6.4790 0.0000 31.1403 0.0000
# 6 0.0000 0.0000 0.0000 -3.6705 0.0000 34.3422
#
#
#
# Elastic Compliance Matrix: (Units=1/GPa)
#
#
# Indices 1 2 3 4 5 6 
#
# 1 0.010214 -0.001537 -0.002922 0.000000 -0.000046 0.000000
# 2 -0.001537 0.020386 -0.005225 0.000000 0.001635 0.000000
# 3 -0.002922 -0.005225 0.014226 0.000000 0.002010 0.000000
# 4 0.000000 0.000000 0.000000 0.043793 0.000000 0.004681
# 5 -0.000046 0.001635 0.002010 0.000000 0.032755 0.000000
# 6 0.000000 0.000000 0.000000 0.004681 0.000000 0.029619
#
#
# Mechanical properties :
#
#
# Convention : Reuss Voigt Hill
#
# Bulk Modulus (GPa) = 39.27902 43.18876 41.23389
# Shear Modulus (GPa) = 27.95702 29.92230 28.93966
#
# Velocity S-wave (km/s) = 3.80879 3.94039 3.87515
# Velocity P-wave (km/s) = 6.30273 6.56604 6.43573
#
# Compressibility (1/GPa) = 0.02545888
#
# Stress axis : x y z
#
# Youngs Moduli (GPa) = 97.90464 49.05279 70.29520
#
# Poissons Ratio (x) = 0.07538 0.20540
# Poissons Ratio (y) = 0.15045 0.36728
# Poissons Ratio (z) = 0.28608 0.25629
#
# Static dielectric constant tensor:
#      x y z
#    x 3.543150 0.000000 0.007490 
#    y 0.000000 3.517290 0.000000 
#    z 0.007490 0.000000 3.710790 
# 
# 
# High freq. dielectric constant tensor:
#      x y z
#    x 1.752900 0.000000 -0.000500 
#    y 0.000000 1.757300 0.000000 
#    z -0.000500 0.000000 1.752760 
# 
# From -- ./inp_files/33718.got.cif
#   From: 2010.06.25/outbox.cif.g09.slc.cpg/sg11_17_cif.got.tgz:33718.got - 2010.06.27 23:14:04.
