data_PCOD8076492
_publ_section_title
;
Structure prediction by ZEFSAII (Michael W. Deem and Ramdas Pophale) SiO2 
 PCOD8076492
Probable space group: P 21/M
;
_chemical_formula_sum "Si O2"
_cell_formula_units_Z 32
_cell_length_a 24.837479
_cell_length_b 13.832016
_cell_length_c 9.188548
_cell_angle_alpha 90.000000
_cell_angle_beta 150.238667
_cell_angle_gamma 90.000000
_cell_volume 1566.972419
_symmetry_space_group_name_H-M "P 21/M"
_symmetry_group_IT_number 11
_symmetry_cell_setting 'monoclinic'
loop_
_space_group_symop_operation_xyz
x,y,z
-x,1/2+y,-z
-x,-y,-z
x,1/2-y,z
loop_
_atom_site_type_symbol
_atom_site_label
_atom_site_fract_x
_atom_site_fract_y
_atom_site_fract_z
Si Si1 0.831567 0.636180 0.269130
Si Si2 0.602609 0.859164 0.866221
Si Si3 0.046631 0.982954 0.267157
Si Si4 0.756097 0.138337 0.366535
Si Si5 0.468569 0.529814 0.766783
Si Si6 0.253201 0.864016 0.316325
Si Si7 0.100959 0.023807 0.834974
Si Si8 0.515998 0.140832 0.701226
O O1 0.854613 0.750000 0.327636
O O2 0.923046 0.584326 0.582778
O O3 0.829728 0.601358 0.095376
O O4 0.715683 0.607613 0.063240
O O5 0.611537 0.750000 0.941715
O O6 0.574068 0.923365 0.938487
O O7 0.506757 0.871893 0.522954
O O8 0.152641 0.916744 0.510686
O O9 0.949195 0.933157 0.132281
O O10 0.000000 0.000000 0.000000
O O11 0.783840 0.250000 0.416382
O O12 0.756700 0.108289 0.537195
O O13 0.640817 0.114109 0.023810
O O14 0.372035 0.606926 0.538654
O O15 0.438462 0.431095 0.610418
O O16 0.500000 0.500000 0.000000
O O17 0.234986 0.750000 0.245546
O O18 0.167545 0.925881 0.023570
O O19 0.000000 0.000000 0.500000
O O20 0.489092 0.250000 0.689204
#
# Coordination Sequence:
#
# PCOD8076492 Si02
#       8
#     4   4   4   4   4   4   4   4
#     4  10  23  43  65  90 130 174 215 264 326 394
#     4  10  22  40  62  89 124 170 214 259 316 389
#     4  11  22  40  66  92 125 161 222 276 332 385
#     4  10  21  38  63  95 129 168 212 265 326 389
#     4  12  23  36  63  96 133 171 213 264 323 385
#     4  11  23  41  64  94 130 170 215 266 327 389
#     4  10  23  41  64  95 125 169 214 277 327 388
#     4  10  21  39  62  91 130 172 213 261 320 383
#
# _framework density 20.421547
#
# number of rings (size 3 to 8) (size 9 to 14) (size 15 to 20)
#    0.000    1.500    2.500    2.250    0.000    5.500 
#    0.000    4.375    0.000    0.000    0.000    0.000 
#    0.000    0.000    0.000    0.000    0.000    0.000 
#
# Total GULP energy -396740.975269 kJ/mol
# GULP energy per Si atom -12398.155477 kJ/mol
# Density = 2.037507 g / cm^3
# Si number density = 20.421547 Si / 1000 Ang^3
#
#
#
# Elastic Constant Matrix: (Units=GPa)
#
#
# Indices 1 2 3 4 5 6 
#
# 1 165.6291 69.3337 43.1459 0.0000 2.8714 0.0000
# 2 69.3337 106.5569 34.7531 0.0000 6.5017 0.0000
# 3 43.1459 34.7531 96.2980 0.0000 -6.2077 0.0000
# 4 0.0000 0.0000 0.0000 34.0819 0.0000 -1.0305
# 5 2.8714 6.5017 -6.2077 0.0000 30.4101 0.0000
# 6 0.0000 0.0000 0.0000 -1.0305 0.0000 32.5908
#
#
#
# Elastic Compliance Matrix: (Units=1/GPa)
#
#
# Indices 1 2 3 4 5 6 
#
# 1 0.008655 -0.004931 -0.002111 0.000000 -0.000194 0.000000
# 2 -0.004931 0.013743 -0.002948 0.000000 -0.003074 0.000000
# 3 -0.002111 -0.002948 0.012614 0.000000 0.003404 0.000000
# 4 0.000000 0.000000 0.000000 0.029369 0.000000 0.000929
# 5 -0.000194 -0.003074 0.003404 0.000000 0.034254 0.000000
# 6 0.000000 0.000000 0.000000 0.000929 0.000000 0.030713
#
#
# Mechanical properties :
#
#
# Convention : Reuss Voigt Hill
#
# Bulk Modulus (GPa) = 66.53119 73.66104 70.09612
# Shear Modulus (GPa) = 32.39634 34.16666 33.28150
#
# Velocity S-wave (km/s) = 3.98726 4.09475 4.04136
# Velocity P-wave (km/s) = 7.33807 7.64883 7.49506
#
# Compressibility (1/GPa) = 0.01503054
#
# Stress axis : x y z
#
# Youngs Moduli (GPa) = 115.53879 72.76664 79.27976
#
# Poissons Ratio (x) = 0.35884 0.16733
# Poissons Ratio (y) = 0.56977 0.23374
# Poissons Ratio (z) = 0.24386 0.21453
#
# Static dielectric constant tensor:
#      x y z
#    x 3.621190 0.000000 -0.136580 
#    y 0.000000 3.831570 0.000000 
#    z -0.136580 0.000000 3.601890 
# 
# 
# High freq. dielectric constant tensor:
#      x y z
#    x 1.808460 0.000000 0.002760 
#    y 0.000000 1.798420 0.000000 
#    z 0.002760 0.000000 1.796840 
# 
# From -- ./inp_files/27810.got.cif
#   From: 2010.06.25/outbox.cif.g09.slc.cpg/sg11_14_cif.got.tgz:27810.got - 2010.06.27 23:14:04.
