data_PCOD8076255
_publ_section_title
;
Structure prediction by ZEFSAII (Michael W. Deem and Ramdas Pophale) SiO2 
 PCOD8076255
Probable space group: P 21/M
;
_chemical_formula_sum "Si O2"
_cell_formula_units_Z 32
_cell_length_a 12.400618
_cell_length_b 14.064673
_cell_length_c 17.083629
_cell_angle_alpha 90.000000
_cell_angle_beta 145.742495
_cell_angle_gamma 90.000000
_cell_volume 1677.237366
_symmetry_space_group_name_H-M "P 21/M"
_symmetry_group_IT_number 11
_symmetry_cell_setting 'monoclinic'
loop_
_space_group_symop_operation_xyz
x,y,z
-x,1/2+y,-z
-x,-y,-z
x,1/2-y,z
loop_
_atom_site_type_symbol
_atom_site_label
_atom_site_fract_x
_atom_site_fract_y
_atom_site_fract_z
Si Si1 0.316807 0.645540 0.479368
Si Si2 0.339902 0.144236 0.191752
Si Si3 0.204582 0.031881 0.488830
Si Si4 0.677744 0.140531 0.991588
Si Si5 0.393996 0.361443 0.475198
Si Si6 0.191930 0.639908 0.754020
Si Si7 0.076679 0.362594 0.166124
Si Si8 0.424454 0.983192 0.772618
O O1 0.218308 0.750000 0.415687
O O2 0.492923 0.649966 0.644408
O O3 0.164479 0.568633 0.419890
O O4 0.403790 0.616671 0.446562
O O5 0.306548 0.250000 0.136153
O O6 0.149095 0.107231 0.122727
O O7 0.394009 0.071053 0.156103
O O8 0.265703 0.014018 0.614474
O O9 0.382316 0.083864 0.551108
O O10 0.018253 0.095851 0.374676
O O11 0.629999 0.250000 0.943206
O O12 0.495790 0.077415 0.859347
O O13 0.718573 0.127548 0.107221
O O14 0.860299 0.103491 0.051226
O O15 0.374222 0.250000 0.479408
O O16 0.216374 0.402289 0.317614
O O17 0.174844 0.750000 0.720088
O O18 0.328727 0.588346 0.775451
O O19 0.089684 0.250000 0.180783
#
# Coordination Sequence:
#
# PCOD8076255 Si02
#       8
#     4   4   4   4   4   4   4   4
#     4   8  16  29  49  79 115 148 177 217 266 317
#     4   8  15  30  53  79 110 144 179 218 263 318
#     4  11  20  33  55  85 109 137 182 228 271 315
#     4  10  21  38  58  79 105 140 180 222 267 322
#     4   9  15  28  52  81 110 143 183 220 257 314
#     4  11  23  41  61  77 101 144 191 224 259 322
#     4   8  14  29  54  81 104 138 184 218 253 315
#     4  11  23  36  53  84 114 137 175 227 281 314
#
# _framework density 19.078992
#
# number of rings (size 3 to 8) (size 9 to 14) (size 15 to 20)
#    0.000    2.500    1.250    3.375    0.000    2.000 
#    0.000    0.625    0.000    1.500    0.000    0.000 
#    0.000    0.000    0.000    0.000    0.000    0.000 
#
# Total GULP energy -396669.198322 kJ/mol
# GULP energy per Si atom -12395.912448 kJ/mol
# Density = 1.903557 g / cm^3
# Si number density = 19.078992 Si / 1000 Ang^3
#
#
#
# Elastic Constant Matrix: (Units=GPa)
#
#
# Indices 1 2 3 4 5 6 
#
# 1 111.4315 59.6988 32.3121 0.0000 -10.3733 0.0000
# 2 59.6988 106.5707 36.7380 0.0000 -3.4781 0.0000
# 3 32.3121 36.7380 28.7687 0.0000 -3.4347 0.0000
# 4 0.0000 0.0000 0.0000 24.6432 0.0000 0.7486
# 5 -10.3733 -3.4781 -3.4347 0.0000 13.5375 0.0000
# 6 0.0000 0.0000 0.0000 0.7486 0.0000 35.8100
#
#
#
# Elastic Compliance Matrix: (Units=1/GPa)
#
#
# Indices 1 2 3 4 5 6 
#
# 1 0.015170 -0.004808 -0.009960 0.000000 0.007862 0.000000
# 2 -0.004808 0.018304 -0.018411 0.000000 -0.003652 0.000000
# 3 -0.009960 -0.018411 0.070106 0.000000 0.005425 0.000000
# 4 0.000000 0.000000 0.000000 0.040605 0.000000 -0.000849
# 5 0.007862 -0.003652 0.005425 0.000000 0.080331 0.000000
# 6 0.000000 0.000000 0.000000 -0.000849 0.000000 0.027943
#
#
# Mechanical properties :
#
#
# Convention : Reuss Voigt Hill
#
# Bulk Modulus (GPa) = 26.86578 56.02987 41.44783
# Shear Modulus (GPa) = 15.09554 22.66626 18.88090
#
# Velocity S-wave (km/s) = 2.81590 3.45051 3.14923
# Velocity P-wave (km/s) = 4.96833 6.73095 5.91566
#
# Compressibility (1/GPa) = 0.03722207
#
# Stress axis : x y z
#
# Youngs Moduli (GPa) = 65.91994 54.63227 14.26419
#
# Poissons Ratio (x) = 0.26266 0.14207
# Poissons Ratio (y) = 0.31693 0.26262
# Poissons Ratio (z) = 0.65658 1.00583
#
# Static dielectric constant tensor:
#      x y z
#    x 3.800000 0.000000 -0.081820 
#    y 0.000000 3.694560 0.000000 
#    z -0.081820 0.000000 3.023810 
# 
# 
# High freq. dielectric constant tensor:
#      x y z
#    x 1.750640 0.000000 -0.011750 
#    y 0.000000 1.747850 0.000000 
#    z -0.011750 0.000000 1.691250 
# 
# From -- ./inp_files/39638.got.cif
#   From: 2010.06.25/outbox.cif.g09.slc.cpg/sg11_20_cif.got.tgz:39638.got - 2010.06.27 23:14:04.
