data_PCOD8076727
_publ_section_title
;
Structure prediction by ZEFSAII (Michael W. Deem and Ramdas Pophale) SiO2 
 PCOD8076727
Probable space group: P 21/M
;
_chemical_formula_sum "Si O2"
_cell_formula_units_Z 28
_cell_length_a 18.888002
_cell_length_b 9.007589
_cell_length_c 13.770724
_cell_angle_alpha 90.000000
_cell_angle_beta 144.100372
_cell_angle_gamma 90.000000
_cell_volume 1373.791892
_symmetry_space_group_name_H-M "P 21/M"
_symmetry_group_IT_number 11
_symmetry_cell_setting 'monoclinic'
loop_
_space_group_symop_operation_xyz
x,y,z
-x,1/2+y,-z
-x,-y,-z
x,1/2-y,z
loop_
_atom_site_type_symbol
_atom_site_label
_atom_site_fract_x
_atom_site_fract_y
_atom_site_fract_z
Si Si1 0.393918 0.575039 0.945075
Si Si2 0.122365 0.575355 0.676118
Si Si3 0.944950 0.422184 0.844754
Si Si4 0.320296 0.417825 0.218239
Si Si5 0.713808 0.587387 0.601832
Si Si6 0.894185 0.423229 0.118300
Si Si7 0.528058 0.083414 0.755824
O O1 0.405973 0.750000 0.942272
O O2 0.251626 0.526617 0.768674
O O3 0.500000 0.500000 0.000000
O O4 0.423311 0.528690 0.087407
O O5 0.105352 0.750000 0.643105
O O6 0.133218 0.532959 0.801394
O O7 0.000000 0.500000 0.500000
O O8 0.975567 0.250000 0.884524
O O9 0.802943 0.451033 0.685032
O O10 0.990650 0.488368 0.793598
O O11 0.000000 0.500000 0.000000
O O12 0.283098 0.250000 0.149388
O O13 0.350708 0.431533 0.365543
O O14 0.436414 0.466487 0.287003
O O15 0.214601 0.530138 0.072067
O O16 0.779235 0.750000 0.672144
O O17 0.616891 0.583422 0.407426
O O18 0.919083 0.250000 0.134900
O O19 0.578520 0.250000 0.790600
#
# Coordination Sequence:
#
# PCOD8076727 Si02
#       7
#     4   4   4   4   4   4   4
#     4  10  22  42  65  92 123 161 207 258 316 379
#     4  10  23  43  67  95 126 160 208 261 319 383
#     4  12  24  38  58  86 122 163 207 254 302 360
#     4  11  21  34  58  91 122 154 202 249 294 356
#     4  10  22  38  58  88 124 163 204 248 301 364
#     4  11  22  40  64  87 119 162 202 247 305 366
#     4  10  21  40  62  84 121 163 202 247 303 369
#
# _framework density 20.381544000000002
#
# number of rings (size 3 to 8) (size 9 to 14) (size 15 to 20)
#    0.000    1.429    2.857    2.571    0.000    4.571 
#    0.000    4.286    0.000    0.000    0.000    0.000 
#    0.000    0.000    0.000    0.000    0.000    0.000 
#
# Total GULP energy -347012.082122 kJ/mol
# GULP energy per Si atom -12393.288647 kJ/mol
# Density = 2.033516 g / cm^3
# Si number density = 20.381544 Si / 1000 Ang^3
#
#
#
# Elastic Constant Matrix: (Units=GPa)
#
#
# Indices 1 2 3 4 5 6 
#
# 1 110.0058 50.5899 39.3273 0.0000 23.6947 0.0000
# 2 50.5899 93.4165 34.2971 0.0000 8.1078 0.0000
# 3 39.3273 34.2971 114.9190 0.0000 13.2060 0.0000
# 4 0.0000 0.0000 0.0000 30.6158 0.0000 5.5819
# 5 23.6947 8.1078 13.2060 0.0000 26.1748 0.0000
# 6 0.0000 0.0000 0.0000 5.5819 0.0000 37.2820
#
#
#
# Elastic Compliance Matrix: (Units=1/GPa)
#
#
# Indices 1 2 3 4 5 6 
#
# 1 0.015093 -0.006517 -0.001998 0.000000 -0.010636 0.000000
# 2 -0.006517 0.014939 -0.002520 0.000000 0.002544 0.000000
# 3 -0.001998 -0.002520 0.010446 0.000000 -0.002681 0.000000
# 4 0.000000 0.000000 0.000000 0.033579 0.000000 -0.005028
# 5 -0.010636 0.002544 -0.002681 0.000000 0.048397 0.000000
# 6 0.000000 0.000000 0.000000 -0.005028 0.000000 0.027575
#
#
# Mechanical properties :
#
#
# Convention : Reuss Voigt Hill
#
# Bulk Modulus (GPa) = 54.32808 62.97445 58.65127
# Shear Modulus (GPa) = 28.05285 31.75631 29.90458
#
# Velocity S-wave (km/s) = 3.71399 3.95155 3.83461
# Velocity P-wave (km/s) = 6.71603 7.19615 6.96023
#
# Compressibility (1/GPa) = 0.01840669
#
# Stress axis : x y z
#
# Youngs Moduli (GPa) = 66.25783 66.94085 95.73243
#
# Poissons Ratio (x) = 0.43624 0.19125
# Poissons Ratio (y) = 0.43179 0.24129
# Poissons Ratio (z) = 0.13237 0.16872
#
# Static dielectric constant tensor:
#      x y z
#    x 3.949560 0.000000 0.159390 
#    y 0.000000 3.753030 0.000000 
#    z 0.159390 0.000000 3.723440 
# 
# 
# High freq. dielectric constant tensor:
#      x y z
#    x 1.793940 0.000000 0.009950 
#    y 0.000000 1.792700 0.000000 
#    z 0.009950 0.000000 1.796210 
# 
# From -- ./inp_files/54633.got.cif
#   From: 2010.06.25/outbox.cif.g09.slc.cpg/sg11_28_cif.got.tgz:54633.got - 2010.06.27 23:14:04.
