data_PCOD8076717
_publ_section_title
;
Structure prediction by ZEFSAII (Michael W. Deem and Ramdas Pophale) SiO2 
 PCOD8076717
Probable space group: P 21/M
;
_chemical_formula_sum "Si O2"
_cell_formula_units_Z 20
_cell_length_a 5.521940
_cell_length_b 28.171686
_cell_length_c 5.084450
_cell_angle_alpha 90.000000
_cell_angle_beta 99.910490
_cell_angle_gamma 90.000000
_cell_volume 779.146366
_symmetry_space_group_name_H-M "P 21/M"
_symmetry_group_IT_number 11
_symmetry_cell_setting 'monoclinic'
loop_
_space_group_symop_operation_xyz
x,y,z
-x,1/2+y,-z
-x,-y,-z
x,1/2-y,z
loop_
_atom_site_type_symbol
_atom_site_label
_atom_site_fract_x
_atom_site_fract_y
_atom_site_fract_z
Si Si1 0.806125 0.855485 0.852543
Si Si2 0.513542 0.054640 0.426563
Si Si3 0.341366 0.304991 0.692560
Si Si4 0.987288 0.466803 0.248046
Si Si5 0.657338 0.381755 0.935878
O O1 0.801124 0.829555 0.573682
O O2 0.056116 0.886917 0.926562
O O3 0.544436 0.884645 0.855643
O O4 0.824382 0.814714 0.080459
O O5 0.716984 0.059448 0.220614
O O6 0.605704 0.079690 0.704183
O O7 0.225579 0.069093 0.304278
O O8 0.500000 0.000000 0.500000
O O9 0.384489 0.250000 0.644400
O O10 0.606629 0.330194 0.791037
O O11 0.000000 0.500000 0.500000
O O12 0.000000 0.500000 0.000000
#
# Coordination Sequence:
#
# PCOD8076717 Si02
#       5
#     4   4   4   4   4
#     4  10  24  43  66  98 133 171 213 276 328 397
#     4  10  21  43  65  96 131 176 216 271 323 391
#     4  10  24  45  69  98 131 172 220 274 336 400
#     4  10  21  40  60  91 121 168 214 261 313 375
#     4  10  24  45  66 102 134 175 223 273 333 394
#
# _framework density 25.669121000000001
#
# number of rings (size 3 to 8) (size 9 to 14) (size 15 to 20)
#    1.200    0.800    0.000    2.400    2.800    1.600 
#   21.600    0.000    0.000    0.000    0.000    0.000 
#    0.000    0.000    0.000    0.000    0.000    0.000 
#
# Total GULP energy -248030.888749 kJ/mol
# GULP energy per Si atom -12401.544437 kJ/mol
# Density = 2.561070 g / cm^3
# Si number density = 25.669121 Si / 1000 Ang^3
#
#
#
# Elastic Constant Matrix: (Units=GPa)
#
#
# Indices 1 2 3 4 5 6 
#
# 1 217.3868 113.1737 88.5333 0.0000 30.7331 0.0000
# 2 113.1737 162.2123 60.0132 0.0000 19.5045 0.0000
# 3 88.5333 60.0132 173.0263 0.0000 7.7466 0.0000
# 4 0.0000 0.0000 0.0000 47.4559 0.0000 0.5186
# 5 30.7331 19.5045 7.7466 0.0000 50.4759 0.0000
# 6 0.0000 0.0000 0.0000 0.5186 0.0000 38.6701
#
#
#
# Elastic Compliance Matrix: (Units=1/GPa)
#
#
# Indices 1 2 3 4 5 6 
#
# 1 0.008474 -0.004587 -0.002611 0.000000 -0.002986 0.000000
# 2 -0.004587 0.009849 -0.001031 0.000000 -0.000855 0.000000
# 3 -0.002611 -0.001031 0.007435 0.000000 0.000847 0.000000
# 4 0.000000 0.000000 0.000000 0.021075 0.000000 -0.000283
# 5 -0.002986 -0.000855 0.000847 0.000000 0.021830 0.000000
# 6 0.000000 0.000000 0.000000 -0.000283 0.000000 0.025864
#
#
# Mechanical properties :
#
#
# Convention : Reuss Voigt Hill
#
# Bulk Modulus (GPa) = 107.52456 119.56286 113.54371
# Shear Modulus (GPa) = 43.82717 46.71407 45.27062
#
# Velocity S-wave (km/s) = 4.13654 4.27060 4.20411
# Velocity P-wave (km/s) = 8.04949 8.42597 8.23988
#
# Compressibility (1/GPa) = 0.00930020
#
# Stress axis : x y z
#
# Youngs Moduli (GPa) = 118.01282 101.53169 134.49652
#
# Poissons Ratio (x) = 0.46571 0.35119
# Poissons Ratio (y) = 0.54131 0.13865
# Poissons Ratio (z) = 0.30815 0.10466
#
# Static dielectric constant tensor:
#      x y z
#    x 6.625830 0.000000 0.546080 
#    y 0.000000 4.743340 0.000000 
#    z 0.546080 0.000000 4.977560 
# 
# 
# High freq. dielectric constant tensor:
#      x y z
#    x 2.059270 0.000000 0.000850 
#    y 0.000000 2.058410 0.000000 
#    z 0.000850 0.000000 2.054000 
# 
# From -- ./inp_files/857.got.cif
#   From: 2010.06.25/outbox.cif.g09.slc.cpg/sg11_1_cif.got.tgz:857.got - 2010.06.27 23:14:04.
