data_PCOD8076941
_publ_section_title
;
Structure prediction by ZEFSAII (Michael W. Deem and Ramdas Pophale) SiO2 
 PCOD8076941
Probable space group: P 21/M
;
_chemical_formula_sum "Si O2"
_cell_formula_units_Z 26
_cell_length_a 7.350995
_cell_length_b 15.651935
_cell_length_c 10.104490
_cell_angle_alpha 90.000000
_cell_angle_beta 92.934123
_cell_angle_gamma 90.000000
_cell_volume 1161.071191
_symmetry_space_group_name_H-M "P 21/M"
_symmetry_group_IT_number 11
_symmetry_cell_setting 'monoclinic'
loop_
_space_group_symop_operation_xyz
x,y,z
-x,1/2+y,-z
-x,-y,-z
x,1/2-y,z
loop_
_atom_site_type_symbol
_atom_site_label
_atom_site_fract_x
_atom_site_fract_y
_atom_site_fract_z
Si Si1 0.544988 0.082005 0.586640
Si Si2 0.703592 0.250000 0.008330
Si Si3 0.302053 0.250000 0.080483
Si Si4 0.747560 0.926988 0.058332
Si Si5 0.985578 0.250000 0.245970
Si Si6 0.864718 0.116154 0.448182
Si Si7 0.842270 0.924382 0.347709
Si Si8 0.661903 0.071226 0.873305
O O1 0.665555 0.145059 0.497248
O O2 0.354421 0.121495 0.631116
O O3 0.678073 0.058389 0.715683
O O4 0.500000 0.000000 0.500000
O O5 0.522295 0.250000 0.095530
O O6 0.881296 0.250000 0.103966
O O7 0.712344 0.167346 0.915784
O O8 0.203178 0.250000 0.221233
O O9 0.232346 0.334052 0.003633
O O10 0.881129 0.928496 0.191240
O O11 0.546790 0.948229 0.101328
O O12 0.792507 0.002361 0.953608
O O13 0.927078 0.166750 0.322809
O O14 0.008527 0.132271 0.571758
O O15 0.847799 0.018398 0.407258
#
# Coordination Sequence:
#
# PCOD8076941 Si02
#       8
#     4   2   2   4   2   4   4   4
#     4   9  19  36  60  86 115 152 191 238 296 357
#     4  10  22  41  61  87 121 153 198 257 301 354
#     4  10  24  39  57  85 117 156 202 244 298 362
#     4   9  18  36  61  87 117 155 195 247 300 351
#     4  12  26  40  56  86 124 157 200 249 295 352
#     4  10  22  37  55  84 117 153 196 241 288 355
#     4   9  19  38  61  84 113 150 198 244 293 351
#     4   9  18  35  63  91 118 154 199 245 300 360
#
# _framework density 22.393114000000001
#
# number of rings (size 3 to 8) (size 9 to 14) (size 15 to 20)
#    0.000    2.462    0.000    0.923    0.000   11.077 
#    0.000    3.846    0.000    0.923    0.000    0.000 
#    0.000    0.000    0.000    0.000    0.000    0.000 
#
# Total GULP energy -322207.743685 kJ/mol
# GULP energy per Si atom -12392.605526 kJ/mol
# Density = 2.234215 g / cm^3
# Si number density = 22.393114 Si / 1000 Ang^3
#
#
#
# Elastic Constant Matrix: (Units=GPa)
#
#
# Indices 1 2 3 4 5 6 
#
# 1 67.3783 17.8707 29.7001 0.0000 -6.5318 0.0000
# 2 17.8707 95.4459 36.4156 0.0000 3.6265 0.0000
# 3 29.7001 36.4156 125.4901 0.0000 4.0192 0.0000
# 4 0.0000 0.0000 0.0000 29.5100 0.0000 -3.9144
# 5 -6.5318 3.6265 4.0192 0.0000 43.1823 0.0000
# 6 0.0000 0.0000 0.0000 -3.9144 0.0000 7.2440
#
#
#
# Elastic Compliance Matrix: (Units=1/GPa)
#
#
# Indices 1 2 3 4 5 6 
#
# 1 0.017258 -0.001971 -0.003612 0.000000 0.003112 0.000000
# 2 -0.001971 0.012026 -0.002990 0.000000 -0.001030 0.000000
# 3 -0.003612 -0.002990 0.009730 0.000000 -0.001201 0.000000
# 4 0.000000 0.000000 0.000000 0.036503 0.000000 0.019725
# 5 0.003112 -0.001030 -0.001201 0.000000 0.023827 0.000000
# 6 0.000000 0.000000 0.000000 0.019725 0.000000 0.148704
#
#
# Mechanical properties :
#
#
# Convention : Reuss Voigt Hill
#
# Bulk Modulus (GPa) = 45.73166 50.69857 48.21511
# Shear Modulus (GPa) = 18.34961 29.60911 23.97936
#
# Velocity S-wave (km/s) = 2.86568 3.64021 3.27591
# Velocity P-wave (km/s) = 5.60500 6.35276 5.99056
#
# Compressibility (1/GPa) = 0.02186669
#
# Stress axis : x y z
#
# Youngs Moduli (GPa) = 57.94277 83.15116 102.77625
#
# Poissons Ratio (x) = 0.16393 0.37125
# Poissons Ratio (y) = 0.11423 0.30733
# Poissons Ratio (z) = 0.20930 0.24865
#
# Static dielectric constant tensor:
#      x y z
#    x 4.460710 0.000000 -0.110660 
#    y 0.000000 3.748250 0.000000 
#    z -0.110660 0.000000 4.299030 
# 
# 
# High freq. dielectric constant tensor:
#      x y z
#    x 1.885870 0.000000 -0.003440 
#    y 0.000000 1.852910 0.000000 
#    z -0.003440 0.000000 1.891860 
# 
# From -- ./inp_files/13564.got.cif
#   From: 2010.06.25/outbox.cif.g09.slc.cpg/sg11_7_cif.got.tgz:13564.got - 2010.06.27 23:14:04.
