data_PCOD8076353
_publ_section_title
;
Structure prediction by ZEFSAII (Michael W. Deem and Ramdas Pophale) SiO2 
 PCOD8076353
Probable space group: P 21/M
;
_chemical_formula_sum "Si O2"
_cell_formula_units_Z 28
_cell_length_a 7.921222
_cell_length_b 9.026651
_cell_length_c 27.718507
_cell_angle_alpha 90.000000
_cell_angle_beta 43.798307
_cell_angle_gamma 90.000000
_cell_volume 1371.738186
_symmetry_space_group_name_H-M "P 21/M"
_symmetry_group_IT_number 11
_symmetry_cell_setting 'monoclinic'
loop_
_space_group_symop_operation_xyz
x,y,z
-x,1/2+y,-z
-x,-y,-z
x,1/2-y,z
loop_
_atom_site_type_symbol
_atom_site_label
_atom_site_fract_x
_atom_site_fract_y
_atom_site_fract_z
Si Si1 0.411455 0.579623 0.204306
Si Si2 0.936432 0.579845 0.787725
Si Si3 0.215268 0.579227 0.346234
Si Si4 0.123502 0.920620 0.930078
Si Si5 0.325923 0.073556 0.574610
Si Si6 0.459746 0.920435 0.646930
Si Si7 0.267734 0.420221 0.069193
O O1 0.452390 0.750000 0.182572
O O2 0.152309 0.524413 0.237354
O O3 0.405961 0.556042 0.262926
O O4 0.612885 0.484604 0.135498
O O5 0.861764 0.750000 0.793331
O O6 0.810634 0.519130 0.862460
O O7 0.228616 0.566425 0.730528
O O8 0.208158 0.750000 0.363657
O O9 0.304892 0.484466 0.373572
O O10 0.948830 0.527377 0.383480
O O11 0.153269 0.750000 0.937567
O O12 0.962918 0.947894 0.916522
O O13 0.000000 0.000000 0.000000
O O14 0.356182 0.250000 0.569107
O O15 0.500000 0.000000 0.500000
O O16 0.402671 0.011028 0.610609
O O17 0.513746 0.750000 0.622100
O O18 0.339154 0.250000 0.057724
O O19 0.500000 0.500000 0.000000
#
# Coordination Sequence:
#
# PCOD8076353 Si02
#       7
#     4   4   4   4   4   4   4
#     4  11  22  38  61  90 121 160 206 257 317 375
#     4  10  21  38  60  87 120 159 204 257 315 374
#     4  10  23  42  65  94 131 171 213 263 321 384
#     4  11  23  39  57  82 117 157 204 258 315 379
#     4  11  24  45  69  97 134 173 215 267 324 387
#     4  11  23  40  67  99 129 168 218 268 323 383
#     4  10  22  38  55  79 113 153 199 252 309 369
#
# _framework density 20.412057999999998
#
# number of rings (size 3 to 8) (size 9 to 14) (size 15 to 20)
#    0.000    1.429    1.429    3.429    0.000    8.571 
#    0.000    0.000    0.000    0.000    0.000    0.000 
#    0.000    0.000    0.000    0.000    0.000    0.000 
#
# Total GULP energy -347261.049854 kJ/mol
# GULP energy per Si atom -12402.180352 kJ/mol
# Density = 2.036560 g / cm^3
# Si number density = 20.412058 Si / 1000 Ang^3
#
#
#
# Elastic Constant Matrix: (Units=GPa)
#
#
# Indices 1 2 3 4 5 6 
#
# 1 127.2058 77.2428 48.0437 0.0000 5.7400 0.0000
# 2 77.2428 99.7249 41.3637 0.0000 3.0310 0.0000
# 3 48.0437 41.3637 104.2433 0.0000 4.7444 0.0000
# 4 0.0000 0.0000 0.0000 35.5543 0.0000 1.2856
# 5 5.7400 3.0310 4.7444 0.0000 27.6885 0.0000
# 6 0.0000 0.0000 0.0000 1.2856 0.0000 38.0702
#
#
#
# Elastic Compliance Matrix: (Units=1/GPa)
#
#
# Indices 1 2 3 4 5 6 
#
# 1 0.015586 -0.010863 -0.002802 0.000000 -0.001562 0.000000
# 2 -0.010863 0.019581 -0.002790 0.000000 0.000587 0.000000
# 3 -0.002802 -0.002790 0.012045 0.000000 -0.001178 0.000000
# 4 0.000000 0.000000 0.000000 0.028160 0.000000 -0.000951
# 5 -0.001562 0.000587 -0.001178 0.000000 0.036577 0.000000
# 6 0.000000 0.000000 0.000000 -0.000951 0.000000 0.026299
#
#
# Mechanical properties :
#
#
# Convention : Reuss Voigt Hill
#
# Bulk Modulus (GPa) = 69.91690 73.83047 71.87368
# Shear Modulus (GPa) = 28.42106 31.23084 29.82595
#
# Velocity S-wave (km/s) = 3.73549 3.91579 3.82670
# Velocity P-wave (km/s) = 7.27546 7.52948 7.40356
#
# Compressibility (1/GPa) = 0.01430269
#
# Stress axis : x y z
#
# Youngs Moduli (GPa) = 64.15953 51.07046 83.02245
#
# Poissons Ratio (x) = 0.55477 0.23262
# Poissons Ratio (y) = 0.69695 0.23163
# Poissons Ratio (z) = 0.17977 0.14248
#
# Static dielectric constant tensor:
#      x y z
#    x 3.763960 0.000000 0.033010 
#    y 0.000000 3.776990 0.000000 
#    z 0.033010 0.000000 3.782790 
# 
# 
# High freq. dielectric constant tensor:
#      x y z
#    x 1.805710 0.000000 0.001140 
#    y 0.000000 1.800630 0.000000 
#    z 0.001140 0.000000 1.804380 
# 
# From -- ./inp_files/72722.got.cif
#   From: 2010.06.25/outbox.cif.g09.slc.cpg/sg11_37_cif.got.tgz:72722.got - 2010.06.27 23:14:04.
