data_PCOD8076415
_publ_section_title
;
Structure prediction by ZEFSAII (Michael W. Deem and Ramdas Pophale) SiO2 
 PCOD8076415
Probable space group: P 21/M
;
_chemical_formula_sum "Si O2"
_cell_formula_units_Z 26
_cell_length_a 9.002400
_cell_length_b 21.985406
_cell_length_c 11.476839
_cell_angle_alpha 90.000000
_cell_angle_beta 142.459776
_cell_angle_gamma 90.000000
_cell_volume 1384.073865
_symmetry_space_group_name_H-M "P 21/M"
_symmetry_group_IT_number 11
_symmetry_cell_setting 'monoclinic'
loop_
_space_group_symop_operation_xyz
x,y,z
-x,1/2+y,-z
-x,-y,-z
x,1/2-y,z
loop_
_atom_site_type_symbol
_atom_site_label
_atom_site_fract_x
_atom_site_fract_y
_atom_site_fract_z
Si Si1 0.147832 0.981718 0.481070
Si Si2 0.347828 0.541794 0.224260
Si Si3 0.220503 0.839043 0.495240
Si Si4 0.772027 0.750000 0.474929
Si Si5 0.317476 0.750000 0.757341
Si Si6 0.207609 0.250000 0.783109
Si Si7 0.435057 0.145162 0.497717
Si Si8 0.054939 0.450676 0.196769
O O1 0.183426 0.910086 0.491652
O O2 0.396784 0.016564 0.657380
O O3 0.012513 0.008106 0.283739
O O4 0.000000 0.000000 0.500000
O O5 0.374771 0.597449 0.329719
O O6 0.216470 0.486552 0.205236
O O7 0.205956 0.564394 0.021481
O O8 0.319051 0.809770 0.676590
O O9 0.423316 0.824720 0.522767
O O10 0.961034 0.809246 0.297563
O O11 0.705514 0.750000 0.296933
O O12 0.646198 0.692256 0.455172
O O13 0.066152 0.750000 0.676225
O O14 0.554347 0.750000 0.987178
O O15 0.187371 0.112751 0.303224
#
# Coordination Sequence:
#
# PCOD8076415 Si02
#       8
#     4   4   4   2   2   2   4   4
#     4  11  22  37  61  90 126 158 191 241 296 354
#     4  10  21  38  61  90 122 155 192 239 293 349
#     4  10  21  41  63  88 117 161 198 239 293 351
#     4  10  24  40  62  84 112 152 198 250 302 338
#     4  10  25  43  59  85 119 154 196 246 298 352
#     4  10  25  43  59  85 119 154 196 246 298 352
#     4  11  20  41  63  86 117 154 201 246 289 345
#     4  10  21  38  61  90 122 155 192 239 293 349
#
# _framework density 18.785124
#
# number of rings (size 3 to 8) (size 9 to 14) (size 15 to 20)
#    0.000    1.846    3.077    1.846    8.615    4.308 
#    0.000    1.538    0.000    0.000    0.000    0.000 
#    0.000    0.000    0.000    0.000    0.000    0.000 
#
# Total GULP energy -322369.911484 kJ/mol
# GULP energy per Si atom -12398.842749 kJ/mol
# Density = 1.874237 g / cm^3
# Si number density = 18.785124 Si / 1000 Ang^3
#
#
#
# Elastic Constant Matrix: (Units=GPa)
#
#
# Indices 1 2 3 4 5 6 
#
# 1 117.4125 23.9807 16.0852 0.0000 -7.3748 0.0000
# 2 23.9807 64.7979 13.6548 0.0000 2.1260 0.0000
# 3 16.0852 13.6548 133.1246 0.0000 -7.6342 0.0000
# 4 0.0000 0.0000 0.0000 0.6569 0.0000 -2.0792
# 5 -7.3748 2.1260 -7.6342 0.0000 14.2458 0.0000
# 6 0.0000 0.0000 0.0000 -2.0792 0.0000 30.0347
#
#
#
# Elastic Compliance Matrix: (Units=1/GPa)
#
#
# Indices 1 2 3 4 5 6 
#
# 1 0.009660 -0.003645 -0.000490 0.000000 0.005282 0.000000
# 2 -0.003645 0.017303 -0.001641 0.000000 -0.005349 0.000000
# 3 -0.000490 -0.001641 0.007984 0.000000 0.004270 0.000000
# 4 0.000000 0.000000 0.000000 1.949453 0.000000 0.134953
# 5 0.005282 -0.005349 0.004270 0.000000 0.076017 0.000000
# 6 0.000000 0.000000 0.000000 0.134953 0.000000 0.042637
#
#
# Mechanical properties :
#
#
# Convention : Reuss Voigt Hill
#
# Bulk Modulus (GPa) = 42.74559 46.97515 44.86037
# Shear Modulus (GPa) = 2.35582 26.42844 14.39213
#
# Velocity S-wave (km/s) = 1.12107 3.75491 2.77094
# Velocity P-wave (km/s) = 4.94774 6.62269 5.84552
#
# Compressibility (1/GPa) = 0.02339423
#
# Stress axis : x y z
#
# Youngs Moduli (GPa) = 103.51489 57.79372 125.24740
#
# Poissons Ratio (x) = 0.21067 0.06143
# Poissons Ratio (y) = 0.37733 0.20554
# Poissons Ratio (z) = 0.05077 0.09484
#
# Static dielectric constant tensor:
#      x y z
#    x 3.512530 0.000000 -0.028250 
#    y 0.000000 3.668120 0.000000 
#    z -0.028250 0.000000 3.719890 
# 
# 
# High freq. dielectric constant tensor:
#      x y z
#    x 1.740010 0.000000 -0.001590 
#    y 0.000000 1.735970 0.000000 
#    z -0.001590 0.000000 1.724350 
# 
# From -- ./inp_files/19502.got.cif
#   From: 2010.06.25/outbox.cif.g09.slc.cpg/sg11_10_cif.got.tgz:19502.got - 2010.06.27 23:14:04.
