data_PCOD8076002
_publ_section_title
;
Structure prediction by ZEFSAII (Michael W. Deem and Ramdas Pophale) SiO2 
 PCOD8076002
Probable space group: P 21/M
;
_chemical_formula_sum "Si O2"
_cell_formula_units_Z 28
_cell_length_a 12.674099
_cell_length_b 8.902457
_cell_length_c 15.540391
_cell_angle_alpha 90.000000
_cell_angle_beta 52.458984
_cell_angle_gamma 90.000000
_cell_volume 1390.326627
_symmetry_space_group_name_H-M "P 21/M"
_symmetry_group_IT_number 11
_symmetry_cell_setting 'monoclinic'
loop_
_space_group_symop_operation_xyz
x,y,z
-x,1/2+y,-z
-x,-y,-z
x,1/2-y,z
loop_
_atom_site_type_symbol
_atom_site_label
_atom_site_fract_x
_atom_site_fract_y
_atom_site_fract_z
Si Si1 0.614058 0.072681 0.496932
Si Si2 0.384290 0.574212 0.162164
Si Si3 0.956617 0.908204 0.442213
Si Si4 0.880055 0.927438 0.305391
Si Si5 0.660441 0.585173 0.640975
Si Si6 0.689392 0.573416 0.976389
Si Si7 0.060832 0.571580 0.055753
O O1 0.604895 0.250000 0.501815
O O2 0.500000 0.000000 0.500000
O O3 0.748621 0.024942 0.381826
O O4 0.585269 0.017426 0.608883
O O5 0.353179 0.750000 0.174544
O O6 0.322074 0.501361 0.278069
O O7 0.308419 0.499362 0.119409
O O8 0.542241 0.542878 0.086976
O O9 0.032872 0.750000 0.411605
O O10 0.980795 0.973678 0.334285
O O11 0.800196 0.885897 0.526920
O O12 0.000000 0.000000 0.500000
O O13 0.846760 0.750000 0.326888
O O14 0.952777 0.969552 0.181597
O O15 0.592351 0.750000 0.688963
O O16 0.719776 0.750000 0.954009
O O17 0.796626 0.498398 0.987655
O O18 0.078729 0.750000 0.035456
O O19 0.000000 0.500000 0.000000
#
# Coordination Sequence:
#
# PCOD8076002 Si02
#       7
#     4   4   4   4   4   4   4
#     4  11  22  38  61  87 116 155 196 241 295 354
#     4  10  21  38  61  89 121 159 202 250 306 364
#     4   9  19  34  53  81 114 148 184 228 284 344
#     4   9  21  41  59  82 118 155 194 243 294 350
#     4  10  21  37  56  84 118 151 192 241 289 349
#     4  10  22  40  61  87 120 157 202 256 308 363
#     4  11  24  42  64  89 120 162 208 256 308 366
#
# _framework density 20.139151999999999
#
# number of rings (size 3 to 8) (size 9 to 14) (size 15 to 20)
#    0.000    2.000    0.000    3.857    2.000    6.857 
#    0.000    1.429    0.000    0.000    0.000    0.000 
#    0.000    0.000    0.000    0.000    0.000    0.000 
#
# Total GULP energy -346969.011571 kJ/mol
# GULP energy per Si atom -12391.750413 kJ/mol
# Density = 2.009331 g / cm^3
# Si number density = 20.139152 Si / 1000 Ang^3
#
#
#
# Elastic Constant Matrix: (Units=GPa)
#
#
# Indices 1 2 3 4 5 6 
#
# 1 134.9530 66.3799 39.9773 0.0000 32.4208 0.0000
# 2 66.3799 137.5509 42.5905 0.0000 18.2722 0.0000
# 3 39.9773 42.5905 98.8325 0.0000 33.7705 0.0000
# 4 0.0000 0.0000 0.0000 32.0783 0.0000 5.0365
# 5 32.4208 18.2722 33.7705 0.0000 34.9880 0.0000
# 6 0.0000 0.0000 0.0000 5.0365 0.0000 39.8274
#
#
#
# Elastic Compliance Matrix: (Units=1/GPa)
#
#
# Indices 1 2 3 4 5 6 
#
# 1 0.011656 -0.004538 0.000181 0.000000 -0.008606 0.000000
# 2 -0.004538 0.010198 -0.003247 0.000000 0.002013 0.000000
# 3 0.000181 -0.003247 0.016297 0.000000 -0.014202 0.000000
# 4 0.000000 0.000000 0.000000 0.031805 0.000000 -0.004022
# 5 -0.008606 0.002013 -0.014202 0.000000 0.049212 0.000000
# 6 0.000000 0.000000 0.000000 -0.004022 0.000000 0.025617
#
#
# Mechanical properties :
#
#
# Convention : Reuss Voigt Hill
#
# Bulk Modulus (GPa) = 43.58551 74.35910 58.97230
# Shear Modulus (GPa) = 29.82599 36.20467 33.01533
#
# Velocity S-wave (km/s) = 3.85254 4.24456 4.05329
# Velocity P-wave (km/s) = 6.44039 7.81182 7.15902
#
# Compressibility (1/GPa) = 0.02294341
#
# Stress axis : x y z
#
# Youngs Moduli (GPa) = 85.79487 98.05963 61.36198
#
# Poissons Ratio (x) = 0.44498 -0.01113
# Poissons Ratio (y) = 0.38932 0.19924
# Poissons Ratio (z) = -0.01556 0.31840
#
# Static dielectric constant tensor:
#      x y z
#    x 3.432470 0.000000 0.192620 
#    y 0.000000 4.084400 0.000000 
#    z 0.192620 0.000000 3.612280 
# 
# 
# High freq. dielectric constant tensor:
#      x y z
#    x 1.786370 0.000000 0.013650 
#    y 0.000000 1.797560 0.000000 
#    z 0.013650 0.000000 1.788620 
# 
# From -- ./inp_files/49122.got.cif
#   From: 2010.06.25/outbox.cif.g09.slc.cpg/sg11_25_cif.got.tgz:49122.got - 2010.06.27 23:14:04.
