data_PCOD8076913
_publ_section_title
;
Structure prediction by ZEFSAII (Michael W. Deem and Ramdas Pophale) SiO2 
 PCOD8076913
Probable space group: P 21/M
;
_chemical_formula_sum "Si O2"
_cell_formula_units_Z 24
_cell_length_a 15.109501
_cell_length_b 11.518341
_cell_length_c 15.109184
_cell_angle_alpha 90.000000
_cell_angle_beta 152.413930
_cell_angle_gamma 90.000000
_cell_volume 1217.692460
_symmetry_space_group_name_H-M "P 21/M"
_symmetry_group_IT_number 11
_symmetry_cell_setting 'monoclinic'
loop_
_space_group_symop_operation_xyz
x,y,z
-x,1/2+y,-z
-x,-y,-z
x,1/2-y,z
loop_
_atom_site_type_symbol
_atom_site_label
_atom_site_fract_x
_atom_site_fract_y
_atom_site_fract_z
Si Si1 0.143745 0.250000 0.268107
Si Si2 0.628668 0.250000 0.965553
Si Si3 0.413219 0.991886 0.019582
Si Si4 0.980429 0.991885 0.586792
Si Si5 0.731850 0.250000 0.856225
Si Si6 0.965535 0.750000 0.628655
Si Si7 0.364319 0.885760 0.635640
Si Si8 0.451248 0.443522 0.548704
O O1 0.066338 0.250000 0.296983
O O2 0.265842 0.366098 0.364677
O O3 0.960818 0.250000 0.039125
O O4 0.703076 0.250000 0.933730
O O5 0.510091 0.367166 0.877166
O O6 0.807787 0.250000 0.192240
O O7 0.487579 0.089131 0.153265
O O8 0.184128 0.001420 0.815887
O O9 0.500000 0.000000 0.000000
O O10 0.877161 0.867171 0.510089
O O11 0.846761 0.089136 0.512443
O O12 0.000000 0.000000 0.500000
O O13 0.635258 0.366096 0.734117
O O14 0.377953 0.750000 0.622014
O O15 0.410562 0.961769 0.589367
O O16 0.500000 0.500000 0.500000
#
# Coordination Sequence:
#
# PCOD8076913 Si02
#       8
#     2   2   4   4   2   2   4   4
#     4  10  21  43  72 101 126 162 227 286 328 390
#     4   9  19  37  65  90 122 161 216 270 315 375
#     4  11  23  40  63  95 128 172 218 265 323 388
#     4  11  23  40  63  95 128 172 218 265 323 388
#     4  10  21  43  72 101 126 162 227 286 328 390
#     4   9  19  37  65  90 122 161 216 270 315 375
#     4  12  27  43  60  93 141 175 213 274 332 389
#     4  11  25  44  72  99 129 176 226 273 339 399
#
# _framework density 19.709409999999998
#
# number of rings (size 3 to 8) (size 9 to 14) (size 15 to 20)
#    0.000    1.333    5.000    0.000    4.667    2.000 
#    0.000    0.000    0.000    0.000    0.000    0.000 
#    0.000    0.000    0.000    0.000    0.000    0.000 
#
# Total GULP energy -297458.096607 kJ/mol
# GULP energy per Si atom -12394.087359 kJ/mol
# Density = 1.966455 g / cm^3
# Si number density = 19.709410 Si / 1000 Ang^3
#
#
#
# Elastic Constant Matrix: (Units=GPa)
#
#
# Indices 1 2 3 4 5 6 
#
# 1 124.7876 61.2273 52.3018 0.0000 -13.7744 0.0000
# 2 61.2273 158.7942 61.6582 0.0000 0.1451 0.0000
# 3 52.3018 61.6582 132.3979 0.0000 16.0296 0.0000
# 4 0.0000 0.0000 0.0000 22.0998 0.0000 -5.5304
# 5 -13.7744 0.1451 16.0296 0.0000 20.9314 0.0000
# 6 0.0000 0.0000 0.0000 -5.5304 0.0000 41.2821
#
#
#
# Elastic Compliance Matrix: (Units=1/GPa)
#
#
# Indices 1 2 3 4 5 6 
#
# 1 0.013128 -0.003004 -0.005330 0.000000 0.012741 0.000000
# 2 -0.003004 0.008545 -0.002807 0.000000 0.000113 0.000000
# 3 -0.005330 -0.002807 0.012551 0.000000 -0.013100 0.000000
# 4 0.000000 0.000000 0.000000 0.046819 0.000000 0.006272
# 5 0.012741 0.000113 -0.013100 0.000000 0.066191 0.000000
# 6 0.000000 0.000000 0.000000 0.006272 0.000000 0.025064
#
#
# Mechanical properties :
#
#
# Convention : Reuss Voigt Hill
#
# Bulk Modulus (GPa) = 83.72277 85.15045 84.43661
# Shear Modulus (GPa) = 25.18132 32.91550 29.04841
#
# Velocity S-wave (km/s) = 3.57827 4.09105 3.84322
# Velocity P-wave (km/s) = 7.72288 8.10014 7.91376
#
# Compressibility (1/GPa) = 0.01194418
#
# Stress axis : x y z
#
# Youngs Moduli (GPa) = 76.17490 117.02182 79.67224
#
# Poissons Ratio (x) = 0.35153 0.42462
# Poissons Ratio (y) = 0.22883 0.22361
# Poissons Ratio (z) = 0.40598 0.32844
#
# Static dielectric constant tensor:
#      x y z
#    x 5.688760 0.000000 8.344340 
#    y 0.000000 3.734860 0.000000 
#    z 8.344340 0.000000 34.587610 
# 
# 
# High freq. dielectric constant tensor:
#      x y z
#    x 1.763010 0.000000 0.003950 
#    y 0.000000 1.774100 0.000000 
#    z 0.003950 0.000000 1.776680 
# 
# From -- ./inp_files/52378.got.cif
#   From: 2010.06.25/outbox.cif.g09.slc.cpg/sg11_27_cif.got.tgz:52378.got - 2010.06.27 23:14:04.
