data_PCOD8076594
_publ_section_title
;
Structure prediction by ZEFSAII (Michael W. Deem and Ramdas Pophale) SiO2 
 PCOD8076594
Probable space group: P 21/M
;
_chemical_formula_sum "Si O2"
_cell_formula_units_Z 28
_cell_length_a 11.295684
_cell_length_b 8.398673
_cell_length_c 15.296743
_cell_angle_alpha 90.000000
_cell_angle_beta 114.845350
_cell_angle_gamma 90.000000
_cell_volume 1316.869025
_symmetry_space_group_name_H-M "P 21/M"
_symmetry_group_IT_number 11
_symmetry_cell_setting 'monoclinic'
loop_
_space_group_symop_operation_xyz
x,y,z
-x,1/2+y,-z
-x,-y,-z
x,1/2-y,z
loop_
_atom_site_type_symbol
_atom_site_label
_atom_site_fract_x
_atom_site_fract_y
_atom_site_fract_z
Si Si1 0.284860 0.931512 0.927237
Si Si2 0.034314 0.432989 0.917281
Si Si3 0.235724 0.931662 0.248094
Si Si4 0.850878 0.560649 0.456474
Si Si5 0.351373 0.065851 0.456298
Si Si6 0.317271 0.434180 0.752405
Si Si7 0.401267 0.560330 0.140005
O O1 0.319505 0.750000 0.913164
O O2 0.139211 0.941874 0.916711
O O3 0.285514 0.042723 0.843446
O O4 0.377409 0.002132 0.033399
O O5 0.083594 0.250000 0.939583
O O6 0.918721 0.441703 0.810500
O O7 0.000000 0.500000 0.000000
O O8 0.282133 0.750000 0.279164
O O9 0.294238 0.999974 0.175426
O O10 0.284185 0.038734 0.342406
O O11 0.858620 0.750000 0.463626
O O12 0.752426 0.496670 0.503171
O O13 0.787649 0.491873 0.346805
O O14 0.000000 0.500000 0.500000
O O15 0.367466 0.250000 0.481270
O O16 0.500000 0.000000 0.500000
O O17 0.321666 0.250000 0.731676
O O18 0.461377 0.506094 0.781504
O O19 0.396106 0.750000 0.131803
#
# Coordination Sequence:
#
# PCOD8076594 Si02
#       7
#     4   4   4   4   4   4   4
#     4  11  22  37  58  87 123 160 200 247 300 360
#     4  11  22  38  60  87 123 163 203 247 301 362
#     4  10  21  39  63  89 121 163 202 246 305 365
#     4  10  24  44  65  89 123 164 210 262 320 376
#     4  11  24  43  67  97 126 162 209 263 319 378
#     4  10  21  39  62  85 114 157 204 248 302 365
#     4   9  18  37  61  86 121 160 196 240 301 364
#
# _framework density 21.262554000000002
#
# number of rings (size 3 to 8) (size 9 to 14) (size 15 to 20)
#    0.000    1.714    1.429    2.571    2.000    5.143 
#    0.000    2.857    0.000    0.000    0.000    0.000 
#    0.000    0.000    0.000    0.000    0.000    0.000 
#
# Total GULP energy -346947.965766 kJ/mol
# GULP energy per Si atom -12390.998777 kJ/mol
# Density = 2.121416 g / cm^3
# Si number density = 21.262554 Si / 1000 Ang^3
#
#
#
# Elastic Constant Matrix: (Units=GPa)
#
#
# Indices 1 2 3 4 5 6 
#
# 1 117.1950 11.3316 53.1556 0.0000 10.8147 0.0000
# 2 11.3316 36.3816 16.2622 0.0000 6.8507 0.0000
# 3 53.1556 16.2622 161.7606 0.0000 10.3607 0.0000
# 4 0.0000 0.0000 0.0000 31.3945 0.0000 -0.2845
# 5 10.8147 6.8507 10.3607 0.0000 40.3727 0.0000
# 6 0.0000 0.0000 0.0000 -0.2845 0.0000 28.9638
#
#
#
# Elastic Compliance Matrix: (Units=1/GPa)
#
#
# Indices 1 2 3 4 5 6 
#
# 1 0.010242 -0.001482 -0.003108 0.000000 -0.001695 0.000000
# 2 -0.001482 0.029716 -0.002240 0.000000 -0.004071 0.000000
# 3 -0.003108 -0.002240 0.007474 0.000000 -0.000705 0.000000
# 4 0.000000 0.000000 0.000000 0.031856 0.000000 0.000313
# 5 -0.001695 -0.004071 -0.000705 0.000000 0.026095 0.000000
# 6 0.000000 0.000000 0.000000 0.000313 0.000000 0.034529
#
#
# Mechanical properties :
#
#
# Convention : Reuss Voigt Hill
#
# Bulk Modulus (GPa) = 29.61014 52.98177 41.29596
# Shear Modulus (GPa) = 30.33476 35.78539 33.06007
#
# Velocity S-wave (km/s) = 3.78123 4.10692 3.94744
# Velocity P-wave (km/s) = 5.74629 6.88919 6.34353
#
# Compressibility (1/GPa) = 0.03377221
#
# Stress axis : x y z
#
# Youngs Moduli (GPa) = 97.63551 33.65236 133.80291
#
# Poissons Ratio (x) = 0.04986 0.41588
# Poissons Ratio (y) = 0.14467 0.29969
# Poissons Ratio (z) = 0.30347 0.07537
#
# Static dielectric constant tensor:
#      x y z
#    x 4.434030 0.000000 0.054940 
#    y 0.000000 3.561060 0.000000 
#    z 0.054940 0.000000 4.088040 
# 
# 
# High freq. dielectric constant tensor:
#      x y z
#    x 1.846060 0.000000 0.005100 
#    y 0.000000 1.804030 0.000000 
#    z 0.005100 0.000000 1.847840 
# 
# From -- ./inp_files/37879.got.cif
#   From: 2010.06.25/outbox.cif.g09.slc.cpg/sg11_19_cif.got.tgz:37879.got - 2010.06.27 23:14:04.
