data_PCOD8076145
_publ_section_title
;
Structure prediction by ZEFSAII (Michael W. Deem and Ramdas Pophale) SiO2 
 PCOD8076145
Probable space group: P 21/M
;
_chemical_formula_sum "Si O2"
_cell_formula_units_Z 28
_cell_length_a 8.750898
_cell_length_b 13.369591
_cell_length_c 20.783604
_cell_angle_alpha 90.000000
_cell_angle_beta 33.484641
_cell_angle_gamma 90.000000
_cell_volume 1341.544731
_symmetry_space_group_name_H-M "P 21/M"
_symmetry_group_IT_number 11
_symmetry_cell_setting 'monoclinic'
loop_
_space_group_symop_operation_xyz
x,y,z
-x,1/2+y,-z
-x,-y,-z
x,1/2-y,z
loop_
_atom_site_type_symbol
_atom_site_label
_atom_site_fract_x
_atom_site_fract_y
_atom_site_fract_z
Si Si1 0.380835 0.010783 0.811348
Si Si2 0.799499 0.060628 0.339291
Si Si3 0.687548 0.632365 0.915572
Si Si4 0.767179 0.023056 0.993577
Si Si5 0.509203 0.365095 0.561004
Si Si6 0.416098 0.134193 0.362456
Si Si7 0.198306 0.634211 0.407630
O O1 0.629351 0.088171 0.711802
O O2 0.384966 0.985849 0.884886
O O3 0.432704 0.910867 0.752535
O O4 0.085010 0.055864 0.892606
O O5 0.754461 0.110040 0.424774
O O6 0.582420 0.113441 0.368567
O O7 0.108946 0.082752 0.208257
O O8 0.749222 0.940359 0.359561
O O9 0.736530 0.750000 0.904733
O O10 0.378376 0.608384 0.998820
O O11 0.743798 0.583552 0.965389
O O12 0.409901 0.250000 0.588631
O O13 0.628407 0.387249 0.589202
O O14 0.396809 0.250000 0.354525
O O15 0.109100 0.086937 0.478619
O O16 0.164573 0.750000 0.404423
#
# Coordination Sequence:
#
# PCOD8076145 Si02
#       7
#     4   4   4   4   4   4   4
#     4  11  22  42  63  89 129 163 203 264 316 371
#     4  11  22  37  62  89 126 167 206 257 311 374
#     4  11  23  44  65  89 123 164 215 264 308 371
#     4  10  25  41  63  94 120 165 218 256 316 373
#     4  10  21  37  59  91 126 164 206 254 312 375
#     4  11  22  37  61  92 122 161 204 253 315 379
#     4  10  22  38  60  91 124 159 204 249 315 379
#
# _framework density 20.871462999999999
#
# number of rings (size 3 to 8) (size 9 to 14) (size 15 to 20)
#    0.000    1.429    2.857    1.714    2.000    2.857 
#    0.000    7.143    0.000    0.000    0.000    0.000 
#    0.000    0.000    0.000    0.000    0.000    0.000 
#
# Total GULP energy -347279.748121 kJ/mol
# GULP energy per Si atom -12402.848147 kJ/mol
# Density = 2.082396 g / cm^3
# Si number density = 20.871463 Si / 1000 Ang^3
#
#
#
# Elastic Constant Matrix: (Units=GPa)
#
#
# Indices 1 2 3 4 5 6 
#
# 1 49.5655 7.0034 22.5310 0.0000 3.0383 0.0000
# 2 7.0034 72.7992 28.1444 0.0000 -1.7546 0.0000
# 3 22.5310 28.1444 116.3807 0.0000 10.7884 0.0000
# 4 0.0000 0.0000 0.0000 21.4611 0.0000 -4.1277
# 5 3.0383 -1.7546 10.7884 0.0000 36.0621 0.0000
# 6 0.0000 0.0000 0.0000 -4.1277 0.0000 19.7579
#
#
#
# Elastic Compliance Matrix: (Units=1/GPa)
#
#
# Indices 1 2 3 4 5 6 
#
# 1 0.022156 -0.000566 -0.004090 0.000000 -0.000671 0.000000
# 2 -0.000566 0.015293 -0.003767 0.000000 0.001919 0.000000
# 3 -0.004090 -0.003767 0.010573 0.000000 -0.003002 0.000000
# 4 0.000000 0.000000 0.000000 0.048547 0.000000 0.010142
# 5 -0.000671 0.001919 -0.003002 0.000000 0.028778 0.000000
# 6 0.000000 0.000000 0.000000 0.010142 0.000000 0.052731
#
#
# Mechanical properties :
#
#
# Convention : Reuss Voigt Hill
#
# Bulk Modulus (GPa) = 32.07560 39.34478 35.71019
# Shear Modulus (GPa) = 24.35262 27.52732 25.93997
#
# Velocity S-wave (km/s) = 3.41954 3.63560 3.52922
# Velocity P-wave (km/s) = 5.56709 6.04280 5.80981
#
# Compressibility (1/GPa) = 0.03117634
#
# Stress axis : x y z
#
# Youngs Moduli (GPa) = 45.13505 65.38803 94.57614
#
# Poissons Ratio (x) = 0.03703 0.38683
# Poissons Ratio (y) = 0.02556 0.35623
# Poissons Ratio (z) = 0.18461 0.24629
#
# Static dielectric constant tensor:
#      x y z
#    x 3.710100 0.000000 0.003320 
#    y 0.000000 3.762420 0.000000 
#    z 0.003320 0.000000 3.895380 
# 
# 
# High freq. dielectric constant tensor:
#      x y z
#    x 1.817630 0.000000 0.002560 
#    y 0.000000 1.817000 0.000000 
#    z 0.002560 0.000000 1.823770 
# 
# From -- ./inp_files/63861.got.cif
#   From: 2010.06.25/outbox.cif.g09.slc.cpg/sg11_32_cif.got.tgz:63861.got - 2010.06.27 23:14:04.
