data_PCOD8076356
_publ_section_title
;
Structure prediction by ZEFSAII (Michael W. Deem and Ramdas Pophale) SiO2 
 PCOD8076356
Probable space group: P 21/M
;
_chemical_formula_sum "Si O2"
_cell_formula_units_Z 28
_cell_length_a 15.393177
_cell_length_b 9.106480
_cell_length_c 11.832086
_cell_angle_alpha 90.000000
_cell_angle_beta 119.227167
_cell_angle_gamma 90.000000
_cell_volume 1447.439587
_symmetry_space_group_name_H-M "P 21/M"
_symmetry_group_IT_number 11
_symmetry_cell_setting 'monoclinic'
loop_
_space_group_symop_operation_xyz
x,y,z
-x,1/2+y,-z
-x,-y,-z
x,1/2-y,z
loop_
_atom_site_type_symbol
_atom_site_label
_atom_site_fract_x
_atom_site_fract_y
_atom_site_fract_z
Si Si1 0.105048 0.577904 0.568260
Si Si2 0.212450 0.921127 0.870091
Si Si3 0.361441 0.082535 0.446973
Si Si4 0.510554 0.577675 0.679835
Si Si5 0.421349 0.075126 0.031854
Si Si6 0.145894 0.418627 0.376830
Si Si7 0.974583 0.077605 0.100966
O O1 0.088896 0.750000 0.545593
O O2 0.162246 0.539506 0.719193
O O3 0.165588 0.516290 0.499971
O O4 0.000000 0.500000 0.500000
O O5 0.241965 0.750000 0.893511
O O6 0.136059 0.960092 0.923701
O O7 0.309871 0.019975 0.940595
O O8 0.392206 0.250000 0.486897
O O9 0.407324 0.024307 0.358794
O O10 0.243356 0.063899 0.361530
O O11 0.404547 0.993151 0.580961
O O12 0.495645 0.750000 0.670455
O O13 0.546973 0.523028 0.823843
O O14 0.424471 0.250000 0.018341
O O15 0.500000 0.000000 0.000000
O O16 0.128195 0.250000 0.402559
O O17 0.052402 0.476760 0.245500
O O18 0.987689 0.250000 0.089769
O O19 0.000000 0.000000 0.000000
#
# Coordination Sequence:
#
# PCOD8076356 Si02
#       7
#     4   4   4   4   4   4   4
#     4  11  22  39  62  86 118 154 195 243 292 350
#     4  10  23  43  62  86 122 160 198 249 303 350
#     4   9  19  36  61  87 113 149 191 239 293 350
#     4   9  20  39  59  83 115 151 193 242 294 346
#     4  11  25  42  63  88 119 158 202 248 298 358
#     4  10  21  38  60  88 121 154 194 244 297 350
#     4  10  22  40  61  88 125 161 198 247 297 355
#
# _framework density 19.344504000000001
#
# number of rings (size 3 to 8) (size 9 to 14) (size 15 to 20)
#    0.000    2.000    1.429    0.857    4.000    4.000 
#    0.000    0.000    0.000    0.000    0.000    0.000 
#    0.000    0.000    0.000    0.000    0.000    0.000 
#
# Total GULP energy -347230.613038 kJ/mol
# GULP energy per Si atom -12401.093323 kJ/mol
# Density = 1.930048 g / cm^3
# Si number density = 19.344504 Si / 1000 Ang^3
#
#
#
# Elastic Constant Matrix: (Units=GPa)
#
#
# Indices 1 2 3 4 5 6 
#
# 1 126.0538 47.6512 67.9950 0.0000 0.7901 0.0000
# 2 47.6512 62.2736 60.2589 0.0000 -2.9008 0.0000
# 3 67.9950 60.2589 135.4173 0.0000 -8.8080 0.0000
# 4 0.0000 0.0000 0.0000 36.0733 0.0000 -0.5091
# 5 0.7901 -2.9008 -8.8080 0.0000 34.5587 0.0000
# 6 0.0000 0.0000 0.0000 -0.5091 0.0000 34.8943
#
#
#
# Elastic Compliance Matrix: (Units=1/GPa)
#
#
# Indices 1 2 3 4 5 6 
#
# 1 0.012088 -0.005882 -0.003562 0.000000 -0.001678 0.000000
# 2 -0.005882 0.031087 -0.010882 0.000000 -0.000030 0.000000
# 3 -0.003562 -0.010882 0.014197 0.000000 0.002786 0.000000
# 4 0.000000 0.000000 0.000000 0.027727 0.000000 0.000405
# 5 -0.001678 -0.000030 0.002786 0.000000 0.029682 0.000000
# 6 0.000000 0.000000 0.000000 0.000405 0.000000 0.028664
#
#
# Mechanical properties :
#
#
# Convention : Reuss Voigt Hill
#
# Bulk Modulus (GPa) = 59.80324 75.06166 67.43245
# Shear Modulus (GPa) = 26.36160 30.96123 28.66141
#
# Velocity S-wave (km/s) = 3.69554 4.00499 3.85337
# Velocity P-wave (km/s) = 7.01365 7.76359 7.39813
#
# Compressibility (1/GPa) = 0.01672150
#
# Stress axis : x y z
#
# Youngs Moduli (GPa) = 82.72556 32.16731 70.43973
#
# Poissons Ratio (x) = 0.18920 0.25087
# Poissons Ratio (y) = 0.48656 0.76654
# Poissons Ratio (z) = 0.29463 0.35005
#
# Static dielectric constant tensor:
#      x y z
#    x 3.726880 0.000000 -0.189740 
#    y 0.000000 3.482390 0.000000 
#    z -0.189740 0.000000 3.889420 
# 
# 
# High freq. dielectric constant tensor:
#      x y z
#    x 1.765190 0.000000 -0.002030 
#    y 0.000000 1.747810 0.000000 
#    z -0.002030 0.000000 1.755950 
# 
# From -- ./inp_files/38427.got.cif
#   From: 2010.06.25/outbox.cif.g09.slc.cpg/sg11_20_cif.got.tgz:38427.got - 2010.06.27 23:14:04.
