data_PCOD8076287
_publ_section_title
;
Structure prediction by ZEFSAII (Michael W. Deem and Ramdas Pophale) SiO2 
 PCOD8076287
Probable space group: P 21/M
;
_chemical_formula_sum "Si O2"
_cell_formula_units_Z 28
_cell_length_a 8.954048
_cell_length_b 9.083545
_cell_length_c 25.779491
_cell_angle_alpha 90.000000
_cell_angle_beta 136.544222
_cell_angle_gamma 90.000000
_cell_volume 1442.141369
_symmetry_space_group_name_H-M "P 21/M"
_symmetry_group_IT_number 11
_symmetry_cell_setting 'monoclinic'
loop_
_space_group_symop_operation_xyz
x,y,z
-x,1/2+y,-z
-x,-y,-z
x,1/2-y,z
loop_
_atom_site_type_symbol
_atom_site_label
_atom_site_fract_x
_atom_site_fract_y
_atom_site_fract_z
Si Si1 0.335452 0.918806 0.340375
Si Si2 0.058056 0.413893 0.936512
Si Si3 0.599752 0.576964 0.239706
Si Si4 0.762716 0.924512 0.786078
Si Si5 0.094613 0.921654 0.384060
Si Si6 0.325615 0.912691 0.077551
Si Si7 0.824547 0.580014 0.490693
O O1 0.274151 0.750000 0.312076
O O2 0.240769 0.964644 0.372023
O O3 0.593425 0.940656 0.405071
O O4 0.227158 0.024854 0.270856
O O5 0.109189 0.250000 0.928894
O O6 0.977010 0.514106 0.868652
O O7 0.875865 0.409558 0.934270
O O8 0.278480 0.479862 0.017328
O O9 0.554947 0.750000 0.238006
O O10 0.457669 0.486960 0.244737
O O11 0.533691 0.534870 0.163765
O O12 0.847658 0.533208 0.310224
O O13 0.762579 0.750000 0.790213
O O14 0.112328 0.750000 0.402130
O O15 0.185858 0.013199 0.454814
O O16 0.365451 0.750000 0.064661
O O17 0.888728 0.750000 0.511171
O O18 0.000000 0.500000 0.500000
#
# Coordination Sequence:
#
# PCOD8076287 Si02
#       7
#     4   4   4   4   4   4   4
#     4  10  22  39  56  76 106 142 176 213 261 314
#     4   9  16  27  45  70 102 137 172 214 263 310
#     4   9  18  33  53  77 105 137 173 216 265 314
#     4  11  21  32  51  78 106 138 177 220 262 307
#     4  10  21  38  59  80 105 139 176 214 261 314
#     4   8  14  25  43  70 102 132 166 211 262 312
#     4  11  23  38  58  83 110 139 173 215 260 307
#
# _framework density 19.415572000000001
#
# number of rings (size 3 to 8) (size 9 to 14) (size 15 to 20)
#    0.000    2.286    0.000    4.286    0.000    9.143 
#    0.000    0.000    0.000    0.857    0.000    0.000 
#    0.000    0.000    0.000    0.000    0.000    0.000 
#
# Total GULP energy -347224.288450 kJ/mol
# GULP energy per Si atom -12400.867445 kJ/mol
# Density = 1.937138 g / cm^3
# Si number density = 19.415572 Si / 1000 Ang^3
#
#
#
# Elastic Constant Matrix: (Units=GPa)
#
#
# Indices 1 2 3 4 5 6 
#
# 1 66.6244 38.4408 19.9008 0.0000 -19.6724 0.0000
# 2 38.4408 114.9212 50.6338 0.0000 -20.5589 0.0000
# 3 19.9008 50.6338 88.6323 0.0000 -27.0920 0.0000
# 4 0.0000 0.0000 0.0000 35.8586 0.0000 -8.9817
# 5 -19.6724 -20.5589 -27.0920 0.0000 17.2559 0.0000
# 6 0.0000 0.0000 0.0000 -8.9817 0.0000 23.8549
#
#
#
# Elastic Compliance Matrix: (Units=1/GPa)
#
#
# Indices 1 2 3 4 5 6 
#
# 1 0.026982 -0.006290 0.008935 0.000000 0.037294 0.000000
# 2 -0.006290 0.013498 -0.006874 0.000000 -0.001882 0.000000
# 3 0.008935 -0.006874 0.026560 0.000000 0.043696 0.000000
# 4 0.000000 0.000000 0.000000 0.030791 0.000000 0.011593
# 5 0.037294 -0.001882 0.043696 0.000000 0.166830 0.000000
# 6 0.000000 0.000000 0.000000 0.011593 0.000000 0.046285
#
#
# Mechanical properties :
#
#
# Convention : Reuss Voigt Hill
#
# Bulk Modulus (GPa) = 17.07044 54.23654 35.65349
# Shear Modulus (GPa) = 14.75229 26.14071 20.44650
#
# Velocity S-wave (km/s) = 2.75947 3.67328 3.24867
# Velocity P-wave (km/s) = 4.35478 6.78129 5.69868
#
# Compressibility (1/GPa) = 0.05858081
#
# Stress axis : x y z
#
# Youngs Moduli (GPa) = 37.06164 74.08727 37.65110
#
# Poissons Ratio (x) = 0.46603 -0.33641
# Poissons Ratio (y) = 0.23313 0.25881
# Poissons Ratio (z) = -0.33114 0.50926
#
# Static dielectric constant tensor:
#      x y z
#    x 3.197180 0.000000 -0.079470 
#    y 0.000000 3.590510 0.000000 
#    z -0.079470 0.000000 3.825360 
# 
# 
# High freq. dielectric constant tensor:
#      x y z
#    x 1.721150 0.000000 -0.010020 
#    y 0.000000 1.753600 0.000000 
#    z -0.010020 0.000000 1.772130 
# 
# From -- ./inp_files/70797.got.cif
#   From: 2010.06.25/outbox.cif.g09.slc.cpg/sg11_36_cif.got.tgz:70797.got - 2010.06.27 23:14:04.
