data_PCOD8076630
_publ_section_title
;
Structure prediction by ZEFSAII (Michael W. Deem and Ramdas Pophale) SiO2 
 PCOD8076630
Probable space group: P 21/M
;
_chemical_formula_sum "Si O2"
_cell_formula_units_Z 24
_cell_length_a 8.485910
_cell_length_b 17.588617
_cell_length_c 8.864100
_cell_angle_alpha 90.000000
_cell_angle_beta 109.068755
_cell_angle_gamma 90.000000
_cell_volume 1250.417457
_symmetry_space_group_name_H-M "P 21/M"
_symmetry_group_IT_number 11
_symmetry_cell_setting 'monoclinic'
loop_
_space_group_symop_operation_xyz
x,y,z
-x,1/2+y,-z
-x,-y,-z
x,1/2-y,z
loop_
_atom_site_type_symbol
_atom_site_label
_atom_site_fract_x
_atom_site_fract_y
_atom_site_fract_z
Si Si1 0.451410 0.927842 0.082864
Si Si2 0.824305 0.163989 0.131392
Si Si3 0.825832 0.980645 0.860798
Si Si4 0.235213 0.337401 0.705231
Si Si5 0.888491 0.833594 0.013025
Si Si6 0.051102 0.432350 0.408179
O O1 0.606474 0.890748 0.215330
O O2 0.313934 0.956094 0.159754
O O3 0.364761 0.862265 0.956045
O O4 0.500000 0.000000 0.000000
O O5 0.823506 0.250000 0.191124
O O6 0.930837 0.157065 0.009129
O O7 0.894100 0.108971 0.282840
O O8 0.765934 0.898579 0.909208
O O9 0.840349 0.972438 0.686633
O O10 0.000000 0.000000 0.000000
O O11 0.290667 0.250000 0.697990
O O12 0.152000 0.367450 0.527151
O O13 0.103014 0.343675 0.802664
O O14 0.814369 0.750000 0.951562
O O15 0.000000 0.500000 0.500000
#
# Coordination Sequence:
#
# PCOD8076630 Si02
#       6
#     4   4   4   4   4   4
#     4  12  22  36  63  89 120 153 201 249 301 348
#     4  10  21  39  63  86 113 160 209 246 283 357
#     4  11  20  39  62  87 113 154 209 249 280 352
#     4  11  23  38  58  91 128 156 188 248 315 360
#     4   9  18  35  60  84 112 155 201 242 290 349
#     4  11  22  37  64  88 119 155 202 244 300 350
#
# _framework density 19.193588999999999
#
# number of rings (size 3 to 8) (size 9 to 14) (size 15 to 20)
#    0.000    1.333    5.000    3.000    0.000    1.333 
#    0.000    0.000    0.000    2.000    0.000    0.000 
#    0.000    0.000    0.000    0.000    0.000    0.000 
#
# Total GULP energy -297469.229710 kJ/mol
# GULP energy per Si atom -12394.551238 kJ/mol
# Density = 1.914990 g / cm^3
# Si number density = 19.193589 Si / 1000 Ang^3
#
#
#
# Elastic Constant Matrix: (Units=GPa)
#
#
# Indices 1 2 3 4 5 6 
#
# 1 53.2235 34.2840 37.0331 0.0000 -4.8569 0.0000
# 2 34.2840 126.3784 37.5308 0.0000 -10.3046 0.0000
# 3 37.0331 37.5308 102.4253 0.0000 -14.0921 0.0000
# 4 0.0000 0.0000 0.0000 41.9120 0.0000 0.9498
# 5 -4.8569 -10.3046 -14.0921 0.0000 29.3576 0.0000
# 6 0.0000 0.0000 0.0000 0.9498 0.0000 36.0233
#
#
#
# Elastic Compliance Matrix: (Units=1/GPa)
#
#
# Indices 1 2 3 4 5 6 
#
# 1 0.027799 -0.005168 -0.008324 0.000000 -0.001211 0.000000
# 2 -0.005168 0.009916 -0.001503 0.000000 0.001904 0.000000
# 3 -0.008324 -0.001503 0.013985 0.000000 0.004808 0.000000
# 4 0.000000 0.000000 0.000000 0.023874 0.000000 -0.000629
# 5 -0.001211 0.001904 0.004808 0.000000 0.036839 0.000000
# 6 0.000000 0.000000 0.000000 -0.000629 0.000000 0.027776
#
#
# Mechanical properties :
#
#
# Convention : Reuss Voigt Hill
#
# Bulk Modulus (GPa) = 46.06061 55.52476 50.79269
# Shear Modulus (GPa) = 28.18226 33.00387 30.59306
#
# Velocity S-wave (km/s) = 3.83602 4.15121 3.99673
# Velocity P-wave (km/s) = 6.60833 7.20891 6.91514
#
# Compressibility (1/GPa) = 0.02171053
#
# Stress axis : x y z
#
# Youngs Moduli (GPa) = 35.97239 100.84350 71.50454
#
# Poissons Ratio (x) = 0.52117 0.59520
# Poissons Ratio (y) = 0.18591 0.10747
# Poissons Ratio (z) = 0.29943 0.15157
#
# Static dielectric constant tensor:
#      x y z
#    x 3.490580 0.000000 -0.153470 
#    y 0.000000 4.143930 0.000000 
#    z -0.153470 0.000000 3.420300 
# 
# 
# High freq. dielectric constant tensor:
#      x y z
#    x 1.729180 0.000000 -0.014390 
#    y 0.000000 1.781830 0.000000 
#    z -0.014390 0.000000 1.725050 
# 
# From -- ./inp_files/14111.got.cif
#   From: 2010.06.25/outbox.cif.g09.slc.cpg/sg11_8_cif.got.tgz:14111.got - 2010.06.27 23:14:04.
