data_PCOD8076910
_publ_section_title
;
Structure prediction by ZEFSAII (Michael W. Deem and Ramdas Pophale) SiO2 
 PCOD8076910
Probable space group: P 21/M
;
_chemical_formula_sum "Si O2"
_cell_formula_units_Z 28
_cell_length_a 9.246277
_cell_length_b 28.432374
_cell_length_c 5.221494
_cell_angle_alpha 90.000000
_cell_angle_beta 70.122547
_cell_angle_gamma 90.000000
_cell_volume 1290.914821
_symmetry_space_group_name_H-M "P 21/M"
_symmetry_group_IT_number 11
_symmetry_cell_setting 'monoclinic'
loop_
_space_group_symop_operation_xyz
x,y,z
-x,1/2+y,-z
-x,-y,-z
x,1/2-y,z
loop_
_atom_site_type_symbol
_atom_site_label
_atom_site_fract_x
_atom_site_fract_y
_atom_site_fract_z
Si Si1 0.329075 0.303762 0.050263
Si Si2 0.522482 0.842060 0.529862
Si Si3 0.341618 0.064032 0.402408
Si Si4 0.163422 0.024227 0.918783
Si Si5 0.656976 0.049537 0.963531
Si Si6 0.753066 0.103987 0.402229
Si Si7 0.104242 0.114857 0.204168
O O1 0.284092 0.250000 0.126693
O O2 0.437861 0.322057 0.213432
O O3 0.171473 0.333089 0.123227
O O4 0.415947 0.308079 0.728200
O O5 0.582035 0.895696 0.463167
O O6 0.338474 0.847523 0.605064
O O7 0.278786 0.019438 0.605175
O O8 0.474055 0.045957 0.126619
O O9 0.192069 0.088532 0.376546
O O10 0.258475 0.002068 0.105056
O O11 0.133171 0.080295 0.947495
O O12 0.000000 0.000000 0.000000
O O13 0.747893 0.071183 0.154141
O O14 0.680737 0.078613 0.692995
O O15 0.924833 0.119230 0.371945
#
# Coordination Sequence:
#
# PCOD8076910 Si02
#       7
#     4   4   4   4   4   4   4
#     4  11  23  44  71  98 122 162 215 272 333 398
#     4  10  21  43  67  93 126 164 211 264 325 386
#     4  10  23  40  61  91 129 177 225 268 314 377
#     4  12  23  39  60  95 137 181 224 266 324 377
#     4  11  25  39  63  91 133 179 228 260 304 380
#     4  11  23  42  64  95 130 176 210 262 325 379
#     4  11  24  40  66  91 137 169 218 271 331 386
#
# _framework density 21.690044
#
# number of rings (size 3 to 8) (size 9 to 14) (size 15 to 20)
#    0.000    1.143    2.857    4.286    4.000    1.714 
#    0.000    1.429    0.000    0.000    0.000    0.000 
#    0.000    0.000    0.000    0.000    0.000    0.000 
#
# Total GULP energy -347034.884885 kJ/mol
# GULP energy per Si atom -12394.103032 kJ/mol
# Density = 2.164068 g / cm^3
# Si number density = 21.690044 Si / 1000 Ang^3
#
#
#
# Elastic Constant Matrix: (Units=GPa)
#
#
# Indices 1 2 3 4 5 6 
#
# 1 160.2752 46.0254 38.8179 0.0000 -16.6614 0.0000
# 2 46.0254 107.7002 25.0960 0.0000 -17.3230 0.0000
# 3 38.8179 25.0960 99.7366 0.0000 0.6120 0.0000
# 4 0.0000 0.0000 0.0000 26.2373 0.0000 0.9452
# 5 -16.6614 -17.3230 0.6120 0.0000 33.7279 0.0000
# 6 0.0000 0.0000 0.0000 0.9452 0.0000 23.8362
#
#
#
# Elastic Compliance Matrix: (Units=1/GPa)
#
#
# Indices 1 2 3 4 5 6 
#
# 1 0.007782 -0.002318 -0.002462 0.000000 0.002698 0.000000
# 2 -0.002318 0.011521 -0.002026 0.000000 0.004809 0.000000
# 3 -0.002462 -0.002026 0.011510 0.000000 -0.002466 0.000000
# 4 0.000000 0.000000 0.000000 0.038168 0.000000 -0.001514
# 5 0.002698 0.004809 -0.002466 0.000000 0.033497 0.000000
# 6 0.000000 0.000000 0.000000 -0.001514 0.000000 0.042013
#
#
# Mechanical properties :
#
#
# Convention : Reuss Voigt Hill
#
# Bulk Modulus (GPa) = 58.13902 65.28785 61.71344
# Shear Modulus (GPa) = 30.51826 33.94513 32.23170
#
# Velocity S-wave (km/s) = 3.75509 3.96031 3.85907
# Velocity P-wave (km/s) = 6.75749 7.14687 6.95491
#
# Compressibility (1/GPa) = 0.01720015
#
# Stress axis : x y z
#
# Youngs Moduli (GPa) = 128.50763 86.79604 86.88357
#
# Poissons Ratio (x) = 0.20117 0.21391
# Poissons Ratio (y) = 0.29785 0.17606
# Poissons Ratio (z) = 0.31639 0.17589
#
# Static dielectric constant tensor:
#      x y z
#    x 4.137160 0.000000 0.038650 
#    y 0.000000 3.858660 0.000000 
#    z 0.038650 0.000000 3.823600 
# 
# 
# High freq. dielectric constant tensor:
#      x y z
#    x 1.870200 0.000000 0.007040 
#    y 0.000000 1.825630 0.000000 
#    z 0.007040 0.000000 1.856070 
# 
# From -- ./inp_files/3209.got.cif
#   From: 2010.06.25/outbox.cif.g09.slc.cpg/sg11_2_cif.got.tgz:3209.got - 2010.06.27 23:14:04.
