data_PCOD8076409
_publ_section_title
;
Structure prediction by ZEFSAII (Michael W. Deem and Ramdas Pophale) SiO2 
 PCOD8076409
Probable space group: P 21/M
;
_chemical_formula_sum "Si O2"
_cell_formula_units_Z 32
_cell_length_a 11.886505
_cell_length_b 8.360325
_cell_length_c 28.538334
_cell_angle_alpha 90.000000
_cell_angle_beta 147.125174
_cell_angle_gamma 90.000000
_cell_volume 1539.395418
_symmetry_space_group_name_H-M "P 21/M"
_symmetry_group_IT_number 11
_symmetry_cell_setting 'monoclinic'
loop_
_space_group_symop_operation_xyz
x,y,z
-x,1/2+y,-z
-x,-y,-z
x,1/2-y,z
loop_
_atom_site_type_symbol
_atom_site_label
_atom_site_fract_x
_atom_site_fract_y
_atom_site_fract_z
Si Si1 0.446621 0.940316 0.593617
Si Si2 0.600531 0.937992 0.747263
Si Si3 0.079246 0.936984 0.902430
Si Si4 0.817600 0.933986 0.160406
Si Si5 0.808694 0.564893 0.653893
Si Si6 0.384137 0.063303 0.761479
Si Si7 0.560225 0.562900 0.917470
Si Si8 0.920942 0.436515 0.595831
O O1 0.460547 0.750000 0.597189
O O2 0.484766 0.999078 0.659814
O O3 0.627137 0.006992 0.622883
O O4 0.224390 0.004448 0.497052
O O5 0.566507 0.750000 0.743972
O O6 0.841310 0.981438 0.827818
O O7 0.505719 0.038739 0.756109
O O8 0.104037 0.750000 0.901244
O O9 0.168028 0.033713 0.889510
O O10 0.209624 0.992669 0.993336
O O11 0.869529 0.750000 0.189323
O O12 0.588561 0.973016 0.098173
O O13 0.974727 0.045635 0.243701
O O14 0.774267 0.750000 0.630308
O O15 0.807620 0.469245 0.605109
O O16 0.376302 0.250000 0.771879
O O17 0.151803 0.989343 0.675062
O O18 0.500408 0.969049 0.842985
O O19 0.555035 0.750000 0.925781
O O20 0.943029 0.250000 0.595842
#
# Coordination Sequence:
#
# PCOD8076409 Si02
#       8
#     4   4   4   4   4   4   4   4
#     4   9  19  38  62  90 123 161 203 248 304 361
#     4  10  22  42  65  87 118 163 208 254 304 358
#     4  11  23  42  66  93 124 159 202 250 304 363
#     4  12  23  38  62  93 128 162 198 246 304 365
#     4  11  20  35  61  91 124 162 202 248 301 365
#     4  11  24  41  61  89 123 161 207 258 306 354
#     4  12  25  42  65  92 123 161 203 248 303 365
#     4  10  21  38  61  89 125 163 201 251 304 360
#
# _framework density 20.787381
#
# number of rings (size 3 to 8) (size 9 to 14) (size 15 to 20)
#    0.000    1.250    2.500    4.125    0.000    2.500 
#    0.000    1.250    0.000    0.000    0.000    0.000 
#    0.000    0.000    0.000    0.000    0.000    0.000 
#
# Total GULP energy -396941.600054 kJ/mol
# GULP energy per Si atom -12404.425002 kJ/mol
# Density = 2.074007 g / cm^3
# Si number density = 20.787381 Si / 1000 Ang^3
#
#
#
# Elastic Constant Matrix: (Units=GPa)
#
#
# Indices 1 2 3 4 5 6 
#
# 1 115.9820 21.5704 41.1379 0.0000 -0.3280 0.0000
# 2 21.5704 37.3810 27.0789 0.0000 -3.5493 0.0000
# 3 41.1379 27.0789 146.0096 0.0000 -4.6474 0.0000
# 4 0.0000 0.0000 0.0000 18.8252 0.0000 -3.3581
# 5 -0.3280 -3.5493 -4.6474 0.0000 5.0433 0.0000
# 6 0.0000 0.0000 0.0000 -3.3581 0.0000 29.5122
#
#
#
# Elastic Compliance Matrix: (Units=1/GPa)
#
#
# Indices 1 2 3 4 5 6 
#
# 1 0.010266 -0.004813 -0.002149 0.000000 -0.004701 0.000000
# 2 -0.004813 0.034636 -0.004432 0.000000 0.019979 0.000000
# 3 -0.002149 -0.004432 0.008420 0.000000 0.004500 0.000000
# 4 0.000000 0.000000 0.000000 0.054221 0.000000 0.006170
# 5 -0.004701 0.019979 0.004500 0.000000 0.216186 0.000000
# 6 0.000000 0.000000 0.000000 0.006170 0.000000 0.034586
#
#
# Mechanical properties :
#
#
# Convention : Reuss Voigt Hill
#
# Bulk Modulus (GPa) = 32.75095 53.21635 42.98365
# Shear Modulus (GPa) = 12.77852 24.64850 18.71351
#
# Velocity S-wave (km/s) = 2.48205 3.44720 3.00365
# Velocity P-wave (km/s) = 4.89934 6.44206 5.72292
#
# Compressibility (1/GPa) = 0.03053347
#
# Stress axis : x y z
#
# Youngs Moduli (GPa) = 97.40591 28.87145 118.77075
#
# Poissons Ratio (x) = 0.13897 0.25529
# Poissons Ratio (y) = 0.46885 0.52634
# Poissons Ratio (z) = 0.20937 0.12795
#
# Static dielectric constant tensor:
#      x y z
#    x 3.653320 0.000000 0.002520 
#    y 0.000000 3.524980 0.000000 
#    z 0.002520 0.000000 4.147090 
# 
# 
# High freq. dielectric constant tensor:
#      x y z
#    x 1.806990 0.000000 -0.003130 
#    y 0.000000 1.799700 0.000000 
#    z -0.003130 0.000000 1.832000 
# 
# From -- ./inp_files/64427.got.cif
#   From: 2010.06.25/outbox.cif.g09.slc.cpg/sg11_33_cif.got.tgz:64427.got - 2010.06.27 23:14:04.
