data_PCOD8076684
_publ_section_title
;
Structure prediction by ZEFSAII (Michael W. Deem and Ramdas Pophale) SiO2 
 PCOD8076684
Probable space group: P 21/M
;
_chemical_formula_sum "Si O2"
_cell_formula_units_Z 32
_cell_length_a 30.127744
_cell_length_b 8.702163
_cell_length_c 12.832847
_cell_angle_alpha 90.000000
_cell_angle_beta 27.808034
_cell_angle_gamma 90.000000
_cell_volume 1569.561818
_symmetry_space_group_name_H-M "P 21/M"
_symmetry_group_IT_number 11
_symmetry_cell_setting 'monoclinic'
loop_
_space_group_symop_operation_xyz
x,y,z
-x,1/2+y,-z
-x,-y,-z
x,1/2-y,z
loop_
_atom_site_type_symbol
_atom_site_label
_atom_site_fract_x
_atom_site_fract_y
_atom_site_fract_z
Si Si1 0.234521 0.574450 0.905711
Si Si2 0.887638 0.929631 0.436123
Si Si3 0.242757 0.926369 0.122043
Si Si4 0.553639 0.931046 0.289857
Si Si5 0.408032 0.429778 0.448175
Si Si6 0.106645 0.928892 0.978945
Si Si7 0.401683 0.930671 0.241101
Si Si8 0.215534 0.429508 0.561571
O O1 0.268102 0.750000 0.817665
O O2 0.325197 0.463594 0.703341
O O3 0.150318 0.530904 0.001220
O O4 0.198349 0.550923 0.098840
O O5 0.874331 0.750000 0.486567
O O6 0.845432 0.976724 0.412183
O O7 0.836951 0.024652 0.631333
O O8 0.997306 0.978340 0.208787
O O9 0.271826 0.750000 0.080449
O O10 0.335650 0.030252 0.942341
O O11 0.539225 0.750000 0.321006
O O12 0.500000 0.000000 0.500000
O O13 0.507537 0.001128 0.281117
O O14 0.420422 0.250000 0.403630
O O15 0.375871 0.511757 0.409457
O O16 0.118722 0.750000 0.926159
O O17 0.158805 0.026137 0.782730
O O18 0.410413 0.750000 0.220841
O O19 0.316152 0.983136 0.343656
O O20 0.500000 0.000000 0.000000
O O21 0.237145 0.250000 0.519558
#
# Coordination Sequence:
#
# PCOD8076684 Si02
#       8
#     4   4   4   4   4   4   4   4
#     4  10  21  39  64  93 128 167 213 267 317 373
#     4  10  24  43  63  91 130 170 212 267 327 383
#     4  11  24  41  62  92 130 169 216 268 320 382
#     4  12  24  40  63  91 126 167 211 259 309 373
#     4  12  24  40  64  94 126 166 213 259 316 386
#     4  10  21  41  68  94 123 166 214 265 327 386
#     4  12  26  44  65  93 130 169 210 262 319 381
#     4  11  23  41  65  95 129 165 214 268 318 384
#
# _framework density 20.387857
#
# number of rings (size 3 to 8) (size 9 to 14) (size 15 to 20)
#    0.000    1.000    2.500    4.500    1.750    2.500 
#    0.000    0.000    0.000    0.000    0.000    0.000 
#    0.000    0.000    0.000    0.000    0.000    0.000 
#
# Total GULP energy -397011.694843 kJ/mol
# GULP energy per Si atom -12406.615464 kJ/mol
# Density = 2.034145 g / cm^3
# Si number density = 20.387857 Si / 1000 Ang^3
#
#
#
# Elastic Constant Matrix: (Units=GPa)
#
#
# Indices 1 2 3 4 5 6 
#
# 1 147.0497 55.0700 55.3495 0.0000 -10.1680 0.0000
# 2 55.0700 124.8165 44.4503 0.0000 -5.9484 0.0000
# 3 55.3495 44.4503 112.6830 0.0000 -11.4029 0.0000
# 4 0.0000 0.0000 0.0000 38.7794 0.0000 1.3024
# 5 -10.1680 -5.9484 -11.4029 0.0000 33.6813 0.0000
# 6 0.0000 0.0000 0.0000 1.3024 0.0000 29.8368
#
#
#
# Elastic Compliance Matrix: (Units=1/GPa)
#
#
# Indices 1 2 3 4 5 6 
#
# 1 0.009171 -0.002825 -0.003272 0.000000 0.001162 0.000000
# 2 -0.002825 0.010197 -0.002629 0.000000 0.000058 0.000000
# 3 -0.003272 -0.002629 0.011775 0.000000 0.002534 0.000000
# 4 0.000000 0.000000 0.000000 0.025825 0.000000 -0.001127
# 5 0.001162 0.000058 0.002534 0.000000 0.030909 0.000000
# 6 0.000000 0.000000 0.000000 -0.001127 0.000000 0.033565
#
#
# Mechanical properties :
#
#
# Convention : Reuss Voigt Hill
#
# Bulk Modulus (GPa) = 73.04699 77.14319 75.09509
# Shear Modulus (GPa) = 34.85324 35.77145 35.31234
#
# Velocity S-wave (km/s) = 4.13911 4.19328 4.16628
# Velocity P-wave (km/s) = 7.66482 7.83356 7.74965
#
# Compressibility (1/GPa) = 0.01368982
#
# Stress axis : x y z
#
# Youngs Moduli (GPa) = 109.04401 98.06511 84.92299
#
# Poissons Ratio (x) = 0.27707 0.27791
# Poissons Ratio (y) = 0.30809 0.22325
# Poissons Ratio (z) = 0.35685 0.25780
#
# Static dielectric constant tensor:
#      x y z
#    x 4.019690 0.000000 -0.056590 
#    y 0.000000 3.735710 0.000000 
#    z -0.056590 0.000000 3.632910 
# 
# 
# High freq. dielectric constant tensor:
#      x y z
#    x 1.814290 0.000000 -0.002170 
#    y 0.000000 1.801610 0.000000 
#    z -0.002170 0.000000 1.792880 
# 
# From -- ./inp_files/45152.got.cif
#   From: 2010.06.25/outbox.cif.g09.slc.cpg/sg11_23_cif.got.tgz:45152.got - 2010.06.27 23:14:04.
