data_PCOD8076787
_publ_section_title
;
Structure prediction by ZEFSAII (Michael W. Deem and Ramdas Pophale) SiO2 
 PCOD8076787
Probable space group: P 21/M
;
_chemical_formula_sum "Si O2"
_cell_formula_units_Z 32
_cell_length_a 14.929810
_cell_length_b 8.921413
_cell_length_c 12.359722
_cell_angle_alpha 90.000000
_cell_angle_beta 108.788842
_cell_angle_gamma 90.000000
_cell_volume 1558.527647
_symmetry_space_group_name_H-M "P 21/M"
_symmetry_group_IT_number 11
_symmetry_cell_setting 'monoclinic'
loop_
_space_group_symop_operation_xyz
x,y,z
-x,1/2+y,-z
-x,-y,-z
x,1/2-y,z
loop_
_atom_site_type_symbol
_atom_site_label
_atom_site_fract_x
_atom_site_fract_y
_atom_site_fract_z
Si Si1 0.359974 0.424246 0.203296
Si Si2 0.177620 0.577964 0.086070
Si Si3 0.536037 0.073699 0.123287
Si Si4 0.109902 0.922969 0.827364
Si Si5 0.083958 0.573256 0.271688
Si Si6 0.734950 0.572680 0.253058
Si Si7 0.771090 0.420920 0.484631
Si Si8 0.596770 0.079043 0.563941
O O1 0.347602 0.250000 0.218209
O O2 0.272671 0.484247 0.098185
O O3 0.458891 0.460602 0.184950
O O4 0.352237 0.505657 0.314650
O O5 0.207504 0.750000 0.114642
O O6 0.125534 0.517409 0.173137
O O7 0.108811 0.558402 0.956837
O O8 0.549938 0.250000 0.110062
O O9 0.633116 0.002681 0.200994
O O10 0.500000 0.000000 0.000000
O O11 0.120112 0.750000 0.797000
O O12 0.197917 0.015534 0.815919
O O13 0.013203 0.988060 0.741907
O O14 0.064625 0.750000 0.261064
O O15 0.155218 0.528109 0.394982
O O16 0.723652 0.750000 0.240734
O O17 0.781729 0.528031 0.385701
O O18 0.791374 0.250000 0.457091
O O19 0.664824 0.435420 0.487627
O O20 0.575116 0.250000 0.583677
O O21 0.500000 0.000000 0.500000
#
# Coordination Sequence:
#
# PCOD8076787 Si02
#       8
#     4   4   4   4   4   4   4   4
#     4  11  23  37  59  91 124 160 203 250 306 369
#     4  10  21  40  64  93 128 165 205 255 315 374
#     4  11  24  42  63  91 127 168 213 261 312 369
#     4  11  24  41  65  94 125 164 210 261 317 378
#     4  10  21  41  66  93 126 163 205 258 319 375
#     4  12  26  43  64  91 125 167 215 264 314 374
#     4  10  22  42  65  88 124 167 206 258 314 370
#     4  11  22  38  60  88 122 160 202 250 306 366
#
# _framework density 20.532201000000001
#
# number of rings (size 3 to 8) (size 9 to 14) (size 15 to 20)
#    0.000    1.250    1.250    4.500    0.000   10.500 
#    0.000    0.000    0.000    0.000    0.000    0.000 
#    0.000    0.000    0.000    0.000    0.000    0.000 
#
# Total GULP energy -396997.829566 kJ/mol
# GULP energy per Si atom -12406.182174 kJ/mol
# Density = 2.048547 g / cm^3
# Si number density = 20.532201 Si / 1000 Ang^3
#
#
#
# Elastic Constant Matrix: (Units=GPa)
#
#
# Indices 1 2 3 4 5 6 
#
# 1 98.3634 47.0869 24.2414 0.0000 13.8221 0.0000
# 2 47.0869 99.2343 33.8466 0.0000 -1.8015 0.0000
# 3 24.2414 33.8466 98.5828 0.0000 2.4777 0.0000
# 4 0.0000 0.0000 0.0000 32.5464 0.0000 1.7003
# 5 13.8221 -1.8015 2.4777 0.0000 34.7923 0.0000
# 6 0.0000 0.0000 0.0000 1.7003 0.0000 36.6275
#
#
#
# Elastic Compliance Matrix: (Units=1/GPa)
#
#
# Indices 1 2 3 4 5 6 
#
# 1 0.014434 -0.006568 -0.001144 0.000000 -0.005993 0.000000
# 2 -0.006568 0.014429 -0.003429 0.000000 0.003601 0.000000
# 3 -0.001144 -0.003429 0.011616 0.000000 -0.000550 0.000000
# 4 0.000000 0.000000 0.000000 0.030800 0.000000 -0.001430
# 5 -0.005993 0.003601 -0.000550 0.000000 0.031349 0.000000
# 6 0.000000 0.000000 0.000000 -0.001430 0.000000 0.027368
#
#
# Mechanical properties :
#
#
# Convention : Reuss Voigt Hill
#
# Bulk Modulus (GPa) = 54.95287 56.28116 55.61702
# Shear Modulus (GPa) = 31.57682 33.52694 32.55188
#
# Velocity S-wave (km/s) = 3.92588 4.04529 3.98604
# Velocity P-wave (km/s) = 6.88276 7.02068 6.95206
#
# Compressibility (1/GPa) = 0.01819741
#
# Stress axis : x y z
#
# Youngs Moduli (GPa) = 69.27847 69.30655 86.08636
#
# Poissons Ratio (x) = 0.45520 0.09847
# Poissons Ratio (y) = 0.45501 0.29521
# Poissons Ratio (z) = 0.07924 0.23767
#
# Static dielectric constant tensor:
#      x y z
#    x 3.782880 0.000000 -0.025680 
#    y 0.000000 3.733620 0.000000 
#    z -0.025680 0.000000 3.935850 
# 
# 
# High freq. dielectric constant tensor:
#      x y z
#    x 1.808520 0.000000 0.004500 
#    y 0.000000 1.805600 0.000000 
#    z 0.004500 0.000000 1.812620 
# 
# From -- ./inp_files/38369.got.cif
#   From: 2010.06.25/outbox.cif.g09.slc.cpg/sg11_20_cif.got.tgz:38369.got - 2010.06.27 23:14:04.
