data_PCOD8076443
_publ_section_title
;
Structure prediction by ZEFSAII (Michael W. Deem and Ramdas Pophale) SiO2 
 PCOD8076443
Probable space group: P 21/M
;
_chemical_formula_sum "Si O2"
_cell_formula_units_Z 28
_cell_length_a 12.519417
_cell_length_b 19.143318
_cell_length_c 6.237137
_cell_angle_alpha 90.000000
_cell_angle_beta 117.006948
_cell_angle_gamma 90.000000
_cell_volume 1331.805023
_symmetry_space_group_name_H-M "P 21/M"
_symmetry_group_IT_number 11
_symmetry_cell_setting 'monoclinic'
loop_
_space_group_symop_operation_xyz
x,y,z
-x,1/2+y,-z
-x,-y,-z
x,1/2-y,z
loop_
_atom_site_type_symbol
_atom_site_label
_atom_site_fract_x
_atom_site_fract_y
_atom_site_fract_z
Si Si1 0.250000 0.125071 0.500000
Si Si2 0.110290 0.933722 0.846260
Si Si3 0.568459 0.582397 0.674639
Si Si4 0.042523 0.327784 0.034381
Si Si5 0.931542 0.582397 0.325361
Si Si6 0.389710 0.933722 0.153740
Si Si7 0.542523 0.672216 0.034381
O O1 0.323247 0.076520 0.399424
O O2 0.158209 0.174502 0.291560
O O3 0.176753 0.076520 0.600576
O O4 0.341791 0.174502 0.708440
O O5 0.051766 0.885703 0.974950
O O6 0.059420 0.913183 0.564373
O O7 0.077250 0.015729 0.842374
O O8 0.250000 0.920278 0.000000
O O9 0.577250 0.515729 0.842374
O O10 0.440580 0.586817 0.435627
O O11 0.581553 0.651900 0.828702
O O12 0.986110 0.250000 0.981685
O O13 0.081553 0.348100 0.828702
O O14 0.448234 0.885703 0.025049
O O15 0.486109 0.750000 0.981685
#
# Coordination Sequence:
#
# PCOD8076443 Si02
#       7
#     4   4   4   4   4   4   4
#     4  10  21  38  62  90 117 148 194 246 291 340
#     4  10  22  40  61  85 117 153 196 243 285 340
#     4  10  22  39  63  89 115 151 195 242 293 341
#     4  11  23  38  59  88 121 156 192 235 291 349
#     4  10  22  39  63  89 115 151 195 242 293 341
#     4  10  22  40  61  85 117 153 196 243 285 340
#     4  11  23  38  59  88 121 156 192 235 291 349
#
# _framework density 21.024096
#
# number of rings (size 3 to 8) (size 9 to 14) (size 15 to 20)
#    0.000    1.714    0.000    3.857    0.000   13.143 
#    0.000    1.429    0.000    0.000    0.000    0.000 
#    0.000    0.000    0.000    0.000    0.000    0.000 
#
# Total GULP energy -347129.061548 kJ/mol
# GULP energy per Si atom -12397.466484 kJ/mol
# Density = 2.097624 g / cm^3
# Si number density = 21.024096 Si / 1000 Ang^3
#
#
#
# Elastic Constant Matrix: (Units=GPa)
#
#
# Indices 1 2 3 4 5 6 
#
# 1 125.1754 57.5977 67.3210 0.0000 13.6015 0.0000
# 2 57.5977 146.4673 43.8040 0.0000 -20.7294 0.0000
# 3 67.3210 43.8040 88.8873 0.0000 2.9528 0.0000
# 4 0.0000 0.0000 0.0000 21.8853 0.0000 2.6232
# 5 13.6015 -20.7294 2.9528 0.0000 36.4329 0.0000
# 6 0.0000 0.0000 0.0000 2.6232 0.0000 12.9548
#
#
#
# Elastic Compliance Matrix: (Units=1/GPa)
#
#
# Indices 1 2 3 4 5 6 
#
# 1 0.016181 -0.004558 -0.009749 0.000000 -0.007844 0.000000
# 2 -0.004558 0.010266 -0.001863 0.000000 0.007694 0.000000
# 3 -0.009749 -0.001863 0.019518 0.000000 0.000998 0.000000
# 4 0.000000 0.000000 0.000000 0.046829 0.000000 -0.009482
# 5 -0.007844 0.007694 0.000998 0.000000 0.034673 0.000000
# 6 0.000000 0.000000 0.000000 -0.009482 0.000000 0.079112
#
#
# Mechanical properties :
#
#
# Convention : Reuss Voigt Hill
#
# Bulk Modulus (GPa) = 73.38236 77.55284 75.46760
# Shear Modulus (GPa) = 20.53731 27.04175 23.78953
#
# Velocity S-wave (km/s) = 3.12884 3.59029 3.36748
# Velocity P-wave (km/s) = 6.93056 7.35898 7.14798
#
# Compressibility (1/GPa) = 0.01362725
#
# Stress axis : x y z
#
# Youngs Moduli (GPa) = 61.79967 97.41153 51.23413
#
# Poissons Ratio (x) = 0.44399 0.49946
# Poissons Ratio (y) = 0.28168 0.09542
# Poissons Ratio (z) = 0.60246 0.18143
#
# Static dielectric constant tensor:
#      x y z
#    x 3.670830 0.000000 0.051330 
#    y 0.000000 3.557150 0.000000 
#    z 0.051330 0.000000 3.992260 
# 
# 
# High freq. dielectric constant tensor:
#      x y z
#    x 1.809200 0.000000 0.004200 
#    y 0.000000 1.810330 0.000000 
#    z 0.004200 0.000000 1.837410 
# 
# From -- ./inp_files/5090.got.cif
#   From: 2010.06.25/outbox.cif.g09.slc.cpg/sg11_3_cif.got.tgz:5090.got - 2010.06.27 23:14:04.
