data_PCOD8076653
_publ_section_title
;
Structure prediction by ZEFSAII (Michael W. Deem and Ramdas Pophale) SiO2 
 PCOD8076653
Probable space group: P 21/M
;
_chemical_formula_sum "Si O2"
_cell_formula_units_Z 24
_cell_length_a 9.122791
_cell_length_b 13.874566
_cell_length_c 19.233362
_cell_angle_alpha 90.000000
_cell_angle_beta 150.633178
_cell_angle_gamma 90.000000
_cell_volume 1193.856354
_symmetry_space_group_name_H-M "P 21/M"
_symmetry_group_IT_number 11
_symmetry_cell_setting 'monoclinic'
loop_
_space_group_symop_operation_xyz
x,y,z
-x,1/2+y,-z
-x,-y,-z
x,1/2-y,z
loop_
_atom_site_type_symbol
_atom_site_label
_atom_site_fract_x
_atom_site_fract_y
_atom_site_fract_z
Si Si1 0.600061 0.966304 0.966883
Si Si2 0.174738 0.860464 0.167887
Si Si3 0.745912 0.974968 0.449923
Si Si4 0.977330 0.137578 0.308130
Si Si5 0.160052 0.642909 0.002064
Si Si6 0.670311 0.640335 0.684947
O O1 0.369929 0.890419 0.839491
O O2 0.923502 0.915992 0.108217
O O3 0.500000 0.000000 0.000000
O O4 0.600220 0.061468 0.918395
O O5 0.198546 0.750000 0.202875
O O6 0.492462 0.911265 0.308417
O O7 0.070190 0.867465 0.044940
O O8 0.871952 0.916184 0.566222
O O9 0.620583 0.074669 0.428831
O O10 0.000000 0.000000 0.500000
O O11 0.999650 0.250000 0.332061
O O12 0.136878 0.108620 0.302071
O O13 0.293821 0.750000 0.042476
O O14 0.863762 0.626281 0.834400
O O15 0.559985 0.750000 0.631477
#
# Coordination Sequence:
#
# PCOD8076653 Si02
#       6
#     4   4   4   4   4   4
#     4  12  22  39  66  98 127 162 212 267 319 380
#     4  11  24  41  63  92 130 170 215 264 319 381
#     4  12  25  42  64  94 130 170 216 266 319 382
#     4  11  24  42  65  94 131 170 213 260 321 388
#     4  10  21  39  63  91 126 165 210 264 316 373
#     4  10  22  42  65  91 124 168 215 263 321 379
#
# _framework density 20.102920000000001
#
# number of rings (size 3 to 8) (size 9 to 14) (size 15 to 20)
#    0.000    1.000    3.333    3.000    2.333    2.000 
#    0.000    0.833    0.000    0.000    0.000    0.000 
#    0.000    0.000    0.000    0.000    0.000    0.000 
#
# Total GULP energy -297705.114624 kJ/mol
# GULP energy per Si atom -12404.379776 kJ/mol
# Density = 2.005717 g / cm^3
# Si number density = 20.102920 Si / 1000 Ang^3
#
#
#
# Elastic Constant Matrix: (Units=GPa)
#
#
# Indices 1 2 3 4 5 6 
#
# 1 112.2895 68.3298 58.8938 0.0000 15.5790 0.0000
# 2 68.3298 139.0737 53.3755 0.0000 16.9209 0.0000
# 3 58.8938 53.3755 120.7919 0.0000 3.5933 0.0000
# 4 0.0000 0.0000 0.0000 41.8335 0.0000 1.3804
# 5 15.5790 16.9209 3.5933 0.0000 35.9193 0.0000
# 6 0.0000 0.0000 0.0000 1.3804 0.0000 34.4164
#
#
#
# Elastic Compliance Matrix: (Units=1/GPa)
#
#
# Indices 1 2 3 4 5 6 
#
# 1 0.015133 -0.005055 -0.005035 0.000000 -0.003678 0.000000
# 2 -0.005055 0.010869 -0.002258 0.000000 -0.002702 0.000000
# 3 -0.005035 -0.002258 0.011669 0.000000 0.002080 0.000000
# 4 0.000000 0.000000 0.000000 0.023936 0.000000 -0.000960
# 5 -0.003678 -0.002702 0.002080 0.000000 0.030500 0.000000
# 6 0.000000 0.000000 0.000000 -0.000960 0.000000 0.029094
#
#
# Mechanical properties :
#
#
# Convention : Reuss Voigt Hill
#
# Bulk Modulus (GPa) = 77.06794 81.48372 79.27583
# Shear Modulus (GPa) = 33.28371 35.20425 34.24398
#
# Velocity S-wave (km/s) = 4.07340 4.18927 4.13174
# Velocity P-wave (km/s) = 7.78096 8.00133 7.89192
#
# Compressibility (1/GPa) = 0.01297556
#
# Stress axis : x y z
#
# Youngs Moduli (GPa) = 66.08179 92.00120 85.69383
#
# Poissons Ratio (x) = 0.46507 0.43147
# Poissons Ratio (y) = 0.33405 0.19349
# Poissons Ratio (z) = 0.33272 0.20773
#
# Static dielectric constant tensor:
#      x y z
#    x 3.783820 0.000000 0.062750 
#    y 0.000000 3.824600 0.000000 
#    z 0.062750 0.000000 3.756890 
# 
# 
# High freq. dielectric constant tensor:
#      x y z
#    x 1.788110 0.000000 -0.007920 
#    y 0.000000 1.809820 0.000000 
#    z -0.007920 0.000000 1.776850 
# 
# From -- ./inp_files/12541.got.cif
#   From: 2010.06.25/outbox.cif.g09.slc.cpg/sg11_7_cif.got.tgz:12541.got - 2010.06.27 23:14:04.
