data_PCOD8076452
_publ_section_title
;
Structure prediction by ZEFSAII (Michael W. Deem and Ramdas Pophale) SiO2 
 PCOD8076452
Probable space group: P 21/M
;
_chemical_formula_sum "Si O2"
_cell_formula_units_Z 24
_cell_length_a 14.594352
_cell_length_b 8.806431
_cell_length_c 9.521629
_cell_angle_alpha 90.000000
_cell_angle_beta 81.193255
_cell_angle_gamma 90.000000
_cell_volume 1209.331635
_symmetry_space_group_name_H-M "P 21/M"
_symmetry_group_IT_number 11
_symmetry_cell_setting 'monoclinic'
loop_
_space_group_symop_operation_xyz
x,y,z
-x,1/2+y,-z
-x,-y,-z
x,1/2-y,z
loop_
_atom_site_type_symbol
_atom_site_label
_atom_site_fract_x
_atom_site_fract_y
_atom_site_fract_z
Si Si1 0.262712 0.074015 0.350242
Si Si2 0.562720 0.072248 0.101605
Si Si3 0.922525 0.574911 0.112068
Si Si4 0.084610 0.430519 0.566016
Si Si5 0.743584 0.576791 0.970288
Si Si6 0.540386 0.429266 0.628335
O O1 0.284047 0.250000 0.372661
O O2 0.181144 0.015799 0.472184
O O3 0.356656 0.984147 0.358442
O O4 0.229138 0.045883 0.198067
O O5 0.542537 0.250000 0.123218
O O6 0.668507 0.044841 0.036437
O O7 0.537342 0.982333 0.245906
O O8 0.500000 0.000000 0.000000
O O9 0.947312 0.750000 0.116730
O O10 0.917561 0.509138 0.272317
O O11 0.827576 0.545375 0.054242
O O12 0.000000 0.500000 0.000000
O O13 0.077026 0.250000 0.560248
O O14 0.000000 0.500000 0.500000
O O15 0.707209 0.750000 0.994654
O O16 0.500000 0.500000 0.500000
O O17 0.543218 0.250000 0.617469
#
# Coordination Sequence:
#
# PCOD8076452 Si02
#       6
#     4   4   4   4   4   4
#     4  10  21  39  62  89 124 165 210 258 314 373
#     4  12  24  41  64  94 128 168 214 259 312 371
#     4  10  22  40  63  93 125 162 206 256 312 370
#     4  10  22  40  63  92 125 164 206 255 312 372
#     4  10  21  38  62  90 124 165 210 260 313 369
#     4  12  26  43  64  92 128 168 212 263 315 374
#
# _framework density 19.845672
#
# number of rings (size 3 to 8) (size 9 to 14) (size 15 to 20)
#    0.000    1.333    1.667    4.000    2.333    3.333 
#    0.000    0.000    0.000    0.000    0.000    0.000 
#    0.000    0.000    0.000    0.000    0.000    0.000 
#
# Total GULP energy -297601.403283 kJ/mol
# GULP energy per Si atom -12400.058470 kJ/mol
# Density = 1.980050 g / cm^3
# Si number density = 19.845672 Si / 1000 Ang^3
#
#
#
# Elastic Constant Matrix: (Units=GPa)
#
#
# Indices 1 2 3 4 5 6 
#
# 1 98.0228 46.8425 70.1717 0.0000 -1.4888 0.0000
# 2 46.8425 90.4559 46.2320 0.0000 2.3414 0.0000
# 3 70.1717 46.2320 184.9558 0.0000 3.4997 0.0000
# 4 0.0000 0.0000 0.0000 31.4739 0.0000 -2.0448
# 5 -1.4888 2.3414 3.4997 0.0000 45.2769 0.0000
# 6 0.0000 0.0000 0.0000 -2.0448 0.0000 39.4714
#
#
#
# Elastic Compliance Matrix: (Units=1/GPa)
#
#
# Indices 1 2 3 4 5 6 
#
# 1 0.016593 -0.006185 -0.004773 0.000000 0.001234 0.000000
# 2 -0.006185 0.014988 -0.001383 0.000000 -0.000872 0.000000
# 3 -0.004773 -0.001383 0.007576 0.000000 -0.000671 0.000000
# 4 0.000000 0.000000 0.000000 0.031880 0.000000 0.001652
# 5 0.001234 -0.000872 -0.000671 0.000000 0.022224 0.000000
# 6 0.000000 0.000000 0.000000 0.001652 0.000000 0.025420
#
#
# Mechanical properties :
#
#
# Convention : Reuss Voigt Hill
#
# Bulk Modulus (GPa) = 69.08801 77.76963 73.42882
# Shear Modulus (GPa) = 33.74122 37.25699 35.49910
#
# Velocity S-wave (km/s) = 4.12780 4.33752 4.23396
# Velocity P-wave (km/s) = 7.58989 8.02233 7.80911
#
# Compressibility (1/GPa) = 0.01447429
#
# Stress axis : x y z
#
# Youngs Moduli (GPa) = 60.26736 66.72170 131.99896
#
# Poissons Ratio (x) = 0.41269 0.62997
# Poissons Ratio (y) = 0.37277 0.18258
# Poissons Ratio (z) = 0.28763 0.09229
#
# Static dielectric constant tensor:
#      x y z
#    x 3.768290 0.000000 -0.070360 
#    y 0.000000 3.395400 0.000000 
#    z -0.070360 0.000000 3.972960 
# 
# 
# High freq. dielectric constant tensor:
#      x y z
#    x 1.782390 0.000000 0.000950 
#    y 0.000000 1.768210 0.000000 
#    z 0.000950 0.000000 1.796680 
# 
# From -- ./inp_files/20320.got.cif
#   From: 2010.06.25/outbox.cif.g09.slc.cpg/sg11_11_cif.got.tgz:20320.got - 2010.06.27 23:14:04.
