data_PCOD8076414
_publ_section_title
;
Structure prediction by ZEFSAII (Michael W. Deem and Ramdas Pophale) SiO2 
 PCOD8076414
Probable space group: P 21/M
;
_chemical_formula_sum "Si O2"
_cell_formula_units_Z 32
_cell_length_a 13.581862
_cell_length_b 13.484171
_cell_length_c 8.925044
_cell_angle_alpha 90.000000
_cell_angle_beta 112.517553
_cell_angle_gamma 90.000000
_cell_volume 1509.920710
_symmetry_space_group_name_H-M "P 21/M"
_symmetry_group_IT_number 11
_symmetry_cell_setting 'monoclinic'
loop_
_space_group_symop_operation_xyz
x,y,z
-x,1/2+y,-z
-x,-y,-z
x,1/2-y,z
loop_
_atom_site_type_symbol
_atom_site_label
_atom_site_fract_x
_atom_site_fract_y
_atom_site_fract_z
Si Si1 0.864898 0.937700 0.052015
Si Si2 0.939476 0.140314 0.993569
Si Si3 0.257556 0.638307 0.674349
Si Si4 0.659854 0.549761 0.747866
Si Si5 0.696981 0.632807 0.444203
Si Si6 0.883165 0.534758 0.383505
Si Si7 0.454043 0.979064 0.810881
Si Si8 0.748496 0.359031 0.675468
O O1 0.882069 0.897844 0.231721
O O2 0.938380 0.876947 0.980405
O O3 0.744834 0.919585 0.924962
O O4 0.898333 0.054123 0.078291
O O5 0.928677 0.250000 0.062355
O O6 0.869685 0.134655 0.801789
O O7 0.227394 0.750000 0.698434
O O8 0.176255 0.564949 0.707190
O O9 0.377541 0.614846 0.793112
O O10 0.246956 0.612511 0.493803
O O11 0.675143 0.615189 0.607667
O O12 0.542244 0.560185 0.745923
O O13 0.672495 0.433734 0.718632
O O14 0.687424 0.750000 0.405323
O O15 0.817035 0.594171 0.473124
O O16 0.610717 0.573524 0.292909
O O17 0.000000 0.500000 0.500000
O O18 0.500000 0.000000 0.000000
O O19 0.699081 0.250000 0.671865
#
# Coordination Sequence:
#
# PCOD8076414 Si02
#       8
#     4   4   4   4   4   4   4   4
#     4  10  22  36  61  88 123 166 210 261 313 378
#     4   9  19  35  57  88 123 160 204 255 311 369
#     4  10  21  38  61  90 121 157 208 258 309 375
#     4  11  21  41  64  92 126 168 215 264 324 380
#     4  11  26  44  64  96 132 169 217 271 328 393
#     4  11  23  41  64  93 132 174 211 262 323 382
#     4  11  24  44  67  93 127 170 212 267 329 387
#     4   9  17  33  60  89 117 154 204 255 305 369
#
# _framework density 21.193166999999999
#
# number of rings (size 3 to 8) (size 9 to 14) (size 15 to 20)
#    0.000    1.750    2.500    2.625    3.500    3.500 
#    0.000    3.750    0.000    0.000    0.000    0.000 
#    0.000    0.000    0.000    0.000    0.000    0.000 
#
# Total GULP energy -396659.457918 kJ/mol
# GULP energy per Si atom -12395.608060 kJ/mol
# Density = 2.114493 g / cm^3
# Si number density = 21.193167 Si / 1000 Ang^3
#
#
#
# Elastic Constant Matrix: (Units=GPa)
#
#
# Indices 1 2 3 4 5 6 
#
# 1 122.3472 24.9558 32.7577 0.0000 10.7250 0.0000
# 2 24.9558 76.3730 14.1436 0.0000 4.5927 0.0000
# 3 32.7577 14.1436 96.6030 0.0000 -2.4793 0.0000
# 4 0.0000 0.0000 0.0000 22.0592 0.0000 4.7517
# 5 10.7250 4.5927 -2.4793 0.0000 32.2199 0.0000
# 6 0.0000 0.0000 0.0000 4.7517 0.0000 13.2197
#
#
#
# Elastic Compliance Matrix: (Units=1/GPa)
#
#
# Indices 1 2 3 4 5 6 
#
# 1 0.009757 -0.002438 -0.003032 0.000000 -0.003134 0.000000
# 2 -0.002438 0.014208 -0.001287 0.000000 -0.001313 0.000000
# 3 -0.003032 -0.001287 0.011622 0.000000 0.002087 0.000000
# 4 0.000000 0.000000 0.000000 0.049137 0.000000 -0.017662
# 5 -0.003134 -0.001313 0.002087 0.000000 0.032427 0.000000
# 6 0.000000 0.000000 0.000000 -0.017662 0.000000 0.081993
#
#
# Mechanical properties :
#
#
# Convention : Reuss Voigt Hill
#
# Bulk Modulus (GPa) = 45.30643 48.78194 47.04419
# Shear Modulus (GPa) = 22.72557 28.39751 25.56154
#
# Velocity S-wave (km/s) = 3.27816 3.66449 3.47669
# Velocity P-wave (km/s) = 5.97936 6.40096 6.19375
#
# Compressibility (1/GPa) = 0.02207192
#
# Stress axis : x y z
#
# Youngs Moduli (GPa) = 102.48679 70.38448 86.04512
#
# Poissons Ratio (x) = 0.17162 0.26090
# Poissons Ratio (y) = 0.24990 0.11074
# Poissons Ratio (z) = 0.31075 0.09058
#
# Static dielectric constant tensor:
#      x y z
#    x 3.851660 0.000000 0.068660 
#    y 0.000000 3.856040 0.000000 
#    z 0.068660 0.000000 3.783310 
# 
# 
# High freq. dielectric constant tensor:
#      x y z
#    x 1.829730 0.000000 0.002790 
#    y 0.000000 1.821650 0.000000 
#    z 0.002790 0.000000 1.833650 
# 
# From -- ./inp_files/22219.got.cif
#   From: 2010.06.25/outbox.cif.g09.slc.cpg/sg11_12_cif.got.tgz:22219.got - 2010.06.27 23:14:04.
