data_PCOD8076875
_publ_section_title
;
Structure prediction by ZEFSAII (Michael W. Deem and Ramdas Pophale) SiO2 
 PCOD8076875
Probable space group: P 21/M
;
_chemical_formula_sum "Si O2"
_cell_formula_units_Z 28
_cell_length_a 24.697325
_cell_length_b 9.180111
_cell_length_c 9.390783
_cell_angle_alpha 90.000000
_cell_angle_beta 139.325477
_cell_angle_gamma 90.000000
_cell_volume 1387.676318
_symmetry_space_group_name_H-M "P 21/M"
_symmetry_group_IT_number 11
_symmetry_cell_setting 'monoclinic'
loop_
_space_group_symop_operation_xyz
x,y,z
-x,1/2+y,-z
-x,-y,-z
x,1/2-y,z
loop_
_atom_site_type_symbol
_atom_site_label
_atom_site_fract_x
_atom_site_fract_y
_atom_site_fract_z
Si Si1 0.000738 0.080352 0.351029
Si Si2 0.160414 0.581835 0.157326
Si Si3 0.413083 0.919672 0.305850
Si Si4 0.314395 0.084859 0.336904
Si Si5 0.680171 0.086141 0.168348
Si Si6 0.133384 0.583272 0.429894
Si Si7 0.417246 0.087578 0.811496
O O1 0.016350 0.250000 0.410082
O O2 0.073058 0.021991 0.394341
O O3 0.000000 0.000000 0.500000
O O4 0.914465 0.052638 0.099558
O O5 0.189210 0.750000 0.211565
O O6 0.234950 0.480425 0.256390
O O7 0.133966 0.538569 0.264729
O O8 0.424223 0.750000 0.365438
O O9 0.500000 0.000000 0.500000
O O10 0.339831 0.986841 0.254490
O O11 0.382596 0.943513 0.085042
O O12 0.294319 0.250000 0.247808
O O13 0.393625 0.085683 0.599080
O O14 0.668266 0.250000 0.201846
O O15 0.776049 0.062067 0.318006
O O16 0.659235 0.978771 0.254449
O O17 0.103182 0.750000 0.386655
O O18 0.433095 0.250000 0.898224
O O19 0.500000 0.000000 0.000000
#
# Coordination Sequence:
#
# PCOD8076875 Si02
#       7
#     4   4   4   4   4   4   4
#     4  11  25  42  64  96 129 163 203 248 300 364
#     4  10  22  42  67  92 122 163 206 248 306 369
#     4  11  24  41  61  88 123 165 209 256 309 368
#     4  11  24  40  61  92 125 160 206 256 306 363
#     4  10  22  40  63  89 120 159 205 253 304 361
#     4  10  21  41  67  93 123 160 202 254 309 361
#     4  11  23  38  60  90 123 159 203 253 302 360
#
# _framework density 20.177616
#
# number of rings (size 3 to 8) (size 9 to 14) (size 15 to 20)
#    0.000    1.429    1.429    3.000    2.000    8.571 
#    0.000    0.000    0.000    0.000    0.000    0.000 
#    0.000    0.000    0.000    0.000    0.000    0.000 
#
# Total GULP energy -347309.563014 kJ/mol
# GULP energy per Si atom -12403.912965 kJ/mol
# Density = 2.013169 g / cm^3
# Si number density = 20.177616 Si / 1000 Ang^3
#
#
#
# Elastic Constant Matrix: (Units=GPa)
#
#
# Indices 1 2 3 4 5 6 
#
# 1 101.5544 61.1749 26.6752 0.0000 -1.3067 0.0000
# 2 61.1749 134.1979 49.1366 0.0000 -0.6687 0.0000
# 3 26.6752 49.1366 98.5089 0.0000 3.1598 0.0000
# 4 0.0000 0.0000 0.0000 30.3883 0.0000 2.2948
# 5 -1.3067 -0.6687 3.1598 0.0000 23.3750 0.0000
# 6 0.0000 0.0000 0.0000 2.2948 0.0000 45.8320
#
#
#
# Elastic Compliance Matrix: (Units=1/GPa)
#
#
# Indices 1 2 3 4 5 6 
#
# 1 0.013628 -0.005933 -0.000753 0.000000 0.000694 0.000000
# 2 -0.005933 0.011718 -0.004257 0.000000 0.000579 0.000000
# 3 -0.000753 -0.004257 0.012538 0.000000 -0.001859 0.000000
# 4 0.000000 0.000000 0.000000 0.033032 0.000000 -0.001654
# 5 0.000694 0.000579 -0.001859 0.000000 0.043087 0.000000
# 6 0.000000 0.000000 0.000000 -0.001654 0.000000 0.021902
#
#
# Mechanical properties :
#
#
# Convention : Reuss Voigt Hill
#
# Bulk Modulus (GPa) = 62.50864 67.58163 65.04513
# Shear Modulus (GPa) = 30.65160 33.07069 31.86115
#
# Velocity S-wave (km/s) = 3.90178 4.05282 3.97802
# Velocity P-wave (km/s) = 7.16554 7.44759 7.30792
#
# Compressibility (1/GPa) = 0.01599779
#
# Stress axis : x y z
#
# Youngs Moduli (GPa) = 73.38011 85.33996 79.75596
#
# Poissons Ratio (x) = 0.50633 0.06006
# Poissons Ratio (y) = 0.43537 0.33951
# Poissons Ratio (z) = 0.05526 0.36328
#
# Static dielectric constant tensor:
#      x y z
#    x 3.617850 0.000000 -0.081990 
#    y 0.000000 3.845770 0.000000 
#    z -0.081990 0.000000 3.905670 
# 
# 
# High freq. dielectric constant tensor:
#      x y z
#    x 1.791440 0.000000 0.001970 
#    y 0.000000 1.796240 0.000000 
#    z 0.001970 0.000000 1.799190 
# 
# From -- ./inp_files/24078.got.cif
#   From: 2010.06.25/outbox.cif.g09.slc.cpg/sg11_13_cif.got.tgz:24078.got - 2010.06.27 23:14:04.
