data_PCOD8076044
_publ_section_title
;
Structure prediction by ZEFSAII (Michael W. Deem and Ramdas Pophale) SiO2 
 PCOD8076044
Probable space group: P 21/M
;
_chemical_formula_sum "Si O2"
_cell_formula_units_Z 28
_cell_length_a 19.783107
_cell_length_b 8.954746
_cell_length_c 13.499293
_cell_angle_alpha 90.000000
_cell_angle_beta 144.869293
_cell_angle_gamma 90.000000
_cell_volume 1376.136757
_symmetry_space_group_name_H-M "P 21/M"
_symmetry_group_IT_number 11
_symmetry_cell_setting 'monoclinic'
loop_
_space_group_symop_operation_xyz
x,y,z
-x,1/2+y,-z
-x,-y,-z
x,1/2-y,z
loop_
_atom_site_type_symbol
_atom_site_label
_atom_site_fract_x
_atom_site_fract_y
_atom_site_fract_z
Si Si1 0.118971 0.926827 0.606298
Si Si2 0.225266 0.579425 0.095755
Si Si3 0.678197 0.425836 0.002365
Si Si4 0.973702 0.579074 0.865708
Si Si5 0.603286 0.926257 0.562629
Si Si6 0.559874 0.421789 0.305570
Si Si7 0.193749 0.920985 0.480538
O O1 0.104823 0.750000 0.594123
O O2 0.224697 0.979680 0.803373
O O3 0.147912 0.983274 0.530394
O O4 0.000000 0.000000 0.500000
O O5 0.261679 0.750000 0.162479
O O6 0.273846 0.474015 0.240977
O O7 0.277533 0.528095 0.053586
O O8 0.084888 0.562392 0.925488
O O9 0.654945 0.250000 0.982091
O O10 0.558441 0.512465 0.884053
O O11 0.945034 0.750000 0.854952
O O12 0.861508 0.510834 0.676736
O O13 0.000000 0.500000 0.000000
O O14 0.588913 0.750000 0.546863
O O15 0.500000 0.000000 0.500000
O O16 0.598092 0.982331 0.445208
O O17 0.539530 0.250000 0.312100
O O18 0.664883 0.436303 0.351859
O O19 0.155383 0.750000 0.421057
#
# Coordination Sequence:
#
# PCOD8076044 Si02
#       7
#     4   4   4   4   4   4   4
#     4  10  22  42  66  92 121 158 201 250 305 359
#     4  10  21  37  57  84 119 156 197 249 303 355
#     4  10  21  38  61  87 117 155 199 248 303 357
#     4  11  23  39  61  89 121 159 203 248 300 361
#     4  12  23  36  57  86 120 159 200 245 297 357
#     4  11  23  39  59  87 122 161 203 248 301 360
#     4  10  23  42  62  87 125 164 200 249 304 358
#
# _framework density 20.346814999999999
#
# number of rings (size 3 to 8) (size 9 to 14) (size 15 to 20)
#    0.000    1.429    1.429    3.857    0.000    8.571 
#    0.000    0.000    0.000    0.000    0.000    0.000 
#    0.000    0.000    0.000    0.000    0.000    0.000 
#
# Total GULP energy -347339.271647 kJ/mol
# GULP energy per Si atom -12404.973987 kJ/mol
# Density = 2.030050 g / cm^3
# Si number density = 20.346815 Si / 1000 Ang^3
#
#
#
# Elastic Constant Matrix: (Units=GPa)
#
#
# Indices 1 2 3 4 5 6 
#
# 1 112.2661 45.4856 55.4625 0.0000 2.2913 0.0000
# 2 45.4856 105.8386 58.6813 0.0000 -0.7203 0.0000
# 3 55.4625 58.6813 153.3709 0.0000 -3.0891 0.0000
# 4 0.0000 0.0000 0.0000 36.2528 0.0000 5.3035
# 5 2.2913 -0.7203 -3.0891 0.0000 35.9509 0.0000
# 6 0.0000 0.0000 0.0000 5.3035 0.0000 26.9601
#
#
#
# Elastic Compliance Matrix: (Units=1/GPa)
#
#
# Indices 1 2 3 4 5 6 
#
# 1 0.011786 -0.003424 -0.002974 0.000000 -0.001075 0.000000
# 2 -0.003424 0.012988 -0.003728 0.000000 0.000158 0.000000
# 3 -0.002974 -0.003728 0.009040 0.000000 0.000892 0.000000
# 4 0.000000 0.000000 0.000000 0.028401 0.000000 -0.005587
# 5 -0.001075 0.000158 0.000892 0.000000 0.027964 0.000000
# 6 0.000000 0.000000 0.000000 -0.005587 0.000000 0.038191
#
#
# Mechanical properties :
#
#
# Convention : Reuss Voigt Hill
#
# Bulk Modulus (GPa) = 73.73252 76.74826 75.24039
# Shear Modulus (GPa) = 32.64970 33.95585 33.30277
#
# Velocity S-wave (km/s) = 4.01017 4.08959 4.05007
# Velocity P-wave (km/s) = 7.59990 7.75252 7.67659
#
# Compressibility (1/GPa) = 0.01356254
#
# Stress axis : x y z
#
# Youngs Moduli (GPa) = 84.84987 76.99586 110.62161
#
# Poissons Ratio (x) = 0.26360 0.32895
# Poissons Ratio (y) = 0.29049 0.41240
# Poissons Ratio (z) = 0.25232 0.28704
#
# Static dielectric constant tensor:
#      x y z
#    x 3.865140 0.000000 0.062370 
#    y 0.000000 3.587640 0.000000 
#    z 0.062370 0.000000 3.814370 
# 
# 
# High freq. dielectric constant tensor:
#      x y z
#    x 1.800220 0.000000 0.009860 
#    y 0.000000 1.792160 0.000000 
#    z 0.009860 0.000000 1.802160 
# 
# From -- ./inp_files/54618.got.cif
#   From: 2010.06.25/outbox.cif.g09.slc.cpg/sg11_28_cif.got.tgz:54618.got - 2010.06.27 23:14:04.
