data_PCOD8076446
_publ_section_title
;
Structure prediction by ZEFSAII (Michael W. Deem and Ramdas Pophale) SiO2 
 PCOD8076446
Probable space group: P 21/M
;
_chemical_formula_sum "Si O2"
_cell_formula_units_Z 24
_cell_length_a 12.472329
_cell_length_b 8.470552
_cell_length_c 11.719311
_cell_angle_alpha 90.000000
_cell_angle_beta 90.502612
_cell_angle_gamma 90.000000
_cell_volume 1238.068404
_symmetry_space_group_name_H-M "P 21/M"
_symmetry_group_IT_number 11
_symmetry_cell_setting 'monoclinic'
loop_
_space_group_symop_operation_xyz
x,y,z
-x,1/2+y,-z
-x,-y,-z
x,1/2-y,z
loop_
_atom_site_type_symbol
_atom_site_label
_atom_site_fract_x
_atom_site_fract_y
_atom_site_fract_z
Si Si1 0.002270 0.933821 0.373904
Si Si2 0.198820 0.067981 0.239747
Si Si3 0.621678 0.432829 0.610333
Si Si4 0.191278 0.932394 0.760301
Si Si5 0.378750 0.433005 0.629568
Si Si6 0.880902 0.934674 0.008952
O O1 0.031333 0.750000 0.375858
O O2 0.090131 0.026876 0.303298
O O3 0.000000 0.000000 0.500000
O O4 0.887677 0.959639 0.314765
O O5 0.225540 0.250000 0.260909
O O6 0.298007 0.965365 0.285316
O O7 0.184281 0.030230 0.106641
O O8 0.623783 0.250000 0.576573
O O9 0.502424 0.483702 0.646866
O O10 0.659136 0.530551 0.499889
O O11 0.161256 0.750000 0.742579
O O12 0.311674 0.965151 0.719288
O O13 0.183129 0.976278 0.892699
O O14 0.360089 0.250000 0.655525
O O15 0.887397 0.750000 0.036344
O O16 0.000000 0.000000 0.000000
#
# Coordination Sequence:
#
# PCOD8076446 Si02
#       6
#     4   4   4   4   4   4
#     4  12  24  38  58  84 119 154 192 241 296 354
#     4  11  23  39  60  87 119 153 196 242 293 353
#     4  10  21  38  62  90 120 156 197 242 296 354
#     4  12  24  39  60  87 119 154 199 245 295 353
#     4  10  21  39  62  88 120 157 198 243 295 353
#     4  11  23  40  62  86 117 158 200 244 294 353
#
# _framework density 19.385035999999999
#
# number of rings (size 3 to 8) (size 9 to 14) (size 15 to 20)
#    0.000    1.000    1.667    6.000    0.000    4.000 
#    0.000    0.833    0.000    0.000    0.000    0.000 
#    0.000    0.000    0.000    0.000    0.000    0.000 
#
# Total GULP energy -297784.223764 kJ/mol
# GULP energy per Si atom -12407.675990 kJ/mol
# Density = 1.934091 g / cm^3
# Si number density = 19.385036 Si / 1000 Ang^3
#
#
#
# Elastic Constant Matrix: (Units=GPa)
#
#
# Indices 1 2 3 4 5 6 
#
# 1 97.2019 25.8698 45.9231 0.0000 -15.1200 0.0000
# 2 25.8698 53.5844 40.7469 0.0000 6.2336 0.0000
# 3 45.9231 40.7469 111.7813 0.0000 -24.6695 0.0000
# 4 0.0000 0.0000 0.0000 31.3762 0.0000 -1.4590
# 5 -15.1200 6.2336 -24.6695 0.0000 20.4188 0.0000
# 6 0.0000 0.0000 0.0000 -1.4590 0.0000 33.7832
#
#
#
# Elastic Compliance Matrix: (Units=1/GPa)
#
#
# Indices 1 2 3 4 5 6 
#
# 1 0.014705 -0.008981 0.000328 0.000000 0.014027 0.000000
# 2 -0.008981 0.048497 -0.025532 0.000000 -0.052303 0.000000
# 3 0.000328 -0.025532 0.027125 0.000000 0.040809 0.000000
# 4 0.000000 0.000000 0.000000 0.031935 0.000000 0.001379
# 5 0.014027 -0.052303 0.040809 0.000000 0.124633 0.000000
# 6 0.000000 0.000000 0.000000 0.001379 0.000000 0.029660
#
#
# Mechanical properties :
#
#
# Convention : Reuss Voigt Hill
#
# Bulk Modulus (GPa) = 45.54142 54.18302 49.86222
# Shear Modulus (GPa) = 14.19471 27.11749 20.65610
#
# Velocity S-wave (km/s) = 2.70895 3.74423 3.26785
# Velocity P-wave (km/s) = 5.77310 6.83403 6.32584
#
# Compressibility (1/GPa) = 0.02195803
#
# Stress axis : x y z
#
# Youngs Moduli (GPa) = 68.00439 20.61964 36.86704
#
# Poissons Ratio (x) = 0.18518 -0.01210
# Poissons Ratio (y) = 0.61072 0.94129
# Poissons Ratio (z) = -0.02231 0.52646
#
# Static dielectric constant tensor:
#      x y z
#    x 3.498140 0.000000 0.005920 
#    y 0.000000 3.726770 0.000000 
#    z 0.005920 0.000000 3.521570 
# 
# 
# High freq. dielectric constant tensor:
#      x y z
#    x 1.753270 0.000000 -0.002720 
#    y 0.000000 1.771030 0.000000 
#    z -0.002720 0.000000 1.755510 
# 
# From -- ./inp_files/33778.got.cif
#   From: 2010.06.25/outbox.cif.g09.slc.cpg/sg11_17_cif.got.tgz:33778.got - 2010.06.27 23:14:04.
