data_PCOD8076561
_publ_section_title
;
Structure prediction by ZEFSAII (Michael W. Deem and Ramdas Pophale) SiO2 
 PCOD8076561
Probable space group: P 21/M
;
_chemical_formula_sum "Si O2"
_cell_formula_units_Z 28
_cell_length_a 8.849327
_cell_length_b 8.962794
_cell_length_c 28.482695
_cell_angle_alpha 90.000000
_cell_angle_beta 39.182087
_cell_angle_gamma 90.000000
_cell_volume 1427.267635
_symmetry_space_group_name_H-M "P 21/M"
_symmetry_group_IT_number 11
_symmetry_cell_setting 'monoclinic'
loop_
_space_group_symop_operation_xyz
x,y,z
-x,1/2+y,-z
-x,-y,-z
x,1/2-y,z
loop_
_atom_site_type_symbol
_atom_site_label
_atom_site_fract_x
_atom_site_fract_y
_atom_site_fract_z
Si Si1 0.793251 0.423368 0.642827
Si Si2 0.664074 0.924293 0.498972
Si Si3 0.543462 0.425415 0.350281
Si Si4 0.409041 0.578609 0.206200
Si Si5 0.045043 0.926035 0.212250
Si Si6 0.099692 0.922086 0.930302
Si Si7 0.749128 0.576149 0.929127
O O1 0.765025 0.250000 0.635403
O O2 0.628359 0.524307 0.650043
O O3 0.721464 0.451601 0.713576
O O4 0.064133 0.479686 0.571681
O O5 0.648255 0.750000 0.493432
O O6 0.578062 0.968063 0.571408
O O7 0.500000 0.000000 0.500000
O O8 0.593080 0.250000 0.333633
O O9 0.788897 0.514000 0.288741
O O10 0.485947 0.750000 0.182259
O O11 0.643506 0.480158 0.146799
O O12 0.230043 0.530816 0.208252
O O13 0.029163 0.750000 0.208059
O O14 0.127856 0.002485 0.144898
O O15 0.124080 0.750000 0.936394
O O16 0.918196 0.952981 0.932258
O O17 0.000000 0.000000 0.000000
O O18 0.707980 0.750000 0.929307
O O19 0.500000 0.500000 0.000000
#
# Coordination Sequence:
#
# PCOD8076561 Si02
#       7
#     4   4   4   4   4   4   4
#     4  10  21  39  61  85 116 156 197 239 289 348
#     4  10  22  39  60  87 119 155 197 243 293 348
#     4  11  23  38  58  88 121 153 194 244 293 346
#     4  10  22  39  60  86 115 149 194 240 285 341
#     4  11  23  40  62  87 117 156 197 240 291 348
#     4  11  24  40  60  86 117 151 190 236 287 342
#     4  11  24  41  61  89 121 154 195 242 291 347
#
# _framework density 19.617905
#
# number of rings (size 3 to 8) (size 9 to 14) (size 15 to 20)
#    0.000    1.429    0.000    4.714    0.000   12.571 
#    0.000    0.000    0.000    0.000    0.000    0.000 
#    0.000    0.000    0.000    0.000    0.000    0.000 
#
# Total GULP energy -347373.296321 kJ/mol
# GULP energy per Si atom -12406.189154 kJ/mol
# Density = 1.957325 g / cm^3
# Si number density = 19.617905 Si / 1000 Ang^3
#
#
#
# Elastic Constant Matrix: (Units=GPa)
#
#
# Indices 1 2 3 4 5 6 
#
# 1 231.5921 71.9708 96.1393 0.0000 10.6289 0.0000
# 2 71.9708 100.5323 67.2748 0.0000 -5.7052 0.0000
# 3 96.1393 67.2748 161.3330 0.0000 -5.7827 0.0000
# 4 0.0000 0.0000 0.0000 36.0130 0.0000 -2.4038
# 5 10.6289 -5.7052 -5.7827 0.0000 46.8337 0.0000
# 6 0.0000 0.0000 0.0000 -2.4038 0.0000 36.4703
#
#
#
# Elastic Compliance Matrix: (Units=1/GPa)
#
#
# Indices 1 2 3 4 5 6 
#
# 1 0.006448 -0.002934 -0.002696 0.000000 -0.002154 0.000000
# 2 -0.002934 0.015177 -0.004510 0.000000 0.001958 0.000000
# 3 -0.002696 -0.004510 0.009731 0.000000 0.001264 0.000000
# 4 0.000000 0.000000 0.000000 0.027890 0.000000 0.001838
# 5 -0.002154 0.001958 0.001264 0.000000 0.022235 0.000000
# 6 0.000000 0.000000 0.000000 0.001838 0.000000 0.027541
#
#
# Mechanical properties :
#
#
# Convention : Reuss Voigt Hill
#
# Bulk Modulus (GPa) = 90.29134 107.13637 98.71386
# Shear Modulus (GPa) = 37.59579 41.06821 39.33200
#
# Velocity S-wave (km/s) = 4.38242 4.58034 4.48247
# Velocity P-wave (km/s) = 8.46950 9.09410 8.78735
#
# Compressibility (1/GPa) = 0.01107526
#
# Stress axis : x y z
#
# Youngs Moduli (GPa) = 155.09338 65.89077 102.76611
#
# Poissons Ratio (x) = 0.19333 0.27705
# Poissons Ratio (y) = 0.45505 0.46347
# Poissons Ratio (z) = 0.41813 0.29717
#
# Static dielectric constant tensor:
#      x y z
#    x 3.745260 0.000000 0.008040 
#    y 0.000000 3.677910 0.000000 
#    z 0.008040 0.000000 3.771930 
# 
# 
# High freq. dielectric constant tensor:
#      x y z
#    x 1.782670 0.000000 0.000150 
#    y 0.000000 1.770320 0.000000 
#    z 0.000150 0.000000 1.787040 
# 
# From -- ./inp_files/29006.got.cif
#   From: 2010.06.25/outbox.cif.g09.slc.cpg/sg11_15_cif.got.tgz:29006.got - 2010.06.27 23:14:04.
