data_PCOD8076825
_publ_section_title
;
Structure prediction by ZEFSAII (Michael W. Deem and Ramdas Pophale) SiO2 
 PCOD8076825
Probable space group: P 21/M
;
_chemical_formula_sum "Si O2"
_cell_formula_units_Z 32
_cell_length_a 16.270741
_cell_length_b 14.158796
_cell_length_c 23.631527
_cell_angle_alpha 90.000000
_cell_angle_beta 16.850450
_cell_angle_gamma 90.000000
_cell_volume 1578.104062
_symmetry_space_group_name_H-M "P 21/M"
_symmetry_group_IT_number 11
_symmetry_cell_setting 'monoclinic'
loop_
_space_group_symop_operation_xyz
x,y,z
-x,1/2+y,-z
-x,-y,-z
x,1/2-y,z
loop_
_atom_site_type_symbol
_atom_site_label
_atom_site_fract_x
_atom_site_fract_y
_atom_site_fract_z
Si Si1 0.753757 0.525588 0.705128
Si Si2 0.894041 0.855297 0.718022
Si Si3 0.735596 0.137944 0.033914
Si Si4 0.520415 0.643089 0.336367
Si Si5 0.611155 0.642297 0.017388
Si Si6 0.915545 0.351414 0.206148
Si Si7 0.843464 0.518808 0.045735
Si Si8 0.365588 0.406134 0.614371
O O1 0.892215 0.570116 0.669268
O O2 0.000000 0.500000 0.500000
O O3 0.511478 0.598087 0.843619
O O4 0.634408 0.423588 0.798335
O O5 0.851185 0.750000 0.721135
O O6 0.654755 0.878384 0.922127
O O7 0.184008 0.859998 0.562121
O O8 0.690835 0.250000 0.074246
O O9 0.049326 0.119228 0.800072
O O10 0.710775 0.078288 0.108797
O O11 0.637424 0.750000 0.258282
O O12 0.599869 0.592694 0.224406
O O13 0.653115 0.592271 0.304499
O O14 0.514659 0.750000 0.090437
O O15 0.894359 0.619127 0.865792
O O16 0.014496 0.250000 0.115408
O O17 0.595852 0.331968 0.439440
O O18 0.946300 0.434527 0.139422
O O19 0.000000 0.500000 0.000000
O O20 0.500000 0.500000 0.500000
#
# Coordination Sequence:
#
# PCOD8076825 Si02
#       8
#     4   4   4   4   4   4   4   4
#     4  12  25  45  66  95 132 176 224 276 339 401
#     4  10  22  40  67  96 125 166 219 269 327 396
#     4  12  26  43  65  95 136 179 222 274 338 401
#     4  11  22  39  65  98 129 168 217 273 331 390
#     4  10  21  40  67  98 126 162 219 280 332 391
#     4  11  21  38  65  97 129 164 214 272 325 386
#     4  12  23  39  59  93 132 175 219 263 324 400
#     4  12  21  40  65  96 133 172 215 261 331 402
#
# _framework density 20.277495999999999
#
# number of rings (size 3 to 8) (size 9 to 14) (size 15 to 20)
#    0.000    0.750    5.000    3.000    0.000    1.500 
#    0.000    0.000    0.000    0.000    0.000    0.000 
#    0.000    0.000    0.000    0.000    0.000    0.000 
#
# Total GULP energy -396640.750234 kJ/mol
# GULP energy per Si atom -12395.023445 kJ/mol
# Density = 2.023134 g / cm^3
# Si number density = 20.277496 Si / 1000 Ang^3
#
#
#
# Elastic Constant Matrix: (Units=GPa)
#
#
# Indices 1 2 3 4 5 6 
#
# 1 97.7461 52.3095 33.5185 0.0000 6.1644 0.0000
# 2 52.3095 137.8754 47.1176 0.0000 12.8177 0.0000
# 3 33.5185 47.1176 119.9155 0.0000 11.3933 0.0000
# 4 0.0000 0.0000 0.0000 25.6702 0.0000 11.4696
# 5 6.1644 12.8177 11.3933 0.0000 32.9690 0.0000
# 6 0.0000 0.0000 0.0000 11.4696 0.0000 29.4548
#
#
#
# Elastic Compliance Matrix: (Units=1/GPa)
#
#
# Indices 1 2 3 4 5 6 
#
# 1 0.013238 -0.004334 -0.001988 0.000000 -0.000103 0.000000
# 2 -0.004334 0.009952 -0.002490 0.000000 -0.002198 0.000000
# 3 -0.001988 -0.002490 0.010077 0.000000 -0.002142 0.000000
# 4 0.000000 0.000000 0.000000 0.047161 0.000000 -0.018364
# 5 -0.000103 -0.002198 -0.002142 0.000000 0.031946 0.000000
# 6 0.000000 0.000000 0.000000 -0.018364 0.000000 0.041101
#
#
# Mechanical properties :
#
#
# Convention : Reuss Voigt Hill
#
# Bulk Modulus (GPa) = 63.92187 69.04757 66.48472
# Shear Modulus (GPa) = 28.35860 32.45823 30.40841
#
# Velocity S-wave (km/s) = 3.74374 4.00522 3.87669
# Velocity P-wave (km/s) = 7.09080 7.45079 7.27302
#
# Compressibility (1/GPa) = 0.01564410
#
# Stress axis : x y z
#
# Youngs Moduli (GPa) = 75.54121 100.47739 99.23709
#
# Poissons Ratio (x) = 0.43542 0.19725
# Poissons Ratio (y) = 0.32736 0.24714
# Poissons Ratio (z) = 0.15015 0.25023
#
# Static dielectric constant tensor:
#      x y z
#    x 3.610220 0.000000 0.192990 
#    y 0.000000 4.134280 0.000000 
#    z 0.192990 0.000000 4.181080 
# 
# 
# High freq. dielectric constant tensor:
#      x y z
#    x 1.781490 0.000000 0.004210 
#    y 0.000000 1.810990 0.000000 
#    z 0.004210 0.000000 1.792660 
# 
# From -- ./inp_files/65750.got.cif
#   From: 2010.06.25/outbox.cif.g09.slc.cpg/sg11_33_cif.got.tgz:65750.got - 2010.06.27 23:14:04.
