data_PCOD8076288
_publ_section_title
;
Structure prediction by ZEFSAII (Michael W. Deem and Ramdas Pophale) SiO2 
 PCOD8076288
Probable space group: P 21/M
;
_chemical_formula_sum "Si O2"
_cell_formula_units_Z 28
_cell_length_a 9.241877
_cell_length_b 8.866997
_cell_length_c 29.106439
_cell_angle_alpha 90.000000
_cell_angle_beta 37.722136
_cell_angle_gamma 90.000000
_cell_volume 1459.346739
_symmetry_space_group_name_H-M "P 21/M"
_symmetry_group_IT_number 11
_symmetry_cell_setting 'monoclinic'
loop_
_space_group_symop_operation_xyz
x,y,z
-x,1/2+y,-z
-x,-y,-z
x,1/2-y,z
loop_
_atom_site_type_symbol
_atom_site_label
_atom_site_fract_x
_atom_site_fract_y
_atom_site_fract_z
Si Si1 0.994812 0.927971 0.863431
Si Si2 0.464200 0.427681 0.279879
Si Si3 0.834648 0.571830 0.003474
Si Si4 0.077381 0.928288 0.433352
Si Si5 0.249037 0.923922 0.558835
Si Si6 0.704238 0.427005 0.855037
Si Si7 0.844856 0.578936 0.728773
O O1 0.969134 0.750000 0.866344
O O2 0.264581 0.978327 0.787803
O O3 0.828709 0.999460 0.867181
O O4 0.914161 0.986459 0.933501
O O5 0.429021 0.250000 0.296407
O O6 0.337296 0.513703 0.353594
O O7 0.347154 0.474662 0.260725
O O8 0.861249 0.750000 0.000350
O O9 0.566698 0.518284 0.079195
O O10 0.000000 0.500000 0.000000
O O11 0.080945 0.750000 0.436891
O O12 0.000000 0.000000 0.500000
O O13 0.889020 0.979642 0.443505
O O14 0.271088 0.750000 0.537425
O O15 0.109522 0.933451 0.642077
O O16 0.500000 0.000000 0.500000
O O17 0.720884 0.250000 0.857308
O O18 0.833886 0.472921 0.775659
O O19 0.789832 0.750000 0.757819
#
# Coordination Sequence:
#
# PCOD8076288 Si02
#       7
#     4   4   4   4   4   4   4
#     4  10  21  38  59  81 111 149 185 223 275 333
#     4   9  19  37  59  82 107 141 188 234 275 331
#     4  10  22  39  59  84 111 145 186 227 272 325
#     4  11  22  37  58  83 113 149 187 232 283 335
#     4  10  21  38  59  84 113 147 188 233 280 335
#     4  11  23  36  54  84 117 144 181 231 275 319
#     4   9  19  37  59  80 108 147 185 222 273 334
#
# _framework density 19.186668000000001
#
# number of rings (size 3 to 8) (size 9 to 14) (size 15 to 20)
#    0.000    2.000    0.000    4.286    0.000    7.429 
#    0.000    1.429    0.000    0.000    0.000    0.000 
#    0.000    0.000    0.000    0.000    0.000    0.000 
#
# Total GULP energy -347287.149712 kJ/mol
# GULP energy per Si atom -12403.112490 kJ/mol
# Density = 1.914300 g / cm^3
# Si number density = 19.186668 Si / 1000 Ang^3
#
#
#
# Elastic Constant Matrix: (Units=GPa)
#
#
# Indices 1 2 3 4 5 6 
#
# 1 121.8393 36.3322 74.0988 0.0000 -1.9984 0.0000
# 2 36.3322 66.2227 50.6064 0.0000 1.0512 0.0000
# 3 74.0988 50.6064 139.7951 0.0000 3.8465 0.0000
# 4 0.0000 0.0000 0.0000 31.6801 0.0000 0.5786
# 5 -1.9984 1.0512 3.8465 0.0000 39.2919 0.0000
# 6 0.0000 0.0000 0.0000 0.5786 0.0000 36.6600
#
#
#
# Elastic Compliance Matrix: (Units=1/GPa)
#
#
# Indices 1 2 3 4 5 6 
#
# 1 0.012457 -0.002464 -0.005746 0.000000 0.001262 0.000000
# 2 -0.002464 0.021364 -0.006426 0.000000 -0.000068 0.000000
# 3 -0.005746 -0.006426 0.012562 0.000000 -0.001350 0.000000
# 4 0.000000 0.000000 0.000000 0.031575 0.000000 -0.000498
# 5 0.001262 -0.000068 -0.001350 0.000000 0.025649 0.000000
# 6 0.000000 0.000000 0.000000 -0.000498 0.000000 0.027286
#
#
# Mechanical properties :
#
#
# Convention : Reuss Voigt Hill
#
# Bulk Modulus (GPa) = 58.43724 72.21465 65.32595
# Shear Modulus (GPa) = 30.14439 32.64772 31.39605
#
# Velocity S-wave (km/s) = 3.96802 4.12950 4.04957
# Velocity P-wave (km/s) = 7.17753 7.77539 7.48243
#
# Compressibility (1/GPa) = 0.01711238
#
# Stress axis : x y z
#
# Youngs Moduli (GPa) = 80.27367 46.80764 79.60248
#
# Poissons Ratio (x) = 0.11532 0.45739
# Poissons Ratio (y) = 0.19777 0.51154
# Poissons Ratio (z) = 0.46125 0.30079
#
# Static dielectric constant tensor:
#      x y z
#    x 3.465570 0.000000 -0.072460 
#    y 0.000000 3.447680 0.000000 
#    z -0.072460 0.000000 3.819040 
# 
# 
# High freq. dielectric constant tensor:
#      x y z
#    x 1.747250 0.000000 -0.002170 
#    y 0.000000 1.744590 0.000000 
#    z -0.002170 0.000000 1.761760 
# 
# From -- ./inp_files/28331.got.cif
#   From: 2010.06.25/outbox.cif.g09.slc.cpg/sg11_15_cif.got.tgz:28331.got - 2010.06.27 23:14:04.
