data_PCOD8076013
_publ_section_title
;
Structure prediction by ZEFSAII (Michael W. Deem and Ramdas Pophale) SiO2 
 PCOD8076013
Probable space group: P 21/M
;
_chemical_formula_sum "Si O2"
_cell_formula_units_Z 32
_cell_length_a 28.050595
_cell_length_b 8.841918
_cell_length_c 6.942812
_cell_angle_alpha 90.000000
_cell_angle_beta 87.773639
_cell_angle_gamma 90.000000
_cell_volume 1720.663771
_symmetry_space_group_name_H-M "P 21/M"
_symmetry_group_IT_number 11
_symmetry_cell_setting 'monoclinic'
loop_
_space_group_symop_operation_xyz
x,y,z
-x,1/2+y,-z
-x,-y,-z
x,1/2-y,z
loop_
_atom_site_type_symbol
_atom_site_label
_atom_site_fract_x
_atom_site_fract_y
_atom_site_fract_z
Si Si1 0.698580 0.573491 0.005301
Si Si2 0.200647 0.573649 0.982988
Si Si3 0.450103 0.574094 0.960592
Si Si4 0.368128 0.573701 0.275787
Si Si5 0.125290 0.577874 0.669236
Si Si6 0.383416 0.074153 0.681394
Si Si7 0.948780 0.073499 0.991922
Si Si8 0.873590 0.572010 0.733331
O O1 0.703621 0.750000 0.960899
O O2 0.678971 0.492798 0.817201
O O3 0.748915 0.504567 0.055188
O O4 0.663651 0.540026 0.188043
O O5 0.206978 0.750000 0.026295
O O6 0.171551 0.546450 0.791939
O O7 0.173721 0.500343 0.168104
O O8 0.457728 0.750000 0.925436
O O9 0.429396 0.504781 0.767653
O O10 0.500000 0.500000 0.000000
O O11 0.414407 0.539471 0.140667
O O12 0.360204 0.750000 0.312183
O O13 0.375259 0.490952 0.473764
O O14 0.125446 0.750000 0.592541
O O15 0.078324 0.546521 0.803084
O O16 0.125662 0.462568 0.493093
O O17 0.394710 0.250000 0.666223
O O18 0.952976 0.250000 0.943445
O O19 0.920961 0.996045 0.820971
O O20 0.000000 0.000000 0.000000
O O21 0.872630 0.750000 0.767285
#
# Coordination Sequence:
#
# PCOD8076013 Si02
#       8
#     4   4   4   4   4   4   4   4
#     4  10  21  37  57  82 111 142 180 225 271 321
#     4  10  21  38  59  81 109 145 183 225 271 321
#     4  10  21  37  57  81 109 143 183 226 273 324
#     4  10  21  37  57  81 110 144 182 223 269 324
#     4   9  20  38  57  79 109 145 184 225 270 321
#     4  10  21  37  57  81 111 145 181 225 273 321
#     4  10  21  38  59  82 111 145 183 227 272 322
#     4  11  22  36  57  83 112 145 181 225 274 324
#
# _framework density 18.597474999999999
#
# number of rings (size 3 to 8) (size 9 to 14) (size 15 to 20)
#    0.000    2.000    0.000    4.125    0.000    8.000 
#    0.000    2.500    0.000    0.000    0.000    0.000 
#    0.000    0.000    0.000    0.000    0.000    0.000 
#
# Total GULP energy -396964.313451 kJ/mol
# GULP energy per Si atom -12405.134795 kJ/mol
# Density = 1.855515 g / cm^3
# Si number density = 18.597475 Si / 1000 Ang^3
#
#
#
# Elastic Constant Matrix: (Units=GPa)
#
#
# Indices 1 2 3 4 5 6 
#
# 1 143.8699 117.2019 64.1710 0.0000 21.7122 0.0000
# 2 117.2019 323.6480 162.4147 0.0000 41.2682 0.0000
# 3 64.1710 162.4147 164.1259 0.0000 30.7522 0.0000
# 4 0.0000 0.0000 0.0000 36.1429 0.0000 3.2676
# 5 21.7122 41.2682 30.7522 0.0000 21.3782 0.0000
# 6 0.0000 0.0000 0.0000 3.2676 0.0000 39.3543
#
#
#
# Elastic Compliance Matrix: (Units=1/GPa)
#
#
# Indices 1 2 3 4 5 6 
#
# 1 0.010145 -0.003067 -0.000151 0.000000 -0.004166 0.000000
# 2 -0.003067 0.007362 -0.005485 0.000000 -0.003206 0.000000
# 3 -0.000151 -0.005485 0.013097 0.000000 -0.008098 0.000000
# 4 0.000000 0.000000 0.000000 0.027877 0.000000 -0.002315
# 5 -0.004166 -0.003206 -0.008098 0.000000 0.068846 0.000000
# 6 0.000000 0.000000 0.000000 -0.002315 0.000000 0.025602
#
#
# Mechanical properties :
#
#
# Convention : Reuss Voigt Hill
#
# Bulk Modulus (GPa) = 75.76971 146.57989 111.17480
# Shear Modulus (GPa) = 28.61471 38.56549 33.59010
#
# Velocity S-wave (km/s) = 3.92680 4.55872 4.25451
# Velocity P-wave (km/s) = 7.83518 10.32945 9.16754
#
# Compressibility (1/GPa) = 0.01319789
#
# Stress axis : x y z
#
# Youngs Moduli (GPa) = 98.56873 135.83739 76.35085
#
# Poissons Ratio (x) = 0.41658 0.01155
# Poissons Ratio (y) = 0.30228 0.41880
# Poissons Ratio (z) = 0.01491 0.74510
#
# Static dielectric constant tensor:
#      x y z
#    x 3.489390 0.000000 0.062300 
#    y 0.000000 3.149140 0.000000 
#    z 0.062300 0.000000 3.373630 
# 
# 
# High freq. dielectric constant tensor:
#      x y z
#    x 1.726570 0.000000 0.005530 
#    y 0.000000 1.739280 0.000000 
#    z 0.005530 0.000000 1.722320 
# 
# From -- ./inp_files/9685.got.cif
#   From: 2010.06.25/outbox.cif.g09.slc.cpg/sg11_5_cif.got.tgz:9685.got - 2010.06.27 23:14:04.
