data_PCOD8076125
_publ_section_title
;
Structure prediction by ZEFSAII (Michael W. Deem and Ramdas Pophale) SiO2 
 PCOD8076125
Probable space group: P 21/M
;
_chemical_formula_sum "Si O2"
_cell_formula_units_Z 32
_cell_length_a 30.896832
_cell_length_b 8.822734
_cell_length_c 11.163162
_cell_angle_alpha 90.000000
_cell_angle_beta 32.570997
_cell_angle_gamma 90.000000
_cell_volume 1638.190707
_symmetry_space_group_name_H-M "P 21/M"
_symmetry_group_IT_number 11
_symmetry_cell_setting 'monoclinic'
loop_
_space_group_symop_operation_xyz
x,y,z
-x,1/2+y,-z
-x,-y,-z
x,1/2-y,z
loop_
_atom_site_type_symbol
_atom_site_label
_atom_site_fract_x
_atom_site_fract_y
_atom_site_fract_z
Si Si1 0.333270 0.573563 0.123574
Si Si2 0.368362 0.074622 0.537027
Si Si3 0.198100 0.425568 0.049272
Si Si4 0.298772 0.575391 0.475465
Si Si5 0.510684 0.927874 0.346058
Si Si6 0.869430 0.425518 0.018868
Si Si7 0.171750 0.573610 0.360680
Si Si8 0.017832 0.428305 0.831759
O O1 0.355867 0.750000 0.060021
O O2 0.317440 0.526254 0.297104
O O3 0.255420 0.533640 0.227939
O O4 0.404584 0.472959 0.907021
O O5 0.392311 0.250000 0.483692
O O6 0.289903 0.041328 0.799396
O O7 0.353273 0.025928 0.435503
O O8 0.440774 0.978137 0.420098
O O9 0.184134 0.250000 0.112771
O O10 0.139493 0.472506 0.078212
O O11 0.176025 0.528231 0.212774
O O12 0.320835 0.750000 0.447285
O O13 0.204599 0.546392 0.718223
O O14 0.507110 0.750000 0.371129
O O15 0.500000 0.000000 0.500000
O O16 0.873858 0.250000 0.970095
O O17 0.950022 0.480949 0.895911
O O18 0.150977 0.750000 0.420683
O O19 0.104035 0.478553 0.584685
O O20 0.015358 0.250000 0.853292
O O21 0.000000 0.500000 0.000000
#
# Coordination Sequence:
#
# PCOD8076125 Si02
#       8
#     4   4   4   4   4   4   4   4
#     4  10  22  40  61  85 115 152 193 237 285 339
#     4  10  21  38  60  87 118 150 188 233 283 340
#     4  10  21  37  59  87 116 149 190 237 286 336
#     4   9  18  36  61  86 114 149 190 233 279 334
#     4  12  25  40  60  85 114 150 191 236 287 341
#     4   9  19  37  60  85 114 151 191 231 280 338
#     4  11  23  39  60  85 115 153 193 235 287 343
#     4  11  23  39  60  86 117 152 192 238 287 340
#
# _framework density 19.533745
#
# number of rings (size 3 to 8) (size 9 to 14) (size 15 to 20)
#    0.000    1.750    0.000    4.125    0.000    9.000 
#    0.000    2.500    0.000    0.000    0.000    0.000 
#    0.000    0.000    0.000    0.000    0.000    0.000 
#
# Total GULP energy -396990.161939 kJ/mol
# GULP energy per Si atom -12405.942561 kJ/mol
# Density = 1.948929 g / cm^3
# Si number density = 19.533745 Si / 1000 Ang^3
#
#
#
# Elastic Constant Matrix: (Units=GPa)
#
#
# Indices 1 2 3 4 5 6 
#
# 1 102.3956 50.1574 42.0842 0.0000 1.3039 0.0000
# 2 50.1574 84.8071 42.1027 0.0000 -6.2262 0.0000
# 3 42.0842 42.1027 70.3371 0.0000 4.4111 0.0000
# 4 0.0000 0.0000 0.0000 34.9255 0.0000 1.5944
# 5 1.3039 -6.2262 4.4111 0.0000 38.8869 0.0000
# 6 0.0000 0.0000 0.0000 1.5944 0.0000 35.5938
#
#
#
# Elastic Compliance Matrix: (Units=1/GPa)
#
#
# Indices 1 2 3 4 5 6 
#
# 1 0.015014 -0.006431 -0.005073 0.000000 -0.000958 0.000000
# 2 -0.006431 0.020125 -0.008475 0.000000 0.004399 0.000000
# 3 -0.005073 -0.008475 0.022560 0.000000 -0.003746 0.000000
# 4 0.000000 0.000000 0.000000 0.028691 0.000000 -0.001285
# 5 -0.000958 0.004399 -0.003746 0.000000 0.026877 0.000000
# 6 0.000000 0.000000 0.000000 -0.001285 0.000000 0.028152
#
#
# Mechanical properties :
#
#
# Convention : Reuss Voigt Hill
#
# Bulk Modulus (GPa) = 56.36645 58.46983 57.41814
# Shear Modulus (GPa) = 26.69635 30.09428 28.39531
#
# Velocity S-wave (km/s) = 3.70087 3.92934 3.81682
# Velocity P-wave (km/s) = 6.86881 7.11225 6.99159
#
# Compressibility (1/GPa) = 0.01774105
#
# Stress axis : x y z
#
# Youngs Moduli (GPa) = 66.60636 49.68883 44.32537
#
# Poissons Ratio (x) = 0.31955 0.22488
# Poissons Ratio (y) = 0.42835 0.37564
# Poissons Ratio (z) = 0.33792 0.42110
#
# Static dielectric constant tensor:
#      x y z
#    x 3.695460 0.000000 -0.186950 
#    y 0.000000 3.573580 0.000000 
#    z -0.186950 0.000000 3.048240 
# 
# 
# High freq. dielectric constant tensor:
#      x y z
#    x 1.775640 0.000000 0.000240 
#    y 0.000000 1.765230 0.000000 
#    z 0.000240 0.000000 1.763880 
# 
# From -- ./inp_files/45179.got.cif
#   From: 2010.06.25/outbox.cif.g09.slc.cpg/sg11_23_cif.got.tgz:45179.got - 2010.06.27 23:14:04.
