data_PCOD8076030
_publ_section_title
;
Structure prediction by ZEFSAII (Michael W. Deem and Ramdas Pophale) SiO2 
 PCOD8076030
Probable space group: P 21/M
;
_chemical_formula_sum "Si O2"
_cell_formula_units_Z 32
_cell_length_a 14.862294
_cell_length_b 9.077595
_cell_length_c 25.498936
_cell_angle_alpha 90.000000
_cell_angle_beta 29.435093
_cell_angle_gamma 90.000000
_cell_volume 1690.623102
_symmetry_space_group_name_H-M "P 21/M"
_symmetry_group_IT_number 11
_symmetry_cell_setting 'monoclinic'
loop_
_space_group_symop_operation_xyz
x,y,z
-x,1/2+y,-z
-x,-y,-z
x,1/2-y,z
loop_
_atom_site_type_symbol
_atom_site_label
_atom_site_fract_x
_atom_site_fract_y
_atom_site_fract_z
Si Si1 0.660922 0.575727 0.563263
Si Si2 0.004291 0.921172 0.777240
Si Si3 0.445959 0.580928 0.276380
Si Si4 0.364222 0.419289 0.215609
Si Si5 0.233048 0.922125 0.021842
Si Si6 0.587865 0.078389 0.406071
Si Si7 0.996673 0.079254 0.342952
Si Si8 0.860157 0.919561 0.033731
O O1 0.665991 0.750000 0.566029
O O2 0.611361 0.508875 0.643987
O O3 0.509402 0.523987 0.597788
O O4 0.859491 0.519293 0.445951
O O5 0.952703 0.750000 0.808848
O O6 0.197076 0.958055 0.707297
O O7 0.017199 0.968235 0.710279
O O8 0.844138 0.017265 0.884311
O O9 0.388462 0.750000 0.312668
O O10 0.340514 0.517963 0.279356
O O11 0.661442 0.561888 0.159547
O O12 0.364326 0.250000 0.233912
O O13 0.200863 0.454230 0.258873
O O14 0.551085 0.457220 0.090025
O O15 0.192218 0.750000 0.037599
O O16 0.127483 0.005364 0.029096
O O17 0.555372 0.250000 0.431688
O O18 0.500000 0.000000 0.500000
O O19 0.943751 0.250000 0.377138
O O20 0.916703 0.750000 0.998625
O O21 0.000000 0.000000 0.000000
#
# Coordination Sequence:
#
# PCOD8076030 Si02
#       8
#     4   4   4   4   4   4   4   4
#     4  11  23  37  57  87 118 151 190 234 284 339
#     4  10  21  37  57  85 117 152 190 231 282 342
#     4  10  22  39  59  84 113 149 190 233 284 341
#     4   9  20  40  62  84 113 149 190 239 289 334
#     4  10  21  37  57  84 116 150 190 236 283 336
#     4  10  21  37  57  82 114 152 188 230 284 335
#     4  10  21  39  62  84 112 152 194 237 286 337
#     4  10  21  37  57  83 113 148 191 235 283 338
#
# _framework density 18.927932999999999
#
# number of rings (size 3 to 8) (size 9 to 14) (size 15 to 20)
#    0.000    2.000    1.250    1.500    1.750    5.000 
#    0.000    0.000    0.000    0.000    0.000    0.000 
#    0.000    0.000    0.000    0.000    0.000    0.000 
#
# Total GULP energy -396954.604173 kJ/mol
# GULP energy per Si atom -12404.831380 kJ/mol
# Density = 1.888485 g / cm^3
# Si number density = 18.927933 Si / 1000 Ang^3
#
#
#
# Elastic Constant Matrix: (Units=GPa)
#
#
# Indices 1 2 3 4 5 6 
#
# 1 76.6396 34.4784 36.0645 0.0000 -9.0145 0.0000
# 2 34.4784 86.5244 46.9340 0.0000 5.8989 0.0000
# 3 36.0645 46.9340 89.1618 0.0000 14.8106 0.0000
# 4 0.0000 0.0000 0.0000 38.0699 0.0000 5.3437
# 5 -9.0145 5.8989 14.8106 0.0000 30.4021 0.0000
# 6 0.0000 0.0000 0.0000 5.3437 0.0000 30.5265
#
#
#
# Elastic Compliance Matrix: (Units=1/GPa)
#
#
# Indices 1 2 3 4 5 6 
#
# 1 0.019764 -0.004638 -0.007264 0.000000 0.010299 0.000000
# 2 -0.004638 0.017298 -0.007011 0.000000 -0.001316 0.000000
# 3 -0.007264 -0.007011 0.019559 0.000000 -0.010322 0.000000
# 4 0.000000 0.000000 0.000000 0.026929 0.000000 -0.004714
# 5 0.010299 -0.001316 -0.010322 0.000000 0.041230 0.000000
# 6 0.000000 0.000000 0.000000 -0.004714 0.000000 0.033584
#
#
# Mechanical properties :
#
#
# Convention : Reuss Voigt Hill
#
# Bulk Modulus (GPa) = 53.20305 54.14216 53.67261
# Shear Modulus (GPa) = 24.69703 28.78964 26.74333
#
# Velocity S-wave (km/s) = 3.61611 3.90425 3.76294
# Velocity P-wave (km/s) = 6.75309 6.99933 6.87731
#
# Compressibility (1/GPa) = 0.01879592
#
# Stress axis : x y z
#
# Youngs Moduli (GPa) = 50.59747 57.80909 51.12802
#
# Poissons Ratio (x) = 0.26809 0.37138
# Poissons Ratio (y) = 0.23465 0.35847
# Poissons Ratio (z) = 0.36752 0.40531
#
# Static dielectric constant tensor:
#      x y z
#    x 3.660750 0.000000 -0.091890 
#    y 0.000000 3.462360 0.000000 
#    z -0.091890 0.000000 3.529210 
# 
# 
# High freq. dielectric constant tensor:
#      x y z
#    x 1.741050 0.000000 0.000760 
#    y 0.000000 1.740010 0.000000 
#    z 0.000760 0.000000 1.737590 
# 
# From -- ./inp_files/51724.got.cif
#   From: 2010.06.25/outbox.cif.g09.slc.cpg/sg11_26_cif.got.tgz:51724.got - 2010.06.27 23:14:04.
