data_PCOD8076481
_publ_section_title
;
Structure prediction by ZEFSAII (Michael W. Deem and Ramdas Pophale) SiO2 
 PCOD8076481
Probable space group: P 21/M
;
_chemical_formula_sum "Si O2"
_cell_formula_units_Z 28
_cell_length_a 11.833627
_cell_length_b 8.668724
_cell_length_c 15.418363
_cell_angle_alpha 90.000000
_cell_angle_beta 60.787484
_cell_angle_gamma 90.000000
_cell_volume 1380.491577
_symmetry_space_group_name_H-M "P 21/M"
_symmetry_group_IT_number 11
_symmetry_cell_setting 'monoclinic'
loop_
_space_group_symop_operation_xyz
x,y,z
-x,1/2+y,-z
-x,-y,-z
x,1/2-y,z
loop_
_atom_site_type_symbol
_atom_site_label
_atom_site_fract_x
_atom_site_fract_y
_atom_site_fract_z
Si Si1 0.430342 0.932384 0.609046
Si Si2 0.426355 0.427786 0.156919
Si Si3 0.894641 0.932434 0.473860
Si Si4 0.866812 0.067631 0.300435
Si Si5 0.637398 0.430688 0.646880
Si Si6 0.671704 0.570650 0.995757
Si Si7 0.039804 0.432088 0.076099
O O1 0.446798 0.750000 0.605460
O O2 0.280697 0.981155 0.662968
O O3 0.500000 0.000000 0.500000
O O4 0.498189 0.006380 0.667591
O O5 0.415809 0.250000 0.188080
O O6 0.352455 0.530737 0.255448
O O7 0.576781 0.473685 0.092844
O O8 0.354669 0.464370 0.094579
O O9 0.902601 0.750000 0.475946
O O10 0.923271 0.987189 0.365296
O O11 0.751414 0.987397 0.551898
O O12 0.000000 0.000000 0.500000
O O13 0.880723 0.250000 0.308314
O O14 0.949111 0.006831 0.187713
O O15 0.649256 0.250000 0.625367
O O16 0.651075 0.750000 0.024786
O O17 0.815100 0.512301 0.960502
O O18 0.029799 0.250000 0.075213
O O19 0.000000 0.500000 0.000000
#
# Coordination Sequence:
#
# PCOD8076481 Si02
#       7
#     4   4   4   4   4   4   4
#     4  11  22  39  63  92 126 162 206 256 313 373
#     4  10  21  38  63  92 122 161 207 260 318 377
#     4  12  26  44  67  96 131 169 214 261 317 384
#     4  10  23  43  66  92 127 169 213 265 320 376
#     4  12  25  41  63  94 129 165 210 260 314 377
#     4   9  20  40  62  88 122 161 205 260 320 378
#     4  10  23  42  63  91 124 164 212 261 315 373
#
# _framework density 20.282630999999999
#
# number of rings (size 3 to 8) (size 9 to 14) (size 15 to 20)
#    0.000    1.429    1.429    3.429    4.000    2.286 
#    0.000    0.000    0.000    0.000    0.000    0.000 
#    0.000    0.000    0.000    0.000    0.000    0.000 
#
# Total GULP energy -347345.216825 kJ/mol
# GULP energy per Si atom -12405.186315 kJ/mol
# Density = 2.023647 g / cm^3
# Si number density = 20.282631 Si / 1000 Ang^3
#
#
#
# Elastic Constant Matrix: (Units=GPa)
#
#
# Indices 1 2 3 4 5 6 
#
# 1 141.3821 44.3649 63.3412 0.0000 -1.4556 0.0000
# 2 44.3649 83.6998 41.2218 0.0000 5.1729 0.0000
# 3 63.3412 41.2218 142.7879 0.0000 5.9514 0.0000
# 4 0.0000 0.0000 0.0000 37.7439 0.0000 4.3717
# 5 -1.4556 5.1729 5.9514 0.0000 28.2502 0.0000
# 6 0.0000 0.0000 0.0000 4.3717 0.0000 34.0996
#
#
#
# Elastic Compliance Matrix: (Units=1/GPa)
#
#
# Indices 1 2 3 4 5 6 
#
# 1 0.009729 -0.003624 -0.003348 0.000000 0.001870 0.000000
# 2 -0.003624 0.015361 -0.002726 0.000000 -0.002425 0.000000
# 3 -0.003348 -0.002726 0.009344 0.000000 -0.001642 0.000000
# 4 0.000000 0.000000 0.000000 0.026894 0.000000 -0.003448
# 5 0.001870 -0.002425 -0.001642 0.000000 0.036284 0.000000
# 6 0.000000 0.000000 0.000000 -0.003448 0.000000 0.029768
#
#
# Mechanical properties :
#
#
# Convention : Reuss Voigt Hill
#
# Bulk Modulus (GPa) = 66.49431 73.96952 70.23192
# Shear Modulus (GPa) = 32.94085 34.61486 33.77786
#
# Velocity S-wave (km/s) = 4.03437 4.13561 4.08531
# Velocity P-wave (km/s) = 7.38624 7.70409 7.54684
#
# Compressibility (1/GPa) = 0.01503888
#
# Stress axis : x y z
#
# Youngs Moduli (GPa) = 102.78297 65.10160 107.02266
#
# Poissons Ratio (x) = 0.23592 0.35828
# Poissons Ratio (y) = 0.37247 0.29173
# Poissons Ratio (z) = 0.34409 0.17746
#
# Static dielectric constant tensor:
#      x y z
#    x 4.013050 0.000000 -0.033420 
#    y 0.000000 3.679980 0.000000 
#    z -0.033420 0.000000 3.796970 
# 
# 
# High freq. dielectric constant tensor:
#      x y z
#    x 1.802140 0.000000 0.002930 
#    y 0.000000 1.791920 0.000000 
#    z 0.002930 0.000000 1.802300 
# 
# From -- ./inp_files/49170.got.cif
#   From: 2010.06.25/outbox.cif.g09.slc.cpg/sg11_25_cif.got.tgz:49170.got - 2010.06.27 23:14:04.
