data_PCOD8076881
_publ_section_title
;
Structure prediction by ZEFSAII (Michael W. Deem and Ramdas Pophale) SiO2 
 PCOD8076881
Probable space group: P 21/M
;
_chemical_formula_sum "Si O2"
_cell_formula_units_Z 32
_cell_length_a 28.446768
_cell_length_b 8.664669
_cell_length_c 11.987343
_cell_angle_alpha 90.000000
_cell_angle_beta 147.570710
_cell_angle_gamma 90.000000
_cell_volume 1584.462294
_symmetry_space_group_name_H-M "P 21/M"
_symmetry_group_IT_number 11
_symmetry_cell_setting 'monoclinic'
loop_
_space_group_symop_operation_xyz
x,y,z
-x,1/2+y,-z
-x,-y,-z
x,1/2-y,z
loop_
_atom_site_type_symbol
_atom_site_label
_atom_site_fract_x
_atom_site_fract_y
_atom_site_fract_z
Si Si1 0.849864 0.077434 0.975037
Si Si2 0.749410 0.430995 0.138988
Si Si3 0.744163 0.431234 0.389473
Si Si4 0.589687 0.567903 0.220789
Si Si5 0.089646 0.932024 0.139698
Si Si6 0.403255 0.068598 0.313150
Si Si7 0.648527 0.076907 0.564018
Si Si8 0.096669 0.430098 0.696336
O O1 0.881536 0.250000 0.073749
O O2 0.863542 0.958695 0.102170
O O3 0.900611 0.014358 0.968757
O O4 0.749955 0.084645 0.737309
O O5 0.747750 0.250000 0.111266
O O6 0.750069 0.470098 0.270784
O O7 0.839141 0.496409 0.266763
O O8 0.661314 0.501788 0.910321
O O9 0.729731 0.250000 0.381447
O O10 0.664063 0.522287 0.282312
O O11 0.832221 0.493024 0.625181
O O12 0.585017 0.750000 0.221719
O O13 0.600453 0.497891 0.364304
O O14 0.500000 0.500000 0.000000
O O15 0.087233 0.750000 0.142386
O O16 0.000000 0.000000 0.000000
O O17 0.408324 0.250000 0.306175
O O18 0.500000 0.000000 0.500000
O O19 0.364019 0.029767 0.354318
O O20 0.611973 0.250000 0.513127
O O21 0.091254 0.250000 0.661250
O O22 0.000000 0.500000 0.500000
#
# Coordination Sequence:
#
# PCOD8076881 Si02
#       8
#     4   4   4   4   4   4   4   4
#     4  10  21  41  68  93 127 167 211 265 326 382
#     4  11  24  44  68  95 132 173 216 271 328 386
#     4  10  23  45  67  91 130 173 216 264 323 383
#     4  12  26  43  67  97 132 171 218 267 324 389
#     4  10  22  41  64  95 128 167 210 260 314 376
#     4  12  26  44  67  97 132 173 219 267 324 389
#     4  11  22  43  71  95 128 168 215 272 328 385
#     4  12  26  43  66  95 131 170 219 270 324 392
#
# _framework density 20.196124999999999
#
# number of rings (size 3 to 8) (size 9 to 14) (size 15 to 20)
#    0.000    1.000    2.500    4.125    3.500    2.500 
#    0.000    0.000    0.000    0.000    0.000    0.000 
#    0.000    0.000    0.000    0.000    0.000    0.000 
#
# Total GULP energy -396914.923662 kJ/mol
# GULP energy per Si atom -12403.591364 kJ/mol
# Density = 2.015016 g / cm^3
# Si number density = 20.196125 Si / 1000 Ang^3
#
#
#
# Elastic Constant Matrix: (Units=GPa)
#
#
# Indices 1 2 3 4 5 6 
#
# 1 96.6045 31.4612 39.4546 0.0000 0.0297 0.0000
# 2 31.4612 109.4364 47.2157 0.0000 -1.6323 0.0000
# 3 39.4546 47.2157 121.9571 0.0000 4.1049 0.0000
# 4 0.0000 0.0000 0.0000 35.2062 0.0000 3.7675
# 5 0.0297 -1.6323 4.1049 0.0000 40.7425 0.0000
# 6 0.0000 0.0000 0.0000 3.7675 0.0000 35.9209
#
#
#
# Elastic Compliance Matrix: (Units=1/GPa)
#
#
# Indices 1 2 3 4 5 6 
#
# 1 0.012353 -0.002186 -0.003158 0.000000 0.000222 0.000000
# 2 -0.002186 0.011388 -0.003730 0.000000 0.000834 0.000000
# 3 -0.003158 -0.003730 0.010706 0.000000 -0.001226 0.000000
# 4 0.000000 0.000000 0.000000 0.028727 0.000000 -0.003013
# 5 0.000222 0.000834 -0.001226 0.000000 0.024701 0.000000
# 6 0.000000 0.000000 0.000000 -0.003013 0.000000 0.028155
#
#
# Mechanical properties :
#
#
# Convention : Reuss Voigt Hill
#
# Bulk Modulus (GPa) = 61.34598 62.69566 62.02082
# Shear Modulus (GPa) = 35.81432 36.36500 36.08966
#
# Velocity S-wave (km/s) = 4.21566 4.24794 4.23183
# Velocity P-wave (km/s) = 7.35777 7.42771 7.39282
#
# Compressibility (1/GPa) = 0.01630099
#
# Stress axis : x y z
#
# Youngs Moduli (GPa) = 80.95325 87.81445 93.40263
#
# Poissons Ratio (x) = 0.19193 0.29493
# Poissons Ratio (y) = 0.17693 0.34836
# Poissons Ratio (z) = 0.25562 0.32752
#
# Static dielectric constant tensor:
#      x y z
#    x 3.852560 0.000000 0.108930 
#    y 0.000000 3.953240 0.000000 
#    z 0.108930 0.000000 4.042550 
# 
# 
# High freq. dielectric constant tensor:
#      x y z
#    x 1.803410 0.000000 -0.001500 
#    y 0.000000 1.792880 0.000000 
#    z -0.001500 0.000000 1.802460 
# 
# From -- ./inp_files/45239.got.cif
#   From: 2010.06.25/outbox.cif.g09.slc.cpg/sg11_23_cif.got.tgz:45239.got - 2010.06.27 23:14:04.
