data_PCOD8076620
_publ_section_title
;
Structure prediction by ZEFSAII (Michael W. Deem and Ramdas Pophale) SiO2 
 PCOD8076620
Probable space group: P 21/M
;
_chemical_formula_sum "Si O2"
_cell_formula_units_Z 32
_cell_length_a 12.664826
_cell_length_b 15.108297
_cell_length_c 17.984439
_cell_angle_alpha 90.000000
_cell_angle_beta 151.790944
_cell_angle_gamma 90.000000
_cell_volume 1626.627468
_symmetry_space_group_name_H-M "P 21/M"
_symmetry_group_IT_number 11
_symmetry_cell_setting 'monoclinic'
loop_
_space_group_symop_operation_xyz
x,y,z
-x,1/2+y,-z
-x,-y,-z
x,1/2-y,z
loop_
_atom_site_type_symbol
_atom_site_label
_atom_site_fract_x
_atom_site_fract_y
_atom_site_fract_z
Si Si1 0.367572 0.999048 0.239090
Si Si2 0.270651 0.852114 0.535597
Si Si3 0.076176 0.849009 0.801771
Si Si4 0.973302 0.494908 0.104894
Si Si5 0.446301 0.097350 0.940500
Si Si6 0.270490 0.146698 0.539381
Si Si7 0.054176 0.349418 0.799247
Si Si8 0.855723 0.647324 0.373773
O O1 0.514917 0.086773 0.323404
O O2 0.212751 0.010318 0.214751
O O3 0.509552 0.910244 0.338846
O O4 0.225678 0.987933 0.076844
O O5 0.348151 0.750000 0.585539
O O6 0.144209 0.874402 0.380408
O O7 0.106826 0.873634 0.502925
O O8 0.015631 0.750000 0.790456
O O9 0.049082 0.912818 0.854263
O O10 0.911194 0.880464 0.634367
O O11 0.325632 0.848425 0.924529
O O12 0.952837 0.587097 0.134863
O O13 0.290061 0.145211 0.903434
O O14 0.324642 0.091706 0.785028
O O15 0.500000 0.000000 0.000000
O O16 0.335530 0.250000 0.575952
O O17 0.163722 0.121382 0.552384
O O18 0.023948 0.250000 0.810478
O O19 0.800925 0.750000 0.324938
#
# Coordination Sequence:
#
# PCOD8076620 Si02
#       8
#     4   4   4   4   4   4   4   4
#     4  11  25  41  62  84 119 155 203 255 294 360
#     4   9  20  39  63  90 119 157 196 240 299 355
#     4  11  23  41  63  89 122 157 200 247 294 355
#     4  11  25  43  59  88 115 158 205 246 306 351
#     4  11  20  34  61  94 124 157 194 235 293 363
#     4  10  23  40  62  91 120 159 202 245 298 352
#     4  10  21  39  62  89 123 157 195 243 295 353
#     4   9  19  38  60  88 125 160 196 238 294 357
#
# _framework density 19.672604
#
# number of rings (size 3 to 8) (size 9 to 14) (size 15 to 20)
#    0.000    1.750    1.250    3.375    1.750    6.500 
#    0.000    6.250    0.000    0.000    0.000    0.000 
#    0.000    0.000    0.000    0.000    0.000    0.000 
#
# Total GULP energy -396937.608511 kJ/mol
# GULP energy per Si atom -12404.300266 kJ/mol
# Density = 1.962783 g / cm^3
# Si number density = 19.672604 Si / 1000 Ang^3
#
#
#
# Elastic Constant Matrix: (Units=GPa)
#
#
# Indices 1 2 3 4 5 6 
#
# 1 109.0386 59.7112 80.8675 0.0000 2.8272 0.0000
# 2 59.7112 103.6875 57.1683 0.0000 -0.4949 0.0000
# 3 80.8675 57.1683 128.2525 0.0000 10.7895 0.0000
# 4 0.0000 0.0000 0.0000 23.8107 0.0000 -20.5590
# 5 2.8272 -0.4949 10.7895 0.0000 28.5231 0.0000
# 6 0.0000 0.0000 0.0000 -20.5590 0.0000 -19.1569
#
#
#
# Elastic Compliance Matrix: (Units=1/GPa)
#
#
# Indices 1 2 3 4 5 6 
#
# 1 0.019731 -0.005854 -0.009976 0.000000 0.001716 0.000000
# 2 -0.005854 0.014693 -0.003024 0.000000 0.001979 0.000000
# 3 -0.009976 -0.003024 0.015861 0.000000 -0.005064 0.000000
# 4 0.000000 0.000000 0.000000 0.021799 0.000000 -0.023394
# 5 0.001716 0.001979 -0.005064 0.000000 0.036839 0.000000
# 6 0.000000 0.000000 0.000000 -0.023394 0.000000 -0.027094
#
#
# Mechanical properties :
#
#
# Convention : Reuss Voigt Hill
#
# Bulk Modulus (GPa) = 79.51742 81.83032 80.67387
# Shear Modulus (GPa) = 40.41072 16.18415 28.29744
#
# Velocity S-wave (km/s) = 4.53720 2.87134 3.79676
# Velocity P-wave (km/s) = 8.24357 7.25804 7.76645
#
# Compressibility (1/GPa) = 0.01257586
#
# Stress axis : x y z
#
# Youngs Moduli (GPa) = 50.68180 68.06132 63.04594
#
# Poissons Ratio (x) = 0.39844 0.62894
# Poissons Ratio (y) = 0.29670 0.19068
# Poissons Ratio (z) = 0.50560 0.20585
#
# Static dielectric constant tensor:
#      x y z
#    x 3.621530 0.000000 0.034170 
#    y 0.000000 3.616980 0.000000 
#    z 0.034170 0.000000 3.885690 
# 
# 
# High freq. dielectric constant tensor:
#      x y z
#    x 1.764700 0.000000 -0.001820 
#    y 0.000000 1.777340 0.000000 
#    z -0.001820 0.000000 1.771640 
# 
# From -- ./inp_files/59498.got.cif
#   From: 2010.06.25/outbox.cif.g09.slc.cpg/sg11_30_cif.got.tgz:59498.got - 2010.06.27 23:14:04.
