data_PCOD8076800
_publ_section_title
;
Structure prediction by ZEFSAII (Michael W. Deem and Ramdas Pophale) SiO2 
 PCOD8076800
Probable space group: P 21/M
;
_chemical_formula_sum "Si O2"
_cell_formula_units_Z 24
_cell_length_a 14.866445
_cell_length_b 8.704309
_cell_length_c 14.658767
_cell_angle_alpha 90.000000
_cell_angle_beta 40.191828
_cell_angle_gamma 90.000000
_cell_volume 1224.146339
_symmetry_space_group_name_H-M "P 21/M"
_symmetry_group_IT_number 11
_symmetry_cell_setting 'monoclinic'
loop_
_space_group_symop_operation_xyz
x,y,z
-x,1/2+y,-z
-x,-y,-z
x,1/2-y,z
loop_
_atom_site_type_symbol
_atom_site_label
_atom_site_fract_x
_atom_site_fract_y
_atom_site_fract_z
Si Si1 0.633329 0.071743 0.348931
Si Si2 0.155443 0.926097 0.654861
Si Si3 0.139117 0.429783 0.350866
Si Si4 0.666207 0.071146 0.657282
Si Si5 0.649267 0.570059 0.141960
Si Si6 0.869057 0.428823 0.838032
O O1 0.603829 0.250000 0.350221
O O2 0.766469 0.052555 0.310454
O O3 0.500000 0.000000 0.500000
O O4 0.668141 0.978436 0.231507
O O5 0.109287 0.750000 0.676038
O O6 0.256546 0.979376 0.495011
O O7 0.020380 0.032401 0.760810
O O8 0.120663 0.250000 0.368736
O O9 0.273835 0.477930 0.304069
O O10 0.162156 0.479677 0.229707
O O11 0.000000 0.500000 0.500000
O O12 0.688709 0.250000 0.658893
O O13 0.504954 0.029292 0.772663
O O14 0.681507 0.750000 0.107620
O O15 0.755072 0.472655 0.000456
O O16 0.860647 0.250000 0.822734
#
# Coordination Sequence:
#
# PCOD8076800 Si02
#       6
#     4   4   4   4   4   4
#     4  11  22  39  65  96 128 166 212 260 311 373
#     4  10  21  40  65  93 126 166 210 258 309 370
#     4  12  24  40  65  95 126 165 209 259 312 371
#     4  10  21  40  66  94 125 164 211 257 308 372
#     4  11  24  44  66  93 130 169 206 261 320 370
#     4  12  26  43  64  94 128 167 210 260 315 375
#
# _framework density 19.605499999999999
#
# number of rings (size 3 to 8) (size 9 to 14) (size 15 to 20)
#    0.000    1.000    3.333    4.000    0.000    4.000 
#    0.000    0.000    0.000    0.000    0.000    0.000 
#    0.000    0.000    0.000    0.000    0.000    0.000 
#
# Total GULP energy -297766.469786 kJ/mol
# GULP energy per Si atom -12406.936241 kJ/mol
# Density = 1.956088 g / cm^3
# Si number density = 19.605500 Si / 1000 Ang^3
#
#
#
# Elastic Constant Matrix: (Units=GPa)
#
#
# Indices 1 2 3 4 5 6 
#
# 1 88.0059 57.2091 20.4949 0.0000 7.6054 0.0000
# 2 57.2091 90.1426 41.0649 0.0000 -16.9637 0.0000
# 3 20.4949 41.0649 106.1415 0.0000 0.8657 0.0000
# 4 0.0000 0.0000 0.0000 23.7802 0.0000 9.6945
# 5 7.6054 -16.9637 0.8657 0.0000 30.2327 0.0000
# 6 0.0000 0.0000 0.0000 9.6945 0.0000 32.4718
#
#
#
# Elastic Compliance Matrix: (Units=1/GPa)
#
#
# Indices 1 2 3 4 5 6 
#
# 1 0.026539 -0.022078 0.003574 0.000000 -0.019166 0.000000
# 2 -0.022078 0.033905 -0.009057 0.000000 0.024838 0.000000
# 3 0.003574 -0.009057 0.012287 0.000000 -0.006333 0.000000
# 4 0.000000 0.000000 0.000000 0.047879 0.000000 -0.014294
# 5 -0.019166 0.024838 -0.006333 0.000000 0.052016 0.000000
# 6 0.000000 0.000000 0.000000 -0.014294 0.000000 0.035064
#
#
# Mechanical properties :
#
#
# Convention : Reuss Voigt Hill
#
# Bulk Modulus (GPa) = 56.79033 57.98087 57.38560
# Shear Modulus (GPa) = 18.60932 28.33167 23.47050
#
# Velocity S-wave (km/s) = 3.08423 3.80556 3.46372
# Velocity P-wave (km/s) = 6.45854 6.99626 6.73277
#
# Compressibility (1/GPa) = 0.01760863
#
# Stress axis : x y z
#
# Youngs Moduli (GPa) = 37.68059 29.49387 81.38603
#
# Poissons Ratio (x) = 0.65116 -0.29083
# Poissons Ratio (y) = 0.83190 0.73713
# Poissons Ratio (z) = -0.13465 0.26713
#
# Static dielectric constant tensor:
#      x y z
#    x 3.771490 0.000000 -0.117610 
#    y 0.000000 3.711630 0.000000 
#    z -0.117610 0.000000 3.584350 
# 
# 
# High freq. dielectric constant tensor:
#      x y z
#    x 1.779560 0.000000 0.001150 
#    y 0.000000 1.772200 0.000000 
#    z 0.001150 0.000000 1.765320 
# 
# From -- ./inp_files/28211.got.cif
#   From: 2010.06.25/outbox.cif.g09.slc.cpg/sg11_15_cif.got.tgz:28211.got - 2010.06.27 23:14:04.
