data_PCOD8076988
_publ_section_title
;
Structure prediction by ZEFSAII (Michael W. Deem and Ramdas Pophale) SiO2 
 PCOD8076988
Probable space group: P 21/M
;
_chemical_formula_sum "Si O2"
_cell_formula_units_Z 24
_cell_length_a 7.959293
_cell_length_b 9.966198
_cell_length_c 18.596845
_cell_angle_alpha 90.000000
_cell_angle_beta 125.614153
_cell_angle_gamma 90.000000
_cell_volume 1199.253015
_symmetry_space_group_name_H-M "P 21/M"
_symmetry_group_IT_number 11
_symmetry_cell_setting 'monoclinic'
loop_
_space_group_symop_operation_xyz
x,y,z
-x,1/2+y,-z
-x,-y,-z
x,1/2-y,z
loop_
_atom_site_type_symbol
_atom_site_label
_atom_site_fract_x
_atom_site_fract_y
_atom_site_fract_z
Si Si1 0.415607 0.022780 0.631146
Si Si2 0.816369 0.750000 0.349238
Si Si3 0.742967 0.250000 0.469471
Si Si4 0.173823 0.505370 0.884285
Si Si5 0.983300 0.750000 0.236769
Si Si6 0.421139 0.094450 0.080088
Si Si7 0.740045 0.599455 0.807197
Si Si8 0.571784 0.250000 0.579772
O O1 0.298950 0.112176 0.660958
O O2 0.444832 0.114968 0.567656
O O3 0.290667 0.885930 0.584334
O O4 0.639616 0.987256 0.718673
O O5 0.836117 0.750000 0.268857
O O6 0.026565 0.750000 0.445543
O O7 0.588851 0.250000 0.498603
O O8 0.065811 0.375202 0.825376
O O9 0.331805 0.568859 0.865408
O O10 0.987005 0.603839 0.858979
O O11 0.299419 0.483245 0.988342
O O12 0.218045 0.750000 0.322276
O O13 0.372293 0.250000 0.059159
O O14 0.334512 0.040349 0.134543
O O15 0.654257 0.750000 0.779277
#
# Coordination Sequence:
#
# PCOD8076988 Si02
#       8
#     4   2   2   4   2   4   4   2
#     4  11  21  40  61  88 119 155 198 245 306 364
#     4  10  24  38  62  88 118 156 197 251 300 361
#     4  11  22  40  63  87 120 153 193 246 306 369
#     4  11  21  38  60  85 120 160 203 245 300 355
#     4  11  20  38  59  83 114 156 200 244 297 351
#     4  10  22  38  58  86 120 159 200 252 298 354
#     4  11  22  38  61  88 122 156 202 250 303 357
#     4  10  22  38  62  86 116 151 196 249 295 361
#
# _framework density 20.012459
#
# number of rings (size 3 to 8) (size 9 to 14) (size 15 to 20)
#    0.000    1.333    3.333    3.000    0.000    0.000 
#    0.000    0.000    0.000    0.000    0.000    0.000 
#    0.000    0.000    0.000    0.000    0.000    0.000 
#
# Total GULP energy -297597.832879 kJ/mol
# GULP energy per Si atom -12399.909703 kJ/mol
# Density = 1.996691 g / cm^3
# Si number density = 20.012459 Si / 1000 Ang^3
#
#
#
# Elastic Constant Matrix: (Units=GPa)
#
#
# Indices 1 2 3 4 5 6 
#
# 1 103.6779 17.6973 14.8198 0.0000 3.7312 0.0000
# 2 17.6973 98.3441 19.3098 0.0000 -5.6017 0.0000
# 3 14.8198 19.3098 58.8687 0.0000 3.2702 0.0000
# 4 0.0000 0.0000 0.0000 27.8026 0.0000 -7.1059
# 5 3.7312 -5.6017 3.2702 0.0000 29.1471 0.0000
# 6 0.0000 0.0000 0.0000 -7.1059 0.0000 29.1831
#
#
#
# Elastic Compliance Matrix: (Units=1/GPa)
#
#
# Indices 1 2 3 4 5 6 
#
# 1 0.010242 -0.001529 -0.002000 0.000000 -0.001381 0.000000
# 2 -0.001529 0.011281 -0.003468 0.000000 0.002753 0.000000
# 3 -0.002000 -0.003468 0.018768 0.000000 -0.002516 0.000000
# 4 0.000000 0.000000 0.000000 0.038355 0.000000 0.009339
# 5 -0.001381 0.002753 -0.002516 0.000000 0.035297 0.000000
# 6 0.000000 0.000000 0.000000 0.009339 0.000000 0.036540
#
#
# Mechanical properties :
#
#
# Convention : Reuss Voigt Hill
#
# Bulk Modulus (GPa) = 38.02849 40.50494 39.26671
# Shear Modulus (GPa) = 28.86108 31.16414 30.01261
#
# Velocity S-wave (km/s) = 3.80169 3.95047 3.87679
# Velocity P-wave (km/s) = 6.18984 6.41031 6.30104
#
# Compressibility (1/GPa) = 0.02629608
#
# Stress axis : x y z
#
# Youngs Moduli (GPa) = 97.63889 88.64182 53.28233
#
# Poissons Ratio (x) = 0.13553 0.10657
# Poissons Ratio (y) = 0.14929 0.18481
# Poissons Ratio (z) = 0.19529 0.30745
#
# Static dielectric constant tensor:
#      x y z
#    x 3.780930 0.000000 -0.016580 
#    y 0.000000 3.625910 0.000000 
#    z -0.016580 0.000000 3.475190 
# 
# 
# High freq. dielectric constant tensor:
#      x y z
#    x 1.788700 0.000000 0.001380 
#    y 0.000000 1.786140 0.000000 
#    z 0.001380 0.000000 1.776680 
# 
# From -- ./inp_files/63317.got.cif
#   From: 2010.06.25/outbox.cif.g09.slc.cpg/sg11_32_cif.got.tgz:63317.got - 2010.06.27 23:14:04.
