data_PCOD8076977
_publ_section_title
;
Structure prediction by ZEFSAII (Michael W. Deem and Ramdas Pophale) SiO2 
 PCOD8076977
Probable space group: P 21/M
;
_chemical_formula_sum "Si O2"
_cell_formula_units_Z 24
_cell_length_a 8.156779
_cell_length_b 13.001543
_cell_length_c 14.600021
_cell_angle_alpha 90.000000
_cell_angle_beta 133.554522
_cell_angle_gamma 90.000000
_cell_volume 1122.113346
_symmetry_space_group_name_H-M "P 21/M"
_symmetry_group_IT_number 11
_symmetry_cell_setting 'monoclinic'
loop_
_space_group_symop_operation_xyz
x,y,z
-x,1/2+y,-z
-x,-y,-z
x,1/2-y,z
loop_
_atom_site_type_symbol
_atom_site_label
_atom_site_fract_x
_atom_site_fract_y
_atom_site_fract_z
Si Si1 0.398716 0.050849 0.278583
Si Si2 0.714498 0.365786 0.536707
Si Si3 0.479263 0.632471 0.187603
Si Si4 0.106696 0.483887 0.734993
Si Si5 0.906698 0.368211 0.107764
Si Si6 0.829173 0.361092 0.384059
O O1 0.434903 0.931433 0.264096
O O2 0.487617 0.071753 0.418066
O O3 0.557882 0.117111 0.270758
O O4 0.148180 0.090788 0.167618
O O5 0.649739 0.250000 0.543771
O O6 0.886778 0.361962 0.514804
O O7 0.872131 0.423707 0.672924
O O8 0.522413 0.750000 0.233523
O O9 0.691581 0.594090 0.209458
O O10 0.257545 0.621047 0.040901
O O11 0.184095 0.559703 0.845576
O O12 0.035023 0.553017 0.619395
O O13 0.922047 0.250000 0.147101
O O14 0.885759 0.250000 0.363162
#
# Coordination Sequence:
#
# PCOD8076977 Si02
#       6
#     4   4   4   4   4   4
#     4   9  19  37  58  78 104 143 183 224 270 319
#     4   9  18  34  57  79 106 142 182 225 272 322
#     4  10  22  38  57  80 108 147 187 225 265 317
#     4  11  20  33  54  83 113 143 175 225 276 325
#     4  11  22  37  56  81 113 145 182 224 271 322
#     4   8  16  31  52  78 103 138 182 218 264 320
#
# _framework density 21.388214000000001
#
# number of rings (size 3 to 8) (size 9 to 14) (size 15 to 20)
#    1.000    1.333    0.000    3.500    0.000    0.667 
#    0.000    2.500    0.000    9.000    0.000    0.000 
#    0.000    0.000    0.000    0.000    0.000    0.000 
#
# Total GULP energy -297340.801739 kJ/mol
# GULP energy per Si atom -12389.200072 kJ/mol
# Density = 2.133953 g / cm^3
# Si number density = 21.388214 Si / 1000 Ang^3
#
#
#
# Elastic Constant Matrix: (Units=GPa)
#
#
# Indices 1 2 3 4 5 6 
#
# 1 26.5994 15.8628 9.5980 0.0000 19.2791 0.0000
# 2 15.8628 158.3828 49.8813 0.0000 13.0180 0.0000
# 3 9.5980 49.8813 65.6007 0.0000 21.5773 0.0000
# 4 0.0000 0.0000 0.0000 36.1459 0.0000 0.7514
# 5 19.2791 13.0180 21.5773 0.0000 30.8162 0.0000
# 6 0.0000 0.0000 0.0000 0.7514 0.0000 21.3713
#
#
#
# Elastic Compliance Matrix: (Units=1/GPa)
#
#
# Indices 1 2 3 4 5 6 
#
# 1 0.075460 -0.006836 0.011349 0.000000 -0.052268 0.000000
# 2 -0.006836 0.008955 -0.007758 0.000000 0.005926 0.000000
# 3 0.011349 -0.007758 0.026945 0.000000 -0.022690 0.000000
# 4 0.000000 0.000000 0.000000 0.027686 0.000000 -0.000973
# 5 -0.052268 0.005926 -0.022690 0.000000 0.078535 0.000000
# 6 0.000000 0.000000 0.000000 -0.000973 0.000000 0.046826
#
#
# Mechanical properties :
#
#
# Convention : Reuss Voigt Hill
#
# Bulk Modulus (GPa) = 9.53550 44.58524 27.06037
# Shear Modulus (GPa) = 16.34773 29.34938 22.84855
#
# Velocity S-wave (km/s) = 2.76766 3.70837 3.27200
# Velocity P-wave (km/s) = 3.83161 6.26314 5.19173
#
# Compressibility (1/GPa) = 0.10487123
#
# Stress axis : x y z
#
# Youngs Moduli (GPa) = 13.25201 111.67313 37.11211
#
# Poissons Ratio (x) = 0.76340 -0.42120
# Poissons Ratio (y) = 0.09059 0.28791
# Poissons Ratio (z) = -0.15040 0.86635
#
# Static dielectric constant tensor:
#      x y z
#    x 3.431320 0.000000 0.084300 
#    y 0.000000 4.027100 0.000000 
#    z 0.084300 0.000000 3.618070 
# 
# 
# High freq. dielectric constant tensor:
#      x y z
#    x 1.809810 0.000000 0.016500 
#    y 0.000000 1.855740 0.000000 
#    z 0.016500 0.000000 1.821270 
# 
# From -- ./inp_files/47709.got.cif
#   From: 2010.06.25/outbox.cif.g09.slc.cpg/sg11_24_cif.got.tgz:47709.got - 2010.06.27 23:14:04.
