data_PCOD8076974
_publ_section_title
;
Structure prediction by ZEFSAII (Michael W. Deem and Ramdas Pophale) SiO2 
 PCOD8076974
Probable space group: P 21/M
;
_chemical_formula_sum "Si O2"
_cell_formula_units_Z 28
_cell_length_a 7.629091
_cell_length_b 9.804295
_cell_length_c 30.011019
_cell_angle_alpha 90.000000
_cell_angle_beta 139.385467
_cell_angle_gamma 90.000000
_cell_volume 1461.264173
_symmetry_space_group_name_H-M "P 21/M"
_symmetry_group_IT_number 11
_symmetry_cell_setting 'monoclinic'
loop_
_space_group_symop_operation_xyz
x,y,z
-x,1/2+y,-z
-x,-y,-z
x,1/2-y,z
loop_
_atom_site_type_symbol
_atom_site_label
_atom_site_fract_x
_atom_site_fract_y
_atom_site_fract_z
Si Si1 0.816008 0.093451 0.169665
Si Si2 0.795896 0.592908 0.934092
Si Si3 0.869245 0.400906 0.552554
Si Si4 0.486084 0.099156 0.560323
Si Si5 0.840864 0.097536 0.709063
Si Si6 0.406707 0.097040 0.701958
Si Si7 0.236469 0.407829 0.175104
O O1 0.865313 0.250000 0.192738
O O2 0.500350 0.063522 0.103276
O O3 0.970832 0.058370 0.153400
O O4 0.918493 0.002530 0.230719
O O5 0.874910 0.750000 0.956841
O O6 0.822526 0.554882 0.887256
O O7 0.000000 0.500000 0.000000
O O8 0.935801 0.250000 0.545994
O O9 0.774288 0.500549 0.494162
O O10 0.626092 0.388322 0.539936
O O11 0.131677 0.461699 0.627786
O O12 0.389859 0.250000 0.557633
O O13 0.697161 0.039650 0.637020
O O14 0.956253 0.250000 0.722668
O O15 0.627188 0.100970 0.706754
O O16 0.357893 0.250000 0.711840
O O17 0.507015 0.997338 0.760331
O O18 0.318742 0.250000 0.195993
#
# Coordination Sequence:
#
# PCOD8076974 Si02
#       7
#     4   4   4   4   4   4   4
#     4   9  19  36  55  77 107 138 169 209 254 300
#     4  10  22  38  56  82 109 136 171 206 247 302
#     4   9  18  31  45  65  95 130 167 209 255 301
#     4   9  18  31  45  65  95 130 167 209 255 301
#     4   9  18  32  50  73  99 129 169 213 255 301
#     4   9  18  32  50  73  99 129 169 213 255 301
#     4   9  19  36  55  77 107 138 169 209 254 300
#
# _framework density 19.161491000000002
#
# number of rings (size 3 to 8) (size 9 to 14) (size 15 to 20)
#    0.000    2.857    0.000    0.000    2.000    3.429 
#    0.000    0.000    0.000    0.000    0.000    0.000 
#    0.000    0.000    0.000    0.000    0.000    0.000 
#
# Total GULP energy -347118.370457 kJ/mol
# GULP energy per Si atom -12397.084659 kJ/mol
# Density = 1.911788 g / cm^3
# Si number density = 19.161491 Si / 1000 Ang^3
#
#
#
# Elastic Constant Matrix: (Units=GPa)
#
#
# Indices 1 2 3 4 5 6 
#
# 1 34.0288 12.0665 6.9845 0.0000 13.9010 0.0000
# 2 12.0665 82.8169 67.1485 0.0000 16.2550 0.0000
# 3 6.9845 67.1485 105.2906 0.0000 26.1695 0.0000
# 4 0.0000 0.0000 0.0000 42.3177 0.0000 2.9984
# 5 13.9010 16.2550 26.1695 0.0000 22.5268 0.0000
# 6 0.0000 0.0000 0.0000 2.9984 0.0000 14.6567
#
#
#
# Elastic Compliance Matrix: (Units=1/GPa)
#
#
# Indices 1 2 3 4 5 6 
#
# 1 0.043953 -0.008731 0.011006 0.000000 -0.033608 0.000000
# 2 -0.008731 0.026746 -0.018306 0.000000 0.007354 0.000000
# 3 0.011006 -0.018306 0.026498 0.000000 -0.024365 0.000000
# 4 0.000000 0.000000 0.000000 0.023978 0.000000 -0.004905
# 5 -0.033608 0.007354 -0.024365 0.000000 0.088128 0.000000
# 6 0.000000 0.000000 0.000000 -0.004905 0.000000 0.069232
#
#
# Mechanical properties :
#
#
# Convention : Reuss Voigt Hill
#
# Bulk Modulus (GPa) = 15.35291 43.83727 29.59509
# Shear Modulus (GPa) = 15.04627 24.96269 20.00448
#
# Velocity S-wave (km/s) = 2.80524 3.61328 3.23459
# Velocity P-wave (km/s) = 4.30375 6.35100 5.42483
#
# Compressibility (1/GPa) = 0.06513423
#
# Stress axis : x y z
#
# Youngs Moduli (GPa) = 22.75155 37.38887 37.73936
#
# Poissons Ratio (x) = 0.32644 -0.41534
# Poissons Ratio (y) = 0.19864 0.69085
# Poissons Ratio (z) = -0.25039 0.68443
#
# Static dielectric constant tensor:
#      x y z
#    x 3.457790 0.000000 0.004970 
#    y 0.000000 3.969970 0.000000 
#    z 0.004970 0.000000 3.443900 
# 
# 
# High freq. dielectric constant tensor:
#      x y z
#    x 1.743030 0.000000 0.000510 
#    y 0.000000 1.741280 0.000000 
#    z 0.000510 0.000000 1.735730 
# 
# From -- ./inp_files/25564.got.cif
#   From: 2010.06.25/outbox.cif.g09.slc.cpg/sg11_13_cif.got.tgz:25564.got - 2010.06.27 23:14:04.
