data_PCOD8076809
_publ_section_title
;
Structure prediction by ZEFSAII (Michael W. Deem and Ramdas Pophale) SiO2 
 PCOD8076809
Probable space group: P 21/M
;
_chemical_formula_sum "Si O2"
_cell_formula_units_Z 28
_cell_length_a 17.781446
_cell_length_b 16.645292
_cell_length_c 5.022204
_cell_angle_alpha 90.000000
_cell_angle_beta 113.709455
_cell_angle_gamma 90.000000
_cell_volume 1360.996000
_symmetry_space_group_name_H-M "P 21/M"
_symmetry_group_IT_number 11
_symmetry_cell_setting 'monoclinic'
loop_
_space_group_symop_operation_xyz
x,y,z
-x,1/2+y,-z
-x,-y,-z
x,1/2-y,z
loop_
_atom_site_type_symbol
_atom_site_label
_atom_site_fract_x
_atom_site_fract_y
_atom_site_fract_z
Si Si1 0.857021 0.750000 0.470135
Si Si2 0.284668 0.570795 0.237738
Si Si3 0.367381 0.398684 0.356532
Si Si4 0.474717 0.408721 0.007293
Si Si5 0.067420 0.418187 0.324260
Si Si6 0.891367 0.485347 0.112568
Si Si7 0.648973 0.157640 0.168495
Si Si8 0.748357 0.750000 0.816835
O O1 0.914615 0.826081 0.596334
O O2 0.779732 0.750000 0.558855
O O3 0.825386 0.750000 0.123899
O O4 0.319903 0.481827 0.262001
O O5 0.298954 0.603753 0.553799
O O6 0.187961 0.569958 0.040925
O O7 0.330674 0.629239 0.099649
O O8 0.443203 0.396811 0.261270
O O9 0.304639 0.328536 0.199537
O O10 0.402680 0.385131 0.701554
O O11 0.552059 0.350904 0.079863
O O12 0.500000 0.500000 0.000000
O O13 0.111066 0.476010 0.599445
O O14 0.969401 0.427497 0.188255
O O15 0.105247 0.442016 0.093796
O O16 0.674255 0.250000 0.237753
#
# Coordination Sequence:
#
# PCOD8076809 Si02
#       8
#     2   4   4   4   4   4   4   2
#     4  12  22  42  62  94 137 166 195 266 320 376
#     4  12  22  43  66  90 127 164 210 260 314 365
#     4  12  24  40  64  95 123 167 206 260 317 374
#     4  12  23  44  63  89 122 164 220 253 311 383
#     4  10  21  40  65  96 127 167 212 246 320 377
#     4  10  22  40  68  94 122 170 215 256 298 387
#     4  12  27  42  63  92 123 168 210 266 314 361
#     4  12  28  40  64 104 131 162 209 264 324 380
#
# _framework density 20.573167999999999
#
# number of rings (size 3 to 8) (size 9 to 14) (size 15 to 20)
#    0.000    0.571    2.857    6.000    2.000    0.000 
#    2.571    0.000    0.000    0.000    0.000    0.000 
#    0.000    0.000    0.000    0.000    0.000    0.000 
#
# Total GULP energy -347475.557174 kJ/mol
# GULP energy per Si atom -12409.841328 kJ/mol
# Density = 2.052634 g / cm^3
# Si number density = 20.573168 Si / 1000 Ang^3
#
#
#
# Elastic Constant Matrix: (Units=GPa)
#
#
# Indices 1 2 3 4 5 6 
#
# 1 72.0231 29.9680 19.4233 0.0000 9.7114 0.0000
# 2 29.9680 122.1596 19.2651 0.0000 13.7572 0.0000
# 3 19.4233 19.2651 97.4554 0.0000 10.2079 0.0000
# 4 0.0000 0.0000 0.0000 25.2884 0.0000 6.2530
# 5 9.7114 13.7572 10.2079 0.0000 37.3170 0.0000
# 6 0.0000 0.0000 0.0000 6.2530 0.0000 10.1434
#
#
#
# Elastic Compliance Matrix: (Units=1/GPa)
#
#
# Indices 1 2 3 4 5 6 
#
# 1 0.016222 -0.003348 -0.002325 0.000000 -0.002351 0.000000
# 2 -0.003348 0.009421 -0.000950 0.000000 -0.002342 0.000000
# 3 -0.002325 -0.000950 0.011131 0.000000 -0.002090 0.000000
# 4 0.000000 0.000000 0.000000 0.046656 0.000000 -0.028761
# 5 -0.002351 -0.002342 -0.002090 0.000000 0.028844 0.000000
# 6 0.000000 0.000000 0.000000 -0.028761 0.000000 0.116316
#
#
# Mechanical properties :
#
#
# Convention : Reuss Voigt Hill
#
# Bulk Modulus (GPa) = 42.50220 47.66121 45.08170
# Shear Modulus (GPa) = 20.02582 29.41522 24.72052
#
# Velocity S-wave (km/s) = 3.12331 3.78535 3.47016
# Velocity P-wave (km/s) = 5.80609 6.50555 6.16575
#
# Compressibility (1/GPa) = 0.02352820
#
# Stress axis : x y z
#
# Youngs Moduli (GPa) = 61.64651 106.14739 89.83839
#
# Poissons Ratio (x) = 0.35538 0.20886
# Poissons Ratio (y) = 0.20639 0.08532
# Poissons Ratio (z) = 0.14332 0.10081
#
# Static dielectric constant tensor:
#      x y z
#    x 3.799730 0.000000 -0.060960 
#    y 0.000000 3.642580 0.000000 
#    z -0.060960 0.000000 3.992010 
# 
# 
# High freq. dielectric constant tensor:
#      x y z
#    x 1.810480 0.000000 -0.004420 
#    y 0.000000 1.802310 0.000000 
#    z -0.004420 0.000000 1.823200 
# 
# From -- ./inp_files/8156.got.cif
#   From: 2010.06.25/outbox.cif.g09.slc.cpg/sg11_5_cif.got.tgz:8156.got - 2010.06.27 23:14:04.
