data_PCOD8076377
_publ_section_title
;
Structure prediction by ZEFSAII (Michael W. Deem and Ramdas Pophale) SiO2 
 PCOD8076377
Probable space group: P 21/M
;
_chemical_formula_sum "Si O2"
_cell_formula_units_Z 32
_cell_length_a 11.942284
_cell_length_b 8.786167
_cell_length_c 15.056373
_cell_angle_alpha 90.000000
_cell_angle_beta 86.320520
_cell_angle_gamma 90.000000
_cell_volume 1576.562034
_symmetry_space_group_name_H-M "P 21/M"
_symmetry_group_IT_number 11
_symmetry_cell_setting 'monoclinic'
loop_
_space_group_symop_operation_xyz
x,y,z
-x,1/2+y,-z
-x,-y,-z
x,1/2-y,z
loop_
_atom_site_type_symbol
_atom_site_label
_atom_site_fract_x
_atom_site_fract_y
_atom_site_fract_z
Si Si1 0.199116 0.568677 0.479718
Si Si2 0.474878 0.427961 0.219019
Si Si3 0.096687 0.073590 0.329043
Si Si4 0.279528 0.930850 0.838427
Si Si5 0.751073 0.429651 0.823836
Si Si6 0.569313 0.570449 0.577167
Si Si7 0.876516 0.068980 0.994367
Si Si8 0.155373 0.573090 0.676253
O O1 0.194584 0.750000 0.478806
O O2 0.097083 0.501207 0.426861
O O3 0.310430 0.507408 0.427873
O O4 0.189084 0.501640 0.579761
O O5 0.452510 0.250000 0.208567
O O6 0.590216 0.479517 0.164765
O O7 0.376995 0.514093 0.171137
O O8 0.484627 0.466940 0.323770
O O9 0.127662 0.250000 0.334627
O O10 0.974634 0.047068 0.293844
O O11 0.189024 0.991961 0.265730
O O12 0.269487 0.750000 0.835496
O O13 0.226538 0.002887 0.751434
O O14 0.207782 0.992285 0.925054
O O15 0.750168 0.250000 0.821920
O O16 0.819475 0.488318 0.906188
O O17 0.500000 0.500000 0.500000
O O18 0.578492 0.750000 0.561515
O O19 0.888120 0.250000 0.996792
O O20 0.000000 0.000000 0.000000
O O21 0.184158 0.750000 0.668699
#
# Coordination Sequence:
#
# PCOD8076377 Si02
#       8
#     4   4   4   4   4   4   4   4
#     4  11  21  35  55  83 117 152 192 244 300 350
#     4  10  21  38  61  85 114 155 202 241 286 354
#     4  11  21  36  58  84 114 155 203 241 289 358
#     4   9  18  37  61  85 114 151 194 241 290 348
#     4  11  23  38  58  87 122 156 194 246 302 348
#     4  11  22  36  56  83 115 156 204 247 291 348
#     4  10  22  40  64  92 120 153 194 240 296 355
#     4   9  19  34  56  84 114 151 194 243 297 352
#
# _framework density 20.297329000000001
#
# number of rings (size 3 to 8) (size 9 to 14) (size 15 to 20)
#    0.000    1.750    1.250    3.375    0.000    5.000 
#    0.000    2.500    0.000    4.500    0.000    0.000 
#    0.000    0.000    0.000    0.000    0.000    0.000 
#
# Total GULP energy -396778.647095 kJ/mol
# GULP energy per Si atom -12399.332722 kJ/mol
# Density = 2.025113 g / cm^3
# Si number density = 20.297329 Si / 1000 Ang^3
#
#
#
# Elastic Constant Matrix: (Units=GPa)
#
#
# Indices 1 2 3 4 5 6 
#
# 1 128.8913 40.7518 72.0460 0.0000 0.9189 0.0000
# 2 40.7518 72.7745 27.2328 0.0000 -3.5085 0.0000
# 3 72.0460 27.2328 130.6860 0.0000 10.1038 0.0000
# 4 0.0000 0.0000 0.0000 17.7222 0.0000 5.0718
# 5 0.9189 -3.5085 10.1038 0.0000 49.5970 0.0000
# 6 0.0000 0.0000 0.0000 5.0718 0.0000 24.7462
#
#
#
# Elastic Compliance Matrix: (Units=1/GPa)
#
#
# Indices 1 2 3 4 5 6 
#
# 1 0.012631 -0.004790 -0.006015 0.000000 0.000653 0.000000
# 2 -0.004790 0.016865 -0.000988 0.000000 0.001483 0.000000
# 3 -0.006015 -0.000988 0.011350 0.000000 -0.002271 0.000000
# 4 0.000000 0.000000 0.000000 0.059942 0.000000 -0.012285
# 5 0.000653 0.001483 -0.002271 0.000000 0.020718 0.000000
# 6 0.000000 0.000000 0.000000 -0.012285 0.000000 0.042928
#
#
# Mechanical properties :
#
#
# Convention : Reuss Voigt Hill
#
# Bulk Modulus (GPa) = 57.94636 68.04589 62.99613
# Shear Modulus (GPa) = 25.80323 31.23450 28.51886
#
# Velocity S-wave (km/s) = 3.56934 3.92707 3.75247
# Velocity P-wave (km/s) = 6.75261 7.35934 7.06249
#
# Compressibility (1/GPa) = 0.01725734
#
# Stress axis : x y z
#
# Youngs Moduli (GPa) = 79.17097 59.29487 88.10842
#
# Poissons Ratio (x) = 0.28405 0.53002
# Poissons Ratio (y) = 0.37927 0.08706
# Poissons Ratio (z) = 0.47625 0.05859
#
# Static dielectric constant tensor:
#      x y z
#    x 3.924280 0.000000 0.294480 
#    y 0.000000 3.419980 0.000000 
#    z 0.294480 0.000000 4.439340 
# 
# 
# High freq. dielectric constant tensor:
#      x y z
#    x 1.807270 0.000000 0.004140 
#    y 0.000000 1.765020 0.000000 
#    z 0.004140 0.000000 1.802500 
# 
# From -- ./inp_files/49292.got.cif
#   From: 2010.06.25/outbox.cif.g09.slc.cpg/sg11_25_cif.got.tgz:49292.got - 2010.06.27 23:14:04.
