data_PCOD8076450
_publ_section_title
;
Structure prediction by ZEFSAII (Michael W. Deem and Ramdas Pophale) SiO2 
 PCOD8076450
Probable space group: P 21/M
;
_chemical_formula_sum "Si O2"
_cell_formula_units_Z 24
_cell_length_a 15.023297
_cell_length_b 14.035843
_cell_length_c 8.660389
_cell_angle_alpha 90.000000
_cell_angle_beta 39.555672
_cell_angle_gamma 90.000000
_cell_volume 1162.955465
_symmetry_space_group_name_H-M "P 21/M"
_symmetry_group_IT_number 11
_symmetry_cell_setting 'monoclinic'
loop_
_space_group_symop_operation_xyz
x,y,z
-x,1/2+y,-z
-x,-y,-z
x,1/2-y,z
loop_
_atom_site_type_symbol
_atom_site_label
_atom_site_fract_x
_atom_site_fract_y
_atom_site_fract_z
Si Si1 0.239187 0.856214 0.302322
Si Si2 0.071205 0.559444 0.271947
Si Si3 0.452154 0.141986 0.032192
Si Si4 0.489864 0.638161 0.398901
Si Si5 0.194203 0.042209 0.531841
Si Si6 0.722302 0.979654 0.241884
O O1 0.212298 0.750000 0.404692
O O2 0.169756 0.862928 0.224277
O O3 0.174000 0.931047 0.511147
O O4 0.405696 0.872833 0.061023
O O5 0.000000 0.500000 0.500000
O O6 0.942603 0.602017 0.342001
O O7 0.163248 0.489928 0.043618
O O8 0.398793 0.250000 0.113053
O O9 0.334765 0.075580 0.260609
O O10 0.477964 0.112197 0.821000
O O11 0.463103 0.750000 0.459275
O O12 0.351760 0.581368 0.633352
O O13 0.617092 0.604229 0.335337
O O14 0.202235 0.054643 0.703595
#
# Coordination Sequence:
#
# PCOD8076450 Si02
#       6
#     4   4   4   4   4   4
#     4  10  21  38  62  90 122 163 207 249 302 364
#     4  10  23  41  60  86 122 165 205 247 304 367
#     4  10  21  39  64  92 122 162 206 254 307 365
#     4  10  22  39  61  92 126 159 203 256 310 362
#     4  11  22  39  65  90 127 159 207 252 309 365
#     4  11  23  38  63  92 124 162 203 258 308 361
#
# _framework density 20.637076
#
# number of rings (size 3 to 8) (size 9 to 14) (size 15 to 20)
#    0.000    1.667    1.667    3.000    4.667    2.000 
#    0.000    5.000    0.000    6.000    0.000    0.000 
#    0.000    0.000    0.000    0.000    0.000    0.000 
#
# Total GULP energy -297576.626088 kJ/mol
# GULP energy per Si atom -12399.026087 kJ/mol
# Density = 2.059010 g / cm^3
# Si number density = 20.637076 Si / 1000 Ang^3
#
#
#
# Elastic Constant Matrix: (Units=GPa)
#
#
# Indices 1 2 3 4 5 6 
#
# 1 183.6328 40.1440 43.1888 0.0000 -8.9144 0.0000
# 2 40.1440 83.4429 25.3593 0.0000 4.8269 0.0000
# 3 43.1888 25.3593 91.7802 0.0000 13.3807 0.0000
# 4 0.0000 0.0000 0.0000 12.0293 0.0000 3.3311
# 5 -8.9144 4.8269 13.3807 0.0000 31.3101 0.0000
# 6 0.0000 0.0000 0.0000 3.3311 0.0000 26.7930
#
#
#
# Elastic Compliance Matrix: (Units=1/GPa)
#
#
# Indices 1 2 3 4 5 6 
#
# 1 0.006917 -0.002607 -0.003072 0.000000 0.003684 0.000000
# 2 -0.002607 0.014073 -0.002386 0.000000 -0.001892 0.000000
# 3 -0.003072 -0.002386 0.013943 0.000000 -0.006465 0.000000
# 4 0.000000 0.000000 0.000000 0.086094 0.000000 -0.010704
# 5 0.003684 -0.001892 -0.006465 0.000000 0.036042 0.000000
# 6 0.000000 0.000000 0.000000 -0.010704 0.000000 0.038654
#
#
# Mechanical properties :
#
#
# Convention : Reuss Voigt Hill
#
# Bulk Modulus (GPa) = 53.18107 64.02670 58.60388
# Shear Modulus (GPa) = 22.92317 30.70407 26.81362
#
# Velocity S-wave (km/s) = 3.33645 3.86140 3.60848
# Velocity P-wave (km/s) = 6.37716 7.13954 6.76909
#
# Compressibility (1/GPa) = 0.01880368
#
# Stress axis : x y z
#
# Youngs Moduli (GPa) = 144.57419 71.05755 71.72203
#
# Poissons Ratio (x) = 0.18527 0.22030
# Poissons Ratio (y) = 0.37695 0.17111
# Poissons Ratio (z) = 0.44406 0.16952
#
# Static dielectric constant tensor:
#      x y z
#    x 4.489150 0.000000 -0.201420 
#    y 0.000000 3.613480 0.000000 
#    z -0.201420 0.000000 3.600210 
# 
# 
# High freq. dielectric constant tensor:
#      x y z
#    x 1.832930 0.000000 -0.005840 
#    y 0.000000 1.788830 0.000000 
#    z -0.005840 0.000000 1.794820 
# 
# From -- ./inp_files/21991.got.cif
#   From: 2010.06.25/outbox.cif.g09.slc.cpg/sg11_11_cif.got.tgz:21991.got - 2010.06.27 23:14:04.
