data_PCOD8076410
_publ_section_title
;
Structure prediction by ZEFSAII (Michael W. Deem and Ramdas Pophale) SiO2 
 PCOD8076410
Probable space group: P 21/M
;
_chemical_formula_sum "Si O2"
_cell_formula_units_Z 32
_cell_length_a 12.016256
_cell_length_b 13.348417
_cell_length_c 15.568366
_cell_angle_alpha 90.000000
_cell_angle_beta 38.052429
_cell_angle_gamma 90.000000
_cell_volume 1539.189617
_symmetry_space_group_name_H-M "P 21/M"
_symmetry_group_IT_number 11
_symmetry_cell_setting 'monoclinic'
loop_
_space_group_symop_operation_xyz
x,y,z
-x,1/2+y,-z
-x,-y,-z
x,1/2-y,z
loop_
_atom_site_type_symbol
_atom_site_label
_atom_site_fract_x
_atom_site_fract_y
_atom_site_fract_z
Si Si1 0.139641 0.367833 0.623427
Si Si2 0.912432 0.524686 0.858438
Si Si3 0.836960 0.365364 0.165076
Si Si4 0.496248 0.137863 0.489283
Si Si5 0.768207 0.868516 0.619595
Si Si6 0.997825 0.368056 0.365803
Si Si7 0.413632 0.630214 0.382518
Si Si8 0.388671 0.973790 0.841789
O O1 0.110908 0.250000 0.653499
O O2 0.338543 0.409044 0.527831
O O3 0.122769 0.398763 0.533543
O O4 0.000251 0.422191 0.770654
O O5 0.918081 0.603303 0.777168
O O6 0.000145 0.571315 0.891946
O O7 0.707305 0.496672 0.008806
O O8 0.894978 0.250000 0.108930
O O9 0.686265 0.365735 0.328779
O O10 0.760862 0.418706 0.126423
O O11 0.435953 0.250000 0.545307
O O12 0.514739 0.085180 0.570287
O O13 0.754488 0.750000 0.631692
O O14 0.879812 0.912871 0.631998
O O15 0.562387 0.904587 0.748258
O O16 0.996368 0.250000 0.371521
O O17 0.792944 0.407228 0.502456
O O18 0.426166 0.750000 0.368036
O O19 0.544131 0.581277 0.233492
#
# Coordination Sequence:
#
# PCOD8076410 Si02
#       8
#     4   4   4   4   4   4   4   4
#     4  10  21  38  61  90 120 155 202 254 299 349
#     4  12  25  38  59  92 126 164 197 239 300 368
#     4  11  22  39  62  89 123 161 202 245 296 356
#     4   9  17  33  60  87 111 145 197 248 291 339
#     4  10  22  42  66  89 115 154 205 256 302 350
#     4  10  22  42  66  89 115 154 205 256 302 350
#     4  10  21  38  61  90 120 155 202 254 299 349
#     4  12  25  38  59  92 126 164 197 239 300 368
#
# _framework density 20.790161000000001
#
# number of rings (size 3 to 8) (size 9 to 14) (size 15 to 20)
#    0.000    1.500    2.500    2.625    0.000    5.500 
#    0.000    1.250    0.000    3.000    0.000    0.000 
#    0.000    0.000    0.000    0.000    0.000    0.000 
#
# Total GULP energy -396698.838943 kJ/mol
# GULP energy per Si atom -12396.838717 kJ/mol
# Density = 2.074284 g / cm^3
# Si number density = 20.790161 Si / 1000 Ang^3
#
#
#
# Elastic Constant Matrix: (Units=GPa)
#
#
# Indices 1 2 3 4 5 6 
#
# 1 125.7597 25.5528 31.8951 0.0000 8.9686 0.0000
# 2 25.5528 51.2685 21.0931 0.0000 9.2629 0.0000
# 3 31.8951 21.0931 117.8746 0.0000 5.3657 0.0000
# 4 0.0000 0.0000 0.0000 24.4986 0.0000 7.5301
# 5 8.9686 9.2629 5.3657 0.0000 12.2948 0.0000
# 6 0.0000 0.0000 0.0000 7.5301 0.0000 16.0157
#
#
#
# Elastic Compliance Matrix: (Units=1/GPa)
#
#
# Indices 1 2 3 4 5 6 
#
# 1 0.009320 -0.003272 -0.001774 0.000000 -0.003559 0.000000
# 2 -0.003272 0.025088 -0.002910 0.000000 -0.015244 0.000000
# 3 -0.001774 -0.002910 0.009515 0.000000 -0.000666 0.000000
# 4 0.000000 0.000000 0.000000 0.047714 0.000000 -0.022434
# 5 -0.003559 -0.015244 -0.000666 0.000000 0.095707 0.000000
# 6 0.000000 0.000000 0.000000 -0.022434 0.000000 0.072987
#
#
# Mechanical properties :
#
#
# Convention : Reuss Voigt Hill
#
# Bulk Modulus (GPa) = 35.70230 50.22053 42.96141
# Shear Modulus (GPa) = 17.50821 24.98593 21.24707
#
# Velocity S-wave (km/s) = 2.90511 3.47048 3.20031
# Velocity P-wave (km/s) = 5.33506 6.34566 5.86218
#
# Compressibility (1/GPa) = 0.02800940
#
# Stress axis : x y z
#
# Youngs Moduli (GPa) = 107.29143 39.86038 105.10015
#
# Poissons Ratio (x) = 0.13044 0.18649
# Poissons Ratio (y) = 0.35109 0.30584
# Poissons Ratio (z) = 0.19038 0.11599
#
# Static dielectric constant tensor:
#      x y z
#    x 4.126150 0.000000 0.045100 
#    y 0.000000 3.914420 0.000000 
#    z 0.045100 0.000000 3.512520 
# 
# 
# High freq. dielectric constant tensor:
#      x y z
#    x 1.811420 0.000000 0.004230 
#    y 0.000000 1.834210 0.000000 
#    z 0.004230 0.000000 1.794550 
# 
# From -- ./inp_files/50363.got.cif
#   From: 2010.06.25/outbox.cif.g09.slc.cpg/sg11_26_cif.got.tgz:50363.got - 2010.06.27 23:14:04.
