data_PCOD8076370
_publ_section_title
;
Structure prediction by ZEFSAII (Michael W. Deem and Ramdas Pophale) SiO2 
 PCOD8076370
Probable space group: P 21/M
;
_chemical_formula_sum "Si O2"
_cell_formula_units_Z 28
_cell_length_a 11.054617
_cell_length_b 8.662525
_cell_length_c 14.700488
_cell_angle_alpha 90.000000
_cell_angle_beta 67.051208
_cell_angle_gamma 90.000000
_cell_volume 1296.315134
_symmetry_space_group_name_H-M "P 21/M"
_symmetry_group_IT_number 11
_symmetry_cell_setting 'monoclinic'
loop_
_space_group_symop_operation_xyz
x,y,z
-x,1/2+y,-z
-x,-y,-z
x,1/2-y,z
loop_
_atom_site_type_symbol
_atom_site_label
_atom_site_fract_x
_atom_site_fract_y
_atom_site_fract_z
Si Si1 0.815661 0.566866 0.051161
Si Si2 0.072697 0.572638 0.159172
Si Si3 0.854427 0.570801 0.538548
Si Si4 0.179207 0.568880 0.753640
Si Si5 0.727166 0.073453 0.745018
Si Si6 0.353184 0.066712 0.553267
Si Si7 0.530214 0.569597 0.087012
O O1 0.830686 0.750000 0.038656
O O2 0.849011 0.508017 0.140907
O O3 0.668262 0.506569 0.080316
O O4 0.908253 0.487909 0.949217
O O5 0.027802 0.750000 0.167912
O O6 0.205881 0.552152 0.176439
O O7 0.962432 0.474700 0.248729
O O8 0.873998 0.750000 0.514497
O O9 0.786471 0.542170 0.654685
O O10 0.753042 0.505324 0.490924
O O11 0.000000 0.500000 0.500000
O O12 0.205463 0.750000 0.750728
O O13 0.299905 0.489035 0.666521
O O14 0.742653 0.250000 0.705814
O O15 0.576232 0.025520 0.804677
O O16 0.364225 0.250000 0.546802
O O17 0.500000 0.000000 0.500000
O O18 0.531971 0.750000 0.072133
O O19 0.500000 0.500000 0.000000
#
# Coordination Sequence:
#
# PCOD8076370 Si02
#       7
#     4   4   4   4   4   4   4
#     4  11  23  39  62  93 128 168 212 258 311 378
#     4  11  22  40  64  93 130 169 210 260 312 375
#     4  11  25  44  69 100 131 168 216 271 328 389
#     4  12  26  43  65  92 125 167 213 263 319 379
#     4  10  22  39  63  94 128 167 207 255 316 376
#     4  11  26  48  70  98 132 171 220 274 330 390
#     4  10  21  38  60  90 125 165 207 254 311 373
#
# _framework density 21.599688
#
# number of rings (size 3 to 8) (size 9 to 14) (size 15 to 20)
#    0.000    1.143    1.429    4.286    2.000    8.000 
#    0.000    0.000    0.000    0.000    0.000    0.000 
#    0.000    0.000    0.000    0.000    0.000    0.000 
#
# Total GULP energy -347160.948591 kJ/mol
# GULP energy per Si atom -12398.605307 kJ/mol
# Density = 2.155053 g / cm^3
# Si number density = 21.599688 Si / 1000 Ang^3
#
#
#
# Elastic Constant Matrix: (Units=GPa)
#
#
# Indices 1 2 3 4 5 6 
#
# 1 112.9733 30.2554 51.0256 0.0000 -24.3455 0.0000
# 2 30.2554 75.7137 39.7674 0.0000 -8.3410 0.0000
# 3 51.0256 39.7674 123.5178 0.0000 -20.5622 0.0000
# 4 0.0000 0.0000 0.0000 40.6272 0.0000 -3.5298
# 5 -24.3455 -8.3410 -20.5622 0.0000 42.4334 0.0000
# 6 0.0000 0.0000 0.0000 -3.5298 0.0000 32.1163
#
#
#
# Elastic Compliance Matrix: (Units=1/GPa)
#
#
# Indices 1 2 3 4 5 6 
#
# 1 0.012090 -0.002526 -0.003382 0.000000 0.004801 0.000000
# 2 -0.002526 0.016443 -0.004300 0.000000 -0.000301 0.000000
# 3 -0.003382 -0.004300 0.011328 0.000000 0.002703 0.000000
# 4 0.000000 0.000000 0.000000 0.024851 0.000000 0.002731
# 5 0.004801 -0.000301 0.002703 0.000000 0.027572 0.000000
# 6 0.000000 0.000000 0.000000 0.002731 0.000000 0.031437
#
#
# Mechanical properties :
#
#
# Convention : Reuss Voigt Hill
#
# Bulk Modulus (GPa) = 51.43047 61.58907 56.50977
# Shear Modulus (GPa) = 33.19634 35.77915 34.48775
#
# Velocity S-wave (km/s) = 3.92457 4.07439 4.00018
# Velocity P-wave (km/s) = 6.66324 7.12109 6.89597
#
# Compressibility (1/GPa) = 0.01944373
#
# Stress axis : x y z
#
# Youngs Moduli (GPa) = 82.71077 60.81753 88.27914
#
# Poissons Ratio (x) = 0.15363 0.29856
# Poissons Ratio (y) = 0.20893 0.37964
# Poissons Ratio (z) = 0.27973 0.26154
#
# Static dielectric constant tensor:
#      x y z
#    x 4.450790 0.000000 -0.163090 
#    y 0.000000 3.789280 0.000000 
#    z -0.163090 0.000000 3.868790 
# 
# 
# High freq. dielectric constant tensor:
#      x y z
#    x 1.870850 0.000000 -0.013790 
#    y 0.000000 1.843120 0.000000 
#    z -0.013790 0.000000 1.854040 
# 
# From -- ./inp_files/49142.got.cif
#   From: 2010.06.25/outbox.cif.g09.slc.cpg/sg11_25_cif.got.tgz:49142.got - 2010.06.27 23:14:04.
