data_PCOD8076954
_publ_section_title
;
Structure prediction by ZEFSAII (Michael W. Deem and Ramdas Pophale) SiO2 
 PCOD8076954
Probable space group: P 21/M
;
_chemical_formula_sum "Si O2"
_cell_formula_units_Z 24
_cell_length_a 20.244825
_cell_length_b 10.828974
_cell_length_c 12.108381
_cell_angle_alpha 90.000000
_cell_angle_beta 24.503385
_cell_angle_gamma 90.000000
_cell_volume 1100.957796
_symmetry_space_group_name_H-M "P 21/M"
_symmetry_group_IT_number 11
_symmetry_cell_setting 'monoclinic'
loop_
_space_group_symop_operation_xyz
x,y,z
-x,1/2+y,-z
-x,-y,-z
x,1/2-y,z
loop_
_atom_site_type_symbol
_atom_site_label
_atom_site_fract_x
_atom_site_fract_y
_atom_site_fract_z
Si Si1 0.876242 0.609006 0.926141
Si Si2 0.243553 0.750000 0.914361
Si Si3 0.189307 0.250000 0.654069
Si Si4 0.828590 0.250000 0.231124
Si Si5 0.643087 0.023654 0.132348
Si Si6 0.866850 0.005309 0.610854
Si Si7 0.121779 0.250000 0.501210
Si Si8 0.285884 0.005215 0.619517
O O1 0.867184 0.750000 0.979390
O O2 0.056664 0.579042 0.609489
O O3 0.748377 0.588667 0.022194
O O4 0.837550 0.521580 0.090065
O O5 0.227350 0.750000 0.809335
O O6 0.344492 0.633760 0.799801
O O7 0.067491 0.750000 0.233770
O O8 0.283445 0.126771 0.546893
O O9 0.173704 0.250000 0.547833
O O10 0.014910 0.250000 0.973493
O O11 0.760950 0.381523 0.379964
O O12 0.461273 0.984500 0.400363
O O13 0.711934 0.064960 0.906316
O O14 0.807243 0.870842 0.663772
O O15 0.000000 0.000000 0.500000
#
# Coordination Sequence:
#
# PCOD8076954 Si02
#       8
#     4   2   2   2   4   4   2   4
#     4  11  22  36  60  96 135 166 210 266 323 389
#     4  11  19  36  59  94 127 173 197 254 337 383
#     4  11  25  46  66  87 127 183 228 261 317 383
#     4  11  24  39  66  87 129 171 223 260 315 379
#     4  11  24  35  65  96 140 160 206 271 340 389
#     4  10  22  37  62  97 127 168 211 255 324 394
#     4  11  20  43  67  86 129 179 212 257 317 393
#     4  12  24  43  63  99 128 174 217 272 323 379
#
# _framework density 21.799201
#
# number of rings (size 3 to 8) (size 9 to 14) (size 15 to 20)
#    0.000    1.000    5.833    2.500    7.000    0.000 
#    0.000    0.833    0.000    2.000    0.000    0.000 
#    0.000    0.000    0.000    0.000    0.000    0.000 
#
# Total GULP energy -297494.953398 kJ/mol
# GULP energy per Si atom -12395.623058 kJ/mol
# Density = 2.174958 g / cm^3
# Si number density = 21.799201 Si / 1000 Ang^3
#
#
#
# Elastic Constant Matrix: (Units=GPa)
#
#
# Indices 1 2 3 4 5 6 
#
# 1 50.7877 21.8905 7.2078 0.0000 -0.7812 0.0000
# 2 21.8905 144.9498 12.0487 0.0000 -8.0220 0.0000
# 3 7.2078 12.0487 63.5797 0.0000 8.8453 0.0000
# 4 0.0000 0.0000 0.0000 18.0455 0.0000 -4.3510
# 5 -0.7812 -8.0220 8.8453 0.0000 28.2421 0.0000
# 6 0.0000 0.0000 0.0000 -4.3510 0.0000 26.3482
#
#
#
# Elastic Compliance Matrix: (Units=1/GPa)
#
#
# Indices 1 2 3 4 5 6 
#
# 1 0.021271 -0.003039 -0.001879 0.000000 0.000314 0.000000
# 2 -0.003039 0.007619 -0.001452 0.000000 0.002535 0.000000
# 3 -0.001879 -0.001452 0.017023 0.000000 -0.005796 0.000000
# 4 0.000000 0.000000 0.000000 0.057714 0.000000 0.009531
# 5 0.000314 0.002535 -0.005796 0.000000 0.037952 0.000000
# 6 0.000000 0.000000 0.000000 0.009531 0.000000 0.039527
#
#
# Mechanical properties :
#
#
# Convention : Reuss Voigt Hill
#
# Bulk Modulus (GPa) = 30.14516 37.95679 34.05098
# Shear Modulus (GPa) = 24.40179 29.07183 26.73681
#
# Velocity S-wave (km/s) = 3.34936 3.65584 3.50595
# Velocity P-wave (km/s) = 5.36807 5.93886 5.66066
#
# Compressibility (1/GPa) = 0.03317282
#
# Stress axis : x y z
#
# Youngs Moduli (GPa) = 47.01213 131.25352 58.74467
#
# Poissons Ratio (x) = 0.39886 0.11039
# Poissons Ratio (y) = 0.14286 0.08529
# Poissons Ratio (z) = 0.08835 0.19057
#
# Static dielectric constant tensor:
#      x y z
#    x 4.114900 0.000000 0.535580 
#    y 0.000000 4.557020 0.000000 
#    z 0.535580 0.000000 4.395470 
# 
# 
# High freq. dielectric constant tensor:
#      x y z
#    x 1.838650 0.000000 0.007400 
#    y 0.000000 1.865340 0.000000 
#    z 0.007400 0.000000 1.834470 
# 
# From -- ./inp_files/41302.got.cif
#   From: 2010.06.25/outbox.cif.g09.slc.cpg/sg11_21_cif.got.tgz:41302.got - 2010.06.27 23:14:04.
