data_PCOD8076903
_publ_section_title
;
Structure prediction by ZEFSAII (Michael W. Deem and Ramdas Pophale) SiO2 
 PCOD8076903
Probable space group: P 21/M
;
_chemical_formula_sum "Si O2"
_cell_formula_units_Z 28
_cell_length_a 9.321570
_cell_length_b 9.134305
_cell_length_c 24.860693
_cell_angle_alpha 90.000000
_cell_angle_beta 40.786301
_cell_angle_gamma 90.000000
_cell_volume 1382.771133
_symmetry_space_group_name_H-M "P 21/M"
_symmetry_group_IT_number 11
_symmetry_cell_setting 'monoclinic'
loop_
_space_group_symop_operation_xyz
x,y,z
-x,1/2+y,-z
-x,-y,-z
x,1/2-y,z
loop_
_atom_site_type_symbol
_atom_site_label
_atom_site_fract_x
_atom_site_fract_y
_atom_site_fract_z
Si Si1 0.690601 0.585085 0.416721
Si Si2 0.833257 0.422253 0.007110
Si Si3 0.680633 0.419067 0.313455
Si Si4 0.196129 0.081945 0.414685
Si Si5 0.029518 0.579854 0.152813
Si Si6 0.626136 0.078611 0.853589
Si Si7 0.163582 0.586924 0.319094
O O1 0.500000 0.500000 0.500000
O O2 0.612229 0.750000 0.426203
O O3 0.763619 0.505876 0.341700
O O4 0.899871 0.586787 0.396122
O O5 0.835998 0.250000 0.017995
O O6 0.900201 0.457972 0.927274
O O7 0.591375 0.483102 0.084607
O O8 0.000000 0.500000 0.000000
O O9 0.744595 0.250000 0.300695
O O10 0.419486 0.439230 0.384179
O O11 0.809068 0.487066 0.226321
O O12 0.127149 0.250000 0.429969
O O13 0.247190 0.023091 0.340643
O O14 0.000000 0.000000 0.500000
O O15 0.973222 0.750000 0.176479
O O16 0.223494 0.532912 0.138485
O O17 0.566264 0.250000 0.873350
O O18 0.752366 0.037992 0.763070
O O19 0.250673 0.750000 0.307803
#
# Coordination Sequence:
#
# PCOD8076903 Si02
#       7
#     4   4   4   4   4   4   4
#     4  11  22  39  62  91 125 162 206 256 307 365
#     4  11  25  42  65  97 130 166 206 251 305 368
#     4  11  24  40  61  92 125 160 207 259 309 366
#     4  11  25  42  60  88 124 164 211 260 311 370
#     4  10  22  43  67  92 124 165 208 250 309 372
#     4  10  21  42  67  93 125 162 206 255 309 368
#     4  10  22  40  63  89 122 163 205 254 309 366
#
# _framework density 20.249191
#
# number of rings (size 3 to 8) (size 9 to 14) (size 15 to 20)
#    0.000    1.429    1.429    3.000    2.000    9.143 
#    0.000    0.000    0.000    0.000    0.000    0.000 
#    0.000    0.000    0.000    0.000    0.000    0.000 
#
# Total GULP energy -347328.896166 kJ/mol
# GULP energy per Si atom -12404.603434 kJ/mol
# Density = 2.020310 g / cm^3
# Si number density = 20.249191 Si / 1000 Ang^3
#
#
#
# Elastic Constant Matrix: (Units=GPa)
#
#
# Indices 1 2 3 4 5 6 
#
# 1 89.2923 50.5178 32.8926 0.0000 11.9266 0.0000
# 2 50.5178 120.5772 61.6484 0.0000 -0.3216 0.0000
# 3 32.8926 61.6484 119.1094 0.0000 -0.5652 0.0000
# 4 0.0000 0.0000 0.0000 40.8757 0.0000 -0.5227
# 5 11.9266 -0.3216 -0.5652 0.0000 32.2792 0.0000
# 6 0.0000 0.0000 0.0000 -0.5227 0.0000 34.2746
#
#
#
# Elastic Compliance Matrix: (Units=1/GPa)
#
#
# Indices 1 2 3 4 5 6 
#
# 1 0.015866 -0.005995 -0.001307 0.000000 -0.005945 0.000000
# 2 -0.005995 0.013543 -0.005343 0.000000 0.002257 0.000000
# 3 -0.001307 -0.005343 0.011525 0.000000 0.000631 0.000000
# 4 0.000000 0.000000 0.000000 0.024469 0.000000 0.000373
# 5 -0.005945 0.002257 0.000631 0.000000 0.033210 0.000000
# 6 0.000000 0.000000 0.000000 0.000373 0.000000 0.029182
#
#
# Mechanical properties :
#
#
# Convention : Reuss Voigt Hill
#
# Bulk Modulus (GPa) = 63.92221 68.78852 66.35536
# Shear Modulus (GPa) = 31.58539 33.74725 32.66632
#
# Velocity S-wave (km/s) = 3.95376 4.08683 4.02084
# Velocity P-wave (km/s) = 7.24426 7.50428 7.37542
#
# Compressibility (1/GPa) = 0.01564401
#
# Stress axis : x y z
#
# Youngs Moduli (GPa) = 63.02595 73.83781 86.76698
#
# Poissons Ratio (x) = 0.44268 0.11339
# Poissons Ratio (y) = 0.37786 0.46363
# Poissons Ratio (z) = 0.08236 0.39454
#
# Static dielectric constant tensor:
#      x y z
#    x 1.948080 0.000000 -3.683120 
#    y 0.000000 3.772510 0.000000 
#    z -3.683120 0.000000 -4.204410 
# 
# 
# High freq. dielectric constant tensor:
#      x y z
#    x 1.794360 0.000000 0.003030 
#    y 0.000000 1.796120 0.000000 
#    z 0.003030 0.000000 1.802780 
# 
# From -- ./inp_files/70811.got.cif
#   From: 2010.06.25/outbox.cif.g09.slc.cpg/sg11_36_cif.got.tgz:70811.got - 2010.06.27 23:14:04.
