data_PCOD8076799
_publ_section_title
;
Structure prediction by ZEFSAII (Michael W. Deem and Ramdas Pophale) SiO2 
 PCOD8076799
Probable space group: P 21/M
;
_chemical_formula_sum "Si O2"
_cell_formula_units_Z 20
_cell_length_a 15.381971
_cell_length_b 9.943504
_cell_length_c 12.098987
_cell_angle_alpha 90.000000
_cell_angle_beta 29.112662
_cell_angle_gamma 90.000000
_cell_volume 900.344481
_symmetry_space_group_name_H-M "P 21/M"
_symmetry_group_IT_number 11
_symmetry_cell_setting 'monoclinic'
loop_
_space_group_symop_operation_xyz
x,y,z
-x,1/2+y,-z
-x,-y,-z
x,1/2-y,z
loop_
_atom_site_type_symbol
_atom_site_label
_atom_site_fract_x
_atom_site_fract_y
_atom_site_fract_z
Si Si1 0.258907 0.907878 0.158936
Si Si2 0.187537 0.102521 0.893582
Si Si3 0.458845 0.097724 0.777323
Si Si4 0.137899 0.396710 0.471702
Si Si5 0.187616 0.472698 0.654205
O O1 0.310149 0.750000 0.118324
O O2 0.073549 0.926239 0.299865
O O3 0.243687 0.982060 0.294673
O O4 0.411529 0.987104 0.922804
O O5 0.131028 0.250000 0.994406
O O6 0.354200 0.054543 0.782257
O O7 0.244817 0.106308 0.701140
O O8 0.017079 0.012278 0.104878
O O9 0.410503 0.250000 0.868653
O O10 0.670719 0.094020 0.516925
O O11 0.177848 0.250000 0.372342
O O12 0.196909 0.384121 0.533324
#
# Coordination Sequence:
#
# PCOD8076799 Si02
#       5
#     4   4   4   4   4
#     4  10  22  40  64  94 126 165 208 258 316 372
#     4  10  22  40  61  90 128 167 206 257 309 366
#     4  11  23  41  64  95 129 166 208 255 310 370
#     4  10  21  40  65  93 125 165 209 258 314 373
#     4  11  22  39  64  93 124 166 211 255 307 374
#
# _framework density 22.213719000000001
#
# number of rings (size 3 to 8) (size 9 to 14) (size 15 to 20)
#    0.000    1.600    2.000    2.400    0.000    4.800 
#    0.000    1.000    0.000    0.000    0.000    0.000 
#    0.000    0.000    0.000    0.000    0.000    0.000 
#
# Total GULP energy -247867.722664 kJ/mol
# GULP energy per Si atom -12393.386133 kJ/mol
# Density = 2.216316 g / cm^3
# Si number density = 22.213719 Si / 1000 Ang^3
#
#
#
# Elastic Constant Matrix: (Units=GPa)
#
#
# Indices 1 2 3 4 5 6 
#
# 1 89.9389 29.4705 42.5219 0.0000 18.2719 0.0000
# 2 29.4705 131.3324 38.9730 0.0000 11.8015 0.0000
# 3 42.5219 38.9730 79.8473 0.0000 4.9738 0.0000
# 4 0.0000 0.0000 0.0000 29.6313 0.0000 3.5049
# 5 18.2719 11.8015 4.9738 0.0000 29.7288 0.0000
# 6 0.0000 0.0000 0.0000 3.5049 0.0000 21.2866
#
#
#
# Elastic Compliance Matrix: (Units=1/GPa)
#
#
# Indices 1 2 3 4 5 6 
#
# 1 0.016987 -0.000581 -0.008212 0.000000 -0.008836 0.000000
# 2 -0.000581 0.009167 -0.004002 0.000000 -0.002612 0.000000
# 3 -0.008212 -0.004002 0.018632 0.000000 0.003519 0.000000
# 4 0.000000 0.000000 0.000000 0.034418 0.000000 -0.005667
# 5 -0.008836 -0.002612 0.003519 0.000000 0.039516 0.000000
# 6 0.000000 0.000000 0.000000 -0.005667 0.000000 0.047911
#
#
# Mechanical properties :
#
#
# Convention : Reuss Voigt Hill
#
# Bulk Modulus (GPa) = 52.09804 58.11660 55.10732
# Shear Modulus (GPa) = 25.17371 28.80624 26.98998
#
# Velocity S-wave (km/s) = 3.37003 3.60499 3.48949
# Velocity P-wave (km/s) = 6.21666 6.59903 6.41069
#
# Compressibility (1/GPa) = 0.01919458
#
# Stress axis : x y z
#
# Youngs Moduli (GPa) = 58.86974 109.08633 53.67242
#
# Poissons Ratio (x) = 0.06336 0.44077
# Poissons Ratio (y) = 0.03419 0.21482
# Poissons Ratio (z) = 0.48345 0.43660
#
# Static dielectric constant tensor:
#      x y z
#    x 4.165880 0.000000 0.045720 
#    y 0.000000 3.793250 0.000000 
#    z 0.045720 0.000000 3.825680 
# 
# 
# High freq. dielectric constant tensor:
#      x y z
#    x 1.885400 0.000000 -0.003220 
#    y 0.000000 1.864250 0.000000 
#    z -0.003220 0.000000 1.866160 
# 
# From -- ./inp_files/24333.got.cif
#   From: 2010.06.25/outbox.cif.g09.slc.cpg/sg11_13_cif.got.tgz:24333.got - 2010.06.27 23:14:04.
