data_PCOD8076343
_publ_section_title
;
Structure prediction by ZEFSAII (Michael W. Deem and Ramdas Pophale) SiO2 
 PCOD8076343
Probable space group: P 21/M
;
_chemical_formula_sum "Si O2"
_cell_formula_units_Z 24
_cell_length_a 15.151863
_cell_length_b 8.781721
_cell_length_c 17.846743
_cell_angle_alpha 90.000000
_cell_angle_beta 31.572127
_cell_angle_gamma 90.000000
_cell_volume 1243.313467
_symmetry_space_group_name_H-M "P 21/M"
_symmetry_group_IT_number 11
_symmetry_cell_setting 'monoclinic'
loop_
_space_group_symop_operation_xyz
x,y,z
-x,1/2+y,-z
-x,-y,-z
x,1/2-y,z
loop_
_atom_site_type_symbol
_atom_site_label
_atom_site_fract_x
_atom_site_fract_y
_atom_site_fract_z
Si Si1 0.467911 0.925896 0.102403
Si Si2 0.654385 0.426481 0.589397
Si Si3 0.988237 0.570571 0.090283
Si Si4 0.672387 0.428239 0.402440
Si Si5 0.314450 0.075871 0.914582
Si Si6 0.831070 0.928692 0.592442
O O1 0.417247 0.750000 0.129738
O O2 0.630641 0.941869 0.038494
O O3 0.316364 0.017696 0.247324
O O4 0.500000 0.000000 0.000000
O O5 0.676167 0.250000 0.594723
O O6 0.688811 0.460740 0.478417
O O7 0.465403 0.476449 0.749909
O O8 0.794125 0.519597 0.534177
O O9 0.968323 0.750000 0.097519
O O10 0.826376 0.505904 0.249248
O O11 0.000000 0.500000 0.000000
O O12 0.155076 0.531545 0.016602
O O13 0.500000 0.500000 0.500000
O O14 0.672445 0.250000 0.384461
O O15 0.262886 0.250000 0.934374
O O16 0.848028 0.750000 0.582829
O O17 0.000000 0.000000 0.500000
#
# Coordination Sequence:
#
# PCOD8076343 Si02
#       6
#     4   4   4   4   4   4
#     4  10  21  38  60  86 118 154 193 238 289 344
#     4   9  20  39  61  85 115 150 189 237 292 345
#     4  12  25  40  60  86 117 153 195 240 286 341
#     4  11  23  40  63  89 119 153 190 235 287 343
#     4   9  19  38  61  85 115 150 189 237 291 342
#     4  11  22  37  59  85 116 154 196 241 288 341
#
# _framework density 19.303256999999999
#
# number of rings (size 3 to 8) (size 9 to 14) (size 15 to 20)
#    0.000    1.667    0.000    6.000    0.000    7.333 
#    0.000    1.667    0.000    0.000    0.000    0.000 
#    0.000    0.000    0.000    0.000    0.000    0.000 
#
# Total GULP energy -297686.139686 kJ/mol
# GULP energy per Si atom -12403.589154 kJ/mol
# Density = 1.925932 g / cm^3
# Si number density = 19.303257 Si / 1000 Ang^3
#
#
#
# Elastic Constant Matrix: (Units=GPa)
#
#
# Indices 1 2 3 4 5 6 
#
# 1 129.8348 88.5376 82.4028 0.0000 -5.5118 0.0000
# 2 88.5376 159.4761 73.1888 0.0000 -3.8362 0.0000
# 3 82.4028 73.1888 126.9835 0.0000 -2.9505 0.0000
# 4 0.0000 0.0000 0.0000 37.1390 0.0000 -2.0657
# 5 -5.5118 -3.8362 -2.9505 0.0000 39.2849 0.0000
# 6 0.0000 0.0000 0.0000 -2.0657 0.0000 39.5323
#
#
#
# Elastic Compliance Matrix: (Units=1/GPa)
#
#
# Indices 1 2 3 4 5 6 
#
# 1 0.016183 -0.005641 -0.007223 0.000000 0.001177 0.000000
# 2 -0.005641 0.010501 -0.002390 0.000000 0.000054 0.000000
# 3 -0.007223 -0.002390 0.013935 0.000000 -0.000200 0.000000
# 4 0.000000 0.000000 0.000000 0.027004 0.000000 0.001411
# 5 0.001177 0.000054 -0.000200 0.000000 0.025610 0.000000
# 6 0.000000 0.000000 0.000000 0.001411 0.000000 0.025370
#
#
# Mechanical properties :
#
#
# Convention : Reuss Voigt Hill
#
# Bulk Modulus (GPa) = 98.90964 100.50586 99.70775
# Shear Modulus (GPa) = 32.79067 34.66893 33.72980
#
# Velocity S-wave (km/s) = 4.12601 4.24254 4.18468
# Velocity P-wave (km/s) = 8.60522 8.72804 8.66685
#
# Compressibility (1/GPa) = 0.01011024
#
# Stress axis : x y z
#
# Youngs Moduli (GPa) = 61.79210 95.23117 71.76153
#
# Poissons Ratio (x) = 0.53725 0.51832
# Poissons Ratio (y) = 0.34860 0.17152
# Poissons Ratio (z) = 0.44631 0.22761
#
# Static dielectric constant tensor:
#      x y z
#    x 4.062490 0.000000 0.021560 
#    y 0.000000 3.676870 0.000000 
#    z 0.021560 0.000000 3.440340 
# 
# 
# High freq. dielectric constant tensor:
#      x y z
#    x 1.765520 0.000000 0.001050 
#    y 0.000000 1.761020 0.000000 
#    z 0.001050 0.000000 1.752880 
# 
# From -- ./inp_files/53159.got.cif
#   From: 2010.06.25/outbox.cif.g09.slc.cpg/sg11_27_cif.got.tgz:53159.got - 2010.06.27 23:14:04.
