data_PCOD8076552
_publ_section_title
;
Structure prediction by ZEFSAII (Michael W. Deem and Ramdas Pophale) SiO2 
 PCOD8076552
Probable space group: P 21/M
;
_chemical_formula_sum "Si O2"
_cell_formula_units_Z 24
_cell_length_a 12.104538
_cell_length_b 8.713620
_cell_length_c 23.734863
_cell_angle_alpha 90.000000
_cell_angle_beta 153.127717
_cell_angle_gamma 90.000000
_cell_volume 1131.553568
_symmetry_space_group_name_H-M "P 21/M"
_symmetry_group_IT_number 11
_symmetry_cell_setting 'monoclinic'
loop_
_space_group_symop_operation_xyz
x,y,z
-x,1/2+y,-z
-x,-y,-z
x,1/2-y,z
loop_
_atom_site_type_symbol
_atom_site_label
_atom_site_fract_x
_atom_site_fract_y
_atom_site_fract_z
Si Si1 0.579593 0.431749 0.662998
Si Si2 0.659044 0.574415 0.998082
Si Si3 0.159496 0.068897 0.741261
Si Si4 0.958420 0.568697 0.542522
Si Si5 0.030636 0.921975 0.072744
Si Si6 0.075155 0.068105 0.264390
O O1 0.613897 0.250000 0.671050
O O2 0.306608 0.479017 0.554582
O O3 0.753524 0.497155 0.791892
O O4 0.667885 0.511833 0.645296
O O5 0.599801 0.750000 0.988313
O O6 0.414907 0.474410 0.886744
O O7 0.846496 0.504207 0.127679
O O8 0.774263 0.568128 0.988405
O O9 0.126431 0.250000 0.724553
O O10 0.941726 0.991860 0.678907
O O11 0.152702 0.001992 0.674698
O O12 0.992047 0.750000 0.554546
O O13 0.000000 0.500000 0.500000
O O14 0.111023 0.750000 0.096622
O O15 0.000000 0.000000 0.000000
O O16 0.061712 0.250000 0.257006
#
# Coordination Sequence:
#
# PCOD8076552 Si02
#       6
#     4   4   4   4   4   4
#     4   9  21  42  63  86 122 163 204 254 307 364
#     4  10  21  39  60  90 128 164 203 254 310 369
#     4  12  25  41  63  91 125 168 210 255 310 370
#     4  11  25  45  66  91 124 165 211 259 307 365
#     4   9  19  34  56  86 118 156 198 246 302 360
#     4  11  22  39  65  96 126 160 204 257 313 372
#
# _framework density 21.209779000000001
#
# number of rings (size 3 to 8) (size 9 to 14) (size 15 to 20)
#    0.000    1.667    0.000    5.500    2.333    5.333 
#    0.000    0.000    0.000    0.000    0.000    0.000 
#    0.000    0.000    0.000    0.000    0.000    0.000 
#
# Total GULP energy -297656.982766 kJ/mol
# GULP energy per Si atom -12402.374282 kJ/mol
# Density = 2.116150 g / cm^3
# Si number density = 21.209779 Si / 1000 Ang^3
#
#
#
# Elastic Constant Matrix: (Units=GPa)
#
#
# Indices 1 2 3 4 5 6 
#
# 1 123.9198 56.9377 29.4641 0.0000 -8.5543 0.0000
# 2 56.9377 117.2466 24.7687 0.0000 0.8957 0.0000
# 3 29.4641 24.7687 49.2727 0.0000 10.8280 0.0000
# 4 0.0000 0.0000 0.0000 31.6282 0.0000 -2.4564
# 5 -8.5543 0.8957 10.8280 0.0000 32.0692 0.0000
# 6 0.0000 0.0000 0.0000 -2.4564 0.0000 42.5926
#
#
#
# Elastic Compliance Matrix: (Units=1/GPa)
#
#
# Indices 1 2 3 4 5 6 
#
# 1 0.011982 -0.004584 -0.006039 0.000000 0.005363 0.000000
# 2 -0.004584 0.011360 -0.002842 0.000000 -0.000581 0.000000
# 3 -0.006039 -0.002842 0.027729 0.000000 -0.010894 0.000000
# 4 0.000000 0.000000 0.000000 0.031760 0.000000 0.001832
# 5 0.005363 -0.000581 -0.010894 0.000000 0.036308 0.000000
# 6 0.000000 0.000000 0.000000 0.001832 0.000000 0.023584
#
#
# Mechanical properties :
#
#
# Convention : Reuss Voigt Hill
#
# Bulk Modulus (GPa) = 41.42333 56.97558 49.19946
# Shear Modulus (GPa) = 28.13733 33.20925 30.67329
#
# Velocity S-wave (km/s) = 3.64623 3.96125 3.80700
# Velocity P-wave (km/s) = 6.10732 6.91688 6.52467
#
# Compressibility (1/GPa) = 0.02414098
#
# Stress axis : x y z
#
# Youngs Moduli (GPa) = 83.45749 88.02918 36.06296
#
# Poissons Ratio (x) = 0.40352 0.21780
# Poissons Ratio (y) = 0.38256 0.10248
# Poissons Ratio (z) = 0.50404 0.25016
#
# Static dielectric constant tensor:
#      x y z
#    x 4.151520 0.000000 -0.471230 
#    y 0.000000 3.721790 0.000000 
#    z -0.471230 0.000000 11.040050 
# 
# 
# High freq. dielectric constant tensor:
#      x y z
#    x 1.846020 0.000000 -0.001870 
#    y 0.000000 1.832000 0.000000 
#    z -0.001870 0.000000 1.825950 
# 
# From -- ./inp_files/68472.got.cif
#   From: 2010.06.25/outbox.cif.g09.slc.cpg/sg11_35_cif.got.tgz:68472.got - 2010.06.27 23:14:04.
