data_PCOD8076753
_publ_section_title
;
Structure prediction by ZEFSAII (Michael W. Deem and Ramdas Pophale) SiO2 
 PCOD8076753
Probable space group: P 21/M
;
_chemical_formula_sum "Si O2"
_cell_formula_units_Z 20
_cell_length_a 8.420401
_cell_length_b 20.150085
_cell_length_c 7.792293
_cell_angle_alpha 90.000000
_cell_angle_beta 129.761106
_cell_angle_gamma 90.000000
_cell_volume 1016.346763
_symmetry_space_group_name_H-M "P 21/M"
_symmetry_group_IT_number 11
_symmetry_cell_setting 'monoclinic'
loop_
_space_group_symop_operation_xyz
x,y,z
-x,1/2+y,-z
-x,-y,-z
x,1/2-y,z
loop_
_atom_site_type_symbol
_atom_site_label
_atom_site_fract_x
_atom_site_fract_y
_atom_site_fract_z
Si Si1 0.756333 0.326856 0.636024
Si Si2 0.591486 0.928689 0.519364
Si Si3 0.963916 0.388934 0.094849
Si Si4 0.233368 0.824655 0.742243
Si Si5 0.442665 0.564727 0.062357
O O1 0.701919 0.250000 0.632740
O O2 0.546200 0.368642 0.504973
O O3 0.846567 0.337563 0.506584
O O4 0.927522 0.350689 0.890497
O O5 0.816366 0.924323 0.759719
O O6 0.500000 0.000000 0.500000
O O7 0.612372 0.922274 0.327039
O O8 0.951644 0.338028 0.249077
O O9 0.781038 0.443552 0.996041
O O10 0.315292 0.750000 0.818544
O O11 0.427975 0.872820 0.921805
O O12 0.500000 0.500000 0.000000
#
# Coordination Sequence:
#
# PCOD8076753 Si02
#       5
#     4   4   4   4   4
#     4  10  21  40  63  88 124 162 205 258 306 367
#     4  11  23  40  61  94 125 166 204 253 309 371
#     4   9  22  39  62  86 121 161 201 255 304 365
#     4   9  19  40  62  86 121 159 205 255 305 364
#     4   9  20  38  60  91 122 159 201 256 303 359
#
# _framework density 19.678322999999999
#
# number of rings (size 3 to 8) (size 9 to 14) (size 15 to 20)
#    1.200    1.200    0.000    1.800    0.000    5.600 
#    7.200    0.000    0.000    0.000    0.000    0.000 
#    0.000    0.000    0.000    0.000    0.000    0.000 
#
# Total GULP energy -247819.455804 kJ/mol
# GULP energy per Si atom -12390.972790 kJ/mol
# Density = 1.963353 g / cm^3
# Si number density = 19.678323 Si / 1000 Ang^3
#
#
#
# Elastic Constant Matrix: (Units=GPa)
#
#
# Indices 1 2 3 4 5 6 
#
# 1 58.8239 46.6288 58.2520 0.0000 -17.1087 0.0000
# 2 46.6288 145.5355 62.9085 0.0000 -5.9424 0.0000
# 3 58.2520 62.9085 131.6492 0.0000 -15.5318 0.0000
# 4 0.0000 0.0000 0.0000 33.6018 0.0000 -3.5717
# 5 -17.1087 -5.9424 -15.5318 0.0000 44.2912 0.0000
# 6 0.0000 0.0000 0.0000 -3.5717 0.0000 30.3553
#
#
#
# Elastic Compliance Matrix: (Units=1/GPa)
#
#
# Indices 1 2 3 4 5 6 
#
# 1 0.036491 -0.006054 -0.012191 0.000000 0.009009 0.000000
# 2 -0.006054 0.009668 -0.002153 0.000000 -0.001796 0.000000
# 3 -0.012191 -0.002153 0.014009 0.000000 -0.000085 0.000000
# 4 0.000000 0.000000 0.000000 0.030137 0.000000 0.003546
# 5 0.009009 -0.001796 -0.000085 0.000000 0.025787 0.000000
# 6 0.000000 0.000000 0.000000 0.003546 0.000000 0.033360
#
#
# Mechanical properties :
#
#
# Convention : Reuss Voigt Hill
#
# Bulk Modulus (GPa) = 51.62016 74.62080 63.12048
# Shear Modulus (GPa) = 25.41858 32.86429 29.14143
#
# Velocity S-wave (km/s) = 3.59793 4.09109 3.85241
# Velocity P-wave (km/s) = 6.59917 7.76651 7.20651
#
# Compressibility (1/GPa) = 0.01937228
#
# Stress axis : x y z
#
# Youngs Moduli (GPa) = 27.40371 103.43148 71.38342
#
# Poissons Ratio (x) = 0.62620 0.87022
# Poissons Ratio (y) = 0.16591 0.15369
# Poissons Ratio (z) = 0.33407 0.22269
#
# Static dielectric constant tensor:
#      x y z
#    x 3.345370 0.000000 -0.390490 
#    y 0.000000 3.511000 0.000000 
#    z -0.390490 0.000000 3.712490 
# 
# 
# High freq. dielectric constant tensor:
#      x y z
#    x 1.740900 0.000000 -0.031880 
#    y 0.000000 1.768430 0.000000 
#    z -0.031880 0.000000 1.773090 
# 
# From -- ./inp_files/13342.got.cif
#   From: 2010.06.25/outbox.cif.g09.slc.cpg/sg11_7_cif.got.tgz:13342.got - 2010.06.27 23:14:04.
