data_PCOD8076316
_publ_section_title
;
Structure prediction by ZEFSAII (Michael W. Deem and Ramdas Pophale) SiO2 
 PCOD8076316
Probable space group: P 21/M
;
_chemical_formula_sum "Si O2"
_cell_formula_units_Z 32
_cell_length_a 15.222429
_cell_length_b 9.079165
_cell_length_c 25.977470
_cell_angle_alpha 90.000000
_cell_angle_beta 26.918792
_cell_angle_gamma 90.000000
_cell_volume 1625.411340
_symmetry_space_group_name_H-M "P 21/M"
_symmetry_group_IT_number 11
_symmetry_cell_setting 'monoclinic'
loop_
_space_group_symop_operation_xyz
x,y,z
-x,1/2+y,-z
-x,-y,-z
x,1/2-y,z
loop_
_atom_site_type_symbol
_atom_site_label
_atom_site_fract_x
_atom_site_fract_y
_atom_site_fract_z
Si Si1 0.381245 0.420968 0.988563
Si Si2 0.231866 0.577002 0.969236
Si Si3 0.789769 0.579198 0.219175
Si Si4 0.783273 0.079989 0.832514
Si Si5 0.860790 0.077682 0.532542
Si Si6 0.414857 0.419576 0.779611
Si Si7 0.864651 0.921682 0.423281
Si Si8 0.524960 0.077559 0.432888
O O1 0.337029 0.250000 0.005100
O O2 0.362252 0.498875 0.943835
O O3 0.599363 0.452388 0.892684
O O4 0.227895 0.486374 0.109396
O O5 0.263533 0.750000 0.956873
O O6 0.299508 0.524001 0.878266
O O7 0.008691 0.532307 0.092812
O O8 0.774634 0.750000 0.242212
O O9 0.656826 0.541821 0.239875
O O10 0.717757 0.483798 0.304994
O O11 0.792146 0.250000 0.844363
O O12 0.974594 0.031234 0.702324
O O13 0.906139 0.250000 0.507888
O O14 0.641964 0.045520 0.664511
O O15 0.900931 0.015071 0.455171
O O16 0.000000 0.000000 0.500000
O O17 0.369876 0.250000 0.816764
O O18 0.884303 0.750000 0.427005
O O19 0.656858 0.960403 0.508288
O O20 0.546715 0.250000 0.430973
O O21 0.500000 0.000000 0.500000
#
# Coordination Sequence:
#
# PCOD8076316 Si02
#       8
#     4   4   4   4   4   4   4   4
#     4  10  21  38  59  87 120 155 196 244 293 354
#     4  11  24  38  61  90 119 154 197 249 299 355
#     4  10  22  43  64  86 119 158 200 248 302 357
#     4   9  20  39  61  83 117 158 196 241 296 351
#     4  11  24  41  64  92 125 163 203 252 303 361
#     4  10  22  42  64  86 118 157 198 247 301 355
#     4  10  22  41  64  91 122 161 205 251 305 361
#     4  11  24  40  63  93 126 163 204 253 303 363
#
# _framework density 19.687325000000001
#
# number of rings (size 3 to 8) (size 9 to 14) (size 15 to 20)
#    0.000    1.750    1.250    1.875    3.500    4.000 
#    0.000    0.000    0.000    0.000    0.000    0.000 
#    0.000    0.000    0.000    0.000    0.000    0.000 
#
# Total GULP energy -397011.869416 kJ/mol
# GULP energy per Si atom -12406.620919 kJ/mol
# Density = 1.964252 g / cm^3
# Si number density = 19.687325 Si / 1000 Ang^3
#
#
#
# Elastic Constant Matrix: (Units=GPa)
#
#
# Indices 1 2 3 4 5 6 
#
# 1 64.9006 35.5595 13.9093 0.0000 10.5397 0.0000
# 2 35.5595 78.9213 42.7585 0.0000 9.0156 0.0000
# 3 13.9093 42.7585 102.8344 0.0000 12.3442 0.0000
# 4 0.0000 0.0000 0.0000 37.9329 0.0000 8.1595
# 5 10.5397 9.0156 12.3442 0.0000 26.8052 0.0000
# 6 0.0000 0.0000 0.0000 8.1595 0.0000 36.6940
#
#
#
# Elastic Compliance Matrix: (Units=1/GPa)
#
#
# Indices 1 2 3 4 5 6 
#
# 1 0.021470 -0.010076 0.002003 0.000000 -0.005975 0.000000
# 2 -0.010076 0.021245 -0.007503 0.000000 0.000272 0.000000
# 3 0.002003 -0.007503 0.013089 0.000000 -0.004291 0.000000
# 4 0.000000 0.000000 0.000000 0.027687 0.000000 -0.006157
# 5 -0.005975 0.000272 -0.004291 0.000000 0.041541 0.000000
# 6 0.000000 0.000000 0.000000 -0.006157 0.000000 0.028621
#
#
# Mechanical properties :
#
#
# Convention : Reuss Voigt Hill
#
# Bulk Modulus (GPa) = 40.56765 47.90122 44.23444
# Shear Modulus (GPa) = 25.90364 30.58167 28.24266
#
# Velocity S-wave (km/s) = 3.63127 3.94556 3.79167
# Velocity P-wave (km/s) = 6.18322 6.71866 6.45649
#
# Compressibility (1/GPa) = 0.02465018
#
# Stress axis : x y z
#
# Youngs Moduli (GPa) = 46.57611 47.06945 76.40287
#
# Poissons Ratio (x) = 0.47429 -0.15304
# Poissons Ratio (y) = 0.46932 0.57329
# Poissons Ratio (z) = -0.09329 0.35318
#
# Static dielectric constant tensor:
#      x y z
#    x 5.210730 0.000000 -0.472040 
#    y 0.000000 3.811920 0.000000 
#    z -0.472040 0.000000 3.747280 
# 
# 
# High freq. dielectric constant tensor:
#      x y z
#    x 1.775150 0.000000 0.000980 
#    y 0.000000 1.770280 0.000000 
#    z 0.000980 0.000000 1.777610 
# 
# From -- ./inp_files/68975.got.cif
#   From: 2010.06.25/outbox.cif.g09.slc.cpg/sg11_35_cif.got.tgz:68975.got - 2010.06.27 23:14:04.
