data_PCOD8076379
_publ_section_title
;
Structure prediction by ZEFSAII (Michael W. Deem and Ramdas Pophale) SiO2 
 PCOD8076379
Probable space group: P 21/M
;
_chemical_formula_sum "Si O2"
_cell_formula_units_Z 32
_cell_length_a 13.952001
_cell_length_b 8.824976
_cell_length_c 23.821649
_cell_angle_alpha 90.000000
_cell_angle_beta 33.327154
_cell_angle_gamma 90.000000
_cell_volume 1611.481865
_symmetry_space_group_name_H-M "P 21/M"
_symmetry_group_IT_number 11
_symmetry_cell_setting 'monoclinic'
loop_
_space_group_symop_operation_xyz
x,y,z
-x,1/2+y,-z
-x,-y,-z
x,1/2-y,z
loop_
_atom_site_type_symbol
_atom_site_label
_atom_site_fract_x
_atom_site_fract_y
_atom_site_fract_z
Si Si1 0.805267 0.571944 0.239957
Si Si2 0.186285 0.424164 0.540523
Si Si3 0.688359 0.572572 0.906321
Si Si4 0.845093 0.571702 0.948623
Si Si5 0.517646 0.929857 0.179867
Si Si6 0.310280 0.929241 0.591641
Si Si7 0.204597 0.575880 0.256900
Si Si8 0.526398 0.428829 0.672451
O O1 0.811927 0.750000 0.247634
O O2 0.800757 0.485458 0.301226
O O3 0.637382 0.526442 0.285762
O O4 0.977720 0.517091 0.122709
O O5 0.236260 0.250000 0.528227
O O6 0.214157 0.522197 0.582369
O O7 0.301751 0.487316 0.433368
O O8 0.984095 0.439802 0.621509
O O9 0.663078 0.750000 0.914294
O O10 0.791501 0.528022 0.911833
O O11 0.798486 0.514517 0.799741
O O12 0.500000 0.500000 0.000000
O O13 0.876501 0.750000 0.940323
O O14 0.695493 0.512359 0.064061
O O15 0.513347 0.750000 0.181226
O O16 0.350653 0.992309 0.227225
O O17 0.510417 0.989657 0.246973
O O18 0.326483 0.750000 0.585246
O O19 0.500000 0.000000 0.500000
O O20 0.248506 0.750000 0.221332
O O21 0.560459 0.250000 0.654706
#
# Coordination Sequence:
#
# PCOD8076379 Si02
#       8
#     4   4   4   4   4   4   4   4
#     4  11  23  38  58  89 122 154 195 242 295 349
#     4  11  23  38  61  91 122 154 192 243 296 347
#     4  11  21  35  59  89 119 153 191 235 294 355
#     4  10  21  38  61  86 116 157 199 239 291 352
#     4   9  19  40  63  83 113 158 205 245 291 346
#     4  12  23  38  62  89 120 156 194 238 293 354
#     4  10  21  39  61  87 119 156 195 240 292 348
#     4  10  22  40  62  83 114 160 203 245 293 346
#
# _framework density 19.857500000000002
#
# number of rings (size 3 to 8) (size 9 to 14) (size 15 to 20)
#    0.000    1.500    2.500    3.000    0.000    5.500 
#    0.000    1.250    0.000    0.000    0.000    0.000 
#    0.000    0.000    0.000    0.000    0.000    0.000 
#
# Total GULP energy -396940.886262 kJ/mol
# GULP energy per Si atom -12404.402696 kJ/mol
# Density = 1.981230 g / cm^3
# Si number density = 19.857500 Si / 1000 Ang^3
#
#
#
# Elastic Constant Matrix: (Units=GPa)
#
#
# Indices 1 2 3 4 5 6 
#
# 1 64.6815 27.8698 62.9923 0.0000 15.7404 0.0000
# 2 27.8698 68.2392 44.0765 0.0000 2.0885 0.0000
# 3 62.9923 44.0765 163.7361 0.0000 2.2823 0.0000
# 4 0.0000 0.0000 0.0000 35.0746 0.0000 -0.8238
# 5 15.7404 2.0885 2.2823 0.0000 39.4163 0.0000
# 6 0.0000 0.0000 0.0000 -0.8238 0.0000 21.5376
#
#
#
# Elastic Compliance Matrix: (Units=1/GPa)
#
#
# Indices 1 2 3 4 5 6 
#
# 1 0.030364 -0.005584 -0.010022 0.000000 -0.011249 0.000000
# 2 -0.005584 0.018783 -0.002928 0.000000 0.001404 0.000000
# 3 -0.010022 -0.002928 0.010702 0.000000 0.003537 0.000000
# 4 0.000000 0.000000 0.000000 0.028536 0.000000 0.001092
# 5 -0.011249 0.001404 0.003537 0.000000 0.029583 0.000000
# 6 0.000000 0.000000 0.000000 0.001092 0.000000 0.046472
#
#
# Mechanical properties :
#
#
# Convention : Reuss Voigt Hill
#
# Bulk Modulus (GPa) = 43.89345 62.94824 53.42084
# Shear Modulus (GPa) = 23.91206 29.98690 26.94948
#
# Velocity S-wave (km/s) = 3.47390 3.89022 3.68794
# Velocity P-wave (km/s) = 6.18408 7.20744 6.71528
#
# Compressibility (1/GPa) = 0.02278244
#
# Stress axis : x y z
#
# Youngs Moduli (GPa) = 32.93415 53.24029 93.44331
#
# Poissons Ratio (x) = 0.29727 0.93645
# Poissons Ratio (y) = 0.18389 0.27357
# Poissons Ratio (z) = 0.33005 0.15587
#
# Static dielectric constant tensor:
#      x y z
#    x 3.688030 0.000000 0.006040 
#    y 0.000000 3.527870 0.000000 
#    z 0.006040 0.000000 3.814130 
# 
# 
# High freq. dielectric constant tensor:
#      x y z
#    x 1.771250 0.000000 -0.008170 
#    y 0.000000 1.762640 0.000000 
#    z -0.008170 0.000000 1.789620 
# 
# From -- ./inp_files/51649.got.cif
#   From: 2010.06.25/outbox.cif.g09.slc.cpg/sg11_26_cif.got.tgz:51649.got - 2010.06.27 23:14:04.
