data_PCOD8076597
_publ_section_title
;
Structure prediction by ZEFSAII (Michael W. Deem and Ramdas Pophale) SiO2 
 PCOD8076597
Probable space group: P 21/M
;
_chemical_formula_sum "Si O2"
_cell_formula_units_Z 32
_cell_length_a 16.039983
_cell_length_b 14.764187
_cell_length_c 22.673667
_cell_angle_alpha 90.000000
_cell_angle_beta 162.766338
_cell_angle_gamma 90.000000
_cell_volume 1590.822644
_symmetry_space_group_name_H-M "P 21/M"
_symmetry_group_IT_number 11
_symmetry_cell_setting 'monoclinic'
loop_
_space_group_symop_operation_xyz
x,y,z
-x,1/2+y,-z
-x,-y,-z
x,1/2-y,z
loop_
_atom_site_type_symbol
_atom_site_label
_atom_site_fract_x
_atom_site_fract_y
_atom_site_fract_z
Si Si1 0.806203 0.527814 0.066056
Si Si2 0.223510 0.147181 0.524454
Si Si3 0.828132 0.654253 0.980563
Si Si4 0.255420 0.645082 0.707986
Si Si5 0.835703 0.149751 0.478554
Si Si6 0.780837 0.027377 0.547241
Si Si7 0.236412 0.646314 0.032147
Si Si8 0.149349 0.412669 0.125709
O O1 0.943042 0.572908 0.099210
O O2 0.765808 0.420925 0.025562
O O3 0.024159 0.542040 0.265354
O O4 0.517862 0.576786 0.889808
O O5 0.238214 0.250000 0.510394
O O6 0.933635 0.128735 0.362546
O O7 0.245568 0.079453 0.484146
O O8 0.480174 0.126294 0.741113
O O9 0.927288 0.750000 0.075136
O O10 0.494899 0.645412 0.755988
O O11 0.918938 0.656043 0.973683
O O12 0.360775 0.750000 0.776941
O O13 0.057180 0.626417 0.515627
O O14 0.935612 0.250000 0.566587
O O15 0.925219 0.077146 0.588272
O O16 0.480484 0.071135 0.358907
O O17 0.222844 0.750000 0.000145
O O18 0.971666 0.626607 0.895596
O O19 0.000000 0.500000 0.000000
#
# Coordination Sequence:
#
# PCOD8076597 Si02
#       8
#     4   4   4   4   4   4   4   4
#     4  11  22  36  56  86 125 151 184 230 292 355
#     4  10  21  39  62  86 110 149 200 241 280 336
#     4   9  17  33  57  82 108 144 188 236 282 328
#     4   9  19  38  63  87 114 148 191 241 287 335
#     4   8  16  32  55  82 109 141 189 238 276 324
#     4  11  23  35  58  87 119 153 188 232 291 347
#     4  11  23  40  61  84 113 152 197 243 285 332
#     4  11  19  39  62  81 109 148 196 243 281 332
#
# _framework density 20.115379000000001
#
# number of rings (size 3 to 8) (size 9 to 14) (size 15 to 20)
#    0.000    2.000    2.500    3.000    0.000    5.000 
#    0.000    0.000    0.000    3.000    0.000    0.000 
#    0.000    0.000    0.000    0.000    0.000    0.000 
#
# Total GULP energy -396567.637116 kJ/mol
# GULP energy per Si atom -12392.738660 kJ/mol
# Density = 2.006960 g / cm^3
# Si number density = 20.115379 Si / 1000 Ang^3
#
#
#
# Elastic Constant Matrix: (Units=GPa)
#
#
# Indices 1 2 3 4 5 6 
#
# 1 53.9064 35.9704 43.3418 0.0000 -8.6096 0.0000
# 2 35.9704 126.6901 45.9499 0.0000 -14.6949 0.0000
# 3 43.3418 45.9499 86.2685 0.0000 -15.6626 0.0000
# 4 0.0000 0.0000 0.0000 16.7054 0.0000 1.2312
# 5 -8.6096 -14.6949 -15.6626 0.0000 30.2004 0.0000
# 6 0.0000 0.0000 0.0000 1.2312 0.0000 28.3428
#
#
#
# Elastic Compliance Matrix: (Units=1/GPa)
#
#
# Indices 1 2 3 4 5 6 
#
# 1 0.032779 -0.004137 -0.014279 0.000000 -0.000073 0.000000
# 2 -0.004137 0.010449 -0.003067 0.000000 0.002314 0.000000
# 3 -0.014279 -0.003067 0.021404 0.000000 0.005538 0.000000
# 4 0.000000 0.000000 0.000000 0.060053 0.000000 -0.002609
# 5 -0.000073 0.002314 0.005538 0.000000 0.037089 0.000000
# 6 0.000000 0.000000 0.000000 -0.002609 0.000000 0.035396
#
#
# Mechanical properties :
#
#
# Convention : Reuss Voigt Hill
#
# Bulk Modulus (GPa) = 46.15047 57.48768 51.81908
# Shear Modulus (GPa) = 20.21368 24.48993 22.35181
#
# Velocity S-wave (km/s) = 3.17343 3.49302 3.33705
# Velocity P-wave (km/s) = 6.03492 6.70143 6.37689
#
# Compressibility (1/GPa) = 0.02166825
#
# Stress axis : x y z
#
# Youngs Moduli (GPa) = 30.50690 95.70721 46.71954
#
# Poissons Ratio (x) = 0.39590 0.66709
# Poissons Ratio (y) = 0.12620 0.14328
# Poissons Ratio (z) = 0.43559 0.29352
#
# Static dielectric constant tensor:
#      x y z
#    x 5.491000 0.000000 0.306200 
#    y 0.000000 3.897820 0.000000 
#    z 0.306200 0.000000 3.312430 
# 
# 
# High freq. dielectric constant tensor:
#      x y z
#    x 1.781710 0.000000 0.008710 
#    y 0.000000 1.802270 0.000000 
#    z 0.008710 0.000000 1.744090 
# 
# From -- ./inp_files/65793.got.cif
#   From: 2010.06.25/outbox.cif.g09.slc.cpg/sg11_33_cif.got.tgz:65793.got - 2010.06.27 23:14:04.
