data_PCOD8076364
_publ_section_title
;
Structure prediction by ZEFSAII (Michael W. Deem and Ramdas Pophale) SiO2 
 PCOD8076364
Probable space group: P 21/M
;
_chemical_formula_sum "Si O2"
_cell_formula_units_Z 24
_cell_length_a 17.296202
_cell_length_b 8.905706
_cell_length_c 13.934795
_cell_angle_alpha 90.000000
_cell_angle_beta 144.099609
_cell_angle_gamma 90.000000
_cell_volume 1258.627652
_symmetry_space_group_name_H-M "P 21/M"
_symmetry_group_IT_number 11
_symmetry_cell_setting 'monoclinic'
loop_
_space_group_symop_operation_xyz
x,y,z
-x,1/2+y,-z
-x,-y,-z
x,1/2-y,z
loop_
_atom_site_type_symbol
_atom_site_label
_atom_site_fract_x
_atom_site_fract_y
_atom_site_fract_z
Si Si1 0.879882 0.926065 0.935345
Si Si2 0.127460 0.573363 0.672669
Si Si3 0.615291 0.420633 0.169578
Si Si4 0.386236 0.424895 0.445839
Si Si5 0.775162 0.428265 0.019419
Si Si6 0.488360 0.923178 0.726659
O O1 0.906239 0.750000 0.976331
O O2 0.751894 0.956853 0.742946
O O3 0.861731 0.001865 0.020966
O O4 0.000000 0.000000 0.000000
O O5 0.110934 0.750000 0.647353
O O6 0.246307 0.511058 0.726032
O O7 0.000000 0.500000 0.500000
O O8 0.153253 0.526796 0.809166
O O9 0.610333 0.250000 0.130739
O O10 0.596288 0.439701 0.262868
O O11 0.500000 0.500000 0.000000
O O12 0.500000 0.500000 0.500000
O O13 0.415470 0.250000 0.486003
O O14 0.388497 0.502744 0.551238
O O15 0.766724 0.250000 0.997842
O O16 0.627438 0.492442 0.870785
O O17 0.518132 0.750000 0.730635
#
# Coordination Sequence:
#
# PCOD8076364 Si02
#       6
#     4   4   4   4   4   4
#     4  11  25  43  64  92 126 163 208 255 310 372
#     4  10  23  41  61  90 125 163 206 253 307 368
#     4  10  21  38  60  89 121 156 205 254 301 361
#     4  11  23  39  62  91 123 159 206 255 304 366
#     4  11  22  39  64  90 123 164 207 254 310 371
#     4  11  22  36  61  94 125 161 208 257 310 366
#
# _framework density 19.068387000000001
#
# number of rings (size 3 to 8) (size 9 to 14) (size 15 to 20)
#    0.000    1.333    3.333    2.000    0.000    6.000 
#    0.000    3.333    0.000    0.000    0.000    0.000 
#    0.000    0.000    0.000    0.000    0.000    0.000 
#
# Total GULP energy -297640.814861 kJ/mol
# GULP energy per Si atom -12401.700619 kJ/mol
# Density = 1.902499 g / cm^3
# Si number density = 19.068387 Si / 1000 Ang^3
#
#
#
# Elastic Constant Matrix: (Units=GPa)
#
#
# Indices 1 2 3 4 5 6 
#
# 1 156.2904 78.5361 88.3885 0.0000 8.0168 0.0000
# 2 78.5361 107.8551 71.6426 0.0000 -4.3043 0.0000
# 3 88.3885 71.6426 137.3976 0.0000 -3.1327 0.0000
# 4 0.0000 0.0000 0.0000 38.1400 0.0000 -1.6269
# 5 8.0168 -4.3043 -3.1327 0.0000 36.9908 0.0000
# 6 0.0000 0.0000 0.0000 -1.6269 0.0000 31.0205
#
#
#
# Elastic Compliance Matrix: (Units=1/GPa)
#
#
# Indices 1 2 3 4 5 6 
#
# 1 0.012338 -0.005822 -0.004988 0.000000 -0.003774 0.000000
# 2 -0.005822 0.016971 -0.005040 0.000000 0.002810 0.000000
# 3 -0.004988 -0.005040 0.013151 0.000000 0.001608 0.000000
# 4 0.000000 0.000000 0.000000 0.026278 0.000000 0.001378
# 5 -0.003774 0.002810 0.001608 0.000000 0.028315 0.000000
# 6 0.000000 0.000000 0.000000 0.001378 0.000000 0.032309
#
#
# Mechanical properties :
#
#
# Convention : Reuss Voigt Hill
#
# Bulk Modulus (GPa) = 92.92100 97.63083 95.27592
# Shear Modulus (GPa) = 30.36804 32.09530 31.23167
#
# Velocity S-wave (km/s) = 3.99505 4.10709 4.05146
# Velocity P-wave (km/s) = 8.37358 8.59084 8.48290
#
# Compressibility (1/GPa) = 0.01076183
#
# Stress axis : x y z
#
# Youngs Moduli (GPa) = 81.05047 58.92545 76.03897
#
# Poissons Ratio (x) = 0.34305 0.37925
# Poissons Ratio (y) = 0.47185 0.38321
# Poissons Ratio (z) = 0.40424 0.29697
#
# Static dielectric constant tensor:
#      x y z
#    x 3.674340 0.000000 -0.036620 
#    y 0.000000 3.646620 0.000000 
#    z -0.036620 0.000000 3.376640 
# 
# 
# High freq. dielectric constant tensor:
#      x y z
#    x 1.758030 0.000000 -0.006840 
#    y 0.000000 1.751870 0.000000 
#    z -0.006840 0.000000 1.744530 
# 
# From -- ./inp_files/53343.got.cif
#   From: 2010.06.25/outbox.cif.g09.slc.cpg/sg11_27_cif.got.tgz:53343.got - 2010.06.27 23:14:04.
