data_PCOD8076522
_publ_section_title
;
Structure prediction by ZEFSAII (Michael W. Deem and Ramdas Pophale) SiO2 
 PCOD8076522
Probable space group: P 21/M
;
_chemical_formula_sum "Si O2"
_cell_formula_units_Z 26
_cell_length_a 10.754874
_cell_length_b 22.302758
_cell_length_c 8.674440
_cell_angle_alpha 90.000000
_cell_angle_beta 40.621497
_cell_angle_gamma 90.000000
_cell_volume 1354.645701
_symmetry_space_group_name_H-M "P 21/M"
_symmetry_group_IT_number 11
_symmetry_cell_setting 'monoclinic'
loop_
_space_group_symop_operation_xyz
x,y,z
-x,1/2+y,-z
-x,-y,-z
x,1/2-y,z
loop_
_atom_site_type_symbol
_atom_site_label
_atom_site_fract_x
_atom_site_fract_y
_atom_site_fract_z
Si Si1 0.584874 0.750000 0.170720
Si Si2 0.317168 0.750000 0.704463
Si Si3 0.644458 0.925248 0.457923
Si Si4 0.960539 0.250000 0.308782
Si Si5 0.043880 0.568985 0.997502
Si Si6 0.336913 0.940262 0.488173
Si Si7 0.691579 0.341271 0.712642
Si Si8 0.329749 0.637321 0.911754
O O1 0.514595 0.750000 0.417021
O O2 0.133110 0.750000 0.770131
O O3 0.497024 0.807771 0.169682
O O4 0.812048 0.750000 0.931141
O O5 0.296420 0.692220 0.829602
O O6 0.525136 0.928825 0.412823
O O7 0.546438 0.884802 0.680357
O O8 0.687319 0.988557 0.501280
O O9 0.846484 0.896290 0.216152
O O10 0.885653 0.308869 0.471843
O O11 0.157812 0.592600 0.741039
O O12 0.185364 0.581823 0.009420
O O13 0.000000 0.500000 0.000000
O O14 0.337038 0.909502 0.320944
O O15 0.698406 0.341496 0.889124
#
# Coordination Sequence:
#
# PCOD8076522 Si02
#       8
#     2   2   4   2   4   4   4   4
#     4  10  21  39  61  81 103 144 192 228 272 334
#     4  10  22  38  58  82 106 142 188 228 270 328
#     4   9  18  34  56  80 106 145 193 229 263 320
#     4  10  21  39  59  79 107 146 188 230 276 328
#     4   9  18  35  57  80 107 147 194 231 266 319
#     4   9  18  34  56  79 109 147 186 231 274 319
#     4  10  22  37  54  83 120 147 176 228 290 338
#     4  11  22  37  55  82 118 146 177 229 283 329
#
# _framework density 19.193211000000002
#
# number of rings (size 3 to 8) (size 9 to 14) (size 15 to 20)
#    0.000    2.462    0.000    5.538    0.000    6.769 
#    0.000    4.615    0.000    0.000    0.000    0.000 
#    0.000    0.000    0.000    0.000    0.000    0.000 
#
# Total GULP energy -322107.853180 kJ/mol
# GULP energy per Si atom -12388.763584 kJ/mol
# Density = 1.914953 g / cm^3
# Si number density = 19.193211 Si / 1000 Ang^3
#
#
#
# Elastic Constant Matrix: (Units=GPa)
#
#
# Indices 1 2 3 4 5 6 
#
# 1 88.0787 43.7075 85.9915 0.0000 5.8768 0.0000
# 2 43.7075 73.8212 35.0063 0.0000 10.4896 0.0000
# 3 85.9915 35.0063 136.2038 0.0000 -13.0698 0.0000
# 4 0.0000 0.0000 0.0000 23.9504 0.0000 5.8035
# 5 5.8768 10.4896 -13.0698 0.0000 51.0749 0.0000
# 6 0.0000 0.0000 0.0000 5.8035 0.0000 14.5440
#
#
#
# Elastic Compliance Matrix: (Units=1/GPa)
#
#
# Indices 1 2 3 4 5 6 
#
# 1 0.040558 -0.011760 -0.023374 0.000000 -0.008233 0.000000
# 2 -0.011760 0.019810 0.002125 0.000000 -0.002172 0.000000
# 3 -0.023374 0.002125 0.022317 0.000000 0.007964 0.000000
# 4 0.000000 0.000000 0.000000 0.046222 0.000000 -0.018444
# 5 -0.008233 -0.002172 0.007964 0.000000 0.023010 0.000000
# 6 0.000000 0.000000 0.000000 -0.018444 0.000000 0.076117
#
#
# Mechanical properties :
#
#
# Convention : Reuss Voigt Hill
#
# Bulk Modulus (GPa) = 59.99742 69.72382 64.86062
# Shear Modulus (GPa) = 16.68847 26.80709 21.74778
#
# Velocity S-wave (km/s) = 2.95193 3.74129 3.36980
# Velocity P-wave (km/s) = 6.55332 7.42087 7.00055
#
# Compressibility (1/GPa) = 0.01666738
#
# Stress axis : x y z
#
# Youngs Moduli (GPa) = 24.65595 50.47972 44.80892
#
# Poissons Ratio (x) = 0.59362 1.04735
# Poissons Ratio (y) = 0.28994 -0.09520
# Poissons Ratio (z) = 0.57630 -0.10725
#
# Static dielectric constant tensor:
#      x y z
#    x 3.323470 0.000000 -0.228250 
#    y 0.000000 3.554750 0.000000 
#    z -0.228250 0.000000 3.804040 
# 
# 
# High freq. dielectric constant tensor:
#      x y z
#    x 1.722530 0.000000 -0.009520 
#    y 0.000000 1.746790 0.000000 
#    z -0.009520 0.000000 1.752690 
# 
# From -- ./inp_files/19633.got.cif
#   From: 2010.06.25/outbox.cif.g09.slc.cpg/sg11_10_cif.got.tgz:19633.got - 2010.06.27 23:14:04.
