data_PCOD8076308
_publ_section_title
;
Structure prediction by ZEFSAII (Michael W. Deem and Ramdas Pophale) SiO2 
 PCOD8076308
Probable space group: P 21/M
;
_chemical_formula_sum "Si O2"
_cell_formula_units_Z 32
_cell_length_a 28.339268
_cell_length_b 8.926757
_cell_length_c 11.841578
_cell_angle_alpha 90.000000
_cell_angle_beta 148.958218
_cell_angle_gamma 90.000000
_cell_volume 1544.748929
_symmetry_space_group_name_H-M "P 21/M"
_symmetry_group_IT_number 11
_symmetry_cell_setting 'monoclinic'
loop_
_space_group_symop_operation_xyz
x,y,z
-x,1/2+y,-z
-x,-y,-z
x,1/2-y,z
loop_
_atom_site_type_symbol
_atom_site_label
_atom_site_fract_x
_atom_site_fract_y
_atom_site_fract_z
Si Si1 0.657228 0.078444 0.100997
Si Si2 0.708240 0.926187 0.427706
Si Si3 0.182939 0.921185 0.942263
Si Si4 0.842446 0.421316 0.354992
Si Si5 0.487576 0.425150 0.352878
Si Si6 0.026715 0.579195 0.782081
Si Si7 0.331275 0.925366 0.417421
Si Si8 0.085482 0.424775 0.114291
O O1 0.624174 0.250000 0.042168
O O2 0.762390 0.068400 0.280570
O O3 0.649129 0.000931 0.206529
O O4 0.599560 0.994270 0.887939
O O5 0.690496 0.750000 0.389066
O O6 0.815971 0.962906 0.629288
O O7 0.670470 0.988605 0.468012
O O8 0.215159 0.750000 0.998652
O O9 0.189092 0.992294 0.829999
O O10 0.077537 0.935458 0.766205
O O11 0.253111 0.995421 0.174910
O O12 0.875283 0.250000 0.404524
O O13 0.924995 0.517281 0.572478
O O14 0.500000 0.500000 0.500000
O O15 0.471686 0.250000 0.339724
O O16 0.573333 0.456081 0.448260
O O17 0.021640 0.750000 0.813047
O O18 0.089867 0.486740 0.996862
O O19 0.314507 0.750000 0.407599
O O20 0.066635 0.250000 0.074304
O O21 0.000000 0.500000 0.000000
#
# Coordination Sequence:
#
# PCOD8076308 Si02
#       8
#     4   4   4   4   4   4   4   4
#     4  11  24  42  65  90 123 166 209 255 310 369
#     4  11  24  41  62  91 125 160 207 263 314 367
#     4   9  18  35  59  86 119 157 201 250 301 366
#     4  10  21  38  59  85 120 163 209 256 308 365
#     4  11  24  43  70 100 130 163 203 254 309 371
#     4  11  21  34  56  86 120 160 203 251 308 366
#     4  10  21  41  67  92 122 164 208 252 311 376
#     4  11  23  38  58  85 120 162 209 258 307 364
#
# _framework density 20.715340000000001
#
# number of rings (size 3 to 8) (size 9 to 14) (size 15 to 20)
#    0.000    1.500    1.250    3.750    0.000    8.000 
#    0.000    1.250    0.000    0.000    0.000    0.000 
#    0.000    0.000    0.000    0.000    0.000    0.000 
#
# Total GULP energy -396841.949858 kJ/mol
# GULP energy per Si atom -12401.310933 kJ/mol
# Density = 2.066819 g / cm^3
# Si number density = 20.715340 Si / 1000 Ang^3
#
#
#
# Elastic Constant Matrix: (Units=GPa)
#
#
# Indices 1 2 3 4 5 6 
#
# 1 86.9129 52.4341 26.9682 0.0000 -14.6370 0.0000
# 2 52.4341 107.4214 54.5197 0.0000 -5.5676 0.0000
# 3 26.9682 54.5197 105.8017 0.0000 -19.1373 0.0000
# 4 0.0000 0.0000 0.0000 29.4917 0.0000 -4.6074
# 5 -14.6370 -5.5676 -19.1373 0.0000 39.3788 0.0000
# 6 0.0000 0.0000 0.0000 -4.6074 0.0000 29.3012
#
#
#
# Elastic Compliance Matrix: (Units=1/GPa)
#
#
# Indices 1 2 3 4 5 6 
#
# 1 0.017426 -0.008779 0.001128 0.000000 0.005784 0.000000
# 2 -0.008779 0.017110 -0.007381 0.000000 -0.004431 0.000000
# 3 0.001128 -0.007381 0.014093 0.000000 0.006225 0.000000
# 4 0.000000 0.000000 0.000000 0.034762 0.000000 0.005466
# 5 0.005784 -0.004431 0.006225 0.000000 0.029943 0.000000
# 6 0.000000 0.000000 0.000000 0.005466 0.000000 0.034988
#
#
# Mechanical properties :
#
#
# Convention : Reuss Voigt Hill
#
# Bulk Modulus (GPa) = 53.85874 63.10888 58.48381
# Shear Modulus (GPa) = 27.08936 30.71527 28.90232
#
# Velocity S-wave (km/s) = 3.62013 3.85480 3.73931
# Velocity P-wave (km/s) = 6.59770 7.09532 6.85103
#
# Compressibility (1/GPa) = 0.01856709
#
# Stress axis : x y z
#
# Youngs Moduli (GPa) = 57.38564 58.44367 70.95516
#
# Poissons Ratio (x) = 0.51306 -0.08005
# Poissons Ratio (y) = 0.50377 0.52371
# Poissons Ratio (z) = -0.06474 0.43136
#
# Static dielectric constant tensor:
#      x y z
#    x 3.766210 0.000000 -0.133510 
#    y 0.000000 3.720350 0.000000 
#    z -0.133510 0.000000 4.109240 
# 
# 
# High freq. dielectric constant tensor:
#      x y z
#    x 1.821320 0.000000 -0.006730 
#    y 0.000000 1.801140 0.000000 
#    z -0.006730 0.000000 1.815740 
# 
# From -- ./inp_files/45365.got.cif
#   From: 2010.06.25/outbox.cif.g09.slc.cpg/sg11_23_cif.got.tgz:45365.got - 2010.06.27 23:14:04.
