data_PCOD8076026
_publ_section_title
;
Structure prediction by ZEFSAII (Michael W. Deem and Ramdas Pophale) SiO2 
 PCOD8076026
Probable space group: P 21/M
;
_chemical_formula_sum "Si O2"
_cell_formula_units_Z 28
_cell_length_a 21.569060
_cell_length_b 8.858216
_cell_length_c 14.598066
_cell_angle_alpha 90.000000
_cell_angle_beta 149.022936
_cell_angle_gamma 90.000000
_cell_volume 1435.564381
_symmetry_space_group_name_H-M "P 21/M"
_symmetry_group_IT_number 11
_symmetry_cell_setting 'monoclinic'
loop_
_space_group_symop_operation_xyz
x,y,z
-x,1/2+y,-z
-x,-y,-z
x,1/2-y,z
loop_
_atom_site_type_symbol
_atom_site_label
_atom_site_fract_x
_atom_site_fract_y
_atom_site_fract_z
Si Si1 0.288733 0.078921 0.759170
Si Si2 0.861565 0.074534 0.732943
Si Si3 0.645609 0.924408 0.357539
Si Si4 0.193752 0.071727 0.955553
Si Si5 0.890586 0.425738 0.978944
Si Si6 0.987103 0.576685 0.580852
Si Si7 0.626152 0.424710 0.952161
O O1 0.317153 0.250000 0.826823
O O2 0.361010 0.035682 0.758829
O O3 0.148762 0.061699 0.556283
O O4 0.324551 0.967851 0.885631
O O5 0.888895 0.250000 0.751769
O O6 0.739482 0.030007 0.527898
O O7 0.845412 0.037813 0.819747
O O8 0.972805 0.981365 0.833040
O O9 0.683246 0.750000 0.418063
O O10 0.515298 0.958418 0.234779
O O11 0.190243 0.250000 0.949058
O O12 0.200464 0.012535 0.068334
O O13 0.070786 0.008230 0.758263
O O14 0.309771 0.018460 0.046222
O O15 0.886573 0.250000 0.997278
O O16 0.028247 0.750000 0.625317
O O17 0.000000 0.500000 0.500000
O O18 0.655175 0.250000 0.973948
#
# Coordination Sequence:
#
# PCOD8076026 Si02
#       7
#     4   4   4   4   4   4   4
#     4  10  21  37  57  82 113 151 192 238 289 341
#     4  10  21  38  63  93 119 147 187 235 289 346
#     4  10  22  39  59  84 115 153 196 240 290 343
#     4  12  24  38  58  85 117 155 197 239 290 349
#     4  10  21  39  63  90 120 150 185 235 290 346
#     4  11  21  34  55  83 117 151 186 233 288 345
#     4  11  23  38  57  81 114 156 198 242 289 342
#
# _framework density 19.504524
#
# number of rings (size 3 to 8) (size 9 to 14) (size 15 to 20)
#    0.000    1.429    1.429    4.286    0.000    5.143 
#    0.000    0.714    0.000    0.000    0.000    0.000 
#    0.000    0.000    0.000    0.000    0.000    0.000 
#
# Total GULP energy -347355.306384 kJ/mol
# GULP energy per Si atom -12405.546657 kJ/mol
# Density = 1.946013 g / cm^3
# Si number density = 19.504524 Si / 1000 Ang^3
#
#
#
# Elastic Constant Matrix: (Units=GPa)
#
#
# Indices 1 2 3 4 5 6 
#
# 1 116.1950 56.3931 31.5349 0.0000 -0.8245 0.0000
# 2 56.3931 119.1471 27.8384 0.0000 2.6551 0.0000
# 3 31.5349 27.8384 58.4703 0.0000 5.2238 0.0000
# 4 0.0000 0.0000 0.0000 29.7414 0.0000 -4.6094
# 5 -0.8245 2.6551 5.2238 0.0000 20.0854 0.0000
# 6 0.0000 0.0000 0.0000 -4.6094 0.0000 33.3280
#
#
#
# Elastic Compliance Matrix: (Units=1/GPa)
#
#
# Indices 1 2 3 4 5 6 
#
# 1 0.012148 -0.004751 -0.004495 0.000000 0.002296 0.000000
# 2 -0.004751 0.011301 -0.002731 0.000000 -0.000979 0.000000
# 3 -0.004495 -0.002731 0.021307 0.000000 -0.005365 0.000000
# 4 0.000000 0.000000 0.000000 0.034360 0.000000 0.004752
# 5 0.002296 -0.000979 -0.005365 0.000000 0.051406 0.000000
# 6 0.000000 0.000000 0.000000 0.004752 0.000000 0.030662
#
#
# Mechanical properties :
#
#
# Convention : Reuss Voigt Hill
#
# Bulk Modulus (GPa) = 48.07136 58.37169 53.22152
# Shear Modulus (GPa) = 26.03189 28.50070 27.26630
#
# Velocity S-wave (km/s) = 3.65726 3.82676 3.74297
# Velocity P-wave (km/s) = 6.52180 7.03688 6.78423
#
# Compressibility (1/GPa) = 0.02080241
#
# Stress axis : x y z
#
# Youngs Moduli (GPa) = 82.31724 88.48428 46.93365
#
# Poissons Ratio (x) = 0.42036 0.21097
# Poissons Ratio (y) = 0.39106 0.12818
# Poissons Ratio (z) = 0.37002 0.24166
#
# Static dielectric constant tensor:
#      x y z
#    x 3.690440 0.000000 0.054340 
#    y 0.000000 3.679830 0.000000 
#    z 0.054340 0.000000 3.478730 
# 
# 
# High freq. dielectric constant tensor:
#      x y z
#    x 1.772090 0.000000 0.003150 
#    y 0.000000 1.770020 0.000000 
#    z 0.003150 0.000000 1.744470 
# 
# From -- ./inp_files/49178.got.cif
#   From: 2010.06.25/outbox.cif.g09.slc.cpg/sg11_25_cif.got.tgz:49178.got - 2010.06.27 23:14:04.
