data_PCOD8076315
_publ_section_title
;
Structure prediction by ZEFSAII (Michael W. Deem and Ramdas Pophale) SiO2 
 PCOD8076315
Probable space group: P 21/M
;
_chemical_formula_sum "Si O2"
_cell_formula_units_Z 32
_cell_length_a 22.236516
_cell_length_b 8.785527
_cell_length_c 14.811180
_cell_angle_alpha 90.000000
_cell_angle_beta 147.467866
_cell_angle_gamma 90.000000
_cell_volume 1556.047461
_symmetry_space_group_name_H-M "P 21/M"
_symmetry_group_IT_number 11
_symmetry_cell_setting 'monoclinic'
loop_
_space_group_symop_operation_xyz
x,y,z
-x,1/2+y,-z
-x,-y,-z
x,1/2-y,z
loop_
_atom_site_type_symbol
_atom_site_label
_atom_site_fract_x
_atom_site_fract_y
_atom_site_fract_z
Si Si1 0.960240 0.075190 0.358851
Si Si2 0.999231 0.070189 0.098013
Si Si3 0.358221 0.425718 0.483077
Si Si4 0.256565 0.429244 0.883577
Si Si5 0.774235 0.928205 0.864384
Si Si6 0.385562 0.926909 0.192296
Si Si7 0.219124 0.927092 0.454392
Si Si8 0.200128 0.075846 0.609172
O O1 0.927008 0.250000 0.332782
O O2 0.065286 0.062183 0.424279
O O3 0.849691 0.982949 0.188999
O O4 0.000000 0.000000 0.500000
O O5 0.994973 0.250000 0.083335
O O6 0.111284 0.023989 0.291002
O O7 0.892358 0.014637 0.019998
O O8 0.000000 0.000000 0.000000
O O9 0.341953 0.250000 0.489941
O O10 0.282665 0.469928 0.302528
O O11 0.486378 0.459904 0.620683
O O12 0.322522 0.531353 0.521068
O O13 0.269501 0.250000 0.907679
O O14 0.240388 0.480812 0.759039
O O15 0.363780 0.512792 0.062498
O O16 0.796631 0.750000 0.901747
O O17 0.691906 0.979240 0.838665
O O18 0.356154 0.750000 0.162500
O O19 0.191662 0.750000 0.412721
O O20 0.255480 0.970934 0.602600
O O21 0.237910 0.250000 0.643823
#
# Coordination Sequence:
#
# PCOD8076315 Si02
#       8
#     4   4   4   4   4   4   4   4
#     4   9  17  31  53  80 113 153 194 241 300 360
#     4  12  24  41  64  93 130 166 205 253 308 369
#     4  10  23  44  66  88 122 165 208 256 310 369
#     4  10  21  38  59  86 121 161 206 257 307 363
#     4  11  23  41  66  94 125 164 207 254 310 372
#     4  11  24  41  64  93 124 163 207 258 315 366
#     4  12  25  39  63  94 125 165 209 254 310 371
#     4   9  20  38  59  84 120 163 205 252 308 366
#
# _framework density 20.564924999999999
#
# number of rings (size 3 to 8) (size 9 to 14) (size 15 to 20)
#    0.000    1.500    1.250    4.875    1.750    4.500 
#    0.000    0.625    0.000    0.000    0.000    0.000 
#    0.000    0.000    0.000    0.000    0.000    0.000 
#
# Total GULP energy -396838.318813 kJ/mol
# GULP energy per Si atom -12401.197463 kJ/mol
# Density = 2.051812 g / cm^3
# Si number density = 20.564925 Si / 1000 Ang^3
#
#
#
# Elastic Constant Matrix: (Units=GPa)
#
#
# Indices 1 2 3 4 5 6 
#
# 1 101.7586 40.4051 23.0488 0.0000 -3.2967 0.0000
# 2 40.4051 105.4567 29.6021 0.0000 -1.8007 0.0000
# 3 23.0488 29.6021 50.1872 0.0000 6.3527 0.0000
# 4 0.0000 0.0000 0.0000 31.8545 0.0000 0.2014
# 5 -3.2967 -1.8007 6.3527 0.0000 25.8079 0.0000
# 6 0.0000 0.0000 0.0000 0.2014 0.0000 35.3696
#
#
#
# Elastic Compliance Matrix: (Units=1/GPa)
#
#
# Indices 1 2 3 4 5 6 
#
# 1 0.012169 -0.003567 -0.003768 0.000000 0.002233 0.000000
# 2 -0.003567 0.012571 -0.006017 0.000000 0.001903 0.000000
# 3 -0.003768 -0.006017 0.026133 0.000000 -0.007334 0.000000
# 4 0.000000 0.000000 0.000000 0.031394 0.000000 -0.000179
# 5 0.002233 0.001903 -0.007334 0.000000 0.040971 0.000000
# 6 0.000000 0.000000 0.000000 -0.000179 0.000000 0.028274
#
#
# Mechanical properties :
#
#
# Convention : Reuss Voigt Hill
#
# Bulk Modulus (GPa) = 41.37433 49.27938 45.32685
# Shear Modulus (GPa) = 26.84241 29.56284 28.20262
#
# Velocity S-wave (km/s) = 3.61675 3.79560 3.70725
# Velocity P-wave (km/s) = 6.13219 6.57447 6.35717
#
# Compressibility (1/GPa) = 0.02416958
#
# Stress axis : x y z
#
# Youngs Moduli (GPa) = 82.17482 79.54959 38.26533
#
# Poissons Ratio (x) = 0.28374 0.14417
# Poissons Ratio (y) = 0.29310 0.23026
# Poissons Ratio (z) = 0.30960 0.47868
#
# Static dielectric constant tensor:
#      x y z
#    x 3.777900 0.000000 0.024220 
#    y 0.000000 3.817890 0.000000 
#    z 0.024220 0.000000 3.960440 
# 
# 
# High freq. dielectric constant tensor:
#      x y z
#    x 1.799460 0.000000 -0.007540 
#    y 0.000000 1.810470 0.000000 
#    z -0.007540 0.000000 1.801730 
# 
# From -- ./inp_files/55736.got.cif
#   From: 2010.06.25/outbox.cif.g09.slc.cpg/sg11_28_cif.got.tgz:55736.got - 2010.06.27 23:14:04.
