data_PCOD8076639
_publ_section_title
;
Structure prediction by ZEFSAII (Michael W. Deem and Ramdas Pophale) SiO2 
 PCOD8076639
Probable space group: P 21/M
;
_chemical_formula_sum "Si O2"
_cell_formula_units_Z 28
_cell_length_a 19.758640
_cell_length_b 9.073009
_cell_length_c 22.683854
_cell_angle_alpha 90.000000
_cell_angle_beta 19.898480
_cell_angle_gamma 90.000000
_cell_volume 1384.066206
_symmetry_space_group_name_H-M "P 21/M"
_symmetry_group_IT_number 11
_symmetry_cell_setting 'monoclinic'
loop_
_space_group_symop_operation_xyz
x,y,z
-x,1/2+y,-z
-x,-y,-z
x,1/2-y,z
loop_
_atom_site_type_symbol
_atom_site_label
_atom_site_fract_x
_atom_site_fract_y
_atom_site_fract_z
Si Si1 0.655615 0.580760 0.913776
Si Si2 0.438552 0.580563 0.394298
Si Si3 0.109814 0.423914 0.963401
Si Si4 0.638515 0.916950 0.658369
Si Si5 0.939975 0.419438 0.227170
Si Si6 0.747877 0.416950 0.955242
Si Si7 0.052557 0.919240 0.516834
O O1 0.590176 0.750000 0.973842
O O2 0.874189 0.566140 0.708603
O O3 0.500000 0.500000 0.000000
O O4 0.653050 0.505496 0.979193
O O5 0.447928 0.750000 0.366026
O O6 0.336197 0.489515 0.425995
O O7 0.297546 0.562027 0.567477
O O8 0.660466 0.523418 0.226146
O O9 0.093100 0.250000 0.968970
O O10 0.000597 0.476584 0.112785
O O11 0.000000 0.500000 0.000000
O O12 0.719521 0.750000 0.589816
O O13 0.406680 0.921189 0.864443
O O14 0.756315 0.005503 0.611443
O O15 0.006043 0.250000 0.179995
O O16 0.049609 0.510476 0.188196
O O17 0.791525 0.250000 0.899142
O O18 0.101874 0.750000 0.462143
O O19 0.000000 0.000000 0.500000
#
# Coordination Sequence:
#
# PCOD8076639 Si02
#       7
#     4   4   4   4   4   4   4
#     4  11  24  40  58  83 115 153 199 249 303 362
#     4  10  21  39  63  90 120 159 205 248 299 361
#     4  10  22  40  62  90 126 162 200 250 302 360
#     4  11  23  38  59  88 120 155 198 248 302 360
#     4  10  21  39  63  90 120 159 205 248 299 361
#     4  11  23  38  59  88 120 155 198 248 302 360
#     4  11  24  40  58  83 115 153 199 249 303 362
#
# _framework density 20.230246999999999
#
# number of rings (size 3 to 8) (size 9 to 14) (size 15 to 20)
#    0.000    1.429    1.429    3.429    0.000   13.143 
#    0.000    0.000    0.000    0.000    0.000    0.000 
#    0.000    0.000    0.000    0.000    0.000    0.000 
#
# Total GULP energy -347331.972521 kJ/mol
# GULP energy per Si atom -12404.713304 kJ/mol
# Density = 2.018420 g / cm^3
# Si number density = 20.230247 Si / 1000 Ang^3
#
#
#
# Elastic Constant Matrix: (Units=GPa)
#
#
# Indices 1 2 3 4 5 6 
#
# 1 141.1501 57.1279 50.7036 0.0000 -6.6973 0.0000
# 2 57.1279 118.4431 40.2653 0.0000 -3.4384 0.0000
# 3 50.7036 40.2653 113.1592 0.0000 1.0025 0.0000
# 4 0.0000 0.0000 0.0000 26.8005 0.0000 -3.2271
# 5 -6.6973 -3.4384 1.0025 0.0000 30.3530 0.0000
# 6 0.0000 0.0000 0.0000 -3.2271 0.0000 42.6314
#
#
#
# Elastic Compliance Matrix: (Units=1/GPa)
#
#
# Indices 1 2 3 4 5 6 
#
# 1 0.009740 -0.003589 -0.003103 0.000000 0.001845 0.000000
# 2 -0.003589 0.010971 -0.002300 0.000000 0.000527 0.000000
# 3 -0.003103 -0.002300 0.011058 0.000000 -0.001311 0.000000
# 4 0.000000 0.000000 0.000000 0.037656 0.000000 0.002850
# 5 0.001845 0.000527 -0.001311 0.000000 0.033456 0.000000
# 6 0.000000 0.000000 0.000000 0.002850 0.000000 0.023673
#
#
# Mechanical properties :
#
#
# Convention : Reuss Voigt Hill
#
# Bulk Modulus (GPa) = 72.55266 74.32733 73.44000
# Shear Modulus (GPa) = 33.52714 34.93402 34.23058
#
# Velocity S-wave (km/s) = 4.07538 4.16001 4.11792
# Velocity P-wave (km/s) = 7.62144 7.73917 7.68053
#
# Compressibility (1/GPa) = 0.01378309
#
# Stress axis : x y z
#
# Youngs Moduli (GPa) = 102.67400 91.14689 90.43418
#
# Poissons Ratio (x) = 0.32713 0.28064
# Poissons Ratio (y) = 0.36851 0.20804
# Poissons Ratio (z) = 0.31863 0.20967
#
# Static dielectric constant tensor:
#      x y z
#    x 3.557030 0.000000 0.064360 
#    y 0.000000 3.769750 0.000000 
#    z 0.064360 0.000000 3.872660 
# 
# 
# High freq. dielectric constant tensor:
#      x y z
#    x 1.783120 0.000000 0.004350 
#    y 0.000000 1.794660 0.000000 
#    z 0.004350 0.000000 1.804430 
# 
# From -- ./inp_files/69768.got.cif
#   From: 2010.06.25/outbox.cif.g09.slc.cpg/sg11_35_cif.got.tgz:69768.got - 2010.06.27 23:14:04.
