data_PCOD8076225
_publ_section_title
;
Structure prediction by ZEFSAII (Michael W. Deem and Ramdas Pophale) SiO2 
 PCOD8076225
Probable space group: P 21/M
;
_chemical_formula_sum "Si O2"
_cell_formula_units_Z 28
_cell_length_a 9.205544
_cell_length_b 28.828260
_cell_length_c 5.205333
_cell_angle_alpha 90.000000
_cell_angle_beta 72.810821
_cell_angle_gamma 90.000000
_cell_volume 1319.689400
_symmetry_space_group_name_H-M "P 21/M"
_symmetry_group_IT_number 11
_symmetry_cell_setting 'monoclinic'
loop_
_space_group_symop_operation_xyz
x,y,z
-x,1/2+y,-z
-x,-y,-z
x,1/2-y,z
loop_
_atom_site_type_symbol
_atom_site_label
_atom_site_fract_x
_atom_site_fract_y
_atom_site_fract_z
Si Si1 0.398365 0.697043 0.139803
Si Si2 0.134196 0.799132 0.643047
Si Si3 0.092773 0.160675 0.568271
Si Si4 0.168742 0.627536 0.014391
Si Si5 0.574643 0.943798 0.214038
Si Si6 0.377681 0.547518 0.813507
Si Si7 0.720387 0.649983 0.040360
O O1 0.401662 0.750000 0.026879
O O2 0.307400 0.696224 0.455072
O O3 0.313445 0.660656 0.998653
O O4 0.567941 0.679646 0.098126
O O5 0.119273 0.750000 0.801599
O O6 0.085209 0.844309 0.829662
O O7 0.013075 0.796438 0.469400
O O8 0.204453 0.146398 0.279688
O O9 0.182813 0.174082 0.781950
O O10 0.962117 0.121288 0.700382
O O11 0.221926 0.576649 0.900368
O O12 0.471928 0.936971 0.517570
O O13 0.662433 0.992974 0.177631
O O14 0.469602 0.940264 0.020379
O O15 0.696249 0.902839 0.146066
#
# Coordination Sequence:
#
# PCOD8076225 Si02
#       7
#     4   4   4   4   4   4   4
#     4  10  23  38  64  96 121 159 215 267 311 360
#     4  10  22  43  66  90 123 169 218 259 302 378
#     4  11  26  41  63  88 132 172 204 245 324 380
#     4  11  21  43  66  93 124 171 210 260 307 380
#     4  10  21  39  62 102 123 160 205 266 315 369
#     4  10  21  37  69  93 126 159 213 257 316 372
#     4  12  23  43  63  93 133 165 202 266 317 371
#
# _framework density 21.217112
#
# number of rings (size 3 to 8) (size 9 to 14) (size 15 to 20)
#    0.000    1.429    2.857    2.143    4.000    1.714 
#    0.000    1.429    0.000    0.000    0.000    0.000 
#    0.000    0.000    0.000    0.000    0.000    0.000 
#
# Total GULP energy -346919.361036 kJ/mol
# GULP energy per Si atom -12389.977180 kJ/mol
# Density = 2.116882 g / cm^3
# Si number density = 21.217112 Si / 1000 Ang^3
#
#
#
# Elastic Constant Matrix: (Units=GPa)
#
#
# Indices 1 2 3 4 5 6 
#
# 1 110.1653 24.0038 44.1421 0.0000 -7.5493 0.0000
# 2 24.0038 83.8209 29.0050 0.0000 -17.9216 0.0000
# 3 44.1421 29.0050 135.1375 0.0000 -4.9385 0.0000
# 4 0.0000 0.0000 0.0000 28.0673 0.0000 6.0781
# 5 -7.5493 -17.9216 -4.9385 0.0000 36.5547 0.0000
# 6 0.0000 0.0000 0.0000 6.0781 0.0000 4.0996
#
#
#
# Elastic Compliance Matrix: (Units=1/GPa)
#
#
# Indices 1 2 3 4 5 6 
#
# 1 0.010777 -0.001819 -0.003096 0.000000 0.000916 0.000000
# 2 -0.001819 0.014638 -0.002311 0.000000 0.006489 0.000000
# 3 -0.003096 -0.002311 0.008886 0.000000 -0.000572 0.000000
# 4 0.000000 0.000000 0.000000 0.052477 0.000000 -0.077802
# 5 0.000916 0.006489 -0.000572 0.000000 0.030649 0.000000
# 6 0.000000 0.000000 0.000000 -0.077802 0.000000 0.359273
#
#
# Mechanical properties :
#
#
# Convention : Reuss Voigt Hill
#
# Bulk Modulus (GPa) = 50.37906 58.15840 54.26873
# Shear Modulus (GPa) = 10.04483 29.20917 19.62700
#
# Velocity S-wave (km/s) = 2.17821 3.71439 3.04477
# Velocity P-wave (km/s) = 5.48837 6.77246 6.16394
#
# Compressibility (1/GPa) = 0.01984952
#
# Stress axis : x y z
#
# Youngs Moduli (GPa) = 92.78980 68.31545 112.53259
#
# Poissons Ratio (x) = 0.12427 0.34845
# Poissons Ratio (y) = 0.16879 0.26001
# Poissons Ratio (z) = 0.28731 0.15784
#
# Static dielectric constant tensor:
#      x y z
#    x 3.807850 0.000000 0.043310 
#    y 0.000000 3.830500 0.000000 
#    z 0.043310 0.000000 3.963540 
# 
# 
# High freq. dielectric constant tensor:
#      x y z
#    x 1.827120 0.000000 0.001840 
#    y 0.000000 1.818680 0.000000 
#    z 0.001840 0.000000 1.845140 
# 
# From -- ./inp_files/3195.got.cif
#   From: 2010.06.25/outbox.cif.g09.slc.cpg/sg11_2_cif.got.tgz:3195.got - 2010.06.27 23:14:04.
