data_PCOD8076633
_publ_section_title
;
Structure prediction by ZEFSAII (Michael W. Deem and Ramdas Pophale) SiO2 
 PCOD8076633
Probable space group: P 21/M
;
_chemical_formula_sum "Si O2"
_cell_formula_units_Z 32
_cell_length_a 25.933309
_cell_length_b 8.750612
_cell_length_c 15.405896
_cell_angle_alpha 90.000000
_cell_angle_beta 27.430773
_cell_angle_gamma 90.000000
_cell_volume 1610.569369
_symmetry_space_group_name_H-M "P 21/M"
_symmetry_group_IT_number 11
_symmetry_cell_setting 'monoclinic'
loop_
_space_group_symop_operation_xyz
x,y,z
-x,1/2+y,-z
-x,-y,-z
x,1/2-y,z
loop_
_atom_site_type_symbol
_atom_site_label
_atom_site_fract_x
_atom_site_fract_y
_atom_site_fract_z
Si Si1 0.758551 0.575909 0.459715
Si Si2 0.378455 0.430441 0.685822
Si Si3 0.232725 0.429408 0.060705
Si Si4 0.002508 0.926729 0.161721
Si Si5 0.234104 0.071636 0.252424
Si Si6 0.005907 0.570351 0.641859
Si Si7 0.217397 0.427746 0.771167
Si Si8 0.621131 0.428395 0.813991
O O1 0.730238 0.750000 0.527044
O O2 0.729688 0.541921 0.402577
O O3 0.682109 0.469737 0.633440
O O4 0.889386 0.542432 0.277784
O O5 0.500000 0.500000 0.500000
O O6 0.390100 0.250000 0.673939
O O7 0.308465 0.479989 0.705828
O O8 0.316943 0.498767 0.863294
O O9 0.226332 0.250000 0.054553
O O10 0.276139 0.468611 0.092408
O O11 0.107063 0.491423 0.234667
O O12 0.011318 0.750000 0.177257
O O13 0.003062 0.037696 0.243012
O O14 0.106271 0.970993 0.945945
O O15 0.246851 0.250000 0.254149
O O16 0.306589 0.978574 0.211893
O O17 0.104940 0.026434 0.451731
O O18 0.027141 0.750000 0.595749
O O19 0.185224 0.250000 0.830781
O O20 0.605785 0.250000 0.840788
O O21 0.500000 0.500000 0.000000
#
# Coordination Sequence:
#
# PCOD8076633 Si02
#       8
#     4   4   4   4   4   4   4   4
#     4  10  22  40  62  91 124 157 195 246 302 358
#     4  10  21  40  60  83 114 154 199 244 293 347
#     4   9  20  38  61  87 122 160 196 241 300 357
#     4  11  21  34  58  91 126 159 196 245 297 353
#     4  11  22  39  62  91 123 156 197 249 299 356
#     4  11  20  36  61  89 122 162 198 238 299 364
#     4  10  21  39  63  87 121 161 198 243 297 360
#     4  12  26  44  65  87 117 160 204 253 303 357
#
# _framework density 19.868751
#
# number of rings (size 3 to 8) (size 9 to 14) (size 15 to 20)
#    0.000    1.500    2.500    3.000    0.000    2.500 
#    0.000    5.625    0.000    0.000    0.000    0.000 
#    0.000    0.000    0.000    0.000    0.000    0.000 
#
# Total GULP energy -396903.770776 kJ/mol
# GULP energy per Si atom -12403.242837 kJ/mol
# Density = 1.982353 g / cm^3
# Si number density = 19.868751 Si / 1000 Ang^3
#
#
#
# Elastic Constant Matrix: (Units=GPa)
#
#
# Indices 1 2 3 4 5 6 
#
# 1 108.4300 37.3747 81.0544 0.0000 22.0052 0.0000
# 2 37.3747 78.8440 49.8639 0.0000 3.0297 0.0000
# 3 81.0544 49.8639 148.3777 0.0000 -8.1957 0.0000
# 4 0.0000 0.0000 0.0000 35.8157 0.0000 -5.0811
# 5 22.0052 3.0297 -8.1957 0.0000 28.0183 0.0000
# 6 0.0000 0.0000 0.0000 -5.0811 0.0000 16.8694
#
#
#
# Elastic Compliance Matrix: (Units=1/GPa)
#
#
# Indices 1 2 3 4 5 6 
#
# 1 0.026064 -0.001961 -0.014940 0.000000 -0.024629 0.000000
# 2 -0.001961 0.016575 -0.004587 0.000000 -0.001594 0.000000
# 3 -0.014940 -0.004587 0.017399 0.000000 0.017319 0.000000
# 4 0.000000 0.000000 0.000000 0.029167 0.000000 0.008785
# 5 -0.024629 -0.001594 0.017319 0.000000 0.060273 0.000000
# 6 0.000000 0.000000 0.000000 0.008785 0.000000 0.061925
#
#
# Mechanical properties :
#
#
# Convention : Reuss Voigt Hill
#
# Bulk Modulus (GPa) = 58.60556 74.69308 66.64932
# Shear Modulus (GPa) = 19.22587 27.29792 23.26189
#
# Velocity S-wave (km/s) = 3.11407 3.71065 3.42538
# Velocity P-wave (km/s) = 6.51846 7.48555 7.01868
#
# Compressibility (1/GPa) = 0.01706323
#
# Stress axis : x y z
#
# Youngs Moduli (GPa) = 38.36637 60.33151 57.47470
#
# Poissons Ratio (x) = 0.11828 0.85866
# Poissons Ratio (y) = 0.07522 0.26365
# Poissons Ratio (z) = 0.57319 0.27676
#
# Static dielectric constant tensor:
#      x y z
#    x 3.740400 0.000000 0.110400 
#    y 0.000000 3.113140 0.000000 
#    z 0.110400 0.000000 3.739320 
# 
# 
# High freq. dielectric constant tensor:
#      x y z
#    x 1.785950 0.000000 0.006760 
#    y 0.000000 1.763980 0.000000 
#    z 0.006760 0.000000 1.777370 
# 
# From -- ./inp_files/51680.got.cif
#   From: 2010.06.25/outbox.cif.g09.slc.cpg/sg11_26_cif.got.tgz:51680.got - 2010.06.27 23:14:04.
