data_PCOD8076150
_publ_section_title
;
Structure prediction by ZEFSAII (Michael W. Deem and Ramdas Pophale) SiO2 
 PCOD8076150
Probable space group: P 21/M
;
_chemical_formula_sum "Si O2"
_cell_formula_units_Z 32
_cell_length_a 14.301391
_cell_length_b 14.681516
_cell_length_c 7.878724
_cell_angle_alpha 90.000000
_cell_angle_beta 63.186181
_cell_angle_gamma 90.000000
_cell_volume 1476.393504
_symmetry_space_group_name_H-M "P 21/M"
_symmetry_group_IT_number 11
_symmetry_cell_setting 'monoclinic'
loop_
_space_group_symop_operation_xyz
x,y,z
-x,1/2+y,-z
-x,-y,-z
x,1/2-y,z
loop_
_atom_site_type_symbol
_atom_site_label
_atom_site_fract_x
_atom_site_fract_y
_atom_site_fract_z
Si Si1 0.139266 0.853889 0.632872
Si Si2 0.407991 0.481452 0.202537
Si Si3 0.815961 0.480828 0.716205
Si Si4 0.461277 0.850869 0.702443
Si Si5 0.245318 0.954129 0.861491
Si Si6 0.485971 0.652081 0.292787
Si Si7 0.912652 0.651947 0.714633
Si Si8 0.282683 0.349501 0.880325
O O1 0.180846 0.750000 0.596323
O O2 0.169269 0.899376 0.428040
O O3 0.188361 0.902662 0.755494
O O4 0.013700 0.857887 0.753733
O O5 0.296086 0.469457 0.209193
O O6 0.439046 0.392422 0.282023
O O7 0.402613 0.573745 0.320355
O O8 0.500000 0.500000 0.000000
O O9 0.902219 0.561135 0.606500
O O10 0.822666 0.446570 0.907600
O O11 0.437316 0.750000 0.794072
O O12 0.358215 0.911588 0.809382
O O13 0.501387 0.846213 0.480045
O O14 0.260136 0.059629 0.786959
O O15 0.441361 0.750000 0.265518
O O16 0.603443 0.636719 0.121632
O O17 0.922496 0.750000 0.607246
O O18 0.807373 0.654056 0.907803
O O19 0.282817 0.250000 0.783194
#
# Coordination Sequence:
#
# PCOD8076150 Si02
#       8
#     4   4   4   4   4   4   4   4
#     4  11  25  43  67  95 124 168 213 260 325 380
#     4  12  22  38  57  89 123 164 206 246 311 373
#     4  11  24  40  67  96 127 164 214 262 311 377
#     4  11  23  38  58  87 125 166 209 252 304 369
#     4  11  22  42  65  91 129 167 206 263 315 373
#     4  10  21  37  60  86 119 164 210 257 307 364
#     4   9  20  43  67  92 127 161 206 266 325 378
#     4   9  18  35  62  91 120 162 209 259 313 369
#
# _framework density 21.674437999999999
#
# number of rings (size 3 to 8) (size 9 to 14) (size 15 to 20)
#    0.000    1.500    2.500    2.625    1.750    5.500 
#    0.000    0.625    0.000    5.250    0.000    0.000 
#    0.000    0.000    0.000    0.000    0.000    0.000 
#
# Total GULP energy -396444.525989 kJ/mol
# GULP energy per Si atom -12388.891437 kJ/mol
# Density = 2.162511 g / cm^3
# Si number density = 21.674438 Si / 1000 Ang^3
#
#
#
# Elastic Constant Matrix: (Units=GPa)
#
#
# Indices 1 2 3 4 5 6 
#
# 1 82.7761 51.3329 16.2492 0.0000 7.2584 0.0000
# 2 51.3329 203.0337 32.2953 0.0000 19.0816 0.0000
# 3 16.2492 32.2953 56.3417 0.0000 10.1977 0.0000
# 4 0.0000 0.0000 0.0000 24.8664 0.0000 -8.9769
# 5 7.2584 19.0816 10.1977 0.0000 27.8248 0.0000
# 6 0.0000 0.0000 0.0000 -8.9769 0.0000 -4.3755
#
#
#
# Elastic Compliance Matrix: (Units=1/GPa)
#
#
# Indices 1 2 3 4 5 6 
#
# 1 0.014608 -0.003272 -0.002200 0.000000 -0.000761 0.000000
# 2 -0.003272 0.006358 -0.002213 0.000000 -0.002696 0.000000
# 3 -0.002200 -0.002213 0.020642 0.000000 -0.005474 0.000000
# 4 0.000000 0.000000 0.000000 0.023104 0.000000 -0.047399
# 5 -0.000761 -0.002696 -0.005474 0.000000 0.039992 0.000000
# 6 0.000000 0.000000 0.000000 -0.047399 0.000000 -0.131299
#
#
# Mechanical properties :
#
#
# Convention : Reuss Voigt Hill
#
# Bulk Modulus (GPa) = 38.11076 60.21180 49.16128
# Shear Modulus (GPa) = -2017.79026 25.81473 -995.98777
#
# Velocity S-wave (km/s) = -30.54464 3.45486 -21.45972
# Velocity P-wave (km/s) = 35.01921 6.61477 24.31656
#
# Compressibility (1/GPa) = 0.02623931
#
# Stress axis : x y z
#
# Youngs Moduli (GPa) = 68.45346 157.28534 48.44375
#
# Poissons Ratio (x) = 0.51464 0.10657
# Poissons Ratio (y) = 0.22398 0.10720
# Poissons Ratio (z) = 0.15059 0.34804
#
# Static dielectric constant tensor:
#      x y z
#    x 4.076050 0.000000 -0.098570 
#    y 0.000000 4.256600 0.000000 
#    z -0.098570 0.000000 3.711740 
# 
# 
# High freq. dielectric constant tensor:
#      x y z
#    x 1.841570 0.000000 -0.020790 
#    y 0.000000 1.881800 0.000000 
#    z -0.020790 0.000000 1.827490 
# 
# From -- ./inp_files/22165.got.cif
#   From: 2010.06.25/outbox.cif.g09.slc.cpg/sg11_12_cif.got.tgz:22165.got - 2010.06.27 23:14:04.
