data_PCOD8076981
_publ_section_title
;
Structure prediction by ZEFSAII (Michael W. Deem and Ramdas Pophale) SiO2 
 PCOD8076981
Probable space group: P 21/M
;
_chemical_formula_sum "Si O2"
_cell_formula_units_Z 32
_cell_length_a 22.649965
_cell_length_b 8.809040
_cell_length_c 15.157928
_cell_angle_alpha 90.000000
_cell_angle_beta 31.581032
_cell_angle_gamma 90.000000
_cell_volume 1583.878170
_symmetry_space_group_name_H-M "P 21/M"
_symmetry_group_IT_number 11
_symmetry_cell_setting 'monoclinic'
loop_
_space_group_symop_operation_xyz
x,y,z
-x,1/2+y,-z
-x,-y,-z
x,1/2-y,z
loop_
_atom_site_type_symbol
_atom_site_label
_atom_site_fract_x
_atom_site_fract_y
_atom_site_fract_z
Si Si1 0.757210 0.929977 0.505159
Si Si2 0.048574 0.573293 0.351482
Si Si3 0.650472 0.928414 0.457349
Si Si4 0.622788 0.071091 0.838062
Si Si5 0.415257 0.428601 0.763581
Si Si6 0.010341 0.569572 0.753975
Si Si7 0.774268 0.929380 0.127236
Si Si8 0.694319 0.076579 0.939874
O O1 0.761804 0.750000 0.509025
O O2 0.692199 0.981337 0.499903
O O3 0.693292 0.998668 0.669731
O O4 0.882650 0.994729 0.335560
O O5 0.016322 0.750000 0.387608
O O6 0.992257 0.483752 0.343373
O O7 0.181836 0.547818 0.180469
O O8 0.000000 0.500000 0.500000
O O9 0.630823 0.750000 0.479083
O O10 0.742250 0.978407 0.267232
O O11 0.533626 0.006322 0.580834
O O12 0.613107 0.250000 0.834657
O O13 0.688399 0.031549 0.844778
O O14 0.500000 0.000000 0.000000
O O15 0.421237 0.250000 0.749040
O O16 0.317382 0.496035 0.824937
O O17 0.392170 0.475514 0.894074
O O18 0.021795 0.750000 0.742535
O O19 0.898814 0.508314 0.946176
O O20 0.775929 0.750000 0.114240
O O21 0.656155 0.250000 0.000346
#
# Coordination Sequence:
#
# PCOD8076981 Si02
#       8
#     4   4   4   4   4   4   4   4
#     4  11  24  41  61  88 121 161 209 255 302 363
#     4  11  22  37  59  87 118 155 200 246 296 356
#     4  10  22  41  62  85 120 162 202 250 307 364
#     4  11  23  40  61  87 121 162 204 249 302 360
#     4  11  21  36  61  93 123 153 198 250 302 364
#     4  11  22  40  63  87 122 161 200 252 309 363
#     4   9  20  39  62  89 121 159 199 248 310 364
#     4  10  22  38  57  83 116 155 194 236 295 357
#
# _framework density 20.203575000000001
#
# number of rings (size 3 to 8) (size 9 to 14) (size 15 to 20)
#    0.000    1.500    1.250    3.750    0.000    7.000 
#    0.000    1.875    0.000    0.000    0.000    0.000 
#    0.000    0.000    0.000    0.000    0.000    0.000 
#
# Total GULP energy -396938.276572 kJ/mol
# GULP energy per Si atom -12404.321143 kJ/mol
# Density = 2.015759 g / cm^3
# Si number density = 20.203575 Si / 1000 Ang^3
#
#
#
# Elastic Constant Matrix: (Units=GPa)
#
#
# Indices 1 2 3 4 5 6 
#
# 1 101.2458 36.7123 47.8197 0.0000 -2.3447 0.0000
# 2 36.7123 63.2572 37.5786 0.0000 -2.3329 0.0000
# 3 47.8197 37.5786 140.7696 0.0000 0.3913 0.0000
# 4 0.0000 0.0000 0.0000 33.3507 0.0000 -5.5169
# 5 -2.3447 -2.3329 0.3913 0.0000 40.2855 0.0000
# 6 0.0000 0.0000 0.0000 -5.5169 0.0000 28.8334
#
#
#
# Elastic Compliance Matrix: (Units=1/GPa)
#
#
# Indices 1 2 3 4 5 6 
#
# 1 0.013481 -0.006044 -0.002967 0.000000 0.000463 0.000000
# 2 -0.006044 0.021550 -0.003702 0.000000 0.000932 0.000000
# 3 -0.002967 -0.003702 0.009101 0.000000 -0.000475 0.000000
# 4 0.000000 0.000000 0.000000 0.030964 0.000000 0.005925
# 5 0.000463 0.000932 -0.000475 0.000000 0.024908 0.000000
# 6 0.000000 0.000000 0.000000 0.005925 0.000000 0.035816
#
#
# Mechanical properties :
#
#
# Convention : Reuss Voigt Hill
#
# Bulk Modulus (GPa) = 53.46111 61.05488 57.25799
# Shear Modulus (GPa) = 29.85389 32.70473 31.27931
#
# Velocity S-wave (km/s) = 3.84820 4.02775 3.93899
# Velocity P-wave (km/s) = 6.80173 7.20526 7.00640
#
# Compressibility (1/GPa) = 0.01870519
#
# Stress axis : x y z
#
# Youngs Moduli (GPa) = 74.18000 46.40400 109.87276
#
# Poissons Ratio (x) = 0.28046 0.32602
# Poissons Ratio (y) = 0.44834 0.40677
# Poissons Ratio (z) = 0.22011 0.17180
#
# Static dielectric constant tensor:
#      x y z
#    x 3.841050 0.000000 -0.027810 
#    y 0.000000 3.607160 0.000000 
#    z -0.027810 0.000000 3.790040 
# 
# 
# High freq. dielectric constant tensor:
#      x y z
#    x 1.796280 0.000000 0.000090 
#    y 0.000000 1.781540 0.000000 
#    z 0.000090 0.000000 1.803320 
# 
# From -- ./inp_files/55556.got.cif
#   From: 2010.06.25/outbox.cif.g09.slc.cpg/sg11_28_cif.got.tgz:55556.got - 2010.06.27 23:14:04.
