data_PCOD8076720
_publ_section_title
;
Structure prediction by ZEFSAII (Michael W. Deem and Ramdas Pophale) SiO2 
 PCOD8076720
Probable space group: P 21/M
;
_chemical_formula_sum "Si O2"
_cell_formula_units_Z 32
_cell_length_a 12.535152
_cell_length_b 8.874818
_cell_length_c 14.453240
_cell_angle_alpha 90.000000
_cell_angle_beta 90.751941
_cell_angle_gamma 90.000000
_cell_volume 1607.743909
_symmetry_space_group_name_H-M "P 21/M"
_symmetry_group_IT_number 11
_symmetry_cell_setting 'monoclinic'
loop_
_space_group_symop_operation_xyz
x,y,z
-x,1/2+y,-z
-x,-y,-z
x,1/2-y,z
loop_
_atom_site_type_symbol
_atom_site_label
_atom_site_fract_x
_atom_site_fract_y
_atom_site_fract_z
Si Si1 0.114155 0.927302 0.479941
Si Si2 0.894397 0.420107 0.029525
Si Si3 0.038184 0.579729 0.767748
Si Si4 0.320537 0.428370 0.993688
Si Si5 0.384373 0.925797 0.175339
Si Si6 0.206260 0.428097 0.649087
Si Si7 0.381691 0.073794 0.792572
Si Si8 0.829992 0.073285 0.728053
O O1 0.103313 0.750000 0.493105
O O2 0.156012 0.970169 0.378848
O O3 0.205603 0.992035 0.549318
O O4 0.000000 0.000000 0.500000
O O5 0.890247 0.250000 0.990724
O O6 0.889695 0.421896 0.140236
O O7 0.797676 0.513181 0.985633
O O8 0.000000 0.500000 0.000000
O O9 0.029813 0.750000 0.728569
O O10 0.093615 0.470331 0.694639
O O11 0.920158 0.514973 0.787361
O O12 0.324075 0.250000 0.995735
O O13 0.393924 0.490938 0.076839
O O14 0.356857 0.493328 0.894286
O O15 0.374633 0.750000 0.153094
O O16 0.494860 0.960125 0.231200
O O17 0.285991 0.981711 0.237446
O O18 0.212928 0.250000 0.635712
O O19 0.304725 0.493365 0.711704
O O20 0.357164 0.250000 0.796730
O O21 0.844382 0.250000 0.745084
#
# Coordination Sequence:
#
# PCOD8076720 Si02
#       8
#     4   4   4   4   4   4   4   4
#     4  11  22  37  58  88 117 150 190 238 291 348
#     4  11  23  36  52  80 116 156 194 237 289 346
#     4  11  22  35  55  82 114 148 188 237 285 340
#     4  11  21  36  57  85 117 153 194 242 288 341
#     4  10  21  40  61  84 113 154 200 242 287 343
#     4  11  21  37  60  86 114 149 188 234 289 346
#     4   9  20  38  61  85 115 154 198 240 287 343
#     4  10  22  38  59  83 115 152 189 234 291 349
#
# _framework density 19.903666999999999
#
# number of rings (size 3 to 8) (size 9 to 14) (size 15 to 20)
#    0.000    1.500    2.500    3.000    0.000    4.500 
#    0.000    2.500    0.000    0.000    0.000    0.000 
#    0.000    0.000    0.000    0.000    0.000    0.000 
#
# Total GULP energy -396834.645661 kJ/mol
# GULP energy per Si atom -12401.082677 kJ/mol
# Density = 1.985837 g / cm^3
# Si number density = 19.903667 Si / 1000 Ang^3
#
#
#
# Elastic Constant Matrix: (Units=GPa)
#
#
# Indices 1 2 3 4 5 6 
#
# 1 117.4702 23.9580 36.8024 0.0000 11.8891 0.0000
# 2 23.9580 62.0331 27.2566 0.0000 5.9274 0.0000
# 3 36.8024 27.2566 91.1689 0.0000 13.9113 0.0000
# 4 0.0000 0.0000 0.0000 30.3019 0.0000 5.8636
# 5 11.8891 5.9274 13.9113 0.0000 29.0646 0.0000
# 6 0.0000 0.0000 0.0000 5.8636 0.0000 20.8358
#
#
#
# Elastic Compliance Matrix: (Units=1/GPa)
#
#
# Indices 1 2 3 4 5 6 
#
# 1 0.010180 -0.002375 -0.003062 0.000000 -0.002215 0.000000
# 2 -0.002375 0.019152 -0.004660 0.000000 -0.000704 0.000000
# 3 -0.003062 -0.004660 0.014306 0.000000 -0.004645 0.000000
# 4 0.000000 0.000000 0.000000 0.034902 0.000000 -0.009822
# 5 -0.002215 -0.000704 -0.004645 0.000000 0.037679 0.000000
# 6 0.000000 0.000000 0.000000 -0.009822 0.000000 0.050758
#
#
# Mechanical properties :
#
#
# Convention : Reuss Voigt Hill
#
# Bulk Modulus (GPa) = 42.65027 49.63403 46.14215
# Shear Modulus (GPa) = 25.64278 28.21747 26.93013
#
# Velocity S-wave (km/s) = 3.59325 3.76932 3.68234
# Velocity P-wave (km/s) = 6.22014 6.62835 6.42748
#
# Compressibility (1/GPa) = 0.02344651
#
# Stress axis : x y z
#
# Youngs Moduli (GPa) = 98.22708 52.21272 69.89862
#
# Poissons Ratio (x) = 0.12401 0.21400
# Poissons Ratio (y) = 0.23329 0.32571
# Poissons Ratio (z) = 0.30073 0.24330
#
# Static dielectric constant tensor:
#      x y z
#    x 3.675210 0.000000 0.167870 
#    y 0.000000 3.504520 0.000000 
#    z 0.167870 0.000000 3.835380 
# 
# 
# High freq. dielectric constant tensor:
#      x y z
#    x 1.774030 0.000000 0.010510 
#    y 0.000000 1.766370 0.000000 
#    z 0.010510 0.000000 1.775940 
# 
# From -- ./inp_files/38119.got.cif
#   From: 2010.06.25/outbox.cif.g09.slc.cpg/sg11_20_cif.got.tgz:38119.got - 2010.06.27 23:14:04.
