data_PCOD8076227
_publ_section_title
;
Structure prediction by ZEFSAII (Michael W. Deem and Ramdas Pophale) SiO2 
 PCOD8076227
Probable space group: P 21/M
;
_chemical_formula_sum "Si O2"
_cell_formula_units_Z 28
_cell_length_a 15.277444
_cell_length_b 9.152492
_cell_length_c 11.768103
_cell_angle_alpha 90.000000
_cell_angle_beta 116.253917
_cell_angle_gamma 90.000000
_cell_volume 1475.749692
_symmetry_space_group_name_H-M "P 21/M"
_symmetry_group_IT_number 11
_symmetry_cell_setting 'monoclinic'
loop_
_space_group_symop_operation_xyz
x,y,z
-x,1/2+y,-z
-x,-y,-z
x,1/2-y,z
loop_
_atom_site_type_symbol
_atom_site_label
_atom_site_fract_x
_atom_site_fract_y
_atom_site_fract_z
Si Si1 0.977852 0.577951 0.370320
Si Si2 0.639397 0.079506 0.544543
Si Si3 0.897831 0.078017 0.957479
Si Si4 0.197713 0.420064 0.887449
Si Si5 0.579973 0.578880 0.970254
Si Si6 0.546805 0.578818 0.696309
Si Si7 0.149841 0.580362 0.317749
O O1 0.989617 0.750000 0.396154
O O2 0.869641 0.541424 0.260221
O O3 0.000000 0.500000 0.500000
O O4 0.056547 0.509205 0.326444
O O5 0.634690 0.250000 0.571256
O O6 0.564666 0.038288 0.401336
O O7 0.747791 0.033810 0.564834
O O8 0.618403 0.997342 0.649446
O O9 0.913781 0.250000 0.985764
O O10 0.840009 0.041417 0.808884
O O11 0.835769 0.013929 0.024698
O O12 0.000000 0.000000 0.000000
O O13 0.186015 0.250000 0.913599
O O14 0.310439 0.457202 0.923189
O O15 0.558109 0.750000 0.963823
O O16 0.568078 0.520773 0.834683
O O17 0.500000 0.500000 0.000000
O O18 0.566566 0.750000 0.699620
O O19 0.130732 0.750000 0.320706
#
# Coordination Sequence:
#
# PCOD8076227 Si02
#       7
#     4   4   4   4   4   4   4
#     4  10  21  38  55  74 106 143 180 222 271 327
#     4   9  17  31  54  78 102 136 174 214 265 323
#     4  11  20  33  56  84 112 144 182 224 275 334
#     4  10  21  39  58  80 113 147 179 231 288 329
#     4  10  22  38  57  80 110 147 187 231 277 323
#     4   9  18  33  51  77 108 136 171 220 272 315
#     4   9  18  33  52  76 106 139 173 215 266 317
#
# _framework density 18.973409
#
# number of rings (size 3 to 8) (size 9 to 14) (size 15 to 20)
#    0.000    2.286    1.429    1.286    0.000    2.857 
#    0.000    2.857    0.000    0.000    0.000    0.000 
#    0.000    0.000    0.000    0.000    0.000    0.000 
#
# Total GULP energy -347085.607119 kJ/mol
# GULP energy per Si atom -12395.914540 kJ/mol
# Density = 1.893022 g / cm^3
# Si number density = 18.973409 Si / 1000 Ang^3
#
#
#
# Elastic Constant Matrix: (Units=GPa)
#
#
# Indices 1 2 3 4 5 6 
#
# 1 129.2715 40.8890 76.9665 0.0000 13.7902 0.0000
# 2 40.8890 47.9149 38.9418 0.0000 -0.9849 0.0000
# 3 76.9665 38.9418 145.3343 0.0000 8.6004 0.0000
# 4 0.0000 0.0000 0.0000 27.9815 0.0000 -5.3758
# 5 13.7902 -0.9849 8.6004 0.0000 28.7458 0.0000
# 6 0.0000 0.0000 0.0000 -5.3758 0.0000 30.7393
#
#
#
# Elastic Compliance Matrix: (Units=1/GPa)
#
#
# Indices 1 2 3 4 5 6 
#
# 1 0.013659 -0.007858 -0.004809 0.000000 -0.005383 0.000000
# 2 -0.007858 0.031477 -0.004642 0.000000 0.006237 0.000000
# 3 -0.004809 -0.004642 0.010734 0.000000 -0.001063 0.000000
# 4 0.000000 0.000000 0.000000 0.036980 0.000000 0.006467
# 5 -0.005383 0.006237 -0.001063 0.000000 0.037902 0.000000
# 6 0.000000 0.000000 0.000000 0.006467 0.000000 0.033663
#
#
# Mechanical properties :
#
#
# Convention : Reuss Voigt Hill
#
# Bulk Modulus (GPa) = 47.05504 70.67948 58.86726
# Shear Modulus (GPa) = 24.25811 28.54154 26.39983
#
# Velocity S-wave (km/s) = 3.57954 3.88273 3.73421
# Velocity P-wave (km/s) = 6.47599 7.57849 7.04883
#
# Compressibility (1/GPa) = 0.02125171
#
# Stress axis : x y z
#
# Youngs Moduli (GPa) = 73.21280 31.76961 93.15882
#
# Poissons Ratio (x) = 0.24964 0.44804
# Poissons Ratio (y) = 0.57530 0.43242
# Poissons Ratio (z) = 0.35211 0.14747
#
# Static dielectric constant tensor:
#      x y z
#    x 3.707290 0.000000 0.159490 
#    y 0.000000 3.894550 0.000000 
#    z 0.159490 0.000000 3.593040 
# 
# 
# High freq. dielectric constant tensor:
#      x y z
#    x 1.739790 0.000000 0.017070 
#    y 0.000000 1.717710 0.000000 
#    z 0.017070 0.000000 1.744660 
# 
# From -- ./inp_files/37662.got.cif
#   From: 2010.06.25/outbox.cif.g09.slc.cpg/sg11_19_cif.got.tgz:37662.got - 2010.06.27 23:14:04.
