data_PCOD8076447
_publ_section_title
;
Structure prediction by ZEFSAII (Michael W. Deem and Ramdas Pophale) SiO2 
 PCOD8076447
Probable space group: P 21/M
;
_chemical_formula_sum "Si O2"
_cell_formula_units_Z 32
_cell_length_a 30.983432
_cell_length_b 8.769683
_cell_length_c 11.942806
_cell_angle_alpha 90.000000
_cell_angle_beta 29.974184
_cell_angle_gamma 90.000000
_cell_volume 1621.252624
_symmetry_space_group_name_H-M "P 21/M"
_symmetry_group_IT_number 11
_symmetry_cell_setting 'monoclinic'
loop_
_space_group_symop_operation_xyz
x,y,z
-x,1/2+y,-z
-x,-y,-z
x,1/2-y,z
loop_
_atom_site_type_symbol
_atom_site_label
_atom_site_fract_x
_atom_site_fract_y
_atom_site_fract_z
Si Si1 0.407752 0.426549 0.184520
Si Si2 0.754462 0.922904 0.308621
Si Si3 0.527155 0.071596 0.555323
Si Si4 0.705661 0.576291 0.174643
Si Si5 0.231324 0.074104 0.208621
Si Si6 0.096632 0.573600 0.894445
Si Si7 0.379406 0.569816 0.021282
Si Si8 0.919481 0.427154 0.325035
O O1 0.422626 0.250000 0.124805
O O2 0.344841 0.451669 0.431860
O O3 0.500000 0.500000 0.000000
O O4 0.359182 0.504487 0.189179
O O5 0.781555 0.750000 0.278184
O O6 0.762577 0.952640 0.157570
O O7 0.816988 0.038058 0.231915
O O8 0.508042 0.250000 0.595338
O O9 0.500000 0.000000 0.500000
O O10 0.627173 0.041461 0.352574
O O11 0.471977 0.995444 0.777476
O O12 0.669778 0.750000 0.254517
O O13 0.765046 0.546478 0.932895
O O14 0.246444 0.250000 0.205314
O O15 0.137672 0.021954 0.459744
O O16 0.305554 0.976399 0.100539
O O17 0.072220 0.750000 0.962424
O O18 0.111727 0.532963 0.730368
O O19 0.018704 0.474079 0.119403
O O20 0.384270 0.750000 0.016095
O O21 0.908521 0.250000 0.376676
#
# Coordination Sequence:
#
# PCOD8076447 Si02
#       8
#     4   4   4   4   4   4   4   4
#     4  11  23  39  60  87 120 157 199 247 300 355
#     4  10  22  40  61  85 117 158 198 240 294 353
#     4  12  23  37  58  84 115 154 200 248 298 352
#     4  10  22  40  60  84 118 158 200 246 295 351
#     4  11  22  37  59  87 119 152 193 244 297 352
#     4  10  21  38  62  91 118 150 191 238 293 353
#     4  12  24  38  58  84 118 156 200 248 298 354
#     4  10  21  38  62  90 121 151 187 239 296 355
#
# _framework density 19.737825999999998
#
# number of rings (size 3 to 8) (size 9 to 14) (size 15 to 20)
#    0.000    1.250    1.250    5.250    0.000    6.500 
#    0.000    0.625    0.000    0.000    0.000    0.000 
#    0.000    0.000    0.000    0.000    0.000    0.000 
#
# Total GULP energy -397002.303135 kJ/mol
# GULP energy per Si atom -12406.321973 kJ/mol
# Density = 1.969290 g / cm^3
# Si number density = 19.737826 Si / 1000 Ang^3
#
#
#
# Elastic Constant Matrix: (Units=GPa)
#
#
# Indices 1 2 3 4 5 6 
#
# 1 102.2141 39.6476 41.9616 0.0000 7.0531 0.0000
# 2 39.6476 118.8212 43.5978 0.0000 7.4762 0.0000
# 3 41.9616 43.5978 107.7785 0.0000 8.6640 0.0000
# 4 0.0000 0.0000 0.0000 34.8784 0.0000 -4.0127
# 5 7.0531 7.4762 8.6640 0.0000 32.2520 0.0000
# 6 0.0000 0.0000 0.0000 -4.0127 0.0000 30.9174
#
#
#
# Elastic Compliance Matrix: (Units=1/GPa)
#
#
# Indices 1 2 3 4 5 6 
#
# 1 0.012415 -0.002739 -0.003637 0.000000 -0.001103 0.000000
# 2 -0.002739 0.010536 -0.003115 0.000000 -0.001007 0.000000
# 3 -0.003637 -0.003115 0.012093 0.000000 -0.001731 0.000000
# 4 0.000000 0.000000 0.000000 0.029106 0.000000 0.003778
# 5 -0.001103 -0.001007 -0.001731 0.000000 0.031946 0.000000
# 6 0.000000 0.000000 0.000000 0.003778 0.000000 0.032835
#
#
# Mechanical properties :
#
#
# Convention : Reuss Voigt Hill
#
# Bulk Modulus (GPa) = 62.25308 64.35863 63.30585
# Shear Modulus (GPa) = 32.62312 33.18333 32.90322
#
# Velocity S-wave (km/s) = 4.06990 4.10470 4.08734
# Velocity P-wave (km/s) = 7.32761 7.42578 7.37686
#
# Compressibility (1/GPa) = 0.01606346
#
# Stress axis : x y z
#
# Youngs Moduli (GPa) = 80.54849 94.91235 82.68936
#
# Poissons Ratio (x) = 0.25993 0.30074
# Poissons Ratio (y) = 0.22059 0.25756
# Poissons Ratio (z) = 0.29296 0.29563
#
# Static dielectric constant tensor:
#      x y z
#    x 3.543690 0.000000 0.187340 
#    y 0.000000 4.161880 0.000000 
#    z 0.187340 0.000000 3.675160 
# 
# 
# High freq. dielectric constant tensor:
#      x y z
#    x 1.763520 0.000000 0.010220 
#    y 0.000000 1.780020 0.000000 
#    z 0.010220 0.000000 1.768870 
# 
# From -- ./inp_files/45194.got.cif
#   From: 2010.06.25/outbox.cif.g09.slc.cpg/sg11_23_cif.got.tgz:45194.got - 2010.06.27 23:14:04.
