data_PCOD8076631
_publ_section_title
;
Structure prediction by ZEFSAII (Michael W. Deem and Ramdas Pophale) SiO2 
 PCOD8076631
Probable space group: P 21/M
;
_chemical_formula_sum "Si O2"
_cell_formula_units_Z 24
_cell_length_a 13.865022
_cell_length_b 15.564658
_cell_length_c 7.976174
_cell_angle_alpha 90.000000
_cell_angle_beta 134.504231
_cell_angle_gamma 90.000000
_cell_volume 1227.623804
_symmetry_space_group_name_H-M "P 21/M"
_symmetry_group_IT_number 11
_symmetry_cell_setting 'monoclinic'
loop_
_space_group_symop_operation_xyz
x,y,z
-x,1/2+y,-z
-x,-y,-z
x,1/2-y,z
loop_
_atom_site_type_symbol
_atom_site_label
_atom_site_fract_x
_atom_site_fract_y
_atom_site_fract_z
Si Si1 0.641515 0.348851 0.038912
Si Si2 0.937834 0.153779 0.321932
Si Si3 0.182019 0.348296 0.871465
Si Si4 0.602874 0.076422 0.625875
Si Si5 0.889538 0.008535 0.003746
Si Si6 0.479619 0.151052 0.154784
O O1 0.603411 0.250000 0.986240
O O2 0.802093 0.362596 0.266411
O O3 0.559563 0.392776 0.094660
O O4 0.597860 0.385662 0.806278
O O5 0.926986 0.250000 0.226576
O O6 0.949954 0.077732 0.205111
O O7 0.072737 0.148996 0.592927
O O8 0.195933 0.250000 0.958135
O O9 0.133381 0.412919 0.954575
O O10 0.326140 0.384776 0.979841
O O11 0.558824 0.141901 0.426877
O O12 0.500000 0.000000 0.500000
O O13 0.751394 0.044299 0.758179
O O14 0.000000 0.000000 0.000000
O O15 0.469072 0.250000 0.100065
#
# Coordination Sequence:
#
# PCOD8076631 Si02
#       6
#     4   4   4   4   4   4
#     4   9  20  38  61  86 111 152 199 245 295 350
#     4   9  20  40  62  84 116 153 201 250 293 352
#     4  10  21  40  60  86 120 155 197 248 299 357
#     4  11  22  39  56  87 123 152 195 245 298 354
#     4  11  24  39  58  89 122 158 199 244 300 357
#     4  10  21  39  63  87 116 156 200 246 303 358
#
# _framework density 19.549963999999999
#
# number of rings (size 3 to 8) (size 9 to 14) (size 15 to 20)
#    0.000    2.000    1.667    1.000    2.333    3.333 
#    0.000    0.000    0.000    0.000    0.000    0.000 
#    0.000    0.000    0.000    0.000    0.000    0.000 
#
# Total GULP energy -297449.947316 kJ/mol
# GULP energy per Si atom -12393.747805 kJ/mol
# Density = 1.950547 g / cm^3
# Si number density = 19.549964 Si / 1000 Ang^3
#
#
#
# Elastic Constant Matrix: (Units=GPa)
#
#
# Indices 1 2 3 4 5 6 
#
# 1 172.8083 58.2431 65.8140 0.0000 1.6521 0.0000
# 2 58.2431 74.8164 27.6879 0.0000 4.2785 0.0000
# 3 65.8140 27.6879 125.5723 0.0000 10.0888 0.0000
# 4 0.0000 0.0000 0.0000 23.7243 0.0000 3.8554
# 5 1.6521 4.2785 10.0888 0.0000 25.7400 0.0000
# 6 0.0000 0.0000 0.0000 3.8554 0.0000 24.3260
#
#
#
# Elastic Compliance Matrix: (Units=1/GPa)
#
#
# Indices 1 2 3 4 5 6 
#
# 1 0.009133 -0.005867 -0.003639 0.000000 0.001815 0.000000
# 2 -0.005867 0.018358 -0.000783 0.000000 -0.002368 0.000000
# 3 -0.003639 -0.000783 0.010340 0.000000 -0.003689 0.000000
# 4 0.000000 0.000000 0.000000 0.043265 0.000000 -0.006857
# 5 0.001815 -0.002368 -0.003689 0.000000 0.040573 0.000000
# 6 0.000000 0.000000 0.000000 -0.006857 0.000000 0.042195
#
#
# Mechanical properties :
#
#
# Convention : Reuss Voigt Hill
#
# Bulk Modulus (GPa) = 57.95772 75.18742 66.57257
# Shear Modulus (GPa) = 26.28932 29.52154 27.90543
#
# Velocity S-wave (km/s) = 3.67103 3.89016 3.78218
# Velocity P-wave (km/s) = 6.90499 7.66292 7.29381
#
# Compressibility (1/GPa) = 0.01725396
#
# Stress axis : x y z
#
# Youngs Moduli (GPa) = 109.49889 54.47136 96.71526
#
# Poissons Ratio (x) = 0.31957 0.35192
# Poissons Ratio (y) = 0.64239 0.07571
# Poissons Ratio (z) = 0.39844 0.04264
#
# Static dielectric constant tensor:
#      x y z
#    x 4.119500 0.000000 -0.047130 
#    y 0.000000 3.810060 0.000000 
#    z -0.047130 0.000000 4.273590 
# 
# 
# High freq. dielectric constant tensor:
#      x y z
#    x 1.759730 0.000000 0.019360 
#    y 0.000000 1.769310 0.000000 
#    z 0.019360 0.000000 1.765200 
# 
# From -- ./inp_files/22303.got.cif
#   From: 2010.06.25/outbox.cif.g09.slc.cpg/sg11_12_cif.got.tgz:22303.got - 2010.06.27 23:14:04.
