data_PCOD8076199
_publ_section_title
;
Structure prediction by ZEFSAII (Michael W. Deem and Ramdas Pophale) SiO2 
 PCOD8076199
Probable space group: P 21/M
;
_chemical_formula_sum "Si O2"
_cell_formula_units_Z 26
_cell_length_a 6.587908
_cell_length_b 27.201763
_cell_length_c 9.077921
_cell_angle_alpha 90.000000
_cell_angle_beta 131.130233
_cell_angle_gamma 90.000000
_cell_volume 1225.323470
_symmetry_space_group_name_H-M "P 21/M"
_symmetry_group_IT_number 11
_symmetry_cell_setting 'monoclinic'
loop_
_space_group_symop_operation_xyz
x,y,z
-x,1/2+y,-z
-x,-y,-z
x,1/2-y,z
loop_
_atom_site_type_symbol
_atom_site_label
_atom_site_fract_x
_atom_site_fract_y
_atom_site_fract_z
Si Si1 0.148497 0.589174 0.774264
Si Si2 0.300324 0.518859 0.623975
Si Si3 0.119423 0.750000 0.048651
Si Si4 0.478654 0.429594 0.547680
Si Si5 0.197909 0.750000 0.391671
Si Si6 0.991023 0.830540 0.493375
Si Si7 0.585561 0.353732 0.833928
Si Si8 0.204928 0.250000 0.385867
O O1 0.343403 0.545393 0.804211
O O2 0.834314 0.575538 0.653252
O O3 0.165066 0.625685 0.642261
O O4 0.270771 0.611416 0.979798
O O5 0.495129 0.472601 0.681811
O O6 0.336694 0.556866 0.503993
O O7 0.000000 0.500000 0.500000
O O8 0.993604 0.750000 0.154200
O O9 0.292669 0.799328 0.105535
O O10 0.866019 0.750000 0.819943
O O11 0.600278 0.380060 0.679567
O O12 0.478622 0.750000 0.441349
O O13 0.176941 0.799015 0.475528
O O14 0.730899 0.849104 0.277992
O O15 0.905340 0.798751 0.593004
#
# Coordination Sequence:
#
# PCOD8076199 Si02
#       8
#     4   4   2   4   2   4   4   2
#     4  10  21  37  62  92 123 162 203 254 312 372
#     4   9  19  41  66  91 124 162 204 256 318 372
#     4  12  23  38  61  89 122 166 209 251 308 363
#     4   9  21  41  65  91 125 163 204 258 314 368
#     4  11  24  39  61  85 116 169 214 254 308 367
#     4  10  22  40  59  84 120 164 204 258 309 364
#     4  11  22  41  63  89 129 164 207 261 304 369
#     4  11  21  41  58  76 122 161 207 257 308 360
#
# _framework density 21.218885
#
# number of rings (size 3 to 8) (size 9 to 14) (size 15 to 20)
#    0.000    1.846    3.077    0.462    2.154    1.846 
#    2.769    6.923    0.000    0.000    0.000    0.000 
#    0.000    0.000    0.000    0.000    0.000    0.000 
#
# Total GULP energy -322126.599397 kJ/mol
# GULP energy per Si atom -12389.484592 kJ/mol
# Density = 2.117059 g / cm^3
# Si number density = 21.218885 Si / 1000 Ang^3
#
#
#
# Elastic Constant Matrix: (Units=GPa)
#
#
# Indices 1 2 3 4 5 6 
#
# 1 83.3208 22.2930 18.2027 0.0000 -18.6225 0.0000
# 2 22.2930 85.4779 20.5701 0.0000 -3.8195 0.0000
# 3 18.2027 20.5701 86.7205 0.0000 -4.7384 0.0000
# 4 0.0000 0.0000 0.0000 28.9876 0.0000 7.4048
# 5 -18.6225 -3.8195 -4.7384 0.0000 20.4608 0.0000
# 6 0.0000 0.0000 0.0000 7.4048 0.0000 -15.8155
#
#
#
# Elastic Compliance Matrix: (Units=1/GPa)
#
#
# Indices 1 2 3 4 5 6 
#
# 1 0.016373 -0.003188 -0.001923 0.000000 0.013862 0.000000
# 2 -0.003188 0.013083 -0.002491 0.000000 -0.001036 0.000000
# 3 -0.001923 -0.002491 0.012564 0.000000 0.000694 0.000000
# 4 0.000000 0.000000 0.000000 0.030812 0.000000 0.014426
# 5 0.013862 -0.001036 0.000694 0.000000 0.061457 0.000000
# 6 0.000000 0.000000 0.000000 0.014426 0.000000 -0.056475
#
#
# Mechanical properties :
#
#
# Convention : Reuss Voigt Hill
#
# Bulk Modulus (GPa) = 37.29072 41.96120 39.62596
# Shear Modulus (GPa) = 49.03991 19.69015 34.36503
#
# Velocity S-wave (km/s) = 4.81265 3.04954 4.02873
# Velocity P-wave (km/s) = 6.96381 5.67608 6.35266
#
# Compressibility (1/GPa) = 0.02681633
#
# Stress axis : x y z
#
# Youngs Moduli (GPa) = 61.07615 76.43217 79.59418
#
# Poissons Ratio (x) = 0.24366 0.15307
# Poissons Ratio (y) = 0.19471 0.19826
# Poissons Ratio (z) = 0.11746 0.19038
#
# Static dielectric constant tensor:
#      x y z
#    x 3.698190 0.000000 -0.186320 
#    y 0.000000 4.367650 0.000000 
#    z -0.186320 0.000000 3.700850 
# 
# 
# High freq. dielectric constant tensor:
#      x y z
#    x 1.817510 0.000000 -0.015770 
#    y 0.000000 1.858510 0.000000 
#    z -0.015770 0.000000 1.812750 
# 
# From -- ./inp_files/10780.got.cif
#   From: 2010.06.25/outbox.cif.g09.slc.cpg/sg11_6_cif.got.tgz:10780.got - 2010.06.27 23:14:04.
