data_PCOD8076219
_publ_section_title
;
Structure prediction by ZEFSAII (Michael W. Deem and Ramdas Pophale) SiO2 
 PCOD8076219
Probable space group: P 21/M
;
_chemical_formula_sum "Si O2"
_cell_formula_units_Z 32
_cell_length_a 9.243798
_cell_length_b 21.820469
_cell_length_c 11.351479
_cell_angle_alpha 90.000000
_cell_angle_beta 136.819270
_cell_angle_gamma 90.000000
_cell_volume 1566.804179
_symmetry_space_group_name_H-M "P 21/M"
_symmetry_group_IT_number 11
_symmetry_cell_setting 'monoclinic'
loop_
_space_group_symop_operation_xyz
x,y,z
-x,1/2+y,-z
-x,-y,-z
x,1/2-y,z
loop_
_atom_site_type_symbol
_atom_site_label
_atom_site_fract_x
_atom_site_fract_y
_atom_site_fract_z
Si Si1 0.156058 0.589118 0.124966
Si Si2 0.409732 0.385981 0.703494
Si Si3 0.925348 0.820189 0.652450
Si Si4 0.461057 0.398090 0.161178
Si Si5 0.216760 0.505789 0.691407
Si Si6 0.810380 0.679313 0.849524
Si Si7 0.118170 0.005625 0.904675
Si Si8 0.413296 0.678760 0.972639
O O1 0.405870 0.603221 0.284045
O O2 0.097221 0.545013 0.201189
O O3 0.105009 0.557244 0.968900
O O4 0.012571 0.650392 0.037861
O O5 0.196423 0.362755 0.513917
O O6 0.365934 0.448030 0.750516
O O7 0.506341 0.335549 0.848722
O O8 0.908099 0.750000 0.599467
O O9 0.816740 0.828564 0.713791
O O10 0.169149 0.840294 0.807825
O O11 0.689162 0.430365 0.302173
O O12 0.408185 0.353414 0.239035
O O13 0.439590 0.358448 0.029737
O O14 0.300370 0.453851 0.068949
O O15 0.172359 0.510051 0.803474
O O16 0.000000 0.500000 0.500000
O O17 0.806393 0.750000 0.883995
O O18 0.443866 0.750000 0.966806
#
# Coordination Sequence:
#
# PCOD8076219 Si02
#       8
#     4   4   4   4   4   4   4   4
#     4  10  21  37  65  87 121 160 205 254 308 371
#     4  12  22  39  62  94 123 166 211 256 312 375
#     4  10  23  40  60  90 125 160 208 265 310 370
#     4  11  21  40  62  88 123 162 205 256 316 372
#     4  12  25  38  59  90 130 166 206 258 312 374
#     4  10  22  40  63  90 121 160 205 255 314 374
#     4  10  21  40  59  90 122 160 203 254 309 367
#     4  11  22  39  65  90 121 166 210 259 315 372
#
# _framework density 20.423739000000001
#
# number of rings (size 3 to 8) (size 9 to 14) (size 15 to 20)
#    0.000    1.250    3.750    2.625    1.750    1.500 
#    0.000    1.250    0.000    0.000    0.000    0.000 
#    0.000    0.000    0.000    0.000    0.000    0.000 
#
# Total GULP energy -396749.947704 kJ/mol
# GULP energy per Si atom -12398.435866 kJ/mol
# Density = 2.037725 g / cm^3
# Si number density = 20.423739 Si / 1000 Ang^3
#
#
#
# Elastic Constant Matrix: (Units=GPa)
#
#
# Indices 1 2 3 4 5 6 
#
# 1 106.6114 40.8547 14.9436 0.0000 0.1042 0.0000
# 2 40.8547 109.8945 24.7433 0.0000 0.4948 0.0000
# 3 14.9436 24.7433 65.0471 0.0000 9.5330 0.0000
# 4 0.0000 0.0000 0.0000 25.0300 0.0000 -0.0927
# 5 0.1042 0.4948 9.5330 0.0000 20.8588 0.0000
# 6 0.0000 0.0000 0.0000 -0.0927 0.0000 40.2149
#
#
#
# Elastic Compliance Matrix: (Units=1/GPa)
#
#
# Indices 1 2 3 4 5 6 
#
# 1 0.011011 -0.003836 -0.001153 0.000000 0.000563 0.000000
# 2 -0.003836 0.011339 -0.003639 0.000000 0.001413 0.000000
# 3 -0.001153 -0.003639 0.018230 0.000000 -0.008239 0.000000
# 4 0.000000 0.000000 0.000000 0.039952 0.000000 0.000092
# 5 0.000563 0.001413 -0.008239 0.000000 0.051671 0.000000
# 6 0.000000 0.000000 0.000000 0.000092 0.000000 0.024867
#
#
# Mechanical properties :
#
#
# Convention : Reuss Voigt Hill
#
# Bulk Modulus (GPa) = 42.87498 49.18180 46.02839
# Shear Modulus (GPa) = 27.45735 30.62151 29.03943
#
# Velocity S-wave (km/s) = 3.67056 3.87629 3.77483
# Velocity P-wave (km/s) = 6.24518 6.64584 6.44862
#
# Compressibility (1/GPa) = 0.02332362
#
# Stress axis : x y z
#
# Youngs Moduli (GPa) = 90.81762 88.19228 54.85450
#
# Poissons Ratio (x) = 0.33835 0.06323
# Poissons Ratio (y) = 0.34842 0.19961
# Poissons Ratio (z) = 0.10469 0.32093
#
# Static dielectric constant tensor:
#      x y z
#    x 3.957920 0.000000 0.241110 
#    y 0.000000 4.024810 0.000000 
#    z 0.241110 0.000000 3.221910 
# 
# 
# High freq. dielectric constant tensor:
#      x y z
#    x 1.816200 0.000000 0.009290 
#    y 0.000000 1.816400 0.000000 
#    z 0.009290 0.000000 1.758800 
# 
# From -- ./inp_files/33008.got.cif
#   From: 2010.06.25/outbox.cif.g09.slc.cpg/sg11_17_cif.got.tgz:33008.got - 2010.06.27 23:14:04.
