data_PCOD8076677
_publ_section_title
;
Structure prediction by ZEFSAII (Michael W. Deem and Ramdas Pophale) SiO2 
 PCOD8076677
Probable space group: P 21/M
;
_chemical_formula_sum "Si O2"
_cell_formula_units_Z 28
_cell_length_a 12.293175
_cell_length_b 14.336048
_cell_length_c 8.894444
_cell_angle_alpha 90.000000
_cell_angle_beta 116.837495
_cell_angle_gamma 90.000000
_cell_volume 1398.680815
_symmetry_space_group_name_H-M "P 21/M"
_symmetry_group_IT_number 11
_symmetry_cell_setting 'monoclinic'
loop_
_space_group_symop_operation_xyz
x,y,z
-x,1/2+y,-z
-x,-y,-z
x,1/2-y,z
loop_
_atom_site_type_symbol
_atom_site_label
_atom_site_fract_x
_atom_site_fract_y
_atom_site_fract_z
Si Si1 0.960046 0.945788 0.122420
Si Si2 0.202728 0.948762 0.759296
Si Si3 0.723764 0.644467 0.862718
Si Si4 0.404992 0.417034 0.926352
Si Si5 0.181826 0.639264 0.433107
Si Si6 0.378746 0.648527 0.092784
Si Si7 0.635802 0.020271 0.633304
O O1 0.070727 0.885133 0.254975
O O2 0.913948 0.022167 0.214249
O O3 0.855560 0.872251 0.016756
O O4 0.000000 0.000000 0.000000
O O5 0.151663 0.897431 0.580752
O O6 0.281492 0.042900 0.771998
O O7 0.289480 0.876248 0.900000
O O8 0.713641 0.750000 0.798306
O O9 0.703771 0.578120 0.704958
O O10 0.622119 0.626774 0.927476
O O11 0.478198 0.344134 0.867745
O O12 0.500000 0.500000 0.000000
O O13 0.206078 0.750000 0.447998
O O14 0.301745 0.583765 0.454047
O O15 0.342276 0.750000 0.133101
O O16 0.357649 0.571807 0.204445
O O17 0.500000 0.000000 0.500000
#
# Coordination Sequence:
#
# PCOD8076677 Si02
#       7
#     4   4   4   4   4   4   4
#     4  11  21  44  70  90 126 172 212 268 326 377
#     4  10  21  39  64  92 127 165 210 259 327 379
#     4  11  22  40  65  91 122 168 216 261 319 385
#     4   9  17  35  59  89 121 161 199 253 313 373
#     4  12  25  41  65  99 131 168 216 268 320 384
#     4  11  20  37  62  91 124 167 213 255 313 386
#     4  12  25  42  61  91 133 171 210 267 323 374
#
# _framework density 20.018864000000001
#
# number of rings (size 3 to 8) (size 9 to 14) (size 15 to 20)
#    0.000    1.143    5.714    3.000    2.000    1.143 
#    0.000    2.143    0.000    0.857    0.000    0.000 
#    0.000    0.000    0.000    0.000    0.000    0.000 
#
# Total GULP energy -347158.854204 kJ/mol
# GULP energy per Si atom -12398.530507 kJ/mol
# Density = 1.997330 g / cm^3
# Si number density = 20.018864 Si / 1000 Ang^3
#
#
#
# Elastic Constant Matrix: (Units=GPa)
#
#
# Indices 1 2 3 4 5 6 
#
# 1 105.8287 41.2544 23.8746 0.0000 -4.1982 0.0000
# 2 41.2544 152.0018 46.7772 0.0000 -4.8946 0.0000
# 3 23.8746 46.7772 98.4172 0.0000 2.6744 0.0000
# 4 0.0000 0.0000 0.0000 20.7274 0.0000 0.2623
# 5 -4.1982 -4.8946 2.6744 0.0000 35.0369 0.0000
# 6 0.0000 0.0000 0.0000 0.2623 0.0000 20.8543
#
#
#
# Elastic Compliance Matrix: (Units=1/GPa)
#
#
# Indices 1 2 3 4 5 6 
#
# 1 0.010775 -0.002433 -0.001487 0.000000 0.001065 0.000000
# 2 -0.002433 0.008320 -0.003395 0.000000 0.001130 0.000000
# 3 -0.001487 -0.003395 0.012178 0.000000 -0.001582 0.000000
# 4 0.000000 0.000000 0.000000 0.048253 0.000000 -0.000607
# 5 0.001065 0.001130 -0.001582 0.000000 0.028948 0.000000
# 6 0.000000 0.000000 0.000000 -0.000607 0.000000 0.047959
#
#
# Mechanical properties :
#
#
# Convention : Reuss Voigt Hill
#
# Bulk Modulus (GPa) = 60.07909 64.45114 62.26512
# Shear Modulus (GPa) = 28.31084 31.61314 29.96199
#
# Velocity S-wave (km/s) = 3.76468 3.97819 3.87290
# Velocity P-wave (km/s) = 6.99810 7.30523 7.15331
#
# Compressibility (1/GPa) = 0.01664473
#
# Stress axis : x y z
#
# Youngs Moduli (GPa) = 92.80606 120.18728 82.11419
#
# Poissons Ratio (x) = 0.29238 0.12207
# Poissons Ratio (y) = 0.22577 0.27879
# Poissons Ratio (z) = 0.13796 0.40806
#
# Static dielectric constant tensor:
#      x y z
#    x 4.174820 0.000000 -0.150520 
#    y 0.000000 3.768530 0.000000 
#    z -0.150520 0.000000 3.231840 
# 
# 
# High freq. dielectric constant tensor:
#      x y z
#    x 1.788720 0.000000 0.001130 
#    y 0.000000 1.781550 0.000000 
#    z 0.001130 0.000000 1.768790 
# 
# From -- ./inp_files/18152.got.cif
#   From: 2010.06.25/outbox.cif.g09.slc.cpg/sg11_10_cif.got.tgz:18152.got - 2010.06.27 23:14:04.
