data_PCOD8076406
_publ_section_title
;
Structure prediction by ZEFSAII (Michael W. Deem and Ramdas Pophale) SiO2 
 PCOD8076406
Probable space group: P 21/M
;
_chemical_formula_sum "Si O2"
_cell_formula_units_Z 20
_cell_length_a 5.037786
_cell_length_b 17.091042
_cell_length_c 10.307192
_cell_angle_alpha 90.000000
_cell_angle_beta 103.128981
_cell_angle_gamma 90.000000
_cell_volume 864.262532
_symmetry_space_group_name_H-M "P 21/M"
_symmetry_group_IT_number 11
_symmetry_cell_setting 'monoclinic'
loop_
_space_group_symop_operation_xyz
x,y,z
-x,1/2+y,-z
-x,-y,-z
x,1/2-y,z
loop_
_atom_site_type_symbol
_atom_site_label
_atom_site_fract_x
_atom_site_fract_y
_atom_site_fract_z
Si Si1 0.929030 0.660785 0.298773
Si Si2 0.515791 0.660724 0.471581
Si Si3 0.840652 0.056087 0.886863
Si Si4 0.359203 0.093371 0.247278
Si Si5 0.213675 0.841136 0.895128
O O1 0.909597 0.750000 0.245854
O O2 0.194370 0.650280 0.418345
O O3 0.945520 0.603318 0.178186
O O4 0.664214 0.637759 0.353386
O O5 0.590993 0.750000 0.517005
O O6 0.622947 0.604773 0.596754
O O7 0.648574 0.000361 0.778255
O O8 0.675583 0.117297 0.960022
O O9 0.000000 0.000000 0.000000
O O10 0.629141 0.128150 0.212809
O O11 0.103375 0.139394 0.159350
O O12 0.260614 0.750000 0.918161
#
# Coordination Sequence:
#
# PCOD8076406 Si02
#       5
#     4   4   4   4   4
#     4  10  22  40  63  89 120 159 201 245 296 358
#     4  10  21  38  61  89 119 155 202 250 297 355
#     4  10  24  42  61  89 125 160 201 249 300 355
#     4  11  23  39  62  92 123 155 199 252 305 354
#     4  11  22  39  63  88 120 162 204 247 297 357
#
# _framework density 23.141120000000001
#
# number of rings (size 3 to 8) (size 9 to 14) (size 15 to 20)
#    0.000    1.600    0.000    4.200    0.000    9.600 
#    0.000    6.000    0.000    0.000    0.000    0.000 
#    0.000    0.000    0.000    0.000    0.000    0.000 
#
# Total GULP energy -248072.343300 kJ/mol
# GULP energy per Si atom -12403.617165 kJ/mol
# Density = 2.308845 g / cm^3
# Si number density = 23.141120 Si / 1000 Ang^3
#
#
#
# Elastic Constant Matrix: (Units=GPa)
#
#
# Indices 1 2 3 4 5 6 
#
# 1 44.5977 -19.0685 -20.1048 0.0000 -19.2892 0.0000
# 2 -19.0685 86.9791 22.6863 0.0000 -19.8125 0.0000
# 3 -20.1048 22.6863 86.4171 0.0000 -26.6581 0.0000
# 4 0.0000 0.0000 0.0000 52.3326 0.0000 -11.0722
# 5 -19.2892 -19.8125 -26.6581 0.0000 29.2937 0.0000
# 6 0.0000 0.0000 0.0000 -11.0722 0.0000 18.9185
#
#
#
# Elastic Compliance Matrix: (Units=1/GPa)
#
#
# Indices 1 2 3 4 5 6 
#
# 1 -0.379190 -0.151682 -0.218371 0.000000 -0.550999 0.000000
# 2 -0.151682 -0.047020 -0.088375 0.000000 -0.212104 0.000000
# 3 -0.218371 -0.088375 -0.109593 0.000000 -0.303296 0.000000
# 4 0.000000 0.000000 0.000000 0.021809 0.000000 0.012764
# 5 -0.550999 -0.212104 -0.303296 0.000000 -0.748143 0.000000
# 6 0.000000 0.000000 0.000000 0.012764 0.000000 0.060328
#
#
# Mechanical properties :
#
#
# Convention : Reuss Voigt Hill
#
# Bulk Modulus (GPa) = -0.68839 20.55775 9.93468
# Shear Modulus (GPa) = -6.50051 35.74104 14.62026
#
# Velocity S-wave (km/s) = -1.67785 3.93425 2.51626
# Velocity P-wave (km/s) = 2.01288 5.43514 3.56995
#
# Compressibility (1/GPa) = -1.45266012
#
# Stress axis : x y z
#
# Youngs Moduli (GPa) = -2.63720 -21.26751 -9.12470
#
# Poissons Ratio (x) = -3.22591 -1.99257
# Poissons Ratio (y) = -0.40002 -0.80640
# Poissons Ratio (z) = -0.57589 -1.87952
#
# Static dielectric constant tensor:
#      x y z
#    x 4.009040 0.000000 -0.159860 
#    y 0.000000 4.624690 0.000000 
#    z -0.159860 0.000000 4.157480 
# 
# 
# High freq. dielectric constant tensor:
#      x y z
#    x 1.909570 0.000000 -0.010530 
#    y 0.000000 1.925360 0.000000 
#    z -0.010530 0.000000 1.915890 
# 
# From -- ./inp_files/1891.got.cif
#   From: 2010.06.25/outbox.cif.g09.slc.cpg/sg11_1_cif.got.tgz:1891.got - 2010.06.27 23:14:04.
