data_PCOD8076119
_publ_section_title
;
Structure prediction by ZEFSAII (Michael W. Deem and Ramdas Pophale) SiO2 
 PCOD8076119
Probable space group: P 21/M
;
_chemical_formula_sum "Si O2"
_cell_formula_units_Z 28
_cell_length_a 15.580436
_cell_length_b 8.667881
_cell_length_c 21.056397
_cell_angle_alpha 90.000000
_cell_angle_beta 28.870223
_cell_angle_gamma 90.000000
_cell_volume 1372.993418
_symmetry_space_group_name_H-M "P 21/M"
_symmetry_group_IT_number 11
_symmetry_cell_setting 'monoclinic'
loop_
_space_group_symop_operation_xyz
x,y,z
-x,1/2+y,-z
-x,-y,-z
x,1/2-y,z
loop_
_atom_site_type_symbol
_atom_site_label
_atom_site_fract_x
_atom_site_fract_y
_atom_site_fract_z
Si Si1 0.310587 0.075083 0.904869
Si Si2 0.408586 0.429051 0.360282
Si Si3 0.578479 0.423467 0.043495
Si Si4 0.560727 0.068192 0.394162
Si Si5 0.935563 0.072646 0.106250
Si Si6 0.938107 0.432655 0.472473
Si Si7 0.754851 0.426720 0.800793
O O1 0.352121 0.250000 0.857456
O O2 0.399210 0.963212 0.795289
O O3 0.388639 0.045704 0.923338
O O4 0.099280 0.046737 0.048378
O O5 0.360944 0.250000 0.383172
O O6 0.423723 0.473067 0.425425
O O7 0.264719 0.528233 0.414296
O O8 0.572665 0.250000 0.074911
O O9 0.387323 0.461049 0.138768
O O10 0.733019 0.437371 0.890746
O O11 0.573433 0.250000 0.394461
O O12 0.755768 0.997689 0.251133
O O13 0.500000 0.000000 0.500000
O O14 0.895039 0.250000 0.118940
O O15 0.000000 0.000000 0.000000
O O16 0.963199 0.250000 0.457976
O O17 0.000000 0.500000 0.500000
O O18 0.052478 0.510145 0.342455
O O19 0.730298 0.250000 0.793566
#
# Coordination Sequence:
#
# PCOD8076119 Si02
#       7
#     4   4   4   4   4   4   4
#     4  11  22  36  60  91 121 154 201 253 304 361
#     4  11  23  41  63  88 123 162 206 256 308 370
#     4  10  21  37  59  86 118 157 198 244 301 360
#     4  10  23  42  64  92 127 166 208 258 315 374
#     4  10  21  39  62  89 119 155 200 249 302 358
#     4  12  25  41  62  88 121 160 204 251 306 367
#     4  10  21  39  60  84 118 155 199 248 300 358
#
# _framework density 20.393397
#
# number of rings (size 3 to 8) (size 9 to 14) (size 15 to 20)
#    0.000    1.429    1.429    3.857    0.000    5.143 
#    0.000    2.857    0.000    0.000    0.000    0.000 
#    0.000    0.000    0.000    0.000    0.000    0.000 
#
# Total GULP energy -347202.504022 kJ/mol
# GULP energy per Si atom -12400.089429 kJ/mol
# Density = 2.034698 g / cm^3
# Si number density = 20.393397 Si / 1000 Ang^3
#
#
#
# Elastic Constant Matrix: (Units=GPa)
#
#
# Indices 1 2 3 4 5 6 
#
# 1 111.8600 32.7877 42.5267 0.0000 9.4811 0.0000
# 2 32.7877 71.9175 32.7792 0.0000 5.4052 0.0000
# 3 42.5267 32.7792 123.3794 0.0000 6.1954 0.0000
# 4 0.0000 0.0000 0.0000 33.8442 0.0000 1.7800
# 5 9.4811 5.4052 6.1954 0.0000 27.4357 0.0000
# 6 0.0000 0.0000 0.0000 1.7800 0.0000 30.7623
#
#
#
# Elastic Compliance Matrix: (Units=1/GPa)
#
#
# Indices 1 2 3 4 5 6 
#
# 1 0.011296 -0.003689 -0.002786 0.000000 -0.002548 0.000000
# 2 -0.003689 0.017157 -0.003217 0.000000 -0.001379 0.000000
# 3 -0.002786 -0.003217 0.009953 0.000000 -0.000651 0.000000
# 4 0.000000 0.000000 0.000000 0.029637 0.000000 -0.001715
# 5 -0.002548 -0.001379 -0.000651 0.000000 0.037748 0.000000
# 6 0.000000 0.000000 0.000000 -0.001715 0.000000 0.032607
#
#
# Mechanical properties :
#
#
# Convention : Reuss Voigt Hill
#
# Bulk Modulus (GPa) = 52.57144 58.14935 55.36040
# Shear Modulus (GPa) = 30.46528 31.67933 31.07230
#
# Velocity S-wave (km/s) = 3.86927 3.94561 3.90762
# Velocity P-wave (km/s) = 6.76729 7.02373 6.89671
#
# Compressibility (1/GPa) = 0.01902173
#
# Stress axis : x y z
#
# Youngs Moduli (GPa) = 88.52742 58.28631 100.47520
#
# Poissons Ratio (x) = 0.21501 0.27988
# Poissons Ratio (y) = 0.32656 0.32328
# Poissons Ratio (z) = 0.24660 0.18753
#
# Static dielectric constant tensor:
#      x y z
#    x 4.088450 0.000000 -0.310700 
#    y 0.000000 3.632400 0.000000 
#    z -0.310700 0.000000 4.173860 
# 
# 
# High freq. dielectric constant tensor:
#      x y z
#    x 1.796560 0.000000 -0.001480 
#    y 0.000000 1.800250 0.000000 
#    z -0.001480 0.000000 1.801370 
# 
# From -- ./inp_files/65344.got.cif
#   From: 2010.06.25/outbox.cif.g09.slc.cpg/sg11_33_cif.got.tgz:65344.got - 2010.06.27 23:14:04.
