data_PCOD8076886
_publ_section_title
;
Structure prediction by ZEFSAII (Michael W. Deem and Ramdas Pophale) SiO2 
 PCOD8076886
Probable space group: P 21/M
;
_chemical_formula_sum "Si O2"
_cell_formula_units_Z 26
_cell_length_a 7.473870
_cell_length_b 15.574680
_cell_length_c 15.466908
_cell_angle_alpha 90.000000
_cell_angle_beta 42.114299
_cell_angle_gamma 90.000000
_cell_volume 1207.367121
_symmetry_space_group_name_H-M "P 21/M"
_symmetry_group_IT_number 11
_symmetry_cell_setting 'monoclinic'
loop_
_space_group_symop_operation_xyz
x,y,z
-x,1/2+y,-z
-x,-y,-z
x,1/2-y,z
loop_
_atom_site_type_symbol
_atom_site_label
_atom_site_fract_x
_atom_site_fract_y
_atom_site_fract_z
Si Si1 0.666058 0.090129 0.539800
Si Si2 0.036417 0.250000 0.374958
Si Si3 0.046911 0.750000 0.785471
Si Si4 0.194825 0.414773 0.576873
Si Si5 0.749982 0.901423 0.974686
Si Si6 0.284235 0.150897 0.819966
Si Si7 0.834311 0.085661 0.868354
Si Si8 0.329880 0.250000 0.432325
O O1 0.875671 0.165120 0.455418
O O2 0.470034 0.095279 0.528941
O O3 0.510487 0.100622 0.685545
O O4 0.808941 0.997445 0.484814
O O5 0.115271 0.250000 0.246323
O O6 0.303739 0.250000 0.337388
O O7 0.360943 0.750000 0.653117
O O8 0.971867 0.833938 0.865912
O O9 0.168171 0.331276 0.527054
O O10 0.948097 0.421473 0.730806
O O11 0.848130 0.993846 0.909524
O O12 0.736112 0.899201 0.082945
O O13 0.465986 0.878995 0.032420
O O14 0.364176 0.250000 0.806167
O O15 0.006650 0.149591 0.865997
#
# Coordination Sequence:
#
# PCOD8076886 Si02
#       8
#     4   2   2   4   4   4   4   2
#     4  10  21  41  69  99 140 175 217 278 343 393
#     4  12  24  43  65 101 137 174 224 277 338 406
#     4  12  26  46  66  92 144 176 218 278 340 402
#     4  10  22  44  71 100 136 178 222 280 343 396
#     4  11  25  47  67  94 137 180 222 274 332 397
#     4  11  23  40  69 102 133 176 224 272 330 401
#     4  10  25  43  69 100 130 176 229 274 327 401
#     4  12  28  41  69 105 133 174 230 279 346 408
#
# _framework density 21.534462000000001
#
# number of rings (size 3 to 8) (size 9 to 14) (size 15 to 20)
#    0.000    1.231    3.077    1.385   10.769    1.846 
#    5.538    0.000    0.000    0.000    0.000    0.000 
#    0.000    0.000    0.000    0.000    0.000    0.000 
#
# Total GULP energy -322506.276502 kJ/mol
# GULP energy per Si atom -12404.087558 kJ/mol
# Density = 2.148545 g / cm^3
# Si number density = 21.534462 Si / 1000 Ang^3
#
#
#
# Elastic Constant Matrix: (Units=GPa)
#
#
# Indices 1 2 3 4 5 6 
#
# 1 47.4451 17.3346 26.5791 0.0000 16.7705 0.0000
# 2 17.3346 139.1949 52.0508 0.0000 4.6269 0.0000
# 3 26.5791 52.0508 109.8982 0.0000 20.5389 0.0000
# 4 0.0000 0.0000 0.0000 6.4838 0.0000 14.8725
# 5 16.7705 4.6269 20.5389 0.0000 36.3097 0.0000
# 6 0.0000 0.0000 0.0000 14.8725 0.0000 60.4590
#
#
#
# Elastic Compliance Matrix: (Units=1/GPa)
#
#
# Indices 1 2 3 4 5 6 
#
# 1 0.027515 -0.001597 -0.003982 0.000000 -0.010253 0.000000
# 2 -0.001597 0.008885 -0.004191 0.000000 0.001976 0.000000
# 3 -0.003982 -0.004191 0.012976 0.000000 -0.004966 0.000000
# 4 0.000000 0.000000 0.000000 0.353953 0.000000 -0.087070
# 5 -0.010253 0.001976 -0.004966 0.000000 0.034834 0.000000
# 6 0.000000 0.000000 0.000000 -0.087070 0.000000 0.037959
#
#
# Mechanical properties :
#
#
# Convention : Reuss Voigt Hill
#
# Bulk Modulus (GPa) = 33.51736 54.27415 43.89575
# Shear Modulus (GPa) = 9.88913 34.02208 21.95560
#
# Velocity S-wave (km/s) = 2.14527 3.97909 3.19651
# Velocity P-wave (km/s) = 4.66204 6.80948 5.83539
#
# Compressibility (1/GPa) = 0.02983529
#
# Stress axis : x y z
#
# Youngs Moduli (GPa) = 36.34347 112.55480 77.06738
#
# Poissons Ratio (x) = 0.17971 0.30691
# Poissons Ratio (y) = 0.05803 0.32300
# Poissons Ratio (z) = 0.14473 0.47173
#
# Static dielectric constant tensor:
#      x y z
#    x 3.846360 0.000000 0.094490 
#    y 0.000000 4.024030 0.000000 
#    z 0.094490 0.000000 3.904910 
# 
# 
# High freq. dielectric constant tensor:
#      x y z
#    x 1.845200 0.000000 0.008810 
#    y 0.000000 1.853910 0.000000 
#    z 0.008810 0.000000 1.848240 
# 
# From -- ./inp_files/47764.got.cif
#   From: 2010.06.25/outbox.cif.g09.slc.cpg/sg11_24_cif.got.tgz:47764.got - 2010.06.27 23:14:04.
