data_PCOD8076779
_publ_section_title
;
Structure prediction by ZEFSAII (Michael W. Deem and Ramdas Pophale) SiO2 
 PCOD8076779
Probable space group: P 21/M
;
_chemical_formula_sum "Si O2"
_cell_formula_units_Z 28
_cell_length_a 9.842383
_cell_length_b 8.585818
_cell_length_c 25.923111
_cell_angle_alpha 90.000000
_cell_angle_beta 140.739059
_cell_angle_gamma 90.000000
_cell_volume 1386.347277
_symmetry_space_group_name_H-M "P 21/M"
_symmetry_group_IT_number 11
_symmetry_cell_setting 'monoclinic'
loop_
_space_group_symop_operation_xyz
x,y,z
-x,1/2+y,-z
-x,-y,-z
x,1/2-y,z
loop_
_atom_site_type_symbol
_atom_site_label
_atom_site_fract_x
_atom_site_fract_y
_atom_site_fract_z
Si Si1 0.002199 0.571022 0.256095
Si Si2 0.560551 0.431603 0.144820
Si Si3 0.318375 0.933284 0.983857
Si Si4 0.869441 0.428402 0.819327
Si Si5 0.736569 0.434176 0.568366
Si Si6 0.451748 0.931161 0.741003
Si Si7 0.956174 0.567032 0.431234
O O1 0.930316 0.750000 0.243627
O O2 0.792577 0.464900 0.188427
O O3 0.142071 0.553652 0.245748
O O4 0.142444 0.507938 0.344801
O O5 0.505948 0.250000 0.123905
O O6 0.560114 0.489113 0.203613
O O7 0.381739 0.529311 0.061475
O O8 0.294387 0.750000 0.968163
O O9 0.097017 0.018441 0.907660
O O10 0.500000 0.000000 0.000000
O O11 0.829320 0.250000 0.823844
O O12 0.688544 0.538035 0.789739
O O13 0.500000 0.500000 0.500000
O O14 0.723473 0.250000 0.563469
O O15 0.867031 0.498535 0.557173
O O16 0.396698 0.750000 0.720713
O O17 0.281602 0.024608 0.657017
O O18 0.975485 0.750000 0.440337
O O19 0.000000 0.500000 0.500000
#
# Coordination Sequence:
#
# PCOD8076779 Si02
#       7
#     4   4   4   4   4   4   4
#     4  10  21  40  64  91 124 164 211 261 313 374
#     4  11  23  40  66  94 124 168 213 259 315 376
#     4  12  24  40  64  95 130 166 209 264 317 376
#     4  11  24  41  65  96 128 168 212 262 317 374
#     4  10  23  41  63  94 127 162 208 257 313 370
#     4  11  25  44  65  94 129 168 214 261 315 381
#     4  11  24  43  66  93 127 169 211 260 319 380
#
# _framework density 20.196961000000002
#
# number of rings (size 3 to 8) (size 9 to 14) (size 15 to 20)
#    0.000    1.143    2.857    3.000    2.000    4.571 
#    0.000    0.000    0.000    0.000    0.000    0.000 
#    0.000    0.000    0.000    0.000    0.000    0.000 
#
# Total GULP energy -347375.498864 kJ/mol
# GULP energy per Si atom -12406.267817 kJ/mol
# Density = 2.015099 g / cm^3
# Si number density = 20.196961 Si / 1000 Ang^3
#
#
#
# Elastic Constant Matrix: (Units=GPa)
#
#
# Indices 1 2 3 4 5 6 
#
# 1 93.9865 19.2627 44.4488 0.0000 0.5073 0.0000
# 2 19.2627 51.3505 13.8007 0.0000 -10.6011 0.0000
# 3 44.4488 13.8007 123.8544 0.0000 -7.9921 0.0000
# 4 0.0000 0.0000 0.0000 37.7479 0.0000 3.4778
# 5 0.5073 -10.6011 -7.9921 0.0000 42.3244 0.0000
# 6 0.0000 0.0000 0.0000 3.4778 0.0000 31.6216
#
#
#
# Elastic Compliance Matrix: (Units=1/GPa)
#
#
# Indices 1 2 3 4 5 6 
#
# 1 0.013704 -0.004349 -0.004570 0.000000 -0.002117 0.000000
# 2 -0.004349 0.022408 -0.000577 0.000000 0.005556 0.000000
# 3 -0.004570 -0.000577 0.009893 0.000000 0.001778 0.000000
# 4 0.000000 0.000000 0.000000 0.026763 0.000000 -0.002943
# 5 -0.002117 0.005556 0.001778 0.000000 0.025380 0.000000
# 6 0.000000 0.000000 0.000000 -0.002943 0.000000 0.031948
#
#
# Mechanical properties :
#
#
# Convention : Reuss Voigt Hill
#
# Bulk Modulus (GPa) = 37.02177 47.13510 42.07843
# Shear Modulus (GPa) = 31.62710 35.11740 33.37225
#
# Velocity S-wave (km/s) = 3.96148 4.17435 4.06931
# Velocity P-wave (km/s) = 6.26854 6.82803 6.55426
#
# Compressibility (1/GPa) = 0.02701114
#
# Stress axis : x y z
#
# Youngs Moduli (GPa) = 72.97164 44.62756 101.07985
#
# Poissons Ratio (x) = 0.19410 0.46194
# Poissons Ratio (y) = 0.31738 0.05837
# Poissons Ratio (z) = 0.33348 0.02577
#
# Static dielectric constant tensor:
#      x y z
#    x 4.147790 0.000000 -0.078380 
#    y 0.000000 3.633840 0.000000 
#    z -0.078380 0.000000 3.952670 
# 
# 
# High freq. dielectric constant tensor:
#      x y z
#    x 1.794490 0.000000 -0.008650 
#    y 0.000000 1.791110 0.000000 
#    z -0.008650 0.000000 1.800810 
# 
# From -- ./inp_files/70897.got.cif
#   From: 2010.06.25/outbox.cif.g09.slc.cpg/sg11_36_cif.got.tgz:70897.got - 2010.06.27 23:14:04.
