data_PCOD8076927
_publ_section_title
;
Structure prediction by ZEFSAII (Michael W. Deem and Ramdas Pophale) SiO2 
 PCOD8076927
Probable space group: P 21/M
;
_chemical_formula_sum "Si O2"
_cell_formula_units_Z 20
_cell_length_a 9.573302
_cell_length_b 9.402000
_cell_length_c 10.368047
_cell_angle_alpha 90.000000
_cell_angle_beta 100.027237
_cell_angle_gamma 90.000000
_cell_volume 918.954415
_symmetry_space_group_name_H-M "P 21/M"
_symmetry_group_IT_number 11
_symmetry_cell_setting 'monoclinic'
loop_
_space_group_symop_operation_xyz
x,y,z
-x,1/2+y,-z
-x,-y,-z
x,1/2-y,z
loop_
_atom_site_type_symbol
_atom_site_label
_atom_site_fract_x
_atom_site_fract_y
_atom_site_fract_z
Si Si1 0.955668 0.250000 0.216282
Si Si2 0.604854 0.949057 0.857438
Si Si3 0.531064 0.250000 0.783366
Si Si4 0.709797 0.750000 0.087247
Si Si5 0.852051 0.495358 0.733000
Si Si6 0.362298 0.750000 0.738794
Si Si7 0.286037 0.750000 0.431323
Si Si8 0.026774 0.750000 0.084708
O O1 0.788816 0.250000 0.214822
O O2 0.025206 0.393348 0.288860
O O3 0.990654 0.250000 0.070770
O O4 0.451475 0.888837 0.792359
O O5 0.597789 0.118021 0.870278
O O6 0.718602 0.911946 0.763082
O O7 0.656961 0.889143 0.001925
O O8 0.360896 0.250000 0.780697
O O9 0.575292 0.250000 0.640496
O O10 0.876168 0.750000 0.132924
O O11 0.808249 0.392349 0.607108
O O12 0.895610 0.393407 0.859045
O O13 0.341624 0.750000 0.583225
#
# Coordination Sequence:
#
# PCOD8076927 Si02
#       8
#     2   4   2   2   4   2   2   2
#     4  12  23  39  64  99 120 167 200 250 308 369
#     4  10  22  42  60  94 125 160 204 254 303 366
#     4  10  22  35  65  89 122 160 200 246 313 353
#     4  11  21  36  62  92 133 158 194 253 307 370
#     4  10  22  42  66  88 129 163 201 246 315 363
#     4  11  26  41  65  88 125 158 218 257 299 354
#     4   9  23  47  63  86 120 167 209 261 297 359
#     4  11  23  38  65  94 132 160 197 245 308 383
#
# _framework density 21.763866
#
# number of rings (size 3 to 8) (size 9 to 14) (size 15 to 20)
#    0.000    1.600    2.000    2.400    2.800   10.400 
#    0.000    1.000    8.800    0.000    0.000    0.000 
#    0.000    0.000    0.000    0.000    0.000    0.000 
#
# Total GULP energy -247942.984082 kJ/mol
# GULP energy per Si atom -12397.149204 kJ/mol
# Density = 2.171433 g / cm^3
# Si number density = 21.763866 Si / 1000 Ang^3
#
#
#
# Elastic Constant Matrix: (Units=GPa)
#
#
# Indices 1 2 3 4 5 6 
#
# 1 164.1929 42.2221 16.2887 0.0000 1.3913 0.0000
# 2 42.2221 143.7473 21.7715 0.0000 5.7598 0.0000
# 3 16.2887 21.7715 48.5431 0.0000 7.1074 0.0000
# 4 0.0000 0.0000 0.0000 -4.5920 0.0000 5.9172
# 5 1.3913 5.7598 7.1074 0.0000 23.4110 0.0000
# 6 0.0000 0.0000 0.0000 5.9172 0.0000 1.9768
#
#
#
# Elastic Compliance Matrix: (Units=1/GPa)
#
#
# Indices 1 2 3 4 5 6 
#
# 1 0.006689 -0.001753 -0.001531 0.000000 0.000499 0.000000
# 2 -0.001753 0.007939 -0.002828 0.000000 -0.000991 0.000000
# 3 -0.001531 -0.002828 0.023303 0.000000 -0.006288 0.000000
# 4 0.000000 0.000000 0.000000 -0.044835 0.000000 0.134206
# 5 0.000499 -0.000991 -0.006288 0.000000 0.044838 0.000000
# 6 0.000000 0.000000 0.000000 0.134206 0.000000 0.104151
#
#
# Mechanical properties :
#
#
# Convention : Reuss Voigt Hill
#
# Bulk Modulus (GPa) = 38.89875 57.44975 48.17425
# Shear Modulus (GPa) = 30.69787 22.57255 26.63521
#
# Velocity S-wave (km/s) = 3.75973 3.22399 3.50212
# Velocity P-wave (km/s) = 6.06295 6.34925 6.20775
#
# Compressibility (1/GPa) = 0.02570777
#
# Stress axis : x y z
#
# Youngs Moduli (GPa) = 149.50372 125.95368 42.91304
#
# Poissons Ratio (x) = 0.22076 0.06571
# Poissons Ratio (y) = 0.26204 0.12134
# Poissons Ratio (z) = 0.22894 0.35615
#
# Static dielectric constant tensor:
#      x y z
#    x 4.350800 0.000000 -0.026280 
#    y 0.000000 4.142740 0.000000 
#    z -0.026280 0.000000 3.372250 
# 
# 
# High freq. dielectric constant tensor:
#      x y z
#    x 1.873270 0.000000 -0.002430 
#    y 0.000000 1.872820 0.000000 
#    z -0.002430 0.000000 1.806310 
# 
# From -- ./inp_files/30667.got.cif
#   From: 2010.06.25/outbox.cif.g09.slc.cpg/sg11_16_cif.got.tgz:30667.got - 2010.06.27 23:14:04.
