data_PCOD8076294
_publ_section_title
;
Structure prediction by ZEFSAII (Michael W. Deem and Ramdas Pophale) SiO2 
 PCOD8076294
Probable space group: P 21/M
;
_chemical_formula_sum "Si O2"
_cell_formula_units_Z 32
_cell_length_a 14.240436
_cell_length_b 9.122767
_cell_length_c 22.619680
_cell_angle_alpha 90.000000
_cell_angle_beta 148.211719
_cell_angle_gamma 90.000000
_cell_volume 1547.986657
_symmetry_space_group_name_H-M "P 21/M"
_symmetry_group_IT_number 11
_symmetry_cell_setting 'monoclinic'
loop_
_space_group_symop_operation_xyz
x,y,z
-x,1/2+y,-z
-x,-y,-z
x,1/2-y,z
loop_
_atom_site_type_symbol
_atom_site_label
_atom_site_fract_x
_atom_site_fract_y
_atom_site_fract_z
Si Si1 0.636460 0.919311 0.440806
Si Si2 0.241812 0.586254 0.245999
Si Si3 0.604764 0.078384 0.305402
Si Si4 0.676211 0.080242 0.070270
Si Si5 0.911389 0.083180 0.091922
Si Si6 0.018209 0.916797 0.673718
Si Si7 0.738224 0.412392 0.877640
Si Si8 0.880777 0.576452 0.387039
O O1 0.608934 0.750000 0.406418
O O2 0.445377 0.974540 0.364508
O O3 0.805546 0.935106 0.575916
O O4 0.686181 0.014050 0.409667
O O5 0.232536 0.750000 0.265863
O O6 0.179967 0.580009 0.144161
O O7 0.098151 0.495721 0.207151
O O8 0.646940 0.250000 0.324391
O O9 0.396371 0.047515 0.189933
O O10 0.685077 0.990889 0.292586
O O11 0.623629 0.250000 0.042232
O O12 0.740672 0.025944 0.039304
O O13 0.853209 0.047882 0.203197
O O14 0.500000 0.000000 0.000000
O O15 0.941115 0.250000 0.126878
O O16 0.881190 0.063945 0.005762
O O17 0.049826 0.750000 0.667989
O O18 0.061676 0.034971 0.647492
O O19 0.649675 0.250000 0.838617
O O20 0.885027 0.750000 0.397295
O O21 0.000000 0.500000 0.500000
#
# Coordination Sequence:
#
# PCOD8076294 Si02
#       8
#     4   4   4   4   4   4   4   4
#     4   9  18  35  57  81 115 153 185 231 292 349
#     4   9  18  33  56  87 118 151 192 238 295 357
#     4  11  21  32  50  82 118 152 191 233 287 350
#     4  10  24  44  63  86 114 152 203 251 300 349
#     4  10  21  38  59  83 115 156 198 246 300 349
#     4  10  21  39  61  82 112 153 198 245 295 351
#     4   9  19  35  55  82 119 158 194 234 293 353
#     4  12  23  35  54  83 118 152 192 238 293 354
#
# _framework density 20.672014000000001
#
# number of rings (size 3 to 8) (size 9 to 14) (size 15 to 20)
#    0.000    2.000    1.250    3.375    1.750    3.500 
#    0.000    0.625    0.000    0.000    0.000    0.000 
#    0.000    0.000    0.000    0.000    0.000    0.000 
#
# Total GULP energy -396476.736530 kJ/mol
# GULP energy per Si atom -12389.898017 kJ/mol
# Density = 2.062496 g / cm^3
# Si number density = 20.672014 Si / 1000 Ang^3
#
#
#
# Elastic Constant Matrix: (Units=GPa)
#
#
# Indices 1 2 3 4 5 6 
#
# 1 72.5196 32.7210 38.4936 0.0000 27.6180 0.0000
# 2 32.7210 104.2294 32.9656 0.0000 13.5530 0.0000
# 3 38.4936 32.9656 104.4244 0.0000 20.4745 0.0000
# 4 0.0000 0.0000 0.0000 26.5002 0.0000 8.8276
# 5 27.6180 13.5530 20.4745 0.0000 30.6044 0.0000
# 6 0.0000 0.0000 0.0000 8.8276 0.0000 30.3090
#
#
#
# Elastic Compliance Matrix: (Units=1/GPa)
#
#
# Indices 1 2 3 4 5 6 
#
# 1 0.024594 -0.004071 -0.004354 0.000000 -0.017478 0.000000
# 2 -0.004071 0.011551 -0.002145 0.000000 -0.000007 0.000000
# 3 -0.004354 -0.002145 0.012548 0.000000 -0.003516 0.000000
# 4 0.000000 0.000000 0.000000 0.041790 0.000000 -0.012172
# 5 -0.017478 -0.000007 -0.003516 0.000000 0.050803 0.000000
# 6 0.000000 0.000000 0.000000 -0.012172 0.000000 0.036538
#
#
# Mechanical properties :
#
#
# Convention : Reuss Voigt Hill
#
# Bulk Modulus (GPa) = 36.29254 54.39265 45.34260
# Shear Modulus (GPa) = 24.02145 29.28226 26.65185
#
# Velocity S-wave (km/s) = 3.41255 3.76775 3.59454
# Velocity P-wave (km/s) = 5.75516 6.73032 6.26175
#
# Compressibility (1/GPa) = 0.02755387
#
# Stress axis : x y z
#
# Youngs Moduli (GPa) = 40.66113 86.56917 79.69672
#
# Poissons Ratio (x) = 0.35242 0.34698
# Poissons Ratio (y) = 0.16553 0.17092
# Poissons Ratio (z) = 0.17703 0.18566
#
# Static dielectric constant tensor:
#      x y z
#    x 3.797460 0.000000 0.208180 
#    y 0.000000 3.637030 0.000000 
#    z 0.208180 0.000000 3.762520 
# 
# 
# High freq. dielectric constant tensor:
#      x y z
#    x 1.790490 0.000000 0.020700 
#    y 0.000000 1.799170 0.000000 
#    z 0.020700 0.000000 1.806540 
# 
# From -- ./inp_files/56157.got.cif
#   From: 2010.06.25/outbox.cif.g09.slc.cpg/sg11_29_cif.got.tgz:56157.got - 2010.06.27 23:14:04.
