data_PCOD8076405
_publ_section_title
;
Structure prediction by ZEFSAII (Michael W. Deem and Ramdas Pophale) SiO2 
 PCOD8076405
Probable space group: P 21/M
;
_chemical_formula_sum "Si O2"
_cell_formula_units_Z 32
_cell_length_a 20.122221
_cell_length_b 8.488828
_cell_length_c 12.360146
_cell_angle_alpha 90.000000
_cell_angle_beta 49.152016
_cell_angle_gamma 90.000000
_cell_volume 1597.077819
_symmetry_space_group_name_H-M "P 21/M"
_symmetry_group_IT_number 11
_symmetry_cell_setting 'monoclinic'
loop_
_space_group_symop_operation_xyz
x,y,z
-x,1/2+y,-z
-x,-y,-z
x,1/2-y,z
loop_
_atom_site_type_symbol
_atom_site_label
_atom_site_fract_x
_atom_site_fract_y
_atom_site_fract_z
Si Si1 0.561502 0.566623 0.667821
Si Si2 0.408702 0.566041 0.140223
Si Si3 0.014180 0.434229 0.155298
Si Si4 0.632530 0.062967 0.174831
Si Si5 0.739968 0.437185 0.859252
Si Si6 0.864832 0.568345 0.172299
Si Si7 0.679667 0.433199 0.360865
Si Si8 0.937960 0.062533 0.660526
O O1 0.558652 0.750000 0.699396
O O2 0.605799 0.474590 0.719562
O O3 0.463851 0.498868 0.752804
O O4 0.619352 0.537691 0.501430
O O5 0.411757 0.750000 0.117360
O O6 0.324653 0.496047 0.165146
O O7 0.500000 0.500000 0.000000
O O8 0.991493 0.250000 0.180797
O O9 0.034529 0.492373 0.253677
O O10 0.931308 0.529389 0.198250
O O11 0.095287 0.469668 0.988503
O O12 0.630526 0.250000 0.178044
O O13 0.660822 0.000068 0.261439
O O14 0.703043 0.999682 0.013155
O O15 0.739680 0.250000 0.858349
O O16 0.839416 0.497482 0.737558
O O17 0.837339 0.750000 0.210263
O O18 0.781246 0.458203 0.279838
O O19 0.655507 0.250000 0.399536
O O20 0.943319 0.250000 0.661037
O O21 0.000000 0.000000 0.500000
#
# Coordination Sequence:
#
# PCOD8076405 Si02
#       8
#     4   4   4   4   4   4   4   4
#     4  11  22  38  58  82 119 158 198 248 298 352
#     4  11  21  38  62  87 116 151 199 249 300 359
#     4  10  21  39  63  89 119 152 195 248 303 361
#     4   9  18  35  59  84 113 151 196 244 296 355
#     4   9  19  37  62  87 113 153 198 242 299 358
#     4  10  21  38  61  89 119 154 196 244 299 361
#     4  11  22  36  57  86 120 156 199 243 296 360
#     4  11  23  40  62  87 121 161 203 252 305 364
#
# _framework density 20.036594000000001
#
# number of rings (size 3 to 8) (size 9 to 14) (size 15 to 20)
#    0.000    1.750    1.250    3.375    0.000    3.500 
#    0.000    8.125    0.000    0.000    0.000    0.000 
#    0.000    0.000    0.000    0.000    0.000    0.000 
#
# Total GULP energy -396874.564456 kJ/mol
# GULP energy per Si atom -12402.330139 kJ/mol
# Density = 1.999099 g / cm^3
# Si number density = 20.036594 Si / 1000 Ang^3
#
#
#
# Elastic Constant Matrix: (Units=GPa)
#
#
# Indices 1 2 3 4 5 6 
#
# 1 141.7056 17.1286 82.2575 0.0000 7.5716 0.0000
# 2 17.1286 41.5571 19.4566 0.0000 4.0404 0.0000
# 3 82.2575 19.4566 139.9837 0.0000 -8.4859 0.0000
# 4 0.0000 0.0000 0.0000 29.7802 0.0000 1.5637
# 5 7.5716 4.0404 -8.4859 0.0000 24.3910 0.0000
# 6 0.0000 0.0000 0.0000 1.5637 0.0000 28.4887
#
#
#
# Elastic Compliance Matrix: (Units=1/GPa)
#
#
# Indices 1 2 3 4 5 6 
#
# 1 0.011556 -0.000904 -0.007022 0.000000 -0.005880 0.000000
# 2 -0.000904 0.026588 -0.003488 0.000000 -0.005337 0.000000
# 3 -0.007022 -0.003488 0.012178 0.000000 0.006994 0.000000
# 4 0.000000 0.000000 0.000000 0.033676 0.000000 -0.001848
# 5 -0.005880 -0.005337 0.006994 0.000000 0.046142 0.000000
# 6 0.000000 0.000000 0.000000 -0.001848 0.000000 0.035203
#
#
# Mechanical properties :
#
#
# Convention : Reuss Voigt Hill
#
# Bulk Modulus (GPa) = 36.36923 62.32577 49.34750
# Shear Modulus (GPa) = 25.33754 30.15889 27.74822
#
# Velocity S-wave (km/s) = 3.55993 3.88389 3.72543
# Velocity P-wave (km/s) = 5.92353 7.16144 6.57170
#
# Compressibility (1/GPa) = 0.02749577
#
# Stress axis : x y z
#
# Youngs Moduli (GPa) = 86.53335 37.61133 82.11203
#
# Poissons Ratio (x) = 0.03400 0.57655
# Poissons Ratio (y) = 0.07823 0.28639
# Poissons Ratio (z) = 0.60760 0.13118
#
# Static dielectric constant tensor:
#      x y z
#    x 3.947840 0.000000 -0.005420 
#    y 0.000000 3.474460 0.000000 
#    z -0.005420 0.000000 4.183060 
# 
# 
# High freq. dielectric constant tensor:
#      x y z
#    x 1.795650 0.000000 0.002430 
#    y 0.000000 1.766490 0.000000 
#    z 0.002430 0.000000 1.786020 
# 
# From -- ./inp_files/42833.got.cif
#   From: 2010.06.25/outbox.cif.g09.slc.cpg/sg11_22_cif.got.tgz:42833.got - 2010.06.27 23:14:04.
