data_PCOD8076882
_publ_section_title
;
Structure prediction by ZEFSAII (Michael W. Deem and Ramdas Pophale) SiO2 
 PCOD8076882
Probable space group: P 21/M
;
_chemical_formula_sum "Si O2"
_cell_formula_units_Z 32
_cell_length_a 8.416654
_cell_length_b 28.178831
_cell_length_c 11.560284
_cell_angle_alpha 90.000000
_cell_angle_beta 144.849108
_cell_angle_gamma 90.000000
_cell_volume 1578.523738
_symmetry_space_group_name_H-M "P 21/M"
_symmetry_group_IT_number 11
_symmetry_cell_setting 'monoclinic'
loop_
_space_group_symop_operation_xyz
x,y,z
-x,1/2+y,-z
-x,-y,-z
x,1/2-y,z
loop_
_atom_site_type_symbol
_atom_site_label
_atom_site_fract_x
_atom_site_fract_y
_atom_site_fract_z
Si Si1 0.025697 0.890535 0.630561
Si Si2 0.750577 0.023680 0.082929
Si Si3 0.148641 0.198021 0.336698
Si Si4 0.637101 0.380817 0.397039
Si Si5 0.043825 0.340826 0.039691
Si Si6 0.728963 0.460325 0.628371
Si Si7 0.407753 0.913658 0.217942
Si Si8 0.237108 0.804315 0.344984
O O1 0.114066 0.934253 0.762876
O O2 0.243290 0.882423 0.659563
O O3 0.027073 0.842280 0.705252
O O4 0.727531 0.900479 0.398936
O O5 0.642633 0.041890 0.895508
O O6 0.970210 0.982857 0.188219
O O7 0.500000 0.000000 0.000000
O O8 0.068898 0.250000 0.338657
O O9 0.094842 0.199173 0.166723
O O10 0.473349 0.187830 0.549406
O O11 0.309003 0.375015 0.191601
O O12 0.696562 0.431333 0.490938
O O13 0.782441 0.338108 0.554669
O O14 0.781746 0.369815 0.931819
O O15 0.000189 0.317015 0.888602
O O16 0.500000 0.500000 0.500000
O O17 0.686299 0.424209 0.707641
O O18 0.202355 0.750000 0.366190
#
# Coordination Sequence:
#
# PCOD8076882 Si02
#       8
#     4   4   4   4   4   4   4   4
#     4  12  25  44  62  95 136 169 207 265 327 383
#     4  12  28  42  64  96 133 170 217 266 328 380
#     4  10  21  41  68  96 125 163 211 263 316 381
#     4  11  26  40  64  94 134 164 206 264 324 373
#     4  11  20  41  69  95 119 165 213 262 307 376
#     4  12  24  44  66  93 124 172 219 266 314 377
#     4  12  23  43  69  90 126 169 220 265 309 380
#     4  10  21  42  69  96 125 165 214 263 317 382
#
# _framework density 20.272106000000001
#
# number of rings (size 3 to 8) (size 9 to 14) (size 15 to 20)
#    0.000    0.750    5.000    3.000    3.500    3.000 
#    0.000    0.000    0.000    0.000    0.000    0.000 
#    0.000    0.000    0.000    0.000    0.000    0.000 
#
# Total GULP energy -396951.676978 kJ/mol
# GULP energy per Si atom -12404.739906 kJ/mol
# Density = 2.022597 g / cm^3
# Si number density = 20.272106 Si / 1000 Ang^3
#
#
#
# Elastic Constant Matrix: (Units=GPa)
#
#
# Indices 1 2 3 4 5 6 
#
# 1 69.4619 12.6994 11.1535 0.0000 1.8273 0.0000
# 2 12.6994 92.7958 18.0906 0.0000 4.4661 0.0000
# 3 11.1535 18.0906 97.0532 0.0000 4.7324 0.0000
# 4 0.0000 0.0000 0.0000 28.1001 0.0000 -4.6776
# 5 1.8273 4.4661 4.7324 0.0000 34.8012 0.0000
# 6 0.0000 0.0000 0.0000 -4.6776 0.0000 26.5328
#
#
#
# Elastic Compliance Matrix: (Units=1/GPa)
#
#
# Indices 1 2 3 4 5 6 
#
# 1 0.014948 -0.001760 -0.001372 0.000000 -0.000372 0.000000
# 2 -0.001760 0.011437 -0.001875 0.000000 -0.001120 0.000000
# 3 -0.001372 -0.001875 0.010868 0.000000 -0.001165 0.000000
# 4 0.000000 0.000000 0.000000 0.036663 0.000000 0.006463
# 5 -0.000372 -0.001120 -0.001165 0.000000 0.029056 0.000000
# 6 0.000000 0.000000 0.000000 0.006463 0.000000 0.038829
#
#
# Mechanical properties :
#
#
# Convention : Reuss Voigt Hill
#
# Bulk Modulus (GPa) = 36.71230 38.13309 37.42270
# Shear Modulus (GPa) = 31.07640 32.37798 31.72719
#
# Velocity S-wave (km/s) = 3.91956 4.00080 3.96038
# Velocity P-wave (km/s) = 6.21554 6.33982 6.27799
#
# Compressibility (1/GPa) = 0.02723883
#
# Stress axis : x y z
#
# Youngs Moduli (GPa) = 66.89746 87.43788 92.01717
#
# Poissons Ratio (x) = 0.15393 0.12621
# Poissons Ratio (y) = 0.11777 0.17252
# Poissons Ratio (z) = 0.09175 0.16393
#
# Static dielectric constant tensor:
#      x y z
#    x 3.590590 0.000000 -0.379310 
#    y 0.000000 4.424680 0.000000 
#    z -0.379310 0.000000 4.489180 
# 
# 
# High freq. dielectric constant tensor:
#      x y z
#    x 1.777440 0.000000 -0.005580 
#    y 0.000000 1.803990 0.000000 
#    z -0.005580 0.000000 1.806350 
# 
# From -- ./inp_files/33222.got.cif
#   From: 2010.06.25/outbox.cif.g09.slc.cpg/sg11_17_cif.got.tgz:33222.got - 2010.06.27 23:14:04.
