data_PCOD8076791
_publ_section_title
;
Structure prediction by ZEFSAII (Michael W. Deem and Ramdas Pophale) SiO2 
 PCOD8076791
Probable space group: P 21/M
;
_chemical_formula_sum "Si O2"
_cell_formula_units_Z 20
_cell_length_a 15.901386
_cell_length_b 9.036602
_cell_length_c 7.575114
_cell_angle_alpha 90.000000
_cell_angle_beta 115.481382
_cell_angle_gamma 90.000000
_cell_volume 982.618282
_symmetry_space_group_name_H-M "P 21/M"
_symmetry_group_IT_number 11
_symmetry_cell_setting 'monoclinic'
loop_
_space_group_symop_operation_xyz
x,y,z
-x,1/2+y,-z
-x,-y,-z
x,1/2-y,z
loop_
_atom_site_type_symbol
_atom_site_label
_atom_site_fract_x
_atom_site_fract_y
_atom_site_fract_z
Si Si1 0.784108 0.420033 0.562086
Si Si2 0.418692 0.920299 0.715305
Si Si3 0.901977 0.574345 0.375005
Si Si4 0.800292 0.078049 0.972325
Si Si5 0.401463 0.922437 0.104010
O O1 0.796559 0.250000 0.508932
O O2 0.674042 0.456460 0.479978
O O3 0.830518 0.528136 0.463316
O O4 0.830453 0.443378 0.795762
O O5 0.445057 0.750000 0.728340
O O6 0.508417 0.006054 0.719961
O O7 0.398091 0.969513 0.896871
O O8 0.912802 0.750000 0.382605
O O9 0.867550 0.520231 0.152940
O O10 0.000000 0.500000 0.500000
O O11 0.808121 0.250000 0.036902
O O12 0.694416 0.020922 0.897176
O O13 0.411582 0.750000 0.142664
#
# Coordination Sequence:
#
# PCOD8076791 Si02
#       5
#     4   4   4   4   4
#     4  10  21  40  65  91 122 160 202 248 299 355
#     4   9  17  31  53  83 121 161 201 242 289 346
#     4  12  26  44  67  90 119 154 195 248 306 364
#     4  10  21  40  65  91 122 160 202 248 299 355
#     4   9  17  31  53  83 121 161 201 242 289 346
#
# _framework density 20.353783
#
# number of rings (size 3 to 8) (size 9 to 14) (size 15 to 20)
#    0.000    2.000    2.000    1.800    0.000    4.000 
#    0.000    0.000    0.000    0.000    0.000    0.000 
#    0.000    0.000    0.000    0.000    0.000    0.000 
#
# Total GULP energy -248010.651379 kJ/mol
# GULP energy per Si atom -12400.532569 kJ/mol
# Density = 2.030746 g / cm^3
# Si number density = 20.353783 Si / 1000 Ang^3
#
#
#
# Elastic Constant Matrix: (Units=GPa)
#
#
# Indices 1 2 3 4 5 6 
#
# 1 34.8967 28.1317 39.5507 0.0000 19.2553 0.0000
# 2 28.1317 94.8278 57.9322 0.0000 11.8242 0.0000
# 3 39.5507 57.9322 123.7917 0.0000 8.3047 0.0000
# 4 0.0000 0.0000 0.0000 29.8805 0.0000 10.4587
# 5 19.2553 11.8242 8.3047 0.0000 28.3810 0.0000
# 6 0.0000 0.0000 0.0000 10.4587 0.0000 29.7470
#
#
#
# Elastic Compliance Matrix: (Units=1/GPa)
#
#
# Indices 1 2 3 4 5 6 
#
# 1 0.083406 -0.006227 -0.020514 0.000000 -0.047990 0.000000
# 2 -0.006227 0.015743 -0.005326 0.000000 -0.000776 0.000000
# 3 -0.020514 -0.005326 0.016363 0.000000 0.011349 0.000000
# 4 0.000000 0.000000 0.000000 0.038163 0.000000 -0.013418
# 5 -0.047990 -0.000776 0.011349 0.000000 0.064797 0.000000
# 6 0.000000 0.000000 0.000000 -0.013418 0.000000 0.038334
#
#
# Mechanical properties :
#
#
# Convention : Reuss Voigt Hill
#
# Bulk Modulus (GPa) = 19.46341 56.08281 37.77311
# Shear Modulus (GPa) = 14.79000 26.12848 20.45924
#
# Velocity S-wave (km/s) = 2.69856 3.58679 3.17390
# Velocity P-wave (km/s) = 4.39237 6.69083 5.65951
#
# Compressibility (1/GPa) = 0.05137847
#
# Stress axis : x y z
#
# Youngs Moduli (GPa) = 11.98960 63.51939 61.11208
#
# Poissons Ratio (x) = 0.39552 1.25366
# Poissons Ratio (y) = 0.07466 0.32549
# Poissons Ratio (z) = 0.24596 0.33831
#
# Static dielectric constant tensor:
#      x y z
#    x 3.683930 0.000000 0.110560 
#    y 0.000000 3.587780 0.000000 
#    z 0.110560 0.000000 3.811840 
# 
# 
# High freq. dielectric constant tensor:
#      x y z
#    x 1.790900 0.000000 0.004570 
#    y 0.000000 1.777200 0.000000 
#    z 0.004570 0.000000 1.801760 
# 
# From -- ./inp_files/24188.got.cif
#   From: 2010.06.25/outbox.cif.g09.slc.cpg/sg11_13_cif.got.tgz:24188.got - 2010.06.27 23:14:04.
