data_PCOD8076750
_publ_section_title
;
Structure prediction by ZEFSAII (Michael W. Deem and Ramdas Pophale) SiO2 
 PCOD8076750
Probable space group: P 21/M
;
_chemical_formula_sum "Si O2"
_cell_formula_units_Z 24
_cell_length_a 18.932652
_cell_length_b 8.387946
_cell_length_c 23.414120
_cell_angle_alpha 90.000000
_cell_angle_beta 17.828506
_cell_angle_gamma 90.000000
_cell_volume 1138.429384
_symmetry_space_group_name_H-M "P 21/M"
_symmetry_group_IT_number 11
_symmetry_cell_setting 'monoclinic'
loop_
_space_group_symop_operation_xyz
x,y,z
-x,1/2+y,-z
-x,-y,-z
x,1/2-y,z
loop_
_atom_site_type_symbol
_atom_site_label
_atom_site_fract_x
_atom_site_fract_y
_atom_site_fract_z
Si Si1 0.959004 0.431515 0.697335
Si Si2 0.412796 0.428430 0.944976
Si Si3 0.301830 0.937247 0.511776
Si Si4 0.914548 0.563231 0.900954
Si Si5 0.195272 0.936443 0.890885
Si Si6 0.841746 0.932503 0.669450
O O1 0.895593 0.250000 0.762324
O O2 0.906551 0.454303 0.671635
O O3 0.219057 0.470686 0.517653
O O4 0.813701 0.565107 0.842157
O O5 0.518097 0.250000 0.865060
O O6 0.584663 0.552336 0.842533
O O7 0.324279 0.474176 0.949806
O O8 0.275793 0.750000 0.522842
O O9 0.143705 0.991240 0.688498
O O10 0.569754 0.980087 0.311502
O O11 0.932665 0.750000 0.900102
O O12 0.887386 0.470680 0.980936
O O13 0.228821 0.750000 0.857195
O O14 0.000000 0.000000 0.000000
O O15 0.891417 0.750000 0.647043
O O16 0.000000 0.000000 0.500000
#
# Coordination Sequence:
#
# PCOD8076750 Si02
#       6
#     4   4   4   4   4   4
#     4  11  22  39  62  89 121 161 209 256 308 369
#     4  10  21  40  63  88 120 162 207 255 311 369
#     4  10  22  43  69  96 129 168 212 262 319 379
#     4   9  21  42  68  95 127 167 211 260 318 378
#     4  12  26  43  67  97 131 168 209 258 317 383
#     4  12  25  39  56  84 122 163 209 260 311 366
#
# _framework density 21.081676000000002
#
# number of rings (size 3 to 8) (size 9 to 14) (size 15 to 20)
#    0.000    1.333    0.000    7.000    2.333    4.667 
#    0.000    0.000    0.000    0.000    0.000    0.000 
#    0.000    0.000    0.000    0.000    0.000    0.000 
#
# Total GULP energy -297459.573925 kJ/mol
# GULP energy per Si atom -12394.148914 kJ/mol
# Density = 2.103369 g / cm^3
# Si number density = 21.081676 Si / 1000 Ang^3
#
#
#
# Elastic Constant Matrix: (Units=GPa)
#
#
# Indices 1 2 3 4 5 6 
#
# 1 107.4917 29.3406 25.6117 0.0000 1.5528 0.0000
# 2 29.3406 100.1169 23.4570 0.0000 0.6721 0.0000
# 3 25.6117 23.4570 89.7631 0.0000 -6.3681 0.0000
# 4 0.0000 0.0000 0.0000 36.2447 0.0000 -2.0255
# 5 1.5528 0.6721 -6.3681 0.0000 30.7257 0.0000
# 6 0.0000 0.0000 0.0000 -2.0255 0.0000 36.1910
#
#
#
# Elastic Compliance Matrix: (Units=1/GPa)
#
#
# Indices 1 2 3 4 5 6 
#
# 1 0.010586 -0.002526 -0.002430 0.000000 -0.000983 0.000000
# 2 -0.002526 0.011263 -0.002264 0.000000 -0.000588 0.000000
# 3 -0.002430 -0.002264 0.012623 0.000000 0.002789 0.000000
# 4 0.000000 0.000000 0.000000 0.027677 0.000000 0.001549
# 5 -0.000983 -0.000588 0.002789 0.000000 0.033187 0.000000
# 6 0.000000 0.000000 0.000000 0.001549 0.000000 0.027718
#
#
# Mechanical properties :
#
#
# Convention : Reuss Voigt Hill
#
# Bulk Modulus (GPa) = 49.92213 50.46559 50.19386
# Shear Modulus (GPa) = 34.68089 35.22977 34.95533
#
# Velocity S-wave (km/s) = 4.06035 4.09235 4.07638
# Velocity P-wave (km/s) = 6.76119 6.80587 6.78357
#
# Compressibility (1/GPa) = 0.02003120
#
# Stress axis : x y z
#
# Youngs Moduli (GPa) = 94.46597 88.78515 79.21878
#
# Poissons Ratio (x) = 0.22431 0.19250
# Poissons Ratio (y) = 0.23866 0.17936
# Poissons Ratio (z) = 0.22955 0.20102
#
# Static dielectric constant tensor:
#      x y z
#    x 3.649240 0.000000 0.098250 
#    y 0.000000 3.866200 0.000000 
#    z 0.098250 0.000000 3.698090 
# 
# 
# High freq. dielectric constant tensor:
#      x y z
#    x 1.829510 0.000000 -0.006470 
#    y 0.000000 1.831570 0.000000 
#    z -0.006470 0.000000 1.826970 
# 
# From -- ./inp_files/69495.got.cif
#   From: 2010.06.25/outbox.cif.g09.slc.cpg/sg11_35_cif.got.tgz:69495.got - 2010.06.27 23:14:04.
