data_PCOD8076267
_publ_section_title
;
Structure prediction by ZEFSAII (Michael W. Deem and Ramdas Pophale) SiO2 
 PCOD8076267
Probable space group: P 21/M
;
_chemical_formula_sum "Si O2"
_cell_formula_units_Z 32
_cell_length_a 15.343824
_cell_length_b 8.798320
_cell_length_c 11.984536
_cell_angle_alpha 90.000000
_cell_angle_beta 89.303822
_cell_angle_gamma 90.000000
_cell_volume 1617.791415
_symmetry_space_group_name_H-M "P 21/M"
_symmetry_group_IT_number 11
_symmetry_cell_setting 'monoclinic'
loop_
_space_group_symop_operation_xyz
x,y,z
-x,1/2+y,-z
-x,-y,-z
x,1/2-y,z
loop_
_atom_site_type_symbol
_atom_site_label
_atom_site_fract_x
_atom_site_fract_y
_atom_site_fract_z
Si Si1 0.163983 0.071759 0.501306
Si Si2 0.652017 0.070108 0.507462
Si Si3 0.254152 0.930023 0.143622
Si Si4 0.605764 0.071524 0.264520
Si Si5 0.899026 0.925366 0.253085
Si Si6 0.907222 0.427345 0.704216
Si Si7 0.589035 0.571904 0.726121
Si Si8 0.242097 0.930052 0.893183
O O1 0.184271 0.250000 0.493727
O O2 0.128945 0.024275 0.622655
O O3 0.248813 0.974544 0.469942
O O4 0.093168 0.024378 0.409712
O O5 0.640920 0.250000 0.518131
O O6 0.623803 0.004701 0.387476
O O7 0.591940 0.990803 0.600501
O O8 0.260496 0.750000 0.144123
O O9 0.169908 0.984552 0.213790
O O10 0.342292 0.993016 0.194729
O O11 0.245535 0.994841 0.018520
O O12 0.621274 0.250000 0.272012
O O13 0.507792 0.034283 0.226111
O O14 0.675278 0.001420 0.176334
O O15 0.876544 0.750000 0.233735
O O16 0.001416 0.958103 0.235258
O O17 0.847994 0.022357 0.162543
O O18 0.898197 0.250000 0.674043
O O19 0.607682 0.750000 0.723570
O O20 0.246463 0.750000 0.895750
#
# Coordination Sequence:
#
# PCOD8076267 Si02
#       8
#     4   4   4   4   4   4   4   4
#     4  11  21  34  56  87 116 146 187 234 280 334
#     4  11  20  35  59  84 114 151 184 223 284 347
#     4  10  22  39  59  82 111 151 196 234 278 335
#     4   9  20  37  58  84 114 149 186 231 286 335
#     4  10  22  38  57  85 118 148 186 237 286 331
#     4  10  21  38  58  82 117 155 186 228 285 338
#     4  11  22  37  58  85 116 147 186 236 283 334
#     4  10  21  40  61  81 110 151 196 236 277 336
#
# _framework density 19.780052999999999
#
# number of rings (size 3 to 8) (size 9 to 14) (size 15 to 20)
#    0.000    1.750    2.500    1.875    0.000    2.500 
#    0.000    3.125    0.000    0.000    0.000    0.000 
#    0.000    0.000    0.000    0.000    0.000    0.000 
#
# Total GULP energy -396891.676976 kJ/mol
# GULP energy per Si atom -12402.864906 kJ/mol
# Density = 1.973503 g / cm^3
# Si number density = 19.780053 Si / 1000 Ang^3
#
#
#
# Elastic Constant Matrix: (Units=GPa)
#
#
# Indices 1 2 3 4 5 6 
#
# 1 111.3252 10.5785 47.3718 0.0000 8.2194 0.0000
# 2 10.5785 7.6783 19.9187 0.0000 -0.2440 0.0000
# 3 47.3718 19.9187 141.5671 0.0000 11.2691 0.0000
# 4 0.0000 0.0000 0.0000 20.4437 0.0000 5.8407
# 5 8.2194 -0.2440 11.2691 0.0000 18.4462 0.0000
# 6 0.0000 0.0000 0.0000 5.8407 0.0000 29.3941
#
#
#
# Elastic Compliance Matrix: (Units=1/GPa)
#
#
# Indices 1 2 3 4 5 6 
#
# 1 0.011080 -0.010351 -0.001942 0.000000 -0.003888 0.000000
# 2 -0.010351 0.223119 -0.029990 0.000000 0.025886 0.000000
# 3 -0.001942 -0.029990 0.012504 0.000000 -0.007170 0.000000
# 4 0.000000 0.000000 0.000000 0.051859 0.000000 -0.010305
# 5 -0.003888 0.025886 -0.007170 0.000000 0.060667 0.000000
# 6 0.000000 0.000000 0.000000 -0.010305 0.000000 0.036068
#
#
# Mechanical properties :
#
#
# Convention : Reuss Voigt Hill
#
# Bulk Modulus (GPa) = 6.16762 46.25651 26.21207
# Shear Modulus (GPa) = 9.36491 25.83690 17.60090
#
# Velocity S-wave (km/s) = 2.17826 3.61807 2.98624
# Velocity P-wave (km/s) = 3.07429 6.39454 5.01704
#
# Compressibility (1/GPa) = 0.16213700
#
# Stress axis : x y z
#
# Youngs Moduli (GPa) = 90.25653 4.48191 79.97494
#
# Poissons Ratio (x) = 0.04639 0.15528
# Poissons Ratio (y) = 0.93427 2.39845
# Poissons Ratio (z) = 0.17524 0.13441
#
# Static dielectric constant tensor:
#      x y z
#    x 3.708100 0.000000 -0.123010 
#    y 0.000000 3.367370 0.000000 
#    z -0.123010 0.000000 3.773020 
# 
# 
# High freq. dielectric constant tensor:
#      x y z
#    x 1.782790 0.000000 0.000440 
#    y 0.000000 1.752500 0.000000 
#    z 0.000440 0.000000 1.770980 
# 
# From -- ./inp_files/38083.got.cif
#   From: 2010.06.25/outbox.cif.g09.slc.cpg/sg11_20_cif.got.tgz:38083.got - 2010.06.27 23:14:04.
