data_PCOD8076490
_publ_section_title
;
Structure prediction by ZEFSAII (Michael W. Deem and Ramdas Pophale) SiO2 
 PCOD8076490
Probable space group: P 21/M
;
_chemical_formula_sum "Si O2"
_cell_formula_units_Z 28
_cell_length_a 8.927352
_cell_length_b 18.337525
_cell_length_c 15.507793
_cell_angle_alpha 90.000000
_cell_angle_beta 148.561334
_cell_angle_gamma 90.000000
_cell_volume 1324.155256
_symmetry_space_group_name_H-M "P 21/M"
_symmetry_group_IT_number 11
_symmetry_cell_setting 'monoclinic'
loop_
_space_group_symop_operation_xyz
x,y,z
-x,1/2+y,-z
-x,-y,-z
x,1/2-y,z
loop_
_atom_site_type_symbol
_atom_site_label
_atom_site_fract_x
_atom_site_fract_y
_atom_site_fract_z
Si Si1 0.061731 0.832915 0.045037
Si Si2 0.956159 0.336479 0.348679
Si Si3 0.459368 0.908786 0.733758
Si Si4 0.687006 0.449160 0.530251
Si Si5 0.403789 0.667575 0.380825
Si Si6 0.193810 0.534990 0.835798
Si Si7 0.216606 0.967834 0.036670
O O1 0.108841 0.750000 0.037854
O O2 0.149272 0.843380 0.187522
O O3 0.273667 0.883720 0.091705
O O4 0.730126 0.854596 0.871458
O O5 0.904430 0.250000 0.311125
O O6 0.821050 0.363937 0.373170
O O7 0.795016 0.381681 0.193585
O O8 0.292171 0.358657 0.510864
O O9 0.428390 0.940219 0.622739
O O10 0.503782 0.978991 0.820250
O O11 0.500000 0.500000 0.500000
O O12 0.687510 0.370988 0.576005
O O13 0.004358 0.483734 0.680767
O O14 0.442657 0.750000 0.428302
O O15 0.500000 0.500000 0.000000
O O16 0.062399 0.534523 0.868068
O O17 0.000000 0.000000 0.000000
#
# Coordination Sequence:
#
# PCOD8076490 Si02
#       7
#     4   4   4   4   4   4   4
#     4  10  21  39  65  94 127 169 217 271 331 390
#     4  11  25  44  66  97 135 175 220 275 338 398
#     4  11  23  41  68  95 131 175 219 278 329 401
#     4  12  23  42  67  98 130 173 225 275 332 395
#     4  10  23  42  66  93 132 174 217 274 335 397
#     4  12  25  44  65  97 136 174 218 273 333 394
#     4  10  21  38  63  94 125 166 220 267 318 394
#
# _framework density 21.145558000000001
#
# number of rings (size 3 to 8) (size 9 to 14) (size 15 to 20)
#    0.000    1.143    2.857    4.714    0.000    3.429 
#    0.000    0.000    0.000    0.000    0.000    0.000 
#    0.000    0.000    0.000    0.000    0.000    0.000 
#
# Total GULP energy -347085.368920 kJ/mol
# GULP energy per Si atom -12395.906033 kJ/mol
# Density = 2.109743 g / cm^3
# Si number density = 21.145558 Si / 1000 Ang^3
#
#
#
# Elastic Constant Matrix: (Units=GPa)
#
#
# Indices 1 2 3 4 5 6 
#
# 1 74.5429 41.8076 36.3941 0.0000 -12.0119 0.0000
# 2 41.8076 135.4262 52.2488 0.0000 -6.4248 0.0000
# 3 36.3941 52.2488 116.4144 0.0000 -10.8932 0.0000
# 4 0.0000 0.0000 0.0000 34.8930 0.0000 -2.4480
# 5 -12.0119 -6.4248 -10.8932 0.0000 40.9933 0.0000
# 6 0.0000 0.0000 0.0000 -2.4480 0.0000 39.9671
#
#
#
# Elastic Compliance Matrix: (Units=1/GPa)
#
#
# Indices 1 2 3 4 5 6 
#
# 1 0.017965 -0.004036 -0.003458 0.000000 0.003713 0.000000
# 2 -0.004036 0.009842 -0.003201 0.000000 -0.000491 0.000000
# 3 -0.003458 -0.003201 0.011246 0.000000 0.001473 0.000000
# 4 0.000000 0.000000 0.000000 0.028783 0.000000 0.001763
# 5 0.003713 -0.000491 0.001473 0.000000 0.025797 0.000000
# 6 0.000000 0.000000 0.000000 0.001763 0.000000 0.025129
#
#
# Mechanical properties :
#
#
# Convention : Reuss Voigt Hill
#
# Bulk Modulus (GPa) = 56.61605 65.25384 60.93495
# Shear Modulus (GPa) = 34.23771 36.23288 35.23530
#
# Velocity S-wave (km/s) = 4.02822 4.14393 4.08649
# Velocity P-wave (km/s) = 6.96190 7.33639 7.15160
#
# Compressibility (1/GPa) = 0.01766284
#
# Stress axis : x y z
#
# Youngs Moduli (GPa) = 55.66383 101.60666 88.92342
#
# Poissons Ratio (x) = 0.41008 0.30745
# Poissons Ratio (y) = 0.22465 0.28468
# Poissons Ratio (z) = 0.19246 0.32528
#
# Static dielectric constant tensor:
#      x y z
#    x 4.077930 0.000000 -0.124460 
#    y 0.000000 4.434970 0.000000 
#    z -0.124460 0.000000 4.080530 
# 
# 
# High freq. dielectric constant tensor:
#      x y z
#    x 1.823540 0.000000 -0.003470 
#    y 0.000000 1.840680 0.000000 
#    z -0.003470 0.000000 1.827280 
# 
# From -- ./inp_files/48332.got.cif
#   From: 2010.06.25/outbox.cif.g09.slc.cpg/sg11_25_cif.got.tgz:48332.got - 2010.06.27 23:14:04.
