data_PCOD8076132
_publ_section_title
;
Structure prediction by ZEFSAII (Michael W. Deem and Ramdas Pophale) SiO2 
 PCOD8076132
Probable space group: P 21/M
;
_chemical_formula_sum "Si O2"
_cell_formula_units_Z 28
_cell_length_a 8.857784
_cell_length_b 12.254433
_cell_length_c 12.209236
_cell_angle_alpha 90.000000
_cell_angle_beta 68.730342
_cell_angle_gamma 90.000000
_cell_volume 1235.004104
_symmetry_space_group_name_H-M "P 21/M"
_symmetry_group_IT_number 11
_symmetry_cell_setting 'monoclinic'
loop_
_space_group_symop_operation_xyz
x,y,z
-x,1/2+y,-z
-x,-y,-z
x,1/2-y,z
loop_
_atom_site_type_symbol
_atom_site_label
_atom_site_fract_x
_atom_site_fract_y
_atom_site_fract_z
Si Si1 0.372581 0.500005 0.254837
Si Si2 0.818253 0.621637 0.870223
Si Si3 0.249878 0.121428 0.645257
Si Si4 0.688483 0.878365 0.129777
Si Si5 0.104869 0.621429 0.645252
Si Si6 0.468013 0.620306 0.585246
Si Si7 0.053250 0.879694 0.414759
O O1 0.323643 0.421954 0.168991
O O2 0.507364 0.578058 0.168989
O O3 0.442084 0.424992 0.332696
O O4 0.225219 0.575020 0.332696
O O5 0.802147 0.750000 0.873460
O O6 0.991604 0.585814 0.775978
O O7 0.797023 0.576554 0.999999
O O8 0.232992 0.250000 0.634229
O O9 0.232423 0.085795 0.775977
O O10 0.428784 0.089003 0.550913
O O11 0.096564 0.069220 0.618355
O O12 0.675643 0.750000 0.126550
O O13 0.132791 0.750000 0.634202
O O14 0.285084 0.569222 0.618353
O O15 0.020299 0.588995 0.550915
O O16 0.456002 0.750000 0.602107
O O17 0.058079 0.750000 0.397911
#
# Coordination Sequence:
#
# PCOD8076132 Si02
#       7
#     4   4   4   4   4   4   4
#     4  12  23  36  60  88 117 150 188 232 286 340
#     4  10  22  41  61  82 113 152 192 233 278 334
#     4   9  19  38  61  84 114 151 190 234 285 336
#     4  10  22  41  61  82 113 152 192 233 278 334
#     4   9  19  38  61  84 114 151 190 234 285 336
#     4  10  21  37  59  88 118 147 186 237 287 337
#     4  10  21  37  59  88 118 147 186 237 287 337
#
# _framework density 22.671987999999999
#
# number of rings (size 3 to 8) (size 9 to 14) (size 15 to 20)
#    0.000    2.000    0.000    3.000    0.000   10.286 
#    0.000    4.286    0.000    6.857    0.000    0.000 
#    0.000    0.000    0.000    0.000    0.000    0.000 
#
# Total GULP energy -347334.717922 kJ/mol
# GULP energy per Si atom -12404.811354 kJ/mol
# Density = 2.262039 g / cm^3
# Si number density = 22.671988 Si / 1000 Ang^3
#
#
#
# Elastic Constant Matrix: (Units=GPa)
#
#
# Indices 1 2 3 4 5 6 
#
# 1 195.5402 56.5942 114.3130 0.0000 0.4595 0.0000
# 2 56.5942 48.4264 59.0314 0.0000 -0.0173 0.0000
# 3 114.3130 59.0314 230.8065 0.0000 -1.0348 0.0000
# 4 0.0000 0.0000 0.0000 29.7902 0.0000 0.1991
# 5 0.4595 -0.0173 -1.0348 0.0000 27.9201 0.0000
# 6 0.0000 0.0000 0.0000 0.1991 0.0000 41.3066
#
#
#
# Elastic Compliance Matrix: (Units=1/GPa)
#
#
# Indices 1 2 3 4 5 6 
#
# 1 0.008588 -0.007047 -0.002452 0.000000 -0.000237 0.000000
# 2 -0.007047 0.035790 -0.005664 0.000000 -0.000072 0.000000
# 3 -0.002452 -0.005664 0.006997 0.000000 0.000296 0.000000
# 4 0.000000 0.000000 0.000000 0.033569 0.000000 -0.000162
# 5 -0.000237 -0.000072 0.000296 0.000000 0.035831 0.000000
# 6 0.000000 0.000000 0.000000 -0.000162 0.000000 0.024210
#
#
# Mechanical properties :
#
#
# Convention : Reuss Voigt Hill
#
# Bulk Modulus (GPa) = 47.50912 103.85001 75.67956
# Shear Modulus (GPa) = 27.42336 36.12568 31.77452
#
# Velocity S-wave (km/s) = 3.48166 3.99608 3.74771
# Velocity P-wave (km/s) = 6.09615 8.19734 7.22355
#
# Compressibility (1/GPa) = 0.02104859
#
# Stress axis : x y z
#
# Youngs Moduli (GPa) = 116.44654 27.94106 142.92166
#
# Poissons Ratio (x) = 0.19691 0.35043
# Poissons Ratio (y) = 0.82063 0.80945
# Poissons Ratio (z) = 0.28551 0.15825
#
# Static dielectric constant tensor:
#      x y z
#    x 4.655730 0.000000 0.002900 
#    y 0.000000 4.554180 0.000000 
#    z 0.002900 0.000000 4.509340 
# 
# 
# High freq. dielectric constant tensor:
#      x y z
#    x 1.902180 0.000000 0.000250 
#    y 0.000000 1.946980 0.000000 
#    z 0.000250 0.000000 1.888210 
# 
# From -- ./inp_files/31660.got.cif
#   From: 2010.06.25/outbox.cif.g09.slc.cpg/sg11_16_cif.got.tgz:31660.got - 2010.06.27 23:14:04.
