data_PCOD8076382
_publ_section_title
;
Structure prediction by ZEFSAII (Michael W. Deem and Ramdas Pophale) SiO2 
 PCOD8076382
Probable space group: P 21/M
;
_chemical_formula_sum "Si O2"
_cell_formula_units_Z 28
_cell_length_a 17.979834
_cell_length_b 14.035573
_cell_length_c 5.619256
_cell_angle_alpha 90.000000
_cell_angle_beta 60.175959
_cell_angle_gamma 90.000000
_cell_volume 1230.247769
_symmetry_space_group_name_H-M "P 21/M"
_symmetry_group_IT_number 11
_symmetry_cell_setting 'monoclinic'
loop_
_space_group_symop_operation_xyz
x,y,z
-x,1/2+y,-z
-x,-y,-z
x,1/2-y,z
loop_
_atom_site_type_symbol
_atom_site_label
_atom_site_fract_x
_atom_site_fract_y
_atom_site_fract_z
Si Si1 0.843977 0.856200 0.416642
Si Si2 0.400352 0.508704 0.113502
Si Si3 0.111952 0.640367 0.570905
Si Si4 0.692249 0.645483 0.995088
Si Si5 0.281438 0.640105 0.057951
Si Si6 0.958246 0.139496 0.816923
Si Si7 0.734335 0.501619 0.304014
O O1 0.835339 0.750000 0.305831
O O2 0.789567 0.854008 0.745153
O O3 0.813147 0.947893 0.315111
O O4 0.940683 0.876633 0.333443
O O5 0.370025 0.402642 0.097947
O O6 0.372847 0.587707 0.958202
O O7 0.344759 0.542970 0.424858
O O8 0.500000 0.500000 0.000000
O O9 0.082903 0.750000 0.620407
O O10 0.215999 0.629460 0.387466
O O11 0.072213 0.593988 0.389773
O O12 0.081962 0.594302 0.872197
O O13 0.656198 0.750000 0.101472
O O14 0.688443 0.587854 0.241670
O O15 0.296831 0.750000 0.966599
O O16 0.233561 0.585070 0.916078
O O17 0.931020 0.250000 0.853915
#
# Coordination Sequence:
#
# PCOD8076382 Si02
#       7
#     4   4   4   4   4   4   4
#     4   9  18  33  58  90 125 168 205 250 310 364
#     4  10  23  42  62  88 121 152 195 255 314 381
#     4   9  19  35  56  87 124 168 218 266 309 367
#     4   9  19  36  60  89 122 157 196 245 310 378
#     4  10  23  41  63  87 118 163 209 254 314 373
#     4   9  18  32  56  89 126 168 219 266 309 364
#     4  10  21  38  61  86 121 155 204 252 312 373
#
# _framework density 22.759644999999999
#
# number of rings (size 3 to 8) (size 9 to 14) (size 15 to 20)
#    0.000    2.571    0.000    0.429    4.000    4.000 
#    0.000    2.857    0.000    0.000    0.000    0.000 
#    0.000    0.000    0.000    0.000    0.000    0.000 
#
# Total GULP energy -346868.099578 kJ/mol
# GULP energy per Si atom -12388.146413 kJ/mol
# Density = 2.270784 g / cm^3
# Si number density = 22.759645 Si / 1000 Ang^3
#
#
#
# Elastic Constant Matrix: (Units=GPa)
#
#
# Indices 1 2 3 4 5 6 
#
# 1 126.8053 28.9387 50.0038 0.0000 -6.0991 0.0000
# 2 28.9387 116.8605 13.0290 0.0000 -2.5454 0.0000
# 3 50.0038 13.0290 78.6034 0.0000 14.5430 0.0000
# 4 0.0000 0.0000 0.0000 20.5974 0.0000 -1.8104
# 5 -6.0991 -2.5454 14.5430 0.0000 33.6533 0.0000
# 6 0.0000 0.0000 0.0000 -1.8104 0.0000 22.9129
#
#
#
# Elastic Compliance Matrix: (Units=1/GPa)
#
#
# Indices 1 2 3 4 5 6 
#
# 1 0.011837 -0.001891 -0.008247 0.000000 0.005566 0.000000
# 2 -0.001891 0.009081 -0.000398 0.000000 0.000516 0.000000
# 3 -0.008247 -0.000398 0.019908 0.000000 -0.010128 0.000000
# 4 0.000000 0.000000 0.000000 0.048889 0.000000 0.003863
# 5 0.005566 0.000516 -0.010128 0.000000 0.035139 0.000000
# 6 0.000000 0.000000 0.000000 0.003863 0.000000 0.043949
#
#
# Mechanical properties :
#
#
# Convention : Reuss Voigt Hill
#
# Bulk Modulus (GPa) = 50.61859 56.24578 53.43218
# Shear Modulus (GPa) = 25.45049 30.78589 28.11819
#
# Velocity S-wave (km/s) = 3.34762 3.68183 3.51870
# Velocity P-wave (km/s) = 6.10171 6.54531 6.32740
#
# Compressibility (1/GPa) = 0.01975559
#
# Stress axis : x y z
#
# Youngs Moduli (GPa) = 84.47890 110.11983 50.23079
#
# Poissons Ratio (x) = 0.20820 0.41424
# Poissons Ratio (y) = 0.15972 0.01999
# Poissons Ratio (z) = 0.69668 0.04383
#
# Static dielectric constant tensor:
#      x y z
#    x 3.841000 0.000000 0.273670 
#    y 0.000000 4.370570 0.000000 
#    z 0.273670 0.000000 4.189050 
# 
# 
# High freq. dielectric constant tensor:
#      x y z
#    x 1.882730 0.000000 0.013890 
#    y 0.000000 1.897950 0.000000 
#    z 0.013890 0.000000 1.890010 
# 
# From -- ./inp_files/8007.got.cif
#   From: 2010.06.25/outbox.cif.g09.slc.cpg/sg11_5_cif.got.tgz:8007.got - 2010.06.27 23:14:04.
