data_PCOD8076611
_publ_section_title
;
Structure prediction by ZEFSAII (Michael W. Deem and Ramdas Pophale) SiO2 
 PCOD8076611
Probable space group: P 21/M
;
_chemical_formula_sum "Si O2"
_cell_formula_units_Z 32
_cell_length_a 15.440092
_cell_length_b 8.793112
_cell_length_c 11.920648
_cell_angle_alpha 90.000000
_cell_angle_beta 90.728537
_cell_angle_gamma 90.000000
_cell_volume 1618.293327
_symmetry_space_group_name_H-M "P 21/M"
_symmetry_group_IT_number 11
_symmetry_cell_setting 'monoclinic'
loop_
_space_group_symop_operation_xyz
x,y,z
-x,1/2+y,-z
-x,-y,-z
x,1/2-y,z
loop_
_atom_site_type_symbol
_atom_site_label
_atom_site_fract_x
_atom_site_fract_y
_atom_site_fract_z
Si Si1 0.495229 0.069924 0.621054
Si Si2 0.004269 0.428905 0.377941
Si Si3 0.153444 0.576184 0.244868
Si Si4 0.338489 0.071308 0.764816
Si Si5 0.405757 0.070324 0.000404
Si Si6 0.652686 0.426306 0.778402
Si Si7 0.906275 0.428111 0.003775
Si Si8 0.853926 0.929074 0.227672
O O1 0.492726 0.250000 0.610451
O O2 0.408811 0.003582 0.679388
O O3 0.579198 0.016197 0.691996
O O4 0.500000 0.000000 0.500000
O O5 0.996516 0.250000 0.389492
O O6 0.095007 0.468580 0.320704
O O7 0.000000 0.500000 0.500000
O O8 0.925292 0.488305 0.302570
O O9 0.126384 0.750000 0.269195
O O10 0.253723 0.546258 0.277088
O O11 0.141687 0.539552 0.113597
O O12 0.352389 0.250000 0.768897
O O13 0.355492 0.008141 0.890002
O O14 0.240960 0.031805 0.723684
O O15 0.414777 0.250000 0.999761
O O16 0.500000 0.000000 0.000000
O O17 0.351863 0.019942 0.107385
O O18 0.639141 0.250000 0.808378
O O19 0.913356 0.250000 0.030770
O O20 0.853613 0.511454 0.100597
O O21 0.000000 0.500000 0.000000
O O22 0.873148 0.750000 0.228445
#
# Coordination Sequence:
#
# PCOD8076611 Si02
#       8
#     4   4   4   4   4   4   4   4
#     4  10  21  40  60  82 116 154 197 244 293 345
#     4  12  26  44  65  87 118 158 203 253 303 358
#     4  10  22  40  63  91 123 159 199 245 301 358
#     4   9  20  38  60  86 121 159 193 241 302 353
#     4  11  20  35  60  90 123 160 198 241 298 361
#     4  10  21  39  62  88 122 157 194 247 299 349
#     4  11  21  35  59  90 125 160 194 240 299 362
#     4  11  22  39  63  90 121 158 201 250 301 360
#
# _framework density 19.773918999999999
#
# number of rings (size 3 to 8) (size 9 to 14) (size 15 to 20)
#    0.000    1.500    2.500    3.000    0.000    2.500 
#    0.000    5.625    0.000    0.000    0.000    0.000 
#    0.000    0.000    0.000    0.000    0.000    0.000 
#
# Total GULP energy -396874.140756 kJ/mol
# GULP energy per Si atom -12402.316899 kJ/mol
# Density = 1.972891 g / cm^3
# Si number density = 19.773919 Si / 1000 Ang^3
#
#
#
# Elastic Constant Matrix: (Units=GPa)
#
#
# Indices 1 2 3 4 5 6 
#
# 1 145.4836 43.8209 61.5207 0.0000 -15.2125 0.0000
# 2 43.8209 87.6621 46.3196 0.0000 -9.6873 0.0000
# 3 61.5207 46.3196 140.2378 0.0000 -16.0137 0.0000
# 4 0.0000 0.0000 0.0000 36.3570 0.0000 -5.7588
# 5 -15.2125 -9.6873 -16.0137 0.0000 14.7695 0.0000
# 6 0.0000 0.0000 0.0000 -5.7588 0.0000 19.3890
#
#
#
# Elastic Compliance Matrix: (Units=1/GPa)
#
#
# Indices 1 2 3 4 5 6 
#
# 1 0.009323 -0.002726 -0.002622 0.000000 0.004972 0.000000
# 2 -0.002726 0.014908 -0.003347 0.000000 0.003342 0.000000
# 3 -0.002622 -0.003347 0.010075 0.000000 0.006028 0.000000
# 4 0.000000 0.000000 0.000000 0.028863 0.000000 0.008573
# 5 0.004972 0.003342 0.006028 0.000000 0.081556 0.000000
# 6 0.000000 0.000000 0.000000 0.008573 0.000000 0.054122
#
#
# Mechanical properties :
#
#
# Convention : Reuss Voigt Hill
#
# Bulk Modulus (GPa) = 59.11164 75.18954 67.15059
# Shear Modulus (GPa) = 22.53531 28.88457 25.70994
#
# Velocity S-wave (km/s) = 3.37953 3.82611 3.60973
# Velocity P-wave (km/s) = 6.72212 7.59118 7.16983
#
# Compressibility (1/GPa) = 0.01691714
#
# Stress axis : x y z
#
# Youngs Moduli (GPa) = 107.25798 67.08015 99.25935
#
# Poissons Ratio (x) = 0.18284 0.26025
# Poissons Ratio (y) = 0.29235 0.33217
# Poissons Ratio (z) = 0.28123 0.22448
#
# Static dielectric constant tensor:
#      x y z
#    x 4.174710 0.000000 -0.181520 
#    y 0.000000 3.590580 0.000000 
#    z -0.181520 0.000000 3.734040 
# 
# 
# High freq. dielectric constant tensor:
#      x y z
#    x 1.788650 0.000000 -0.001350 
#    y 0.000000 1.761380 0.000000 
#    z -0.001350 0.000000 1.769570 
# 
# From -- ./inp_files/38258.got.cif
#   From: 2010.06.25/outbox.cif.g09.slc.cpg/sg11_20_cif.got.tgz:38258.got - 2010.06.27 23:14:04.
