data_PCOD8076388
_publ_section_title
;
Structure prediction by ZEFSAII (Michael W. Deem and Ramdas Pophale) SiO2 
 PCOD8076388
Probable space group: P 21/M
;
_chemical_formula_sum "Si O2"
_cell_formula_units_Z 20
_cell_length_a 16.724438
_cell_length_b 8.691739
_cell_length_c 14.928872
_cell_angle_alpha 90.000000
_cell_angle_beta 25.095830
_cell_angle_gamma 90.000000
_cell_volume 920.423704
_symmetry_space_group_name_H-M "P 21/M"
_symmetry_group_IT_number 11
_symmetry_cell_setting 'monoclinic'
loop_
_space_group_symop_operation_xyz
x,y,z
-x,1/2+y,-z
-x,-y,-z
x,1/2-y,z
loop_
_atom_site_type_symbol
_atom_site_label
_atom_site_fract_x
_atom_site_fract_y
_atom_site_fract_z
Si Si1 0.064428 0.931278 0.841626
Si Si2 0.266351 0.568809 0.152942
Si Si3 0.365783 0.068674 0.421808
Si Si4 0.321882 0.569114 0.288803
Si Si5 0.776856 0.931352 0.979812
O O1 0.080438 0.750000 0.833989
O O2 0.267958 0.000113 0.609590
O O3 0.918175 0.983315 0.913736
O O4 0.000000 0.000000 0.000000
O O5 0.276257 0.750000 0.124771
O O6 0.195171 0.535228 0.327696
O O7 0.472540 0.497931 0.936334
O O8 0.143610 0.488666 0.198557
O O9 0.363543 0.250000 0.429042
O O10 0.245120 0.011575 0.456897
O O11 0.578322 0.009568 0.202685
O O12 0.334760 0.750000 0.293970
O O13 0.751535 0.750000 0.002347
#
# Coordination Sequence:
#
# PCOD8076388 Si02
#       5
#     4   4   4   4   4
#     4  11  25  44  64  86 113 147 190 241 294 345
#     4   9  16  27  49  81 115 152 191 231 277 330
#     4  11  22  37  61  89 118 154 192 234 285 340
#     4   9  16  28  49  79 116 154 191 231 275 329
#     4  10  21  38  61  87 117 153 191 235 286 340
#
# _framework density 21.729123999999999
#
# number of rings (size 3 to 8) (size 9 to 14) (size 15 to 20)
#    0.000    2.000    0.000    6.600    0.000    6.400 
#    0.000    1.000    0.000    0.000    0.000    0.000 
#    0.000    0.000    0.000    0.000    0.000    0.000 
#
# Total GULP energy -247875.376954 kJ/mol
# GULP energy per Si atom -12393.768848 kJ/mol
# Density = 2.167967 g / cm^3
# Si number density = 21.729124 Si / 1000 Ang^3
#
#
#
# Elastic Constant Matrix: (Units=GPa)
#
#
# Indices 1 2 3 4 5 6 
#
# 1 101.5929 39.5197 11.9677 0.0000 17.2663 0.0000
# 2 39.5197 110.4108 12.3448 0.0000 8.5372 0.0000
# 3 11.9677 12.3448 54.4198 0.0000 27.1416 0.0000
# 4 0.0000 0.0000 0.0000 28.4690 0.0000 12.4329
# 5 17.2663 8.5372 27.1416 0.0000 33.5209 0.0000
# 6 0.0000 0.0000 0.0000 12.4329 0.0000 32.6064
#
#
#
# Elastic Compliance Matrix: (Units=1/GPa)
#
#
# Indices 1 2 3 4 5 6 
#
# 1 0.012367 -0.004086 0.001451 0.000000 -0.006505 0.000000
# 2 -0.004086 0.010667 -0.002040 0.000000 0.001039 0.000000
# 3 0.001451 -0.002040 0.031254 0.000000 -0.025535 0.000000
# 4 0.000000 0.000000 0.000000 0.042144 0.000000 -0.016069
# 5 -0.006505 0.001039 -0.025535 0.000000 0.053593 0.000000
# 6 0.000000 0.000000 0.000000 -0.016069 0.000000 0.036796
#
#
# Mechanical properties :
#
#
# Convention : Reuss Voigt Hill
#
# Bulk Modulus (GPa) = 22.25166 43.78754 33.01960
# Shear Modulus (GPa) = 23.67982 32.42535 28.05259
#
# Velocity S-wave (km/s) = 3.30475 3.86716 3.59697
# Velocity P-wave (km/s) = 4.98243 6.33523 5.69911
#
# Compressibility (1/GPa) = 0.04494048
#
# Stress axis : x y z
#
# Youngs Moduli (GPa) = 80.85914 93.74482 31.99552
#
# Poissons Ratio (x) = 0.38304 -0.04644
# Poissons Ratio (y) = 0.33039 0.06526
# Poissons Ratio (z) = -0.11736 0.19120
#
# Static dielectric constant tensor:
#      x y z
#    x 4.560000 0.000000 0.488660 
#    y 0.000000 3.934210 0.000000 
#    z 0.488660 0.000000 3.826910 
# 
# 
# High freq. dielectric constant tensor:
#      x y z
#    x 1.858530 0.000000 0.018830 
#    y 0.000000 1.863890 0.000000 
#    z 0.018830 0.000000 1.842870 
# 
# From -- ./inp_files/20265.got.cif
#   From: 2010.06.25/outbox.cif.g09.slc.cpg/sg11_11_cif.got.tgz:20265.got - 2010.06.27 23:14:04.
