data_PCOD8076246
_publ_section_title
;
Structure prediction by ZEFSAII (Michael W. Deem and Ramdas Pophale) SiO2 
 PCOD8076246
Probable space group: P 21/M
;
_chemical_formula_sum "Si O2"
_cell_formula_units_Z 32
_cell_length_a 20.668427
_cell_length_b 8.894550
_cell_length_c 26.086763
_cell_angle_alpha 90.000000
_cell_angle_beta 159.297003
_cell_angle_gamma 90.000000
_cell_volume 1695.392367
_symmetry_space_group_name_H-M "P 21/M"
_symmetry_group_IT_number 11
_symmetry_cell_setting 'monoclinic'
loop_
_space_group_symop_operation_xyz
x,y,z
-x,1/2+y,-z
-x,-y,-z
x,1/2-y,z
loop_
_atom_site_type_symbol
_atom_site_label
_atom_site_fract_x
_atom_site_fract_y
_atom_site_fract_z
Si Si1 0.273512 0.418376 0.068495
Si Si2 0.683317 0.573125 0.155322
Si Si3 0.301285 0.429013 0.355441
Si Si4 0.962834 0.426885 0.762023
Si Si5 0.037845 0.572760 0.356846
Si Si6 0.038276 0.578468 0.081527
Si Si7 0.647837 0.926312 0.346040
Si Si8 0.194617 0.073890 0.643914
O O1 0.350040 0.250000 0.116527
O O2 0.438904 0.531091 0.201357
O O3 0.155242 0.469880 0.931424
O O4 0.149496 0.424296 0.026639
O O5 0.668949 0.750000 0.136960
O O6 0.697873 0.525917 0.225429
O O7 0.859248 0.511142 0.254440
O O8 0.500000 0.500000 0.000000
O O9 0.500000 0.500000 0.500000
O O10 0.313695 0.250000 0.364157
O O11 0.202470 0.482689 0.334348
O O12 0.193049 0.485264 0.225489
O O13 0.923642 0.250000 0.740680
O O14 0.977198 0.474229 0.713576
O O15 0.052908 0.750000 0.374541
O O16 0.221080 0.502667 0.515521
O O17 0.105596 0.750000 0.123682
O O18 0.000000 0.500000 0.000000
O O19 0.672704 0.750000 0.370298
O O20 0.694664 0.982688 0.323455
O O21 0.162940 0.250000 0.619096
O O22 0.000000 0.000000 0.500000
#
# Coordination Sequence:
#
# PCOD8076246 Si02
#       8
#     4   4   4   4   4   4   4   4
#     4   9  20  38  59  82 112 150 187 226 277 339
#     4  10  22  38  57  83 112 145 187 233 284 339
#     4  11  22  38  61  88 118 155 194 236 288 341
#     4   9  20  39  60  84 113 147 191 238 283 338
#     4  10  21  39  60  81 111 150 189 232 283 340
#     4  10  21  39  62  89 120 153 193 238 285 339
#     4  11  23  36  55  84 114 147 188 235 282 332
#     4  10  21  38  57  80 111 146 187 234 283 334
#
# _framework density 18.874687000000002
#
# number of rings (size 3 to 8) (size 9 to 14) (size 15 to 20)
#    0.000    2.000    1.250    2.625    1.750    5.500 
#    0.000    1.250    0.000    0.000    0.000    0.000 
#    0.000    0.000    0.000    0.000    0.000    0.000 
#
# Total GULP energy -396881.275823 kJ/mol
# GULP energy per Si atom -12402.539869 kJ/mol
# Density = 1.883173 g / cm^3
# Si number density = 18.874687 Si / 1000 Ang^3
#
#
#
# Elastic Constant Matrix: (Units=GPa)
#
#
# Indices 1 2 3 4 5 6 
#
# 1 119.8543 44.8826 63.0076 0.0000 -22.6495 0.0000
# 2 44.8826 70.1166 46.6707 0.0000 -4.4765 0.0000
# 3 63.0076 46.6707 140.0128 0.0000 -3.8152 0.0000
# 4 0.0000 0.0000 0.0000 37.6011 0.0000 0.2808
# 5 -22.6495 -4.4765 -3.8152 0.0000 30.6801 0.0000
# 6 0.0000 0.0000 0.0000 0.2808 0.0000 28.7271
#
#
#
# Elastic Compliance Matrix: (Units=1/GPa)
#
#
# Indices 1 2 3 4 5 6 
#
# 1 0.014599 -0.005839 -0.004368 0.000000 0.009383 0.000000
# 2 -0.005839 0.020777 -0.004348 0.000000 -0.001820 0.000000
# 3 -0.004368 -0.004348 0.010487 0.000000 -0.002555 0.000000
# 4 0.000000 0.000000 0.000000 0.026597 0.000000 -0.000260
# 5 0.009383 -0.001820 -0.002555 0.000000 0.038938 0.000000
# 6 0.000000 0.000000 0.000000 -0.000260 0.000000 0.034813
#
#
# Mechanical properties :
#
#
# Convention : Reuss Voigt Hill
#
# Bulk Modulus (GPa) = 59.68370 71.01171 65.34771
# Shear Modulus (GPa) = 27.63869 31.09651 29.36760
#
# Velocity S-wave (km/s) = 3.83080 4.06337 3.94880
# Velocity P-wave (km/s) = 7.15936 7.72781 7.44901
#
# Compressibility (1/GPa) = 0.01675499
#
# Stress axis : x y z
#
# Youngs Moduli (GPa) = 68.49636 48.12965 95.35192
#
# Poissons Ratio (x) = 0.28102 0.41649
# Poissons Ratio (y) = 0.39994 0.41457
# Poissons Ratio (z) = 0.29919 0.20926
#
# Static dielectric constant tensor:
#      x y z
#    x 3.669680 0.000000 -0.059560 
#    y 0.000000 3.462430 0.000000 
#    z -0.059560 0.000000 3.390790 
# 
# 
# High freq. dielectric constant tensor:
#      x y z
#    x 1.742120 0.000000 -0.004760 
#    y 0.000000 1.731540 0.000000 
#    z -0.004760 0.000000 1.739250 
# 
# From -- ./inp_files/72196.got.cif
#   From: 2010.06.25/outbox.cif.g09.slc.cpg/sg11_37_cif.got.tgz:72196.got - 2010.06.27 23:14:04.
