data_PCOD8076802
_publ_section_title
;
Structure prediction by ZEFSAII (Michael W. Deem and Ramdas Pophale) SiO2 
 PCOD8076802
Probable space group: P 21/M
;
_chemical_formula_sum "Si O2"
_cell_formula_units_Z 28
_cell_length_a 15.012541
_cell_length_b 8.493053
_cell_length_c 11.088999
_cell_angle_alpha 90.000000
_cell_angle_beta 65.067326
_cell_angle_gamma 90.000000
_cell_volume 1282.105310
_symmetry_space_group_name_H-M "P 21/M"
_symmetry_group_IT_number 11
_symmetry_cell_setting 'monoclinic'
loop_
_space_group_symop_operation_xyz
x,y,z
-x,1/2+y,-z
-x,-y,-z
x,1/2-y,z
loop_
_atom_site_type_symbol
_atom_site_label
_atom_site_fract_x
_atom_site_fract_y
_atom_site_fract_z
Si Si1 0.437999 0.068926 0.697565
Si Si2 0.419647 0.930757 0.958257
Si Si3 0.652289 0.068834 0.595400
Si Si4 0.751100 0.071958 0.302917
Si Si5 0.754919 0.430211 0.770028
Si Si6 0.034860 0.066913 0.350533
Si Si7 0.950512 0.931771 0.148898
O O1 0.424776 0.250000 0.665061
O O2 0.547906 0.998217 0.607738
O O3 0.419355 0.051323 0.849179
O O4 0.358251 0.960769 0.679404
O O5 0.445112 0.750000 0.908541
O O6 0.309861 0.937254 0.073559
O O7 0.500000 0.000000 0.000000
O O8 0.626427 0.250000 0.636186
O O9 0.742447 0.048215 0.451700
O O10 0.690266 0.994111 0.698398
O O11 0.780653 0.250000 0.252390
O O12 0.833310 0.957319 0.201681
O O13 0.786058 0.250000 0.722181
O O14 0.850701 0.534457 0.733885
O O15 0.012927 0.250000 0.367058
O O16 0.000000 0.000000 0.500000
O O17 0.981083 0.003629 0.260681
O O18 0.976973 0.750000 0.137583
O O19 0.000000 0.000000 0.000000
#
# Coordination Sequence:
#
# PCOD8076802 Si02
#       7
#     4   4   4   4   4   4   4
#     4  11  22  39  61  90 130 173 218 264 314 382
#     4  11  22  38  61  90 127 169 214 265 323 386
#     4   9  19  38  63  92 129 171 211 259 317 377
#     4  11  23  41  66  95 128 169 215 267 327 391
#     4  10  21  40  65  93 128 171 216 268 327 388
#     4  12  26  46  72 104 137 176 225 282 341 406
#     4  12  27  49  73 100 133 176 227 285 345 408
#
# _framework density 21.839079000000002
#
# number of rings (size 3 to 8) (size 9 to 14) (size 15 to 20)
#    0.000    1.143    1.429    5.143    2.000    2.286 
#    0.000    2.857    0.000    0.000    0.000    0.000 
#    0.000    0.000    0.000    0.000    0.000    0.000 
#
# Total GULP energy -347105.778828 kJ/mol
# GULP energy per Si atom -12396.634958 kJ/mol
# Density = 2.178937 g / cm^3
# Si number density = 21.839079 Si / 1000 Ang^3
#
#
#
# Elastic Constant Matrix: (Units=GPa)
#
#
# Indices 1 2 3 4 5 6 
#
# 1 98.6425 22.6288 33.2391 0.0000 -9.9357 0.0000
# 2 22.6288 100.4937 42.0941 0.0000 -4.2461 0.0000
# 3 33.2391 42.0941 117.5748 0.0000 -7.9986 0.0000
# 4 0.0000 0.0000 0.0000 31.9603 0.0000 1.2074
# 5 -9.9357 -4.2461 -7.9986 0.0000 37.5165 0.0000
# 6 0.0000 0.0000 0.0000 1.2074 0.0000 34.8033
#
#
#
# Elastic Compliance Matrix: (Units=1/GPa)
#
#
# Indices 1 2 3 4 5 6 
#
# 1 0.011577 -0.001416 -0.002606 0.000000 0.002350 0.000000
# 2 -0.001416 0.011887 -0.003845 0.000000 0.000151 0.000000
# 3 -0.002606 -0.003845 0.010697 0.000000 0.001155 0.000000
# 4 0.000000 0.000000 0.000000 0.031330 0.000000 -0.001087
# 5 0.002350 0.000151 0.001155 0.000000 0.027541 0.000000
# 6 0.000000 0.000000 0.000000 -0.001087 0.000000 0.028771
#
#
# Mechanical properties :
#
#
# Convention : Reuss Voigt Hill
#
# Bulk Modulus (GPa) = 54.26897 56.95946 55.61422
# Shear Modulus (GPa) = 34.79974 35.43929 35.11951
#
# Velocity S-wave (km/s) = 3.99615 4.03270 4.01447
# Velocity P-wave (km/s) = 6.79674 6.91532 6.85629
#
# Compressibility (1/GPa) = 0.01842673
#
# Stress axis : x y z
#
# Youngs Moduli (GPa) = 86.37559 84.12760 93.48226
#
# Poissons Ratio (x) = 0.11912 0.24363
# Poissons Ratio (y) = 0.12231 0.35945
# Poissons Ratio (z) = 0.22511 0.32348
#
# Static dielectric constant tensor:
#      x y z
#    x 4.693860 0.000000 1.478470 
#    y 0.000000 3.794260 0.000000 
#    z 1.478470 0.000000 7.478760 
# 
# 
# High freq. dielectric constant tensor:
#      x y z
#    x 1.867870 0.000000 -0.002220 
#    y 0.000000 1.844230 0.000000 
#    z -0.002220 0.000000 1.872980 
# 
# From -- ./inp_files/37904.got.cif
#   From: 2010.06.25/outbox.cif.g09.slc.cpg/sg11_19_cif.got.tgz:37904.got - 2010.06.27 23:14:04.
