data_PCOD8076129
_publ_section_title
;
Structure prediction by ZEFSAII (Michael W. Deem and Ramdas Pophale) SiO2 
 PCOD8076129
Probable space group: P 21/M
;
_chemical_formula_sum "Si O2"
_cell_formula_units_Z 32
_cell_length_a 9.676284
_cell_length_b 27.307960
_cell_length_c 14.015727
_cell_angle_alpha 90.000000
_cell_angle_beta 26.614823
_cell_angle_gamma 90.000000
_cell_volume 1659.136820
_symmetry_space_group_name_H-M "P 21/M"
_symmetry_group_IT_number 11
_symmetry_cell_setting 'monoclinic'
loop_
_space_group_symop_operation_xyz
x,y,z
-x,1/2+y,-z
-x,-y,-z
x,1/2-y,z
loop_
_atom_site_type_symbol
_atom_site_label
_atom_site_fract_x
_atom_site_fract_y
_atom_site_fract_z
Si Si1 0.454551 0.385477 0.291200
Si Si2 0.463167 0.306203 0.798297
Si Si3 0.119789 0.628064 0.800546
Si Si4 0.241909 0.693994 0.021298
Si Si5 0.459302 0.194792 0.585756
Si Si6 0.204060 0.856021 0.242005
Si Si7 0.300112 0.060500 0.058228
Si Si8 0.292637 0.477546 0.267416
O O1 0.727852 0.393765 0.198365
O O2 0.436492 0.433346 0.237907
O O3 0.140034 0.376814 0.542885
O O4 0.518240 0.338763 0.185232
O O5 0.399837 0.250000 0.863323
O O6 0.585946 0.312002 0.614797
O O7 0.728668 0.328194 0.700928
O O8 0.145809 0.334345 0.008802
O O9 0.379044 0.656347 0.581802
O O10 0.988945 0.583478 0.818762
O O11 0.345461 0.750000 0.943630
O O12 0.247040 0.681941 0.129875
O O13 0.903975 0.684490 0.187834
O O14 0.524341 0.250000 0.508765
O O15 0.433802 0.900723 0.083908
O O16 0.437570 0.017526 0.907887
O O17 0.178449 0.039795 0.233776
O O18 0.000000 0.500000 0.500000
#
# Coordination Sequence:
#
# PCOD8076129 Si02
#       8
#     4   4   4   4   4   4   4   4
#     4  12  24  40  66  93 125 167 211 258 315 377
#     4  10  22  38  58  89 126 164 209 256 305 367
#     4  11  23  39  63  92 125 163 207 260 313 371
#     4  11  23  39  60  93 132 167 209 258 304 367
#     4  10  21  37  59  87 126 170 207 250 309 370
#     4  11  22  40  63  94 123 165 208 260 312 372
#     4  10  24  42  67  93 124 158 206 263 323 376
#     4  11  23  44  69  92 122 164 208 263 325 383
#
# _framework density 19.287137999999999
#
# number of rings (size 3 to 8) (size 9 to 14) (size 15 to 20)
#    0.000    1.250    5.000    0.750    1.750    2.000 
#    0.000    3.125    0.000    0.000    0.000    0.000 
#    0.000    0.000    0.000    0.000    0.000    0.000 
#
# Total GULP energy -396969.575932 kJ/mol
# GULP energy per Si atom -12405.299248 kJ/mol
# Density = 1.924324 g / cm^3
# Si number density = 19.287138 Si / 1000 Ang^3
#
#
#
# Elastic Constant Matrix: (Units=GPa)
#
#
# Indices 1 2 3 4 5 6 
#
# 1 100.6601 52.2245 30.8110 0.0000 2.1426 0.0000
# 2 52.2245 123.2489 42.4666 0.0000 6.8039 0.0000
# 3 30.8110 42.4666 70.3327 0.0000 11.4018 0.0000
# 4 0.0000 0.0000 0.0000 25.4539 0.0000 -5.3609
# 5 2.1426 6.8039 11.4018 0.0000 27.0495 0.0000
# 6 0.0000 0.0000 0.0000 -5.3609 0.0000 20.0654
#
#
#
# Elastic Compliance Matrix: (Units=1/GPa)
#
#
# Indices 1 2 3 4 5 6 
#
# 1 0.013286 -0.004575 -0.003299 0.000000 0.001489 0.000000
# 2 -0.004575 0.011821 -0.005055 0.000000 -0.000480 0.000000
# 3 -0.003299 -0.005055 0.019822 0.000000 -0.006822 0.000000
# 4 0.000000 0.000000 0.000000 0.041629 0.000000 0.011122
# 5 0.001489 -0.000480 -0.006822 0.000000 0.039848 0.000000
# 6 0.000000 0.000000 0.000000 0.011122 0.000000 0.052809
#
#
# Mechanical properties :
#
#
# Convention : Reuss Voigt Hill
#
# Bulk Modulus (GPa) = 52.44018 60.58285 56.51152
# Shear Modulus (GPa) = 23.64849 25.76306 24.70577
#
# Velocity S-wave (km/s) = 3.50541 3.65878 3.58291
# Velocity P-wave (km/s) = 6.60546 7.02339 6.81763
#
# Compressibility (1/GPa) = 0.01906935
#
# Stress axis : x y z
#
# Youngs Moduli (GPa) = 75.26524 84.59787 50.44969
#
# Poissons Ratio (x) = 0.38706 0.16645
# Poissons Ratio (y) = 0.34436 0.25503
# Poissons Ratio (z) = 0.24832 0.42765
#
# Static dielectric constant tensor:
#      x y z
#    x 3.671480 0.000000 0.094780 
#    y 0.000000 3.627290 0.000000 
#    z 0.094780 0.000000 3.410760 
# 
# 
# High freq. dielectric constant tensor:
#      x y z
#    x 1.759420 0.000000 0.008770 
#    y 0.000000 1.756280 0.000000 
#    z 0.008770 0.000000 1.750880 
# 
# From -- ./inp_files/19868.got.cif
#   From: 2010.06.25/outbox.cif.g09.slc.cpg/sg11_10_cif.got.tgz:19868.got - 2010.06.27 23:14:04.
