data_PCOD8076817
_publ_section_title
;
Structure prediction by ZEFSAII (Michael W. Deem and Ramdas Pophale) SiO2 
 PCOD8076817
Probable space group: P 21/M
;
_chemical_formula_sum "Si O2"
_cell_formula_units_Z 32
_cell_length_a 15.416847
_cell_length_b 8.436994
_cell_length_c 12.110508
_cell_angle_alpha 90.000000
_cell_angle_beta 90.018468
_cell_angle_gamma 90.000000
_cell_volume 1575.236045
_symmetry_space_group_name_H-M "P 21/M"
_symmetry_group_IT_number 11
_symmetry_cell_setting 'monoclinic'
loop_
_space_group_symop_operation_xyz
x,y,z
-x,1/2+y,-z
-x,-y,-z
x,1/2-y,z
loop_
_atom_site_type_symbol
_atom_site_label
_atom_site_fract_x
_atom_site_fract_y
_atom_site_fract_z
Si Si1 0.653074 0.434542 0.733224
Si Si2 0.004364 0.562898 0.375349
Si Si3 0.161437 0.433422 0.229950
Si Si4 0.151172 0.433787 0.786784
Si Si5 0.335323 0.561529 0.731627
Si Si6 0.405144 0.563699 0.499583
Si Si7 0.905536 0.065874 0.989726
Si Si8 0.498747 0.564254 0.876885
O O1 0.631922 0.250000 0.742147
O O2 0.752459 0.464284 0.759064
O O3 0.641140 0.501987 0.609741
O O4 0.587885 0.520138 0.816628
O O5 0.015908 0.750000 0.378675
O O6 0.087117 0.490012 0.313681
O O7 0.000000 0.500000 0.500000
O O8 0.916674 0.514537 0.309205
O O9 0.180588 0.250000 0.252870
O O10 0.136796 0.458332 0.103494
O O11 0.136122 0.250000 0.816578
O O12 0.249249 0.462647 0.752514
O O13 0.140718 0.543397 0.893664
O O14 0.319724 0.750000 0.742458
O O15 0.356317 0.505948 0.608057
O O16 0.413474 0.502594 0.811353
O O17 0.500000 0.500000 0.500000
O O18 0.408348 0.750000 0.498481
O O19 0.903983 0.250000 0.954877
O O20 0.000000 0.000000 0.000000
O O21 0.492649 0.750000 0.882952
O O22 0.500000 0.500000 0.000000
#
# Coordination Sequence:
#
# PCOD8076817 Si02
#       8
#     4   4   4   4   4   4   4   4
#     4  11  24  42  66  97 130 168 213 266 324 387
#     4  11  25  45  67  95 133 173 218 269 322 386
#     4  12  26  44  68  97 130 172 217 267 326 387
#     4  11  25  43  66  97 130 170 217 266 323 384
#     4  10  23  42  64  93 128 170 214 263 320 381
#     4  10  21  40  66  94 125 164 210 262 319 376
#     4  12  24  43  70  97 129 168 215 268 323 384
#     4  11  24  43  65  91 129 171 215 265 320 384
#
# _framework density 20.314418
#
# number of rings (size 3 to 8) (size 9 to 14) (size 15 to 20)
#    0.000    1.000    2.500    3.750    3.500    3.500 
#    0.000    0.000    0.000    0.000    0.000    0.000 
#    0.000    0.000    0.000    0.000    0.000    0.000 
#
# Total GULP energy -396825.577945 kJ/mol
# GULP energy per Si atom -12400.799311 kJ/mol
# Density = 2.026818 g / cm^3
# Si number density = 20.314418 Si / 1000 Ang^3
#
#
#
# Elastic Constant Matrix: (Units=GPa)
#
#
# Indices 1 2 3 4 5 6 
#
# 1 143.3976 8.0773 62.3067 0.0000 -3.1625 0.0000
# 2 8.0773 47.2607 21.7523 0.0000 -7.8266 0.0000
# 3 62.3067 21.7523 171.1423 0.0000 -2.3543 0.0000
# 4 0.0000 0.0000 0.0000 32.1664 0.0000 -3.0456
# 5 -3.1625 -7.8266 -2.3543 0.0000 35.5010 0.0000
# 6 0.0000 0.0000 0.0000 -3.0456 0.0000 36.6907
#
#
#
# Elastic Compliance Matrix: (Units=1/GPa)
#
#
# Indices 1 2 3 4 5 6 
#
# 1 0.008295 0.000064 -0.003020 0.000000 0.000553 0.000000
# 2 0.000064 0.023311 -0.002918 0.000000 0.004951 0.000000
# 3 -0.003020 -0.002918 0.007308 0.000000 -0.000428 0.000000
# 4 0.000000 0.000000 0.000000 0.031335 0.000000 0.002601
# 5 0.000553 0.004951 -0.000428 0.000000 0.029281 0.000000
# 6 0.000000 0.000000 0.000000 0.002601 0.000000 0.027471
#
#
# Mechanical properties :
#
#
# Convention : Reuss Voigt Hill
#
# Bulk Modulus (GPa) = 36.81220 60.67481 48.74350
# Shear Modulus (GPa) = 33.82874 38.84922 36.33898
#
# Velocity S-wave (km/s) = 4.08518 4.37784 4.23404
# Velocity P-wave (km/s) = 6.35706 7.44894 6.92455
#
# Compressibility (1/GPa) = 0.02716491
#
# Stress axis : x y z
#
# Youngs Moduli (GPa) = 120.56157 42.89752 136.84252
#
# Poissons Ratio (x) = -0.00275 0.41330
# Poissons Ratio (y) = -0.00772 0.39932
# Poissons Ratio (z) = 0.36413 0.12518
#
# Static dielectric constant tensor:
#      x y z
#    x -2.457820 0.000000 14.398440 
#    y 0.000000 3.677700 0.000000 
#    z 14.398440 0.000000 -29.930990 
# 
# 
# High freq. dielectric constant tensor:
#      x y z
#    x 1.806010 0.000000 0.000690 
#    y 0.000000 1.797750 0.000000 
#    z 0.000690 0.000000 1.812580 
# 
# From -- ./inp_files/38270.got.cif
#   From: 2010.06.25/outbox.cif.g09.slc.cpg/sg11_20_cif.got.tgz:38270.got - 2010.06.27 23:14:04.
