data_PCOD8076810
_publ_section_title
;
Structure prediction by ZEFSAII (Michael W. Deem and Ramdas Pophale) SiO2 
 PCOD8076810
Probable space group: P 21/M
;
_chemical_formula_sum "Si O2"
_cell_formula_units_Z 32
_cell_length_a 9.209073
_cell_length_b 27.123791
_cell_length_c 12.446464
_cell_angle_alpha 90.000000
_cell_angle_beta 31.540055
_cell_angle_gamma 90.000000
_cell_volume 1626.269267
_symmetry_space_group_name_H-M "P 21/M"
_symmetry_group_IT_number 11
_symmetry_cell_setting 'monoclinic'
loop_
_space_group_symop_operation_xyz
x,y,z
-x,1/2+y,-z
-x,-y,-z
x,1/2-y,z
loop_
_atom_site_type_symbol
_atom_site_label
_atom_site_fract_x
_atom_site_fract_y
_atom_site_fract_z
Si Si1 0.437725 0.378847 0.111827
Si Si2 0.821858 0.805448 0.124439
Si Si3 0.111035 0.378608 0.105300
Si Si4 0.453163 0.693264 0.770548
Si Si5 0.827404 0.509337 0.002750
Si Si6 0.243798 0.464173 0.375817
Si Si7 0.476103 0.148179 0.503114
Si Si8 0.973545 0.576435 0.270933
O O1 0.274315 0.362701 0.108931
O O2 0.407336 0.336111 0.219622
O O3 0.297147 0.428780 0.241913
O O4 0.759514 0.388786 0.882421
O O5 0.800280 0.750000 0.091991
O O6 0.591086 0.812174 0.362166
O O7 0.766696 0.843469 0.063618
O O8 0.123731 0.814497 0.985242
O O9 0.165463 0.434804 0.040221
O O10 0.784348 0.371483 0.327008
O O11 0.540234 0.750000 0.726873
O O12 0.565340 0.672993 0.586673
O O13 0.945868 0.475305 0.833256
O O14 0.513997 0.496211 0.230469
O O15 0.000000 0.500000 0.000000
O O16 0.166616 0.431709 0.526370
O O17 0.000000 0.500000 0.500000
O O18 0.257537 0.103526 0.656071
#
# Coordination Sequence:
#
# PCOD8076810 Si02
#       8
#     4   4   4   4   4   4   4   4
#     4  11  23  41  61  92 129 163 204 258 317 372
#     4  10  22  42  66  90 120 162 208 259 318 376
#     4  11  25  39  62  94 131 160 201 262 318 366
#     4  10  21  40  66  91 119 159 209 261 310 372
#     4  11  24  39  59  91 127 166 213 255 305 365
#     4  11  23  39  61  87 127 169 209 248 306 369
#     4  11  21  40  66  91 118 162 212 257 303 370
#     4  11  22  38  64  87 123 169 213 252 298 371
#
# _framework density 19.676938
#
# number of rings (size 3 to 8) (size 9 to 14) (size 15 to 20)
#    0.000    1.250    2.500    3.375    3.500    9.000 
#    0.000    0.000    0.000    0.000    0.000    0.000 
#    0.000    0.000    0.000    0.000    0.000    0.000 
#
# Total GULP energy -396965.335619 kJ/mol
# GULP energy per Si atom -12405.166738 kJ/mol
# Density = 1.963215 g / cm^3
# Si number density = 19.676938 Si / 1000 Ang^3
#
#
#
# Elastic Constant Matrix: (Units=GPa)
#
#
# Indices 1 2 3 4 5 6 
#
# 1 144.5379 61.7700 49.3502 0.0000 -0.3019 0.0000
# 2 61.7700 128.3559 46.7564 0.0000 0.7563 0.0000
# 3 49.3502 46.7564 124.3053 0.0000 0.3677 0.0000
# 4 0.0000 0.0000 0.0000 26.9053 0.0000 3.8864
# 5 -0.3019 0.7563 0.3677 0.0000 27.9589 0.0000
# 6 0.0000 0.0000 0.0000 3.8864 0.0000 28.2809
#
#
#
# Elastic Compliance Matrix: (Units=1/GPa)
#
#
# Indices 1 2 3 4 5 6 
#
# 1 0.009253 -0.003611 -0.002316 0.000000 0.000228 0.000000
# 2 -0.003611 0.010438 -0.002492 0.000000 -0.000289 0.000000
# 3 -0.002316 -0.002492 0.009902 0.000000 -0.000088 0.000000
# 4 0.000000 0.000000 0.000000 0.037920 0.000000 -0.005211
# 5 0.000228 -0.000289 -0.000088 0.000000 0.035778 0.000000
# 6 0.000000 0.000000 0.000000 -0.005211 0.000000 0.036076
#
#
# Mechanical properties :
#
#
# Convention : Reuss Voigt Hill
#
# Bulk Modulus (GPa) = 78.39719 79.21692 78.80705
# Shear Modulus (GPa) = 31.16137 32.58384 31.87261
#
# Velocity S-wave (km/s) = 3.98383 4.07374 4.02903
# Velocity P-wave (km/s) = 7.81600 7.90401 7.86013
#
# Compressibility (1/GPa) = 0.01275556
#
# Stress axis : x y z
#
# Youngs Moduli (GPa) = 108.07471 95.80594 100.99227
#
# Poissons Ratio (x) = 0.34591 0.23390
# Poissons Ratio (y) = 0.39021 0.25166
# Poissons Ratio (z) = 0.25031 0.23873
#
# Static dielectric constant tensor:
#      x y z
#    x 0.805670 0.000000 -3.319030 
#    y 0.000000 3.550970 0.000000 
#    z -3.319030 0.000000 -0.347150 
# 
# 
# High freq. dielectric constant tensor:
#      x y z
#    x 1.762590 0.000000 0.005700 
#    y 0.000000 1.773590 0.000000 
#    z 0.005700 0.000000 1.779740 
# 
# From -- ./inp_files/33190.got.cif
#   From: 2010.06.25/outbox.cif.g09.slc.cpg/sg11_17_cif.got.tgz:33190.got - 2010.06.27 23:14:04.
