data_PCOD8076427
_publ_section_title
;
Structure prediction by ZEFSAII (Michael W. Deem and Ramdas Pophale) SiO2 
 PCOD8076427
Probable space group: P 21/M
;
_chemical_formula_sum "Si O2"
_cell_formula_units_Z 32
_cell_length_a 16.753640
_cell_length_b 14.322845
_cell_length_c 11.095601
_cell_angle_alpha 90.000000
_cell_angle_beta 146.818113
_cell_angle_gamma 90.000000
_cell_volume 1457.181651
_symmetry_space_group_name_H-M "P 21/M"
_symmetry_group_IT_number 11
_symmetry_cell_setting 'monoclinic'
loop_
_space_group_symop_operation_xyz
x,y,z
-x,1/2+y,-z
-x,-y,-z
x,1/2-y,z
loop_
_atom_site_type_symbol
_atom_site_label
_atom_site_fract_x
_atom_site_fract_y
_atom_site_fract_z
Si Si1 0.927803 0.357560 0.797239
Si Si2 0.595312 0.358030 0.386496
Si Si3 0.555965 0.642337 0.557233
Si Si4 0.947664 0.355266 0.097835
Si Si5 0.752454 0.645458 0.387218
Si Si6 0.531093 0.355723 0.816720
Si Si7 0.816678 0.961644 0.995363
Si Si8 0.333244 0.036986 0.950069
O O1 0.945248 0.250000 0.782481
O O2 0.760457 0.390212 0.572322
O O3 0.024155 0.419361 0.829596
O O4 0.981759 0.374664 0.001354
O O5 0.573159 0.250000 0.326112
O O6 0.557985 0.376143 0.479471
O O7 0.492003 0.416492 0.167637
O O8 0.606645 0.750000 0.615650
O O9 0.478701 0.612872 0.335354
O O10 0.699359 0.579638 0.754206
O O11 0.885298 0.250000 0.035526
O O12 0.825139 0.426149 0.992157
O O13 0.094893 0.371460 0.356276
O O14 0.744656 0.750000 0.322232
O O15 0.628509 0.632496 0.329805
O O16 0.737951 0.570132 0.263268
O O17 0.589465 0.250000 0.904732
O O18 0.644783 0.424834 0.026121
O O19 0.773281 0.933524 0.076042
#
# Coordination Sequence:
#
# PCOD8076427 Si02
#       8
#     4   4   4   4   4   4   4   4
#     4  10  21  38  61  92 127 161 202 250 304 362
#     4   9  20  36  60  93 129 162 194 248 312 361
#     4   9  19  37  61  92 128 159 198 247 305 367
#     4  10  23  40  62  88 122 167 208 250 299 357
#     4  10  22  43  64  84 114 163 215 254 300 361
#     4  10  22  39  63  91 121 158 204 255 304 360
#     4  11  23  36  62  94 125 162 202 247 306 367
#     4  11  24  38  64  92 125 159 205 253 307 360
#
# _framework density 21.960198999999999
#
# number of rings (size 3 to 8) (size 9 to 14) (size 15 to 20)
#    0.000    2.000    0.000    2.250    5.250    5.500 
#    0.000    0.000    0.000    0.750    0.000    0.000 
#    0.000    0.000    0.000    0.000    0.000    0.000 
#
# Total GULP energy -396964.459042 kJ/mol
# GULP energy per Si atom -12405.139345 kJ/mol
# Density = 2.191022 g / cm^3
# Si number density = 21.960199 Si / 1000 Ang^3
#
#
#
# Elastic Constant Matrix: (Units=GPa)
#
#
# Indices 1 2 3 4 5 6 
#
# 1 65.3590 32.2043 36.7947 0.0000 13.0333 0.0000
# 2 32.2043 103.9263 50.0093 0.0000 7.9914 0.0000
# 3 36.7947 50.0093 86.4301 0.0000 5.3945 0.0000
# 4 0.0000 0.0000 0.0000 29.2522 0.0000 -1.8483
# 5 13.0333 7.9914 5.3945 0.0000 31.4332 0.0000
# 6 0.0000 0.0000 0.0000 -1.8483 0.0000 26.0529
#
#
#
# Elastic Compliance Matrix: (Units=1/GPa)
#
#
# Indices 1 2 3 4 5 6 
#
# 1 0.022302 -0.002774 -0.007436 0.000000 -0.007266 0.000000
# 2 -0.002774 0.013817 -0.006738 0.000000 -0.001206 0.000000
# 3 -0.007436 -0.006738 0.018534 0.000000 0.001616 0.000000
# 4 0.000000 0.000000 0.000000 0.034339 0.000000 0.002436
# 5 -0.007266 -0.001206 0.001616 0.000000 0.034856 0.000000
# 6 0.000000 0.000000 0.000000 0.002436 0.000000 0.038556
#
#
# Mechanical properties :
#
#
# Convention : Reuss Voigt Hill
#
# Bulk Modulus (GPa) = 48.17842 54.85910 51.51876
# Shear Modulus (GPa) = 24.60400 26.46146 25.53273
#
# Velocity S-wave (km/s) = 3.35086 3.47504 3.41351
# Velocity P-wave (km/s) = 6.07927 6.41378 6.24877
#
# Compressibility (1/GPa) = 0.02075618
#
# Stress axis : x y z
#
# Youngs Moduli (GPa) = 44.83933 72.37396 53.95596
#
# Poissons Ratio (x) = 0.20077 0.40120
# Poissons Ratio (y) = 0.12439 0.36358
# Poissons Ratio (z) = 0.33341 0.48769
#
# Static dielectric constant tensor:
#      x y z
#    x 3.842880 0.000000 0.077170 
#    y 0.000000 4.234360 0.000000 
#    z 0.077170 0.000000 3.690110 
# 
# 
# High freq. dielectric constant tensor:
#      x y z
#    x 1.856830 0.000000 0.009880 
#    y 0.000000 1.879770 0.000000 
#    z 0.009880 0.000000 1.846680 
# 
# From -- ./inp_files/41708.got.cif
#   From: 2010.06.25/outbox.cif.g09.slc.cpg/sg11_21_cif.got.tgz:41708.got - 2010.06.27 23:14:04.
