data_PCOD8076885
_publ_section_title
;
Structure prediction by ZEFSAII (Michael W. Deem and Ramdas Pophale) SiO2 
 PCOD8076885
Probable space group: P 21/M
;
_chemical_formula_sum "Si O2"
_cell_formula_units_Z 28
_cell_length_a 13.746508
_cell_length_b 20.668961
_cell_length_c 8.943302
_cell_angle_alpha 90.000000
_cell_angle_beta 148.716205
_cell_angle_gamma 90.000000
_cell_volume 1319.496896
_symmetry_space_group_name_H-M "P 21/M"
_symmetry_group_IT_number 11
_symmetry_cell_setting 'monoclinic'
loop_
_space_group_symop_operation_xyz
x,y,z
-x,1/2+y,-z
-x,-y,-z
x,1/2-y,z
loop_
_atom_site_type_symbol
_atom_site_label
_atom_site_fract_x
_atom_site_fract_y
_atom_site_fract_z
Si Si1 0.657256 0.176124 0.042867
Si Si2 0.586426 0.176556 0.618350
Si Si3 0.598620 0.063004 0.192803
Si Si4 0.947149 0.404467 0.045182
Si Si5 0.931455 0.823003 0.531471
Si Si6 0.974616 0.951497 0.162673
Si Si7 0.678980 0.621448 0.958061
O O1 0.622331 0.250000 0.053685
O O2 0.579383 0.125115 0.059370
O O3 0.877721 0.163918 0.308238
O O4 0.549775 0.163368 0.745506
O O5 0.652314 0.250000 0.681932
O O6 0.394775 0.164024 0.277129
O O7 0.752451 0.132872 0.772532
O O8 0.494091 0.079137 0.209810
O O9 0.812232 0.045787 0.504149
O O10 0.500000 0.000000 0.000000
O O11 0.899956 0.476773 0.035249
O O12 0.083283 0.369635 0.343608
O O13 0.046681 0.407303 0.013926
O O14 0.926047 0.750000 0.585000
O O15 0.756507 0.833730 0.192644
O O16 0.847316 0.924060 0.126954
#
# Coordination Sequence:
#
# PCOD8076885 Si02
#       7
#     4   4   4   4   4   4   4
#     4   9  21  43  68  94 135 179 223 278 335 397
#     4  10  22  43  70 102 131 173 225 273 333 398
#     4  12  26  43  67 102 135 180 225 276 339 397
#     4  10  22  44  68  94 136 178 220 273 331 398
#     4  10  21  41  69  99 130 177 225 270 332 401
#     4  11  25  45  65 100 136 172 226 273 333 395
#     4  12  25  41  69 100 135 174 217 284 325 394
#
# _framework density 21.220208
#
# number of rings (size 3 to 8) (size 9 to 14) (size 15 to 20)
#    0.000    1.429    2.857    2.571    4.000    6.286 
#    0.000    4.286    0.000    0.000    0.000    0.000 
#    0.000    0.000    0.000    0.000    0.000    0.000 
#
# Total GULP energy -347268.953421 kJ/mol
# GULP energy per Si atom -12402.462622 kJ/mol
# Density = 2.117191 g / cm^3
# Si number density = 21.220208 Si / 1000 Ang^3
#
#
#
# Elastic Constant Matrix: (Units=GPa)
#
#
# Indices 1 2 3 4 5 6 
#
# 1 99.3391 58.4933 31.8120 0.0000 5.9149 0.0000
# 2 58.4933 127.8876 38.5154 0.0000 -2.7765 0.0000
# 3 31.8120 38.5154 139.7385 0.0000 -5.6813 0.0000
# 4 0.0000 0.0000 0.0000 32.3065 0.0000 -5.5257
# 5 5.9149 -2.7765 -5.6813 0.0000 28.7288 0.0000
# 6 0.0000 0.0000 0.0000 -5.5257 0.0000 34.2553
#
#
#
# Elastic Compliance Matrix: (Units=1/GPa)
#
#
# Indices 1 2 3 4 5 6 
#
# 1 0.014510 -0.006193 -0.001756 0.000000 -0.003933 0.000000
# 2 -0.006193 0.011174 -0.001587 0.000000 0.002041 0.000000
# 3 -0.001756 -0.001587 0.008067 0.000000 0.001803 0.000000
# 4 0.000000 0.000000 0.000000 0.031832 0.000000 0.005135
# 5 -0.003933 0.002041 0.001803 0.000000 0.036172 0.000000
# 6 0.000000 0.000000 0.000000 0.005135 0.000000 0.030021
#
#
# Mechanical properties :
#
#
# Convention : Reuss Voigt Hill
#
# Bulk Modulus (GPa) = 68.12772 69.40075 68.76423
# Shear Modulus (GPa) = 32.10475 34.93443 33.51959
#
# Velocity S-wave (km/s) = 3.89386 4.06184 3.97874
# Velocity P-wave (km/s) = 7.23817 7.40095 7.32001
#
# Compressibility (1/GPa) = 0.01467831
#
# Stress axis : x y z
#
# Youngs Moduli (GPa) = 68.91968 89.49213 123.96533
#
# Poissons Ratio (x) = 0.55422 0.21770
# Poissons Ratio (y) = 0.42681 0.19674
# Poissons Ratio (z) = 0.12103 0.14203
#
# Static dielectric constant tensor:
#      x y z
#    x 3.730110 0.000000 -0.145110 
#    y 0.000000 3.863430 0.000000 
#    z -0.145110 0.000000 3.921650 
# 
# 
# High freq. dielectric constant tensor:
#      x y z
#    x 1.823520 0.000000 -0.007640 
#    y 0.000000 1.837880 0.000000 
#    z -0.007640 0.000000 1.842590 
# 
# From -- ./inp_files/23240.got.cif
#   From: 2010.06.25/outbox.cif.g09.slc.cpg/sg11_12_cif.got.tgz:23240.got - 2010.06.27 23:14:04.
