data_PCOD8076854
_publ_section_title
;
Structure prediction by ZEFSAII (Michael W. Deem and Ramdas Pophale) SiO2 
 PCOD8076854
Probable space group: P 21/M
;
_chemical_formula_sum "Si O2"
_cell_formula_units_Z 32
_cell_length_a 8.166865
_cell_length_b 26.979523
_cell_length_c 11.781079
_cell_angle_alpha 90.000000
_cell_angle_beta 35.645832
_cell_angle_gamma 90.000000
_cell_volume 1512.774805
_symmetry_space_group_name_H-M "P 21/M"
_symmetry_group_IT_number 11
_symmetry_cell_setting 'monoclinic'
loop_
_space_group_symop_operation_xyz
x,y,z
-x,1/2+y,-z
-x,-y,-z
x,1/2-y,z
loop_
_atom_site_type_symbol
_atom_site_label
_atom_site_fract_x
_atom_site_fract_y
_atom_site_fract_z
Si Si1 0.671319 0.306023 0.999445
Si Si2 0.195587 0.589091 0.113299
Si Si3 0.599359 0.555937 0.456915
Si Si4 0.940915 0.806859 0.757423
Si Si5 0.952875 0.806560 0.008649
Si Si6 0.559083 0.364899 0.618920
Si Si7 0.271586 0.942888 0.316079
Si Si8 0.634883 0.949654 0.693282
O O1 0.760377 0.250000 0.907581
O O2 0.746600 0.310181 0.092987
O O3 0.346825 0.315042 0.150130
O O4 0.837678 0.351401 0.843987
O O5 0.276279 0.558296 0.178478
O O6 0.909183 0.564514 0.229071
O O7 0.440210 0.582765 0.883728
O O8 0.500000 0.500000 0.500000
O O9 0.403011 0.594132 0.501344
O O10 0.592600 0.571692 0.591605
O O11 0.013931 0.750000 0.729893
O O12 0.953374 0.828985 0.879899
O O13 0.179973 0.828747 0.542685
O O14 0.850661 0.750000 0.058582
O O15 0.731965 0.835077 0.214102
O O16 0.573189 0.393754 0.729892
O O17 0.959539 0.943823 0.546633
O O18 0.442075 0.991908 0.258441
#
# Coordination Sequence:
#
# PCOD8076854 Si02
#       8
#     4   4   4   4   4   4   4   4
#     4  10  21  41  65  94 128 161 210 270 321 389
#     4  11  22  41  65  89 121 173 218 256 334 386
#     4  11  24  41  58  89 131 164 213 270 315 378
#     4  10  23  42  66  97 130 168 214 266 329 393
#     4  10  22  42  65  93 129 166 212 268 318 389
#     4  12  22  40  65  92 128 168 211 261 330 384
#     4  10  22  39  61  91 126 162 212 269 310 377
#     4  10  22  41  61  87 126 168 213 263 315 380
#
# _framework density 21.153182000000001
#
# number of rings (size 3 to 8) (size 9 to 14) (size 15 to 20)
#    0.000    1.500    2.500    2.250    1.750    0.500 
#    4.500    0.625    0.000    9.000    0.000    0.000 
#    0.000    0.000    0.000    0.000    0.000    0.000 
#
# Total GULP energy -396602.996991 kJ/mol
# GULP energy per Si atom -12393.843656 kJ/mol
# Density = 2.110504 g / cm^3
# Si number density = 21.153182 Si / 1000 Ang^3
#
#
#
# Elastic Constant Matrix: (Units=GPa)
#
#
# Indices 1 2 3 4 5 6 
#
# 1 114.9558 23.5955 30.9069 0.0000 -7.6885 0.0000
# 2 23.5955 88.2486 39.6594 0.0000 -3.8543 0.0000
# 3 30.9069 39.6594 80.0612 0.0000 0.1482 0.0000
# 4 0.0000 0.0000 0.0000 27.5655 0.0000 0.4129
# 5 -7.6885 -3.8543 0.1482 0.0000 21.1174 0.0000
# 6 0.0000 0.0000 0.0000 0.4129 0.0000 27.5830
#
#
#
# Elastic Compliance Matrix: (Units=1/GPa)
#
#
# Indices 1 2 3 4 5 6 
#
# 1 0.010051 -0.001014 -0.003384 0.000000 0.003498 0.000000
# 2 -0.001014 0.014836 -0.006962 0.000000 0.002388 0.000000
# 3 -0.003384 -0.006962 0.017251 0.000000 -0.002624 0.000000
# 4 0.000000 0.000000 0.000000 0.036285 0.000000 -0.000543
# 5 0.003498 0.002388 -0.002624 0.000000 0.049082 0.000000
# 6 0.000000 0.000000 0.000000 -0.000543 0.000000 0.036262
#
#
# Mechanical properties :
#
#
# Convention : Reuss Voigt Hill
#
# Bulk Modulus (GPa) = 51.50169 52.39880 51.95025
# Shear Modulus (GPa) = 25.91208 27.86010 26.88609
#
# Velocity S-wave (km/s) = 3.50376 3.63308 3.56900
# Velocity P-wave (km/s) = 6.38501 6.51336 6.44950
#
# Compressibility (1/GPa) = 0.01941684
#
# Stress axis : x y z
#
# Youngs Moduli (GPa) = 99.49315 67.40456 57.96876
#
# Poissons Ratio (x) = 0.06832 0.19619
# Poissons Ratio (y) = 0.10085 0.40359
# Poissons Ratio (z) = 0.33673 0.46929
#
# Static dielectric constant tensor:
#      x y z
#    x 4.011440 0.000000 -0.033320 
#    y 0.000000 4.007800 0.000000 
#    z -0.033320 0.000000 3.468910 
# 
# 
# High freq. dielectric constant tensor:
#      x y z
#    x 1.842850 0.000000 -0.002580 
#    y 0.000000 1.843480 0.000000 
#    z -0.002580 0.000000 1.793820 
# 
# From -- ./inp_files/33206.got.cif
#   From: 2010.06.25/outbox.cif.g09.slc.cpg/sg11_17_cif.got.tgz:33206.got - 2010.06.27 23:14:04.
