data_PCOD8076878
_publ_section_title
;
Structure prediction by ZEFSAII (Michael W. Deem and Ramdas Pophale) SiO2 
 PCOD8076878
Probable space group: P 21/M
;
_chemical_formula_sum "Si O2"
_cell_formula_units_Z 22
_cell_length_a 7.799068
_cell_length_b 14.937935
_cell_length_c 16.366804
_cell_angle_alpha 90.000000
_cell_angle_beta 148.236827
_cell_angle_gamma 90.000000
_cell_volume 1003.739009
_symmetry_space_group_name_H-M "P 21/M"
_symmetry_group_IT_number 11
_symmetry_cell_setting 'monoclinic'
loop_
_space_group_symop_operation_xyz
x,y,z
-x,1/2+y,-z
-x,-y,-z
x,1/2-y,z
loop_
_atom_site_type_symbol
_atom_site_label
_atom_site_fract_x
_atom_site_fract_y
_atom_site_fract_z
Si Si1 0.022711 0.250000 0.053473
Si Si2 0.213074 0.392861 0.543533
Si Si3 0.723173 0.250000 0.291584
Si Si4 0.087751 0.588425 0.236326
Si Si5 0.886793 0.553660 0.327773
Si Si6 0.769622 0.750000 0.035916
Si Si7 0.831598 0.451657 0.008401
O O1 0.414615 0.250000 0.229283
O O2 0.872027 0.342985 0.028149
O O3 0.971634 0.250000 0.934799
O O4 0.573981 0.371628 0.658788
O O5 0.210899 0.374763 0.641077
O O6 0.941743 0.335506 0.390303
O O7 0.117555 0.490818 0.474986
O O8 0.597872 0.250000 0.147375
O O9 0.112640 0.584302 0.344563
O O10 0.809227 0.660962 0.105010
O O11 0.991555 0.493810 0.155120
O O12 0.547460 0.519439 0.150716
O O13 0.000000 0.500000 0.000000
#
# Coordination Sequence:
#
# PCOD8076878 Si02
#       7
#     2   4   2   4   4   2   4
#     4  10  22  39  70  97 124 174 225 268 338 383
#     4  11  23  43  67  94 138 177 218 271 340 403
#     4  10  23  42  68  95 132 179 222 272 340 394
#     4  12  24  42  72  99 134 175 227 273 332 399
#     4  11  25  41  68  98 133 176 222 272 339 391
#     4  10  21  41  68 100 130 171 227 276 322 399
#     4  12  21  43  70  96 133 177 226 275 330 393
#
# _framework density 21.918049
#
# number of rings (size 3 to 8) (size 9 to 14) (size 15 to 20)
#    0.545    0.364    3.636    3.818    2.545    2.182 
#    0.000    0.909    0.000    0.000    0.000    0.000 
#    0.000    0.000    0.000    0.000    0.000    0.000 
#
# Total GULP energy -272574.559925 kJ/mol
# GULP energy per Si atom -12389.752724 kJ/mol
# Density = 2.186816 g / cm^3
# Si number density = 21.918049 Si / 1000 Ang^3
#
#
#
# Elastic Constant Matrix: (Units=GPa)
#
#
# Indices 1 2 3 4 5 6 
#
# 1 135.0584 32.9608 43.6585 0.0000 -28.7038 0.0000
# 2 32.9608 103.1624 24.1939 0.0000 -19.4899 0.0000
# 3 43.6585 24.1939 115.8658 0.0000 -7.7379 0.0000
# 4 0.0000 0.0000 0.0000 -132.4246 0.0000 185.2154
# 5 -28.7038 -19.4899 -7.7379 0.0000 40.3777 0.0000
# 6 0.0000 0.0000 0.0000 185.2154 0.0000 -187.0361
#
#
#
# Elastic Compliance Matrix: (Units=1/GPa)
#
#
# Indices 1 2 3 4 5 6 
#
# 1 0.009975 -0.001360 -0.003084 0.000000 0.005844 0.000000
# 2 -0.001360 0.011285 -0.001565 0.000000 0.004181 0.000000
# 3 -0.003084 -0.001565 0.010051 0.000000 -0.001022 0.000000
# 4 0.000000 0.000000 0.000000 0.019613 0.000000 0.019422
# 5 0.005844 0.004181 -0.001022 0.000000 0.030742 0.000000
# 6 0.000000 0.000000 0.000000 0.019422 0.000000 0.013886
#
#
# Mechanical properties :
#
#
# Convention : Reuss Voigt Hill
#
# Bulk Modulus (GPa) = 51.83166 61.74590 56.78878
# Shear Modulus (GPa) = 43.85921 -38.93172 2.46375
#
# Velocity S-wave (km/s) = 4.47817 -4.21912 1.06137
# Velocity P-wave (km/s) = 7.10197 2.12080 5.24098
#
# Compressibility (1/GPa) = 0.01929323
#
# Stress axis : x y z
#
# Youngs Moduli (GPa) = 100.25010 88.61576 99.48849
#
# Poissons Ratio (x) = 0.12049 0.30687
# Poissons Ratio (y) = 0.13631 0.15568
# Poissons Ratio (z) = 0.30922 0.13867
#
# Static dielectric constant tensor:
#      x y z
#    x 3.924460 0.000000 -0.012290 
#    y 0.000000 3.531540 0.000000 
#    z -0.012290 0.000000 3.927170 
# 
# 
# High freq. dielectric constant tensor:
#      x y z
#    x 1.853100 0.000000 0.001470 
#    y 0.000000 1.846070 0.000000 
#    z 0.001470 0.000000 1.873810 
# 
# From -- ./inp_files/58170.got.cif
#   From: 2010.06.25/outbox.cif.g09.slc.cpg/sg11_30_cif.got.tgz:58170.got - 2010.06.27 23:14:04.
