data_PCOD8076559
_publ_section_title
;
Structure prediction by ZEFSAII (Michael W. Deem and Ramdas Pophale) SiO2 
 PCOD8076559
Probable space group: P 21/M
;
_chemical_formula_sum "Si O2"
_cell_formula_units_Z 28
_cell_length_a 20.400728
_cell_length_b 8.637407
_cell_length_c 14.704891
_cell_angle_alpha 90.000000
_cell_angle_beta 147.684062
_cell_angle_gamma 90.000000
_cell_volume 1385.190879
_symmetry_space_group_name_H-M "P 21/M"
_symmetry_group_IT_number 11
_symmetry_cell_setting 'monoclinic'
loop_
_space_group_symop_operation_xyz
x,y,z
-x,1/2+y,-z
-x,-y,-z
x,1/2-y,z
loop_
_atom_site_type_symbol
_atom_site_label
_atom_site_fract_x
_atom_site_fract_y
_atom_site_fract_z
Si Si1 0.553542 0.930031 0.222747
Si Si2 0.711497 0.569490 0.097557
Si Si3 0.281043 0.570259 0.434845
Si Si4 0.943825 0.072352 0.708052
Si Si5 0.634329 0.431559 0.661488
Si Si6 0.803076 0.068953 0.021982
Si Si7 0.248590 0.570137 0.669407
O O1 0.519777 0.750000 0.179185
O O2 0.622361 0.966792 0.397185
O O3 0.636036 0.974036 0.233042
O O4 0.430228 0.027605 0.075953
O O5 0.727196 0.750000 0.133168
O O6 0.782892 0.524150 0.090423
O O7 0.776169 0.479436 0.256404
O O8 0.314288 0.750000 0.491252
O O9 0.143758 0.536544 0.308679
O O10 0.289482 0.523366 0.339400
O O11 0.987717 0.250000 0.760257
O O12 0.872078 0.033886 0.530757
O O13 0.059725 0.960558 0.852559
O O14 0.500000 0.500000 0.500000
O O15 0.620653 0.250000 0.653182
O O16 0.708084 0.495069 0.835018
O O17 0.783035 0.250000 0.015835
O O18 0.282876 0.750000 0.702711
#
# Coordination Sequence:
#
# PCOD8076559 Si02
#       7
#     4   4   4   4   4   4   4
#     4  11  21  35  57  88 121 150 188 236 288 343
#     4  12  24  38  57  82 114 154 196 237 288 342
#     4   9  19  38  61  84 115 154 194 236 283 336
#     4   9  20  39  61  84 112 149 191 233 283 341
#     4  10  22  39  60  87 117 150 188 234 285 339
#     4  11  24  40  58  84 117 150 190 239 287 339
#     4  10  21  39  61  85 115 151 192 237 284 338
#
# _framework density 20.213820999999999
#
# number of rings (size 3 to 8) (size 9 to 14) (size 15 to 20)
#    0.000    1.714    0.000    5.571    0.000    8.000 
#    0.000    0.000    0.000    0.000    0.000    0.000 
#    0.000    0.000    0.000    0.000    0.000    0.000 
#
# Total GULP energy -347338.661390 kJ/mol
# GULP energy per Si atom -12404.952192 kJ/mol
# Density = 2.016781 g / cm^3
# Si number density = 20.213821 Si / 1000 Ang^3
#
#
#
# Elastic Constant Matrix: (Units=GPa)
#
#
# Indices 1 2 3 4 5 6 
#
# 1 127.6862 20.6360 56.6880 0.0000 -14.8374 0.0000
# 2 20.6360 48.0462 19.6861 0.0000 -0.8687 0.0000
# 3 56.6880 19.6861 85.9698 0.0000 10.9182 0.0000
# 4 0.0000 0.0000 0.0000 29.7394 0.0000 5.4010
# 5 -14.8374 -0.8687 10.9182 0.0000 28.3143 0.0000
# 6 0.0000 0.0000 0.0000 5.4010 0.0000 30.4881
#
#
#
# Elastic Compliance Matrix: (Units=1/GPa)
#
#
# Indices 1 2 3 4 5 6 
#
# 1 0.013944 -0.001584 -0.010256 0.000000 0.011213 0.000000
# 2 -0.001584 0.023373 -0.004514 0.000000 0.001628 0.000000
# 3 -0.010256 -0.004514 0.021165 0.000000 -0.013674 0.000000
# 4 0.000000 0.000000 0.000000 0.034743 0.000000 -0.006155
# 5 0.011213 0.001628 -0.013674 0.000000 0.046517 0.000000
# 6 0.000000 0.000000 0.000000 -0.006155 0.000000 0.033890
#
#
# Mechanical properties :
#
#
# Convention : Reuss Voigt Hill
#
# Bulk Modulus (GPa) = 38.79996 50.63580 44.71788
# Shear Modulus (GPa) = 23.26328 28.68783 25.97556
#
# Velocity S-wave (km/s) = 3.39611 3.77134 3.58863
# Velocity P-wave (km/s) = 5.88341 6.63841 6.27228
#
# Compressibility (1/GPa) = 0.02577322
#
# Stress axis : x y z
#
# Youngs Moduli (GPa) = 71.71587 42.78488 47.24787
#
# Poissons Ratio (x) = 0.06777 0.48457
# Poissons Ratio (y) = 0.11360 0.21329
# Poissons Ratio (z) = 0.73551 0.19314
#
# Static dielectric constant tensor:
#      x y z
#    x 3.803950 0.000000 -0.127730 
#    y 0.000000 3.580660 0.000000 
#    z -0.127730 0.000000 3.609980 
# 
# 
# High freq. dielectric constant tensor:
#      x y z
#    x 1.798300 0.000000 -0.005470 
#    y 0.000000 1.788210 0.000000 
#    z -0.005470 0.000000 1.787140 
# 
# From -- ./inp_files/54625.got.cif
#   From: 2010.06.25/outbox.cif.g09.slc.cpg/sg11_28_cif.got.tgz:54625.got - 2010.06.27 23:14:04.
