data_PCOD8076058
_publ_section_title
;
Structure prediction by ZEFSAII (Michael W. Deem and Ramdas Pophale) SiO2 
 PCOD8076058
Probable space group: P 21/M
;
_chemical_formula_sum "Si O2"
_cell_formula_units_Z 24
_cell_length_a 9.922826
_cell_length_b 8.904072
_cell_length_c 14.501891
_cell_angle_alpha 90.000000
_cell_angle_beta 79.872209
_cell_angle_gamma 90.000000
_cell_volume 1261.328542
_symmetry_space_group_name_H-M "P 21/M"
_symmetry_group_IT_number 11
_symmetry_cell_setting 'monoclinic'
loop_
_space_group_symop_operation_xyz
x,y,z
-x,1/2+y,-z
-x,-y,-z
x,1/2-y,z
loop_
_atom_site_type_symbol
_atom_site_label
_atom_site_fract_x
_atom_site_fract_y
_atom_site_fract_z
Si Si1 0.415048 0.428423 0.262185
Si Si2 0.858160 0.423382 0.037344
Si Si3 0.817134 0.424490 0.599511
Si Si4 0.089433 0.575015 0.616164
Si Si5 0.723712 0.071658 0.239511
Si Si6 0.618733 0.424701 0.927309
O O1 0.408160 0.250000 0.255773
O O2 0.317633 0.485643 0.355172
O O3 0.568028 0.486225 0.266405
O O4 0.364010 0.497330 0.172750
O O5 0.887101 0.250000 0.051618
O O6 0.789087 0.493134 0.137559
O O7 0.761056 0.449696 0.962110
O O8 0.000000 0.500000 0.000000
O O9 0.798150 0.250000 0.624529
O O10 0.835202 0.455249 0.489180
O O11 0.948414 0.483864 0.639741
O O12 0.054613 0.750000 0.632979
O O13 0.188992 0.513577 0.684066
O O14 0.721996 0.250000 0.237243
O O15 0.584133 0.250000 0.919436
O O16 0.500000 0.500000 0.000000
#
# Coordination Sequence:
#
# PCOD8076058 Si02
#       6
#     4   4   4   4   4   4
#     4  11  22  38  60  84 113 153 193 232 282 337
#     4  10  22  39  57  83 116 148 189 232 277 332
#     4  10  21  37  57  87 118 145 187 238 284 339
#     4   9  19  38  62  83 112 152 189 232 286 339
#     4   9  19  38  59  82 111 148 192 234 277 335
#     4  11  22  39  60  85 117 151 188 232 280 335
#
# _framework density 19.027557000000002
#
# number of rings (size 3 to 8) (size 9 to 14) (size 15 to 20)
#    0.000    2.000    1.667    1.500    2.333    2.667 
#    0.000    1.667    0.000    0.000    0.000    0.000 
#    0.000    0.000    0.000    0.000    0.000    0.000 
#
# Total GULP energy -297683.148199 kJ/mol
# GULP energy per Si atom -12403.464508 kJ/mol
# Density = 1.898425 g / cm^3
# Si number density = 19.027557 Si / 1000 Ang^3
#
#
#
# Elastic Constant Matrix: (Units=GPa)
#
#
# Indices 1 2 3 4 5 6 
#
# 1 155.5186 56.0225 72.2345 0.0000 -7.1994 0.0000
# 2 56.0225 72.6459 33.6256 0.0000 -1.0000 0.0000
# 3 72.2345 33.6256 96.4704 0.0000 4.2008 0.0000
# 4 0.0000 0.0000 0.0000 32.2407 0.0000 -5.6706
# 5 -7.1994 -1.0000 4.2008 0.0000 38.4796 0.0000
# 6 0.0000 0.0000 0.0000 -5.6706 0.0000 33.3939
#
#
#
# Elastic Compliance Matrix: (Units=1/GPa)
#
#
# Indices 1 2 3 4 5 6 
#
# 1 0.011955 -0.005937 -0.007006 0.000000 0.002847 0.000000
# 2 -0.005937 0.019405 -0.002303 0.000000 -0.000355 0.000000
# 3 -0.007006 -0.002303 0.016553 0.000000 -0.003178 0.000000
# 4 0.000000 0.000000 0.000000 0.031972 0.000000 0.005429
# 5 0.002847 -0.000355 -0.003178 0.000000 0.026858 0.000000
# 6 0.000000 0.000000 0.000000 0.005429 0.000000 0.030867
#
#
# Mechanical properties :
#
#
# Convention : Reuss Voigt Hill
#
# Bulk Modulus (GPa) = 57.40257 72.04445 64.72351
# Shear Modulus (GPa) = 28.75081 31.67299 30.21190
#
# Velocity S-wave (km/s) = 3.89139 4.08436 3.98904
# Velocity P-wave (km/s) = 7.10100 7.75810 7.43681
#
# Compressibility (1/GPa) = 0.01742082
#
# Stress axis : x y z
#
# Youngs Moduli (GPa) = 83.64896 51.53334 60.41291
#
# Poissons Ratio (x) = 0.30596 0.42325
# Poissons Ratio (y) = 0.49663 0.13911
# Poissons Ratio (z) = 0.58604 0.11867
#
# Static dielectric constant tensor:
#      x y z
#    x 3.499800 0.000000 -0.176590 
#    y 0.000000 3.329430 0.000000 
#    z -0.176590 0.000000 2.831680 
# 
# 
# High freq. dielectric constant tensor:
#      x y z
#    x 1.749530 0.000000 -0.000940 
#    y 0.000000 1.728310 0.000000 
#    z -0.000940 0.000000 1.747670 
# 
# From -- ./inp_files/20631.got.cif
#   From: 2010.06.25/outbox.cif.g09.slc.cpg/sg11_11_cif.got.tgz:20631.got - 2010.06.27 23:14:04.
