data_PCOD8076387
_publ_section_title
;
Structure prediction by ZEFSAII (Michael W. Deem and Ramdas Pophale) SiO2 
 PCOD8076387
Probable space group: P 21/M
;
_chemical_formula_sum "Si O2"
_cell_formula_units_Z 28
_cell_length_a 8.983595
_cell_length_b 8.696934
_cell_length_c 25.408399
_cell_angle_alpha 90.000000
_cell_angle_beta 44.235150
_cell_angle_gamma 90.000000
_cell_volume 1384.851131
_symmetry_space_group_name_H-M "P 21/M"
_symmetry_group_IT_number 11
_symmetry_cell_setting 'monoclinic'
loop_
_space_group_symop_operation_xyz
x,y,z
-x,1/2+y,-z
-x,-y,-z
x,1/2-y,z
loop_
_atom_site_type_symbol
_atom_site_label
_atom_site_fract_x
_atom_site_fract_y
_atom_site_fract_z
Si Si1 0.076623 0.928380 0.794879
Si Si2 0.958956 0.072155 0.931518
Si Si3 0.649603 0.430240 0.506012
Si Si4 0.482373 0.569930 0.345263
Si Si5 0.905332 0.072113 0.632823
Si Si6 0.340782 0.427515 0.911082
Si Si7 0.779225 0.571997 0.772793
O O1 0.060230 0.750000 0.813924
O O2 0.952602 0.967515 0.773032
O O3 0.321568 0.973396 0.726256
O O4 0.969253 0.026655 0.868187
O O5 0.896116 0.250000 0.953183
O O6 0.187191 0.039162 0.900524
O O7 0.777111 0.970686 0.005025
O O8 0.500000 0.500000 0.500000
O O9 0.628007 0.250000 0.508049
O O10 0.572298 0.488594 0.582442
O O11 0.893086 0.473628 0.435272
O O12 0.539494 0.750000 0.329215
O O13 0.282946 0.530995 0.359203
O O14 0.968228 0.250000 0.614117
O O15 0.832097 0.033409 0.709945
O O16 0.410055 0.250000 0.895561
O O17 0.546033 0.533958 0.853507
O O18 0.789534 0.750000 0.753825
#
# Coordination Sequence:
#
# PCOD8076387 Si02
#       7
#     4   4   4   4   4   4   4
#     4  11  24  39  58  85 117 153 194 239 288 343
#     4  10  21  38  61  87 116 151 192 238 289 346
#     4  11  23  40  62  89 121 156 193 237 289 344
#     4  10  23  41  61  86 117 153 194 239 289 344
#     4  11  23  40  62  88 117 152 195 241 289 343
#     4  10  21  38  61  88 116 150 193 239 289 345
#     4  11  24  40  58  85 119 155 195 239 290 345
#
# _framework density 20.218781
#
# number of rings (size 3 to 8) (size 9 to 14) (size 15 to 20)
#    0.000    1.429    0.000    4.714    0.000   12.571 
#    0.000    0.000    0.000    0.000    0.000    0.000 
#    0.000    0.000    0.000    0.000    0.000    0.000 
#
# Total GULP energy -347416.662231 kJ/mol
# GULP energy per Si atom -12407.737937 kJ/mol
# Density = 2.017276 g / cm^3
# Si number density = 20.218781 Si / 1000 Ang^3
#
#
#
# Elastic Constant Matrix: (Units=GPa)
#
#
# Indices 1 2 3 4 5 6 
#
# 1 -10.1158 12.3842 -44.6171 0.0000 71.2670 0.0000
# 2 12.3842 37.8688 0.3300 0.0000 15.8849 0.0000
# 3 -44.6171 0.3300 34.1152 0.0000 51.8190 0.0000
# 4 0.0000 0.0000 0.0000 38.9438 0.0000 0.2066
# 5 71.2670 15.8849 51.8190 0.0000 7.6542 0.0000
# 6 0.0000 0.0000 0.0000 0.2066 0.0000 29.6377
#
#
#
# Elastic Compliance Matrix: (Units=1/GPa)
#
#
# Indices 1 2 3 4 5 6 
#
# 1 0.006294 -0.006557 -0.008256 0.000000 0.010896 0.000000
# 2 -0.006557 0.031105 0.000383 0.000000 -0.006096 0.000000
# 3 -0.008256 0.000383 0.010453 0.000000 0.005306 0.000000
# 4 0.000000 0.000000 0.000000 0.025679 0.000000 -0.000179
# 5 0.010896 -0.006096 0.005306 0.000000 0.005928 0.000000
# 6 0.000000 0.000000 0.000000 -0.000179 0.000000 0.033742
#
#
# Mechanical properties :
#
#
# Convention : Reuss Voigt Hill
#
# Bulk Modulus (GPa) = 52.65090 -0.21529 26.21780
# Shear Modulus (GPa) = 33.69495 21.49856 27.59675
#
# Velocity S-wave (km/s) = 4.08673 3.26436 3.69847
# Velocity P-wave (km/s) = 6.95454 3.75518 5.58869
#
# Compressibility (1/GPa) = 0.01899303
#
# Stress axis : x y z
#
# Youngs Moduli (GPa) = 158.88199 32.14912 95.66806
#
# Poissons Ratio (x) = 0.21080 0.78980
# Poissons Ratio (y) = 1.04179 -0.03666
# Poissons Ratio (z) = 1.31166 -0.01232
#
# Static dielectric constant tensor:
#      x y z
#    x 3.801400 0.000000 0.086880 
#    y 0.000000 3.686400 0.000000 
#    z 0.086880 0.000000 3.750130 
# 
# 
# High freq. dielectric constant tensor:
#      x y z
#    x 1.798580 0.000000 0.002680 
#    y 0.000000 1.798060 0.000000 
#    z 0.002680 0.000000 1.802490 
# 
# From -- ./inp_files/28620.got.cif
#   From: 2010.06.25/outbox.cif.g09.slc.cpg/sg11_15_cif.got.tgz:28620.got - 2010.06.27 23:14:04.
