data_PCOD8076067
_publ_section_title
;
Structure prediction by ZEFSAII (Michael W. Deem and Ramdas Pophale) SiO2 
 PCOD8076067
Probable space group: P 21/M
;
_chemical_formula_sum "Si O2"
_cell_formula_units_Z 28
_cell_length_a 28.973487
_cell_length_b 8.877945
_cell_length_c 9.074676
_cell_angle_alpha 90.000000
_cell_angle_beta 38.243048
_cell_angle_gamma 90.000000
_cell_volume 1444.887560
_symmetry_space_group_name_H-M "P 21/M"
_symmetry_group_IT_number 11
_symmetry_cell_setting 'monoclinic'
loop_
_space_group_symop_operation_xyz
x,y,z
-x,1/2+y,-z
-x,-y,-z
x,1/2-y,z
loop_
_atom_site_type_symbol
_atom_site_label
_atom_site_fract_x
_atom_site_fract_y
_atom_site_fract_z
Si Si1 0.503531 0.427470 0.332146
Si Si2 0.930752 0.923327 0.250424
Si Si3 0.355561 0.075980 0.531086
Si Si4 0.639759 0.925448 0.824539
Si Si5 0.223124 0.927553 0.363634
Si Si6 0.220994 0.925993 0.029977
Si Si7 0.068516 0.078602 0.405389
O O1 0.500000 0.500000 0.500000
O O2 0.510466 0.250000 0.332490
O O3 0.430345 0.474925 0.425949
O O4 0.574960 0.485391 0.067287
O O5 0.923200 0.750000 0.219733
O O6 0.942954 0.937549 0.392814
O O7 0.857589 0.013909 0.384403
O O8 0.000000 0.000000 0.000000
O O9 0.336936 0.250000 0.608767
O O10 0.367247 0.043571 0.330580
O O11 0.288415 0.976041 0.758501
O O12 0.632783 0.750000 0.880298
O O13 0.718472 0.986169 0.682064
O O14 0.228504 0.750000 0.377767
O O15 0.238778 0.970054 0.154200
O O16 0.208405 0.750000 0.045473
O O17 0.145891 0.004157 0.161124
O O18 0.070996 0.250000 0.346934
O O19 0.000000 0.000000 0.500000
#
# Coordination Sequence:
#
# PCOD8076067 Si02
#       7
#     4   4   4   4   4   4   4
#     4  11  23  40  62  87 115 150 190 232 279 334
#     4  10  21  37  58  84 113 149 190 234 283 337
#     4  10  23  40  58  83 116 151 187 230 281 333
#     4  11  23  39  59  85 116 150 188 232 281 333
#     4  10  21  38  59  84 113 148 190 235 282 336
#     4  10  21  37  59  84 111 146 189 233 280 334
#     4  10  21  37  58  83 113 148 188 232 281 335
#
# _framework density 19.378671000000001
#
# number of rings (size 3 to 8) (size 9 to 14) (size 15 to 20)
#    0.000    1.714    0.000    3.857    0.000    9.143 
#    0.000    0.000    0.000    0.000    0.000    0.000 
#    0.000    0.000    0.000    0.000    0.000    0.000 
#
# Total GULP energy -347365.430986 kJ/mol
# GULP energy per Si atom -12405.908249 kJ/mol
# Density = 1.933456 g / cm^3
# Si number density = 19.378671 Si / 1000 Ang^3
#
#
#
# Elastic Constant Matrix: (Units=GPa)
#
#
# Indices 1 2 3 4 5 6 
#
# 1 140.0894 60.4321 54.0188 0.0000 -20.2019 0.0000
# 2 60.4321 91.4219 50.5459 0.0000 -3.7567 0.0000
# 3 54.0188 50.5459 130.5763 0.0000 -14.1797 0.0000
# 4 0.0000 0.0000 0.0000 42.1502 0.0000 -4.1291
# 5 -20.2019 -3.7567 -14.1797 0.0000 27.2945 0.0000
# 6 0.0000 0.0000 0.0000 -4.1291 0.0000 34.7210
#
#
#
# Elastic Compliance Matrix: (Units=1/GPa)
#
#
# Indices 1 2 3 4 5 6 
#
# 1 0.011506 -0.006493 -0.001503 0.000000 0.006841 0.000000
# 2 -0.006493 0.017604 -0.004649 0.000000 -0.004798 0.000000
# 3 -0.001503 -0.004649 0.010481 0.000000 0.003692 0.000000
# 4 0.000000 0.000000 0.000000 0.024004 0.000000 0.002855
# 5 0.006841 -0.004798 0.003692 0.000000 0.042959 0.000000
# 6 0.000000 0.000000 0.000000 0.002855 0.000000 0.029141
#
#
# Mechanical properties :
#
#
# Convention : Reuss Voigt Hill
#
# Bulk Modulus (GPa) = 69.93655 76.89792 73.41724
# Shear Modulus (GPa) = 30.16561 33.97251 32.06906
#
# Velocity S-wave (km/s) = 3.94971 4.19153 4.07241
# Velocity P-wave (km/s) = 7.54772 7.94941 7.75117
#
# Compressibility (1/GPa) = 0.01429867
#
# Stress axis : x y z
#
# Youngs Moduli (GPa) = 86.91439 56.80604 95.41069
#
# Poissons Ratio (x) = 0.36885 0.14344
# Poissons Ratio (y) = 0.56435 0.44359
# Poissons Ratio (z) = 0.13067 0.26411
#
# Static dielectric constant tensor:
#      x y z
#    x 3.639740 0.000000 -0.083150 
#    y 0.000000 3.486120 0.000000 
#    z -0.083150 0.000000 3.556660 
# 
# 
# High freq. dielectric constant tensor:
#      x y z
#    x 1.762040 0.000000 -0.008560 
#    y 0.000000 1.769840 0.000000 
#    z -0.008560 0.000000 1.763500 
# 
# From -- ./inp_files/28239.got.cif
#   From: 2010.06.25/outbox.cif.g09.slc.cpg/sg11_15_cif.got.tgz:28239.got - 2010.06.27 23:14:04.
