data_PCOD8076964
_publ_section_title
;
Structure prediction by ZEFSAII (Michael W. Deem and Ramdas Pophale) SiO2 
 PCOD8076964
Probable space group: P 21/M
;
_chemical_formula_sum "Si O2"
_cell_formula_units_Z 20
_cell_length_a 23.130390
_cell_length_b 10.178863
_cell_length_c 15.316825
_cell_angle_alpha 90.000000
_cell_angle_beta 161.954334
_cell_angle_gamma 90.000000
_cell_volume 1117.113277
_symmetry_space_group_name_H-M "P 21/M"
_symmetry_group_IT_number 11
_symmetry_cell_setting 'monoclinic'
loop_
_space_group_symop_operation_xyz
x,y,z
-x,1/2+y,-z
-x,-y,-z
x,1/2-y,z
loop_
_atom_site_type_symbol
_atom_site_label
_atom_site_fract_x
_atom_site_fract_y
_atom_site_fract_z
Si Si1 0.547629 0.602650 0.345218
Si Si2 0.159709 0.900915 0.701854
Si Si3 0.332047 0.601064 0.764796
Si Si4 0.846754 0.009888 0.663036
Si Si5 0.789736 0.394403 0.762719
O O1 0.564595 0.750000 0.406640
O O2 0.676285 0.589509 0.442598
O O3 0.619487 0.500069 0.522662
O O4 0.336430 0.569374 0.017009
O O5 0.093729 0.750000 0.618815
O O6 0.209768 0.930423 0.673854
O O7 0.000000 0.000000 0.500000
O O8 0.410653 0.750000 0.881349
O O9 0.197056 0.587442 0.487875
O O10 0.500000 0.500000 0.000000
O O11 0.870626 0.110131 0.779220
O O12 0.042123 0.932883 0.930647
O O13 0.714805 0.250000 0.680635
#
# Coordination Sequence:
#
# PCOD8076964 Si02
#       5
#     4   4   4   4   4
#     4   9  17  31  51  73 104 137 171 214 260 309
#     4  10  22  38  54  76 107 145 181 218 266 319
#     4  11  21  35  55  81 109 139 178 224 270 318
#     4   9  18  27  50  77 110 132 168 213 265 311
#     4   9  17  28  48  78 109 137 169 211 266 318
#
# _framework density 17.903288
#
# number of rings (size 3 to 8) (size 9 to 14) (size 15 to 20)
#    1.200    1.200    2.000    1.200    0.000    3.200 
#    0.000    0.000    0.000    1.200    0.000    0.000 
#    0.000    0.000    0.000    0.000    0.000    0.000 
#
# Total GULP energy -247830.968433 kJ/mol
# GULP energy per Si atom -12391.548422 kJ/mol
# Density = 1.786254 g / cm^3
# Si number density = 17.903288 Si / 1000 Ang^3
#
#
#
# Elastic Constant Matrix: (Units=GPa)
#
#
# Indices 1 2 3 4 5 6 
#
# 1 49.0098 38.4179 36.2320 0.0000 3.1267 0.0000
# 2 38.4179 138.4684 74.4670 0.0000 13.7521 0.0000
# 3 36.2320 74.4670 113.7974 0.0000 12.5853 0.0000
# 4 0.0000 0.0000 0.0000 35.1718 0.0000 3.9504
# 5 3.1267 13.7521 12.5853 0.0000 19.8184 0.0000
# 6 0.0000 0.0000 0.0000 3.9504 0.0000 22.2222
#
#
#
# Elastic Compliance Matrix: (Units=1/GPa)
#
#
# Indices 1 2 3 4 5 6 
#
# 1 0.028664 -0.004872 -0.006251 0.000000 0.002828 0.000000
# 2 -0.004872 0.012180 -0.005990 0.000000 -0.003879 0.000000
# 3 -0.006251 -0.005990 0.015196 0.000000 -0.004507 0.000000
# 4 0.000000 0.000000 0.000000 0.029011 0.000000 -0.005157
# 5 0.002828 -0.003879 -0.004507 0.000000 0.055566 0.000000
# 6 0.000000 0.000000 0.000000 -0.005157 0.000000 0.045917
#
#
# Mechanical properties :
#
#
# Convention : Reuss Voigt Hill
#
# Bulk Modulus (GPa) = 45.84219 66.61215 56.22717
# Shear Modulus (GPa) = 21.92668 25.58640 23.75654
#
# Velocity S-wave (km/s) = 3.50341 3.78450 3.64667
# Velocity P-wave (km/s) = 6.48276 7.50893 7.01464
#
# Compressibility (1/GPa) = 0.02181397
#
# Stress axis : x y z
#
# Youngs Moduli (GPa) = 34.88706 82.09857 65.80539
#
# Poissons Ratio (x) = 0.39998 0.41135
# Poissons Ratio (y) = 0.16997 0.39421
# Poissons Ratio (z) = 0.21808 0.49181
#
# Static dielectric constant tensor:
#      x y z
#    x 2.849850 0.000000 -0.164130 
#    y 0.000000 3.424830 0.000000 
#    z -0.164130 0.000000 3.299990 
# 
# 
# High freq. dielectric constant tensor:
#      x y z
#    x 1.634580 0.000000 -0.012620 
#    y 0.000000 1.698440 0.000000 
#    z -0.012620 0.000000 1.701230 
# 
# From -- ./inp_files/55476.got.cif
#   From: 2010.06.25/outbox.cif.g09.slc.cpg/sg11_28_cif.got.tgz:55476.got - 2010.06.27 23:14:04.
