data_PCOD8076569
_publ_section_title
;
Structure prediction by ZEFSAII (Michael W. Deem and Ramdas Pophale) SiO2 
 PCOD8076569
Probable space group: P 21/M
;
_chemical_formula_sum "Si O2"
_cell_formula_units_Z 24
_cell_length_a 12.340266
_cell_length_b 8.454694
_cell_length_c 11.677047
_cell_angle_alpha 90.000000
_cell_angle_beta 109.699869
_cell_angle_gamma 90.000000
_cell_volume 1146.997671
_symmetry_space_group_name_H-M "P 21/M"
_symmetry_group_IT_number 11
_symmetry_cell_setting 'monoclinic'
loop_
_space_group_symop_operation_xyz
x,y,z
-x,1/2+y,-z
-x,-y,-z
x,1/2-y,z
loop_
_atom_site_type_symbol
_atom_site_label
_atom_site_fract_x
_atom_site_fract_y
_atom_site_fract_z
Si Si1 0.297075 0.062755 0.114883
Si Si2 0.821957 0.566592 0.694514
Si Si3 0.614636 0.066764 0.486609
Si Si4 0.243817 0.065884 0.848098
Si Si5 0.029251 0.434063 0.635101
Si Si6 0.450195 0.067022 0.767054
O O1 0.321284 0.250000 0.124233
O O2 0.215475 0.013244 0.191256
O O3 0.418103 0.974791 0.166044
O O4 0.235440 0.004115 0.976071
O O5 0.855120 0.750000 0.703008
O O6 0.719002 0.536200 0.570409
O O7 0.930589 0.465796 0.693099
O O8 0.632161 0.250000 0.524312
O O9 0.500000 0.000000 0.500000
O O10 0.606691 0.044128 0.348561
O O11 0.216759 0.250000 0.840171
O O12 0.146816 0.989399 0.729962
O O13 0.373740 0.032118 0.852108
O O14 0.044688 0.250000 0.621925
O O15 0.000000 0.500000 0.500000
O O16 0.441087 0.250000 0.726578
#
# Coordination Sequence:
#
# PCOD8076569 Si02
#       6
#     4   4   4   4   4   4
#     4  10  21  39  61  86 122 163 203 249 307 364
#     4  11  23  39  61  90 125 160 201 252 305 363
#     4  12  23  37  59  88 122 158 201 249 304 361
#     4   9  21  40  61  87 119 161 205 254 306 357
#     4  11  23  42  66  89 120 159 206 256 308 366
#     4  11  21  36  61  91 125 159 203 255 306 363
#
# _framework density 20.924192999999999
#
# number of rings (size 3 to 8) (size 9 to 14) (size 15 to 20)
#    0.000    1.333    1.667    4.500    0.000    2.667 
#    0.000    5.000    0.000    0.000    0.000    0.000 
#    0.000    0.000    0.000    0.000    0.000    0.000 
#
# Total GULP energy -297608.633899 kJ/mol
# GULP energy per Si atom -12400.359746 kJ/mol
# Density = 2.087657 g / cm^3
# Si number density = 20.924193 Si / 1000 Ang^3
#
#
#
# Elastic Constant Matrix: (Units=GPa)
#
#
# Indices 1 2 3 4 5 6 
#
# 1 117.0903 19.2600 52.1171 0.0000 -11.8736 0.0000
# 2 19.2600 47.3744 22.4242 0.0000 -4.5936 0.0000
# 3 52.1171 22.4242 161.3835 0.0000 -14.0360 0.0000
# 4 0.0000 0.0000 0.0000 25.9484 0.0000 -0.9449
# 5 -11.8736 -4.5936 -14.0360 0.0000 27.2233 0.0000
# 6 0.0000 0.0000 0.0000 -0.9449 0.0000 31.8457
#
#
#
# Elastic Compliance Matrix: (Units=1/GPa)
#
#
# Indices 1 2 3 4 5 6 
#
# 1 0.010493 -0.002689 -0.002781 0.000000 0.002689 0.000000
# 2 -0.002689 0.023421 -0.002245 0.000000 0.001622 0.000000
# 3 -0.002781 -0.002245 0.007609 0.000000 0.002331 0.000000
# 4 0.000000 0.000000 0.000000 0.038580 0.000000 0.001145
# 5 0.002689 0.001622 0.002331 0.000000 0.039382 0.000000
# 6 0.000000 0.000000 0.000000 0.001145 0.000000 0.031435
#
#
# Mechanical properties :
#
#
# Convention : Reuss Voigt Hill
#
# Bulk Modulus (GPa) = 38.32302 57.05008 47.68655
# Shear Modulus (GPa) = 28.56342 32.47328 30.51835
#
# Velocity S-wave (km/s) = 3.69872 3.94375 3.82320
# Velocity P-wave (km/s) = 6.04943 6.93267 6.50606
#
# Compressibility (1/GPa) = 0.02609397
#
# Stress axis : x y z
#
# Youngs Moduli (GPa) = 95.29885 42.69584 131.41817
#
# Poissons Ratio (x) = 0.11480 0.36550
# Poissons Ratio (y) = 0.25624 0.29504
# Poissons Ratio (z) = 0.26505 0.09585
#
# Static dielectric constant tensor:
#      x y z
#    x 4.030690 0.000000 -0.309340 
#    y 0.000000 3.604710 0.000000 
#    z -0.309340 0.000000 4.692270 
# 
# 
# High freq. dielectric constant tensor:
#      x y z
#    x 1.825090 0.000000 -0.006510 
#    y 0.000000 1.804670 0.000000 
#    z -0.006510 0.000000 1.831510 
# 
# From -- ./inp_files/33902.got.cif
#   From: 2010.06.25/outbox.cif.g09.slc.cpg/sg11_17_cif.got.tgz:33902.got - 2010.06.27 23:14:04.
