data_PCOD8076439
_publ_section_title
;
Structure prediction by ZEFSAII (Michael W. Deem and Ramdas Pophale) SiO2 
 PCOD8076439
Probable space group: P 21/M
;
_chemical_formula_sum "Si O2"
_cell_formula_units_Z 32
_cell_length_a 15.706209
_cell_length_b 8.483531
_cell_length_c 24.467526
_cell_angle_alpha 90.000000
_cell_angle_beta 151.792662
_cell_angle_gamma 90.000000
_cell_volume 1540.956110
_symmetry_space_group_name_H-M "P 21/M"
_symmetry_group_IT_number 11
_symmetry_cell_setting 'monoclinic'
loop_
_space_group_symop_operation_xyz
x,y,z
-x,1/2+y,-z
-x,-y,-z
x,1/2-y,z
loop_
_atom_site_type_symbol
_atom_site_label
_atom_site_fract_x
_atom_site_fract_y
_atom_site_fract_z
Si Si1 0.195691 0.437386 0.595389
Si Si2 0.545068 0.563173 0.353639
Si Si3 0.408968 0.069052 0.817560
Si Si4 0.205492 0.563055 0.976928
Si Si5 0.391150 0.932527 0.489809
Si Si6 0.190783 0.936878 0.090567
Si Si7 0.306276 0.067592 0.876320
Si Si8 0.978259 0.933164 0.751954
O O1 0.186819 0.250000 0.591657
O O2 0.283434 0.493490 0.586788
O O3 0.322738 0.508719 0.714979
O O4 0.000000 0.500000 0.500000
O O5 0.542830 0.750000 0.353046
O O6 0.555697 0.505759 0.421907
O O7 0.357258 0.499088 0.221342
O O8 0.442049 0.250000 0.820736
O O9 0.607489 0.998786 0.943801
O O10 0.278399 0.051473 0.795300
O O11 0.194767 0.750000 0.969044
O O12 0.207271 0.496489 0.038798
O O13 0.033776 0.505385 0.844158
O O14 0.434812 0.750000 0.518204
O O15 0.500000 0.000000 0.500000
O O16 0.180998 0.959926 0.360581
O O17 0.192361 0.750000 0.092605
O O18 0.000000 0.000000 0.000000
O O19 0.288208 0.250000 0.884647
O O20 0.153683 0.956278 0.814272
O O21 0.500000 0.000000 0.000000
O O22 0.919854 0.750000 0.717588
#
# Coordination Sequence:
#
# PCOD8076439 Si02
#       8
#     4   4   4   4   4   4   4   4
#     4  10  21  38  62  89 122 165 212 260 312 374
#     4  10  22  43  67  94 130 168 212 263 318 385
#     4   9  17  34  58  83 117 161 206 252 311 369
#     4   9  17  35  62  89 119 160 202 249 313 376
#     4  12  28  49  70  92 124 167 218 271 326 387
#     4  10  21  38  64  94 123 157 202 253 313 377
#     4  11  21  35  57  89 127 169 211 256 309 370
#     4  11  23  41  65  93 128 168 213 262 319 385
#
# _framework density 20.766328999999999
#
# number of rings (size 3 to 8) (size 9 to 14) (size 15 to 20)
#    0.000    1.750    2.500    1.875    3.500    1.000 
#    0.000    1.250    0.000    0.000    0.000    0.000 
#    0.000    0.000    0.000    0.000    0.000    0.000 
#
# Total GULP energy -396543.438925 kJ/mol
# GULP energy per Si atom -12391.982466 kJ/mol
# Density = 2.071906 g / cm^3
# Si number density = 20.766329 Si / 1000 Ang^3
#
#
#
# Elastic Constant Matrix: (Units=GPa)
#
#
# Indices 1 2 3 4 5 6 
#
# 1 141.3150 21.6892 74.2673 0.0000 -6.9710 0.0000
# 2 21.6892 37.2958 17.5000 0.0000 -3.0068 0.0000
# 3 74.2673 17.5000 143.2435 0.0000 -6.7837 0.0000
# 4 0.0000 0.0000 0.0000 28.4503 0.0000 5.5993
# 5 -6.9710 -3.0068 -6.7837 0.0000 44.3368 0.0000
# 6 0.0000 0.0000 0.0000 5.5993 0.0000 29.2132
#
#
#
# Elastic Compliance Matrix: (Units=1/GPa)
#
#
# Indices 1 2 3 4 5 6 
#
# 1 0.010192 -0.003619 -0.004813 0.000000 0.000621 0.000000
# 2 -0.003619 0.029816 -0.001710 0.000000 0.001191 0.000000
# 3 -0.004813 -0.001710 0.009714 0.000000 0.000614 0.000000
# 4 0.000000 0.000000 0.000000 0.036527 0.000000 -0.007001
# 5 0.000621 0.001191 0.000614 0.000000 0.022827 0.000000
# 6 0.000000 0.000000 0.000000 -0.007001 0.000000 0.035573
#
#
# Mechanical properties :
#
#
# Convention : Reuss Voigt Hill
#
# Bulk Modulus (GPa) = 33.96856 60.97415 47.47135
# Shear Modulus (GPa) = 28.61337 34.29326 31.45332
#
# Velocity S-wave (km/s) = 3.71600 4.06814 3.89605
# Velocity P-wave (km/s) = 5.89954 7.17580 6.56874
#
# Compressibility (1/GPa) = 0.02943898
#
# Stress axis : x y z
#
# Youngs Moduli (GPa) = 98.11987 33.53960 102.94168
#
# Poissons Ratio (x) = 0.12137 0.49541
# Poissons Ratio (y) = 0.35507 0.17602
# Poissons Ratio (z) = 0.47221 0.05735
#
# Static dielectric constant tensor:
#      x y z
#    x 4.354300 0.000000 -0.210710 
#    y 0.000000 3.494200 0.000000 
#    z -0.210710 0.000000 4.109960 
# 
# 
# High freq. dielectric constant tensor:
#      x y z
#    x 1.827150 0.000000 -0.005960 
#    y 0.000000 1.779310 0.000000 
#    z -0.005960 0.000000 1.824420 
# 
# From -- ./inp_files/69103.got.cif
#   From: 2010.06.25/outbox.cif.g09.slc.cpg/sg11_35_cif.got.tgz:69103.got - 2010.06.27 23:14:04.
