data_PCOD8076711
_publ_section_title
;
Structure prediction by ZEFSAII (Michael W. Deem and Ramdas Pophale) SiO2 
 PCOD8076711
Probable space group: P 21/M
;
_chemical_formula_sum "Si O2"
_cell_formula_units_Z 28
_cell_length_a 11.709917
_cell_length_b 13.888632
_cell_length_c 8.790906
_cell_angle_alpha 90.000000
_cell_angle_beta 115.648046
_cell_angle_gamma 90.000000
_cell_volume 1288.837441
_symmetry_space_group_name_H-M "P 21/M"
_symmetry_group_IT_number 11
_symmetry_cell_setting 'monoclinic'
loop_
_space_group_symop_operation_xyz
x,y,z
-x,1/2+y,-z
-x,-y,-z
x,1/2-y,z
loop_
_atom_site_type_symbol
_atom_site_label
_atom_site_fract_x
_atom_site_fract_y
_atom_site_fract_z
Si Si1 0.461121 0.636054 0.437183
Si Si2 0.195892 0.544801 0.772058
Si Si3 0.203801 0.863799 0.448518
Si Si4 0.577014 0.361524 0.925545
Si Si5 0.050714 0.015566 0.196912
Si Si6 0.711961 0.862165 0.739722
Si Si7 0.687063 0.859470 0.081166
O O1 0.471405 0.750000 0.450293
O O2 0.335389 0.602374 0.450816
O O3 0.458628 0.599888 0.262163
O O4 0.584181 0.592116 0.592840
O O5 0.204332 0.601818 0.621500
O O6 0.223117 0.430098 0.768114
O O7 0.057623 0.562701 0.761579
O O8 0.301040 0.581308 0.949909
O O9 0.183264 0.750000 0.428993
O O10 0.090064 0.912514 0.289296
O O11 0.614455 0.250000 0.941931
O O12 0.460433 0.380475 0.971620
O O13 0.168568 0.087459 0.268545
O O14 0.000000 0.000000 0.000000
O O15 0.721508 0.750000 0.706385
O O16 0.711713 0.879732 0.919067
O O17 0.721064 0.750000 0.147323
#
# Coordination Sequence:
#
# PCOD8076711 Si02
#       7
#     4   4   4   4   4   4   4
#     4   9  20  40  67  99 131 168 220 274 334 394
#     4  12  24  43  67  99 135 178 225 269 331 403
#     4  11  26  47  70  97 135 179 220 278 337 395
#     4  10  21  39  68 103 134 172 220 274 334 401
#     4  12  26  45  67  98 134 175 233 273 325 406
#     4  10  22  42  67  97 132 173 218 277 339 395
#     4  10  22  41  65  96 133 171 217 275 335 388
#
# _framework density 21.725004999999999
#
# number of rings (size 3 to 8) (size 9 to 14) (size 15 to 20)
#    0.000    1.429    1.429    3.000    2.000    5.143 
#    0.000    0.000    0.000    0.000    0.000    0.000 
#    0.000    0.000    0.000    0.000    0.000    0.000 
#
# Total GULP energy -347345.329178 kJ/mol
# GULP energy per Si atom -12405.190328 kJ/mol
# Density = 2.167556 g / cm^3
# Si number density = 21.725005 Si / 1000 Ang^3
#
#
#
# Elastic Constant Matrix: (Units=GPa)
#
#
# Indices 1 2 3 4 5 6 
#
# 1 147.8723 35.7754 15.7560 0.0000 -2.0555 0.0000
# 2 35.7754 70.3159 18.8625 0.0000 -4.9809 0.0000
# 3 15.7560 18.8625 56.6525 0.0000 2.4936 0.0000
# 4 0.0000 0.0000 0.0000 37.1479 0.0000 1.3213
# 5 -2.0555 -4.9809 2.4936 0.0000 28.5898 0.0000
# 6 0.0000 0.0000 0.0000 1.3213 0.0000 32.6884
#
#
#
# Elastic Compliance Matrix: (Units=1/GPa)
#
#
# Indices 1 2 3 4 5 6 
#
# 1 0.007756 -0.003698 -0.000925 0.000000 -0.000006 0.000000
# 2 -0.003698 0.017674 -0.004999 0.000000 0.003249 0.000000
# 3 -0.000925 -0.004999 0.019690 0.000000 -0.002655 0.000000
# 4 0.000000 0.000000 0.000000 0.026958 0.000000 -0.001090
# 5 -0.000006 0.003249 -0.002655 0.000000 0.035775 0.000000
# 6 0.000000 0.000000 0.000000 -0.001090 0.000000 0.030636
#
#
# Mechanical properties :
#
#
# Convention : Reuss Voigt Hill
#
# Bulk Modulus (GPa) = 38.64776 46.18094 42.41435
# Shear Modulus (GPa) = 30.05534 33.31501 31.68517
#
# Velocity S-wave (km/s) = 3.72350 3.92022 3.82313
# Velocity P-wave (km/s) = 6.02612 6.46483 6.24933
#
# Compressibility (1/GPa) = 0.02587472
#
# Stress axis : x y z
#
# Youngs Moduli (GPa) = 128.93514 56.57924 50.78669
#
# Poissons Ratio (x) = 0.20924 0.04700
# Poissons Ratio (y) = 0.47683 0.25389
# Poissons Ratio (z) = 0.11932 0.28285
#
# Static dielectric constant tensor:
#      x y z
#    x 4.146270 0.000000 0.048670 
#    y 0.000000 4.035320 0.000000 
#    z 0.048670 0.000000 3.905650 
# 
# 
# High freq. dielectric constant tensor:
#      x y z
#    x 1.864000 0.000000 -0.003940 
#    y 0.000000 1.864350 0.000000 
#    z -0.003940 0.000000 1.852350 
# 
# From -- ./inp_files/18130.got.cif
#   From: 2010.06.25/outbox.cif.g09.slc.cpg/sg11_10_cif.got.tgz:18130.got - 2010.06.27 23:14:04.
