data_PCOD8076618
_publ_section_title
;
Structure prediction by ZEFSAII (Michael W. Deem and Ramdas Pophale) SiO2 
 PCOD8076618
Probable space group: P 21/M
;
_chemical_formula_sum "Si O2"
_cell_formula_units_Z 24
_cell_length_a 12.138897
_cell_length_b 20.811294
_cell_length_c 6.670457
_cell_angle_alpha 90.000000
_cell_angle_beta 132.791924
_cell_angle_gamma 90.000000
_cell_volume 1236.592972
_symmetry_space_group_name_H-M "P 21/M"
_symmetry_group_IT_number 11
_symmetry_cell_setting 'monoclinic'
loop_
_space_group_symop_operation_xyz
x,y,z
-x,1/2+y,-z
-x,-y,-z
x,1/2-y,z
loop_
_atom_site_type_symbol
_atom_site_label
_atom_site_fract_x
_atom_site_fract_y
_atom_site_fract_z
Si Si1 0.643229 0.078980 0.695273
Si Si2 0.208814 0.374299 0.637653
Si Si3 0.984230 0.075058 0.036119
Si Si4 0.412511 0.322011 0.550129
Si Si5 0.436267 0.033665 0.115952
Si Si6 0.868854 0.822729 0.059408
O O1 0.817135 0.095078 0.889614
O O2 0.558547 0.133680 0.716781
O O3 0.571656 0.073633 0.384690
O O4 0.628608 0.013202 0.796737
O O5 0.324621 0.334141 0.647819
O O6 0.124869 0.327521 0.691056
O O7 0.295280 0.424410 0.881924
O O8 0.090656 0.412206 0.356242
O O9 0.025152 0.122727 0.904399
O O10 0.000000 0.000000 0.000000
O O11 0.473614 0.250000 0.625515
O O12 0.301194 0.334991 0.226740
O O13 0.500000 0.000000 0.000000
O O14 0.919539 0.750000 0.059985
#
# Coordination Sequence:
#
# PCOD8076618 Si02
#       6
#     4   4   4   4   4   4
#     4  11  23  38  60  91 123 156 195 254 312 353
#     4  11  21  40  65  89 119 165 208 248 302 374
#     4  11  25  40  62  94 130 161 204 258 315 365
#     4  10  21  39  62  89 120 158 205 254 303 362
#     4  11  21  36  63  89 122 154 201 248 304 362
#     4  10  22  42  64  87 122 170 211 249 306 378
#
# _framework density 19.408165
#
# number of rings (size 3 to 8) (size 9 to 14) (size 15 to 20)
#    0.000    1.333    3.333    2.500    4.667    5.333 
#    0.000    0.000    0.000    0.000    0.000    0.000 
#    0.000    0.000    0.000    0.000    0.000    0.000 
#
# Total GULP energy -297628.335787 kJ/mol
# GULP energy per Si atom -12401.180658 kJ/mol
# Density = 1.936399 g / cm^3
# Si number density = 19.408165 Si / 1000 Ang^3
#
#
#
# Elastic Constant Matrix: (Units=GPa)
#
#
# Indices 1 2 3 4 5 6 
#
# 1 96.6593 33.5367 38.1905 0.0000 -1.3715 0.0000
# 2 33.5367 99.5839 27.2078 0.0000 -1.1985 0.0000
# 3 38.1905 27.2078 102.7426 0.0000 -10.3912 0.0000
# 4 0.0000 0.0000 0.0000 23.5687 0.0000 -2.0328
# 5 -1.3715 -1.1985 -10.3912 0.0000 35.3768 0.0000
# 6 0.0000 0.0000 0.0000 -2.0328 0.0000 21.5759
#
#
#
# Elastic Compliance Matrix: (Units=1/GPa)
#
#
# Indices 1 2 3 4 5 6 
#
# 1 0.013090 -0.003306 -0.004071 0.000000 -0.000800 0.000000
# 2 -0.003306 0.011668 -0.001890 0.000000 -0.000288 0.000000
# 3 -0.004071 -0.001890 0.012083 0.000000 0.003327 0.000000
# 4 0.000000 0.000000 0.000000 0.042777 0.000000 0.004030
# 5 -0.000800 -0.000288 0.003327 0.000000 0.029204 0.000000
# 6 0.000000 0.000000 0.000000 0.004030 0.000000 0.046728
#
#
# Mechanical properties :
#
#
# Convention : Reuss Voigt Hill
#
# Bulk Modulus (GPa) = 54.62347 55.20620 54.91484
# Shear Modulus (GPa) = 27.74915 29.44099 28.59507
#
# Velocity S-wave (km/s) = 3.78533 3.89901 3.84259
# Velocity P-wave (km/s) = 6.87827 6.98401 6.93134
#
# Compressibility (1/GPa) = 0.01830715
#
# Stress axis : x y z
#
# Youngs Moduli (GPa) = 76.39615 85.70473 82.75776
#
# Poissons Ratio (x) = 0.28330 0.33692
# Poissons Ratio (y) = 0.25253 0.15644
# Poissons Ratio (z) = 0.31102 0.16201
#
# Static dielectric constant tensor:
#      x y z
#    x 3.544510 0.000000 -0.156550 
#    y 0.000000 3.566940 0.000000 
#    z -0.156550 0.000000 3.716200 
# 
# 
# High freq. dielectric constant tensor:
#      x y z
#    x 1.751820 0.000000 -0.013010 
#    y 0.000000 1.760940 0.000000 
#    z -0.013010 0.000000 1.759540 
# 
# From -- ./inp_files/2710.got.cif
#   From: 2010.06.25/outbox.cif.g09.slc.cpg/sg11_2_cif.got.tgz:2710.got - 2010.06.27 23:14:04.
