data_PCOD8076456
_publ_section_title
;
Structure prediction by ZEFSAII (Michael W. Deem and Ramdas Pophale) SiO2 
 PCOD8076456
Probable space group: P 21/M
;
_chemical_formula_sum "Si O2"
_cell_formula_units_Z 32
_cell_length_a 11.772893
_cell_length_b 8.819125
_cell_length_c 30.660967
_cell_angle_alpha 90.000000
_cell_angle_beta 149.392569
_cell_angle_gamma 90.000000
_cell_volume 1620.850237
_symmetry_space_group_name_H-M "P 21/M"
_symmetry_group_IT_number 11
_symmetry_cell_setting 'monoclinic'
loop_
_space_group_symop_operation_xyz
x,y,z
-x,1/2+y,-z
-x,-y,-z
x,1/2-y,z
loop_
_atom_site_type_symbol
_atom_site_label
_atom_site_fract_x
_atom_site_fract_y
_atom_site_fract_z
Si Si1 0.389422 0.573209 0.901116
Si Si2 0.181145 0.926846 0.923995
Si Si3 0.717530 0.426573 0.772491
Si Si4 0.708554 0.575477 0.592326
Si Si5 0.485774 0.077220 0.379706
Si Si6 0.168578 0.075932 0.746506
Si Si7 0.679773 0.578016 0.296597
Si Si8 0.942772 0.572921 0.526845
O O1 0.447692 0.750000 0.919484
O O2 0.236848 0.533093 0.892299
O O3 0.256376 0.528357 0.814200
O O4 0.618654 0.479804 0.978654
O O5 0.140753 0.750000 0.917432
O O6 0.960702 0.014708 0.865725
O O7 0.727363 0.250000 0.765010
O O8 0.629317 0.510066 0.700747
O O9 0.558177 0.462376 0.760886
O O10 0.500000 0.500000 0.500000
O O11 0.729995 0.750000 0.584147
O O12 0.685402 0.565805 0.636911
O O13 0.927625 0.482802 0.651270
O O14 0.550819 0.250000 0.391068
O O15 0.708001 0.988352 0.466742
O O16 0.150872 0.250000 0.756264
O O17 0.336492 0.060475 0.761000
O O18 0.749472 0.750000 0.332108
O O19 0.865941 0.463910 0.375499
O O20 0.921889 0.750000 0.513326
O O21 0.000000 0.500000 0.500000
#
# Coordination Sequence:
#
# PCOD8076456 Si02
#       8
#     4   4   4   4   4   4   4   4
#     4  10  21  39  63  91 120 152 191 235 288 352
#     4  10  21  38  62  91 122 150 185 239 294 346
#     4  11  22  37  59  86 116 151 192 239 293 348
#     4  11  24  40  58  84 118 154 195 244 293 346
#     4  11  23  38  57  83 116 151 193 244 295 346
#     4  11  23  40  62  86 118 158 198 241 292 349
#     4  10  23  41  58  82 117 156 199 245 289 341
#     4  12  23  36  57  83 113 152 197 243 291 345
#
# _framework density 19.742725
#
# number of rings (size 3 to 8) (size 9 to 14) (size 15 to 20)
#    0.000    1.250    1.250    4.875    0.000   11.000 
#    0.000    0.625    0.000    0.000    0.000    0.000 
#    0.000    0.000    0.000    0.000    0.000    0.000 
#
# Total GULP energy -397006.155615 kJ/mol
# GULP energy per Si atom -12406.442363 kJ/mol
# Density = 1.969779 g / cm^3
# Si number density = 19.742725 Si / 1000 Ang^3
#
#
#
# Elastic Constant Matrix: (Units=GPa)
#
#
# Indices 1 2 3 4 5 6 
#
# 1 87.2606 34.1594 35.2788 0.0000 7.7601 0.0000
# 2 34.1594 104.8667 23.3584 0.0000 5.3828 0.0000
# 3 35.2788 23.3584 90.6495 0.0000 5.5805 0.0000
# 4 0.0000 0.0000 0.0000 41.1779 0.0000 1.9616
# 5 7.7601 5.3828 5.5805 0.0000 30.2849 0.0000
# 6 0.0000 0.0000 0.0000 1.9616 0.0000 28.7264
#
#
#
# Elastic Compliance Matrix: (Units=1/GPa)
#
#
# Indices 1 2 3 4 5 6 
#
# 1 0.015045 -0.003723 -0.004753 0.000000 -0.002318 0.000000
# 2 -0.003723 0.011091 -0.001362 0.000000 -0.000766 0.000000
# 3 -0.004753 -0.001362 0.013293 0.000000 -0.000990 0.000000
# 4 0.000000 0.000000 0.000000 0.024364 0.000000 -0.001664
# 5 -0.002318 -0.000766 -0.000990 0.000000 0.033932 0.000000
# 6 0.000000 0.000000 0.000000 -0.001664 0.000000 0.034925
#
#
# Mechanical properties :
#
#
# Convention : Reuss Voigt Hill
#
# Bulk Modulus (GPa) = 50.62436 52.04110 51.33273
# Shear Modulus (GPa) = 31.46403 32.70320 32.08362
#
# Velocity S-wave (km/s) = 3.99645 4.07439 4.03561
# Velocity P-wave (km/s) = 6.85516 6.96786 6.91174
#
# Compressibility (1/GPa) = 0.01975333
#
# Stress axis : x y z
#
# Youngs Moduli (GPa) = 66.46647 90.16015 75.22650
#
# Poissons Ratio (x) = 0.33568 0.35757
# Poissons Ratio (y) = 0.24746 0.10245
# Poissons Ratio (z) = 0.31593 0.12279
#
# Static dielectric constant tensor:
#      x y z
#    x 3.737880 0.000000 0.120800 
#    y 0.000000 3.725550 0.000000 
#    z 0.120800 0.000000 3.490760 
# 
# 
# High freq. dielectric constant tensor:
#      x y z
#    x 1.772330 0.000000 0.005420 
#    y 0.000000 1.785320 0.000000 
#    z 0.005420 0.000000 1.762350 
# 
# From -- ./inp_files/45192.got.cif
#   From: 2010.06.25/outbox.cif.g09.slc.cpg/sg11_23_cif.got.tgz:45192.got - 2010.06.27 23:14:04.
