data_PCOD8076061
_publ_section_title
;
Structure prediction by ZEFSAII (Michael W. Deem and Ramdas Pophale) SiO2 
 PCOD8076061
Probable space group: P 21/M
;
_chemical_formula_sum "Si O2"
_cell_formula_units_Z 32
_cell_length_a 13.366985
_cell_length_b 13.958040
_cell_length_c 12.704465
_cell_angle_alpha 90.000000
_cell_angle_beta 137.166275
_cell_angle_gamma 90.000000
_cell_volume 1611.543819
_symmetry_space_group_name_H-M "P 21/M"
_symmetry_group_IT_number 11
_symmetry_cell_setting 'monoclinic'
loop_
_space_group_symop_operation_xyz
x,y,z
-x,1/2+y,-z
-x,-y,-z
x,1/2-y,z
loop_
_atom_site_type_symbol
_atom_site_label
_atom_site_fract_x
_atom_site_fract_y
_atom_site_fract_z
Si Si1 0.785925 0.861645 0.210777
Si Si2 0.877156 0.140499 0.525901
Si Si3 0.670374 0.533200 0.924521
Si Si4 0.370964 0.143992 0.541883
Si Si5 0.413323 0.362546 0.343038
Si Si6 0.661870 0.985762 0.295461
Si Si7 0.718636 0.143534 0.843783
Si Si8 0.263732 0.861975 0.369943
O O1 0.742854 0.750000 0.172654
O O2 0.681842 0.914219 0.213498
O O3 0.954470 0.876016 0.375604
O O4 0.765120 0.907997 0.080507
O O5 0.829025 0.250000 0.468128
O O6 0.857679 0.115833 0.635158
O O7 0.773470 0.075099 0.372777
O O8 0.676988 0.587526 0.818641
O O9 0.504228 0.523348 0.838240
O O10 0.747670 0.429559 0.962795
O O11 0.306872 0.250000 0.515537
O O12 0.334014 0.113809 0.393196
O O13 0.297695 0.069979 0.565809
O O14 0.545105 0.145878 0.689962
O O15 0.415158 0.250000 0.322353
O O16 0.579545 0.406450 0.471412
O O17 0.777005 0.250000 0.919715
O O18 0.788525 0.104146 0.787132
O O19 0.294642 0.750000 0.379160
#
# Coordination Sequence:
#
# PCOD8076061 Si02
#       8
#     4   4   4   4   4   4   4   4
#     4  11  25  42  54  75 112 150 179 220 275 326
#     4  10  21  37  58  81 107 142 186 224 265 314
#     4  11  21  33  57  84 111 140 179 217 277 325
#     4   8  16  29  51  84 113 139 174 226 279 315
#     4   9  16  28  50  84 116 137 170 222 273 320
#     4  11  21  36  61  81 105 137 193 229 264 309
#     4   8  16  29  49  79 114 142 174 219 272 324
#     4   8  14  28  51  79 107 138 176 219 260 310
#
# _framework density 19.856735
#
# number of rings (size 3 to 8) (size 9 to 14) (size 15 to 20)
#    0.000    2.500    1.250    3.000    1.750    2.500 
#    0.000    1.250    0.000    1.500    0.000    0.000 
#    0.000    0.000    0.000    0.000    0.000    0.000 
#
# Total GULP energy -396696.568777 kJ/mol
# GULP energy per Si atom -12396.767774 kJ/mol
# Density = 1.981154 g / cm^3
# Si number density = 19.856735 Si / 1000 Ang^3
#
#
#
# Elastic Constant Matrix: (Units=GPa)
#
#
# Indices 1 2 3 4 5 6 
#
# 1 34.7205 18.3771 10.9047 0.0000 -14.6884 0.0000
# 2 18.3771 92.8474 32.4531 0.0000 -13.9584 0.0000
# 3 10.9047 32.4531 38.4191 0.0000 -15.1613 0.0000
# 4 0.0000 0.0000 0.0000 29.7634 0.0000 -9.1132
# 5 -14.6884 -13.9584 -15.1613 0.0000 23.1073 0.0000
# 6 0.0000 0.0000 0.0000 -9.1132 0.0000 28.4120
#
#
#
# Elastic Compliance Matrix: (Units=1/GPa)
#
#
# Indices 1 2 3 4 5 6 
#
# 1 0.041271 -0.005347 0.002538 0.000000 0.024669 0.000000
# 2 -0.005347 0.015993 -0.012847 0.000000 -0.002167 0.000000
# 3 0.002538 -0.012847 0.045522 0.000000 0.023720 0.000000
# 4 0.000000 0.000000 0.000000 0.037257 0.000000 0.011950
# 5 0.024669 -0.002167 0.023720 0.000000 0.073212 0.000000
# 6 0.000000 0.000000 0.000000 0.011950 0.000000 0.039029
#
#
# Mechanical properties :
#
#
# Convention : Reuss Voigt Hill
#
# Bulk Modulus (GPa) = 13.99139 32.16186 23.07662
# Shear Modulus (GPa) = 16.26429 23.20668 19.73549
#
# Velocity S-wave (km/s) = 2.86507 3.42234 3.15603
# Velocity P-wave (km/s) = 4.24338 5.64346 4.99274
#
# Compressibility (1/GPa) = 0.07147253
#
# Stress axis : x y z
#
# Youngs Moduli (GPa) = 24.23026 62.52560 21.96761
#
# Poissons Ratio (x) = 0.33432 -0.05575
# Poissons Ratio (y) = 0.12956 0.28223
# Poissons Ratio (z) = -0.06149 0.80330
#
# Static dielectric constant tensor:
#      x y z
#    x 3.534990 0.000000 -0.286380 
#    y 0.000000 3.953510 0.000000 
#    z -0.286380 0.000000 3.132240 
# 
# 
# High freq. dielectric constant tensor:
#      x y z
#    x 1.762080 0.000000 -0.026870 
#    y 0.000000 1.789400 0.000000 
#    z -0.026870 0.000000 1.723720 
# 
# From -- ./inp_files/39682.got.cif
#   From: 2010.06.25/outbox.cif.g09.slc.cpg/sg11_20_cif.got.tgz:39682.got - 2010.06.27 23:14:04.
