data_PCOD8076192
_publ_section_title
;
Structure prediction by ZEFSAII (Michael W. Deem and Ramdas Pophale) SiO2 
 PCOD8076192
Probable space group: P 21/M
;
_chemical_formula_sum "Si O2"
_cell_formula_units_Z 32
_cell_length_a 12.035478
_cell_length_b 23.533189
_cell_length_c 9.284647
_cell_angle_alpha 90.000000
_cell_angle_beta 143.686455
_cell_angle_gamma 90.000000
_cell_volume 1557.329929
_symmetry_space_group_name_H-M "P 21/M"
_symmetry_group_IT_number 11
_symmetry_cell_setting 'monoclinic'
loop_
_space_group_symop_operation_xyz
x,y,z
-x,1/2+y,-z
-x,-y,-z
x,1/2-y,z
loop_
_atom_site_type_symbol
_atom_site_label
_atom_site_fract_x
_atom_site_fract_y
_atom_site_fract_z
Si Si1 0.507163 0.060236 0.304759
Si Si2 0.674880 0.813435 0.550801
Si Si3 0.847116 0.612877 0.182134
Si Si4 0.316871 0.877509 0.259740
Si Si5 0.336405 0.947761 0.015918
Si Si6 0.996700 0.313733 0.889372
Si Si7 0.268708 0.097236 0.629976
Si Si8 0.160598 0.972418 0.535849
O O1 0.579312 0.072891 0.541020
O O2 0.680596 0.064592 0.376244
O O3 0.413098 0.998871 0.193841
O O4 0.353049 0.107530 0.104489
O O5 0.675043 0.750000 0.482969
O O6 0.463595 0.828032 0.375688
O O7 0.760618 0.858777 0.529348
O O8 0.803345 0.814815 0.825144
O O9 0.813410 0.627649 0.313957
O O10 0.970698 0.662086 0.237212
O O11 0.958974 0.553252 0.285618
O O12 0.240782 0.904308 0.029791
O O13 0.147047 0.852049 0.172100
O O14 0.511831 0.917678 0.118827
O O15 0.192255 0.968392 0.742372
O O16 0.916526 0.250000 0.792190
O O17 0.160903 0.037968 0.485041
#
# Coordination Sequence:
#
# PCOD8076192 Si02
#       8
#     4   4   4   4   4   4   4   4
#     4  11  20  38  57  91 126 156 197 237 295 363
#     4  10  23  42  63  85 116 157 207 256 298 348
#     4  12  22  37  64  88 122 160 198 244 301 361
#     4  11  22  40  63  86 121 159 197 251 297 357
#     4  10  21  37  61  92 127 159 193 240 300 362
#     4  11  25  43  61  85 116 162 210 251 300 353
#     4  10  21  38  62  90 121 159 198 245 303 356
#     4  11  21  38  59  93 128 162 193 238 300 373
#
# _framework density 20.547989999999999
#
# number of rings (size 3 to 8) (size 9 to 14) (size 15 to 20)
#    0.000    1.250    5.000    1.875    1.750    0.500 
#    0.000    1.250    0.000    0.750    0.000    0.000 
#    0.000    0.000    0.000    0.000    0.000    0.000 
#
# Total GULP energy -396768.912771 kJ/mol
# GULP energy per Si atom -12399.028524 kJ/mol
# Density = 2.050122 g / cm^3
# Si number density = 20.547990 Si / 1000 Ang^3
#
#
#
# Elastic Constant Matrix: (Units=GPa)
#
#
# Indices 1 2 3 4 5 6 
#
# 1 110.6404 44.4241 7.1092 0.0000 -5.3789 0.0000
# 2 44.4241 103.2101 25.0787 0.0000 -13.9059 0.0000
# 3 7.1092 25.0787 47.0297 0.0000 -8.0026 0.0000
# 4 0.0000 0.0000 0.0000 24.9264 0.0000 -1.8194
# 5 -5.3789 -13.9059 -8.0026 0.0000 26.9492 0.0000
# 6 0.0000 0.0000 0.0000 -1.8194 0.0000 28.9520
#
#
#
# Elastic Compliance Matrix: (Units=1/GPa)
#
#
# Indices 1 2 3 4 5 6 
#
# 1 0.010967 -0.004969 0.000978 0.000000 -0.000085 0.000000
# 2 -0.004969 0.013852 -0.005885 0.000000 0.004408 0.000000
# 3 0.000978 -0.005885 0.025035 0.000000 0.004593 0.000000
# 4 0.000000 0.000000 0.000000 0.040303 0.000000 0.002533
# 5 -0.000085 0.004408 0.004593 0.000000 0.040728 0.000000
# 6 0.000000 0.000000 0.000000 0.002533 0.000000 0.034699
#
#
# Mechanical properties :
#
#
# Convention : Reuss Voigt Hill
#
# Bulk Modulus (GPa) = 33.22272 46.01157 39.61714
# Shear Modulus (GPa) = 25.59231 28.45005 27.02118
#
# Velocity S-wave (km/s) = 3.53298 3.72501 3.63027
# Velocity P-wave (km/s) = 5.73115 6.39858 6.07404
#
# Compressibility (1/GPa) = 0.03009989
#
# Stress axis : x y z
#
# Youngs Moduli (GPa) = 91.18590 72.19245 39.94374
#
# Poissons Ratio (x) = 0.35875 -0.03905
# Poissons Ratio (y) = 0.45313 0.23508
# Poissons Ratio (z) = -0.08915 0.42487
#
# Static dielectric constant tensor:
#      x y z
#    x 3.856150 0.000000 0.064580 
#    y 0.000000 3.633320 0.000000 
#    z 0.064580 0.000000 3.592830 
# 
# 
# High freq. dielectric constant tensor:
#      x y z
#    x 1.820520 0.000000 0.007630 
#    y 0.000000 1.785140 0.000000 
#    z 0.007630 0.000000 1.792370 
# 
# From -- ./inp_files/19745.got.cif
#   From: 2010.06.25/outbox.cif.g09.slc.cpg/sg11_10_cif.got.tgz:19745.got - 2010.06.27 23:14:04.
