data_PCOD8076274
_publ_section_title
;
Structure prediction by ZEFSAII (Michael W. Deem and Ramdas Pophale) SiO2 
 PCOD8076274
Probable space group: P 21/M
;
_chemical_formula_sum "Si O2"
_cell_formula_units_Z 28
_cell_length_a 26.795071
_cell_length_b 9.268222
_cell_length_c 9.186946
_cell_angle_alpha 90.000000
_cell_angle_beta 141.103981
_cell_angle_gamma 90.000000
_cell_volume 1432.581042
_symmetry_space_group_name_H-M "P 21/M"
_symmetry_group_IT_number 11
_symmetry_cell_setting 'monoclinic'
loop_
_space_group_symop_operation_xyz
x,y,z
-x,1/2+y,-z
-x,-y,-z
x,1/2-y,z
loop_
_atom_site_type_symbol
_atom_site_label
_atom_site_fract_x
_atom_site_fract_y
_atom_site_fract_z
Si Si1 0.645229 0.584849 0.158836
Si Si2 0.360983 0.083914 0.519995
Si Si3 0.061368 0.589784 0.729063
Si Si4 0.234624 0.921305 0.043860
Si Si5 0.964423 0.588791 0.790500
Si Si6 0.517090 0.418058 0.688591
Si Si7 0.206887 0.083989 0.693996
O O1 0.616266 0.750000 0.073167
O O2 0.635399 0.535948 0.303392
O O3 0.737524 0.569533 0.321870
O O4 0.595003 0.482701 0.939831
O O5 0.333199 0.250000 0.443210
O O6 0.446316 0.060126 0.641960
O O7 0.300058 0.980686 0.301180
O O8 0.059848 0.750000 0.659977
O O9 0.000000 0.500000 0.500000
O O10 0.034845 0.587624 0.834599
O O11 0.149957 0.527820 0.916345
O O12 0.243834 0.750000 0.054007
O O13 0.245790 0.989990 0.910314
O O14 0.945819 0.750000 0.803044
O O15 0.881331 0.523033 0.542290
O O16 0.000000 0.500000 0.000000
O O17 0.500000 0.500000 0.500000
O O18 0.531100 0.250000 0.684951
O O19 0.201415 0.250000 0.734501
#
# Coordination Sequence:
#
# PCOD8076274 Si02
#       7
#     4   4   4   4   4   4   4
#     4  10  22  40  62  88 117 151 193 237 284 340
#     4  10  23  41  61  86 118 155 191 231 285 347
#     4  10  21  38  58  83 114 151 194 240 287 338
#     4  11  23  37  58  88 117 150 195 241 286 336
#     4  10  22  38  57  83 115 151 193 239 287 341
#     4  11  23  40  63  90 118 153 192 232 284 341
#     4  10  21  39  60  83 114 154 194 235 287 345
#
# _framework density 19.545141999999998
#
# number of rings (size 3 to 8) (size 9 to 14) (size 15 to 20)
#    0.000    1.714    1.429    2.143    2.000    7.429 
#    0.000    0.000    0.000    0.000    0.000    0.000 
#    0.000    0.000    0.000    0.000    0.000    0.000 
#
# Total GULP energy -347274.534638 kJ/mol
# GULP energy per Si atom -12402.661951 kJ/mol
# Density = 1.950066 g / cm^3
# Si number density = 19.545142 Si / 1000 Ang^3
#
#
#
# Elastic Constant Matrix: (Units=GPa)
#
#
# Indices 1 2 3 4 5 6 
#
# 1 110.1979 33.5700 35.3192 0.0000 -6.5265 0.0000
# 2 33.5700 82.7630 52.1158 0.0000 -9.8939 0.0000
# 3 35.3192 52.1158 110.8604 0.0000 -12.5453 0.0000
# 4 0.0000 0.0000 0.0000 42.3487 0.0000 -1.5421
# 5 -6.5265 -9.8939 -12.5453 0.0000 35.9526 0.0000
# 6 0.0000 0.0000 0.0000 -1.5421 0.0000 28.2052
#
#
#
# Elastic Compliance Matrix: (Units=1/GPa)
#
#
# Indices 1 2 3 4 5 6 
#
# 1 0.010644 -0.003070 -0.001900 0.000000 0.000424 0.000000
# 2 -0.003070 0.018187 -0.007359 0.000000 0.001880 0.000000
# 3 -0.001900 -0.007359 0.013344 0.000000 0.002286 0.000000
# 4 0.000000 0.000000 0.000000 0.023661 0.000000 0.001294
# 5 0.000424 0.001880 0.002286 0.000000 0.029206 0.000000
# 6 0.000000 0.000000 0.000000 0.001294 0.000000 0.035525
#
#
# Mechanical properties :
#
#
# Convention : Reuss Voigt Hill
#
# Bulk Modulus (GPa) = 57.08835 60.64791 58.86813
# Shear Modulus (GPa) = 31.04385 33.48905 32.26645
#
# Velocity S-wave (km/s) = 3.98969 4.14384 4.06750
# Velocity P-wave (km/s) = 7.10601 7.34794 7.22799
#
# Compressibility (1/GPa) = 0.01751671
#
# Stress axis : x y z
#
# Youngs Moduli (GPa) = 93.95037 54.98575 74.94237
#
# Poissons Ratio (x) = 0.16883 0.14236
# Poissons Ratio (y) = 0.28847 0.55147
# Poissons Ratio (z) = 0.17847 0.40462
#
# Static dielectric constant tensor:
#      x y z
#    x 0.156390 0.000000 -0.696810 
#    y 0.000000 3.597340 0.000000 
#    z -0.696810 0.000000 3.233270 
# 
# 
# High freq. dielectric constant tensor:
#      x y z
#    x 1.777990 0.000000 0.005660 
#    y 0.000000 1.760130 0.000000 
#    z 0.005660 0.000000 1.760460 
# 
# From -- ./inp_files/28458.got.cif
#   From: 2010.06.25/outbox.cif.g09.slc.cpg/sg11_15_cif.got.tgz:28458.got - 2010.06.27 23:14:04.
