data_PCOD8076196
_publ_section_title
;
Structure prediction by ZEFSAII (Michael W. Deem and Ramdas Pophale) SiO2 
 PCOD8076196
Probable space group: P 21/M
;
_chemical_formula_sum "Si O2"
_cell_formula_units_Z 32
_cell_length_a 6.722494
_cell_length_b 17.468286
_cell_length_c 14.565619
_cell_angle_alpha 90.000000
_cell_angle_beta 93.911093
_cell_angle_gamma 90.000000
_cell_volume 1706.463687
_symmetry_space_group_name_H-M "P 21/M"
_symmetry_group_IT_number 11
_symmetry_cell_setting 'monoclinic'
loop_
_space_group_symop_operation_xyz
x,y,z
-x,1/2+y,-z
-x,-y,-z
x,1/2-y,z
loop_
_atom_site_type_symbol
_atom_site_label
_atom_site_fract_x
_atom_site_fract_y
_atom_site_fract_z
Si Si1 0.904432 0.451245 0.078012
Si Si2 0.415932 0.098034 0.364141
Si Si3 0.308518 0.664526 0.483599
Si Si4 0.912700 0.583491 0.504545
Si Si5 0.436552 0.070147 0.639107
Si Si6 0.575112 0.946748 0.153024
Si Si7 0.316985 0.092455 0.156130
Si Si8 0.562049 0.160695 0.008142
O O1 0.781055 0.509000 0.138884
O O2 0.077658 0.410940 0.143014
O O3 0.767641 0.383040 0.035202
O O4 0.000000 0.500000 0.000000
O O5 0.547631 0.159362 0.423063
O O6 0.198380 0.090810 0.401855
O O7 0.386389 0.121746 0.257918
O O8 0.539882 0.019826 0.376412
O O9 0.316796 0.750000 0.446167
O O10 0.373403 0.610731 0.401180
O O11 0.084545 0.646230 0.506688
O O12 0.762701 0.599757 0.416006
O O13 0.000000 0.500000 0.500000
O O14 0.421170 0.089653 0.745774
O O15 0.542642 0.876291 0.083772
O O16 0.395153 0.006993 0.136352
O O17 0.407427 0.152523 0.087133
O O18 0.606048 0.250000 0.991518
#
# Coordination Sequence:
#
# PCOD8076196 Si02
#       8
#     4   4   4   4   4   4   4   4
#     4  11  19  38  63  88 114 152 201 246 289 343
#     4  10  21  37  62  87 111 153 195 243 291 350
#     4  11  23  39  57  83 123 158 190 243 301 347
#     4  11  19  35  60  89 115 148 200 241 286 344
#     4  10  21  37  62  87 114 151 197 242 289 347
#     4  10  21  37  63  88 112 154 197 243 289 350
#     4  10  21  38  62  87 116 150 198 243 293 347
#     4  11  23  39  57  86 123 158 193 241 300 355
#
# _framework density 18.752230000000001
#
# number of rings (size 3 to 8) (size 9 to 14) (size 15 to 20)
#    0.000    1.500    5.000    1.500    1.750    4.500 
#    0.000    0.000    0.000    0.000    0.000    0.000 
#    0.000    0.000    0.000    0.000    0.000    0.000 
#
# Total GULP energy -396896.988214 kJ/mol
# GULP energy per Si atom -12403.030882 kJ/mol
# Density = 1.870955 g / cm^3
# Si number density = 18.752230 Si / 1000 Ang^3
#
#
#
# Elastic Constant Matrix: (Units=GPa)
#
#
# Indices 1 2 3 4 5 6 
#
# 1 116.9775 21.6101 39.0835 0.0000 -4.6936 0.0000
# 2 21.6101 77.1784 31.0305 0.0000 -0.7441 0.0000
# 3 39.0835 31.0305 127.0201 0.0000 -12.1697 0.0000
# 4 0.0000 0.0000 0.0000 8.8154 0.0000 -1.7529
# 5 -4.6936 -0.7441 -12.1697 0.0000 22.7054 0.0000
# 6 0.0000 0.0000 0.0000 -1.7529 0.0000 20.4627
#
#
#
# Elastic Compliance Matrix: (Units=1/GPa)
#
#
# Indices 1 2 3 4 5 6 
#
# 1 0.009730 -0.001706 -0.002519 0.000000 0.000605 0.000000
# 2 -0.001706 0.014715 -0.003223 0.000000 -0.001598 0.000000
# 3 -0.002519 -0.003223 0.009883 0.000000 0.004671 0.000000
# 4 0.000000 0.000000 0.000000 0.115403 0.000000 0.009886
# 5 0.000605 -0.001598 0.004671 0.000000 0.046618 0.000000
# 6 0.000000 0.000000 0.000000 0.009886 0.000000 0.049716
#
#
# Mechanical properties :
#
#
# Convention : Reuss Voigt Hill
#
# Bulk Modulus (GPa) = 51.46211 56.06937 53.76574
# Shear Modulus (GPa) = 18.69586 25.69348 22.19467
#
# Velocity S-wave (km/s) = 3.16095 3.70558 3.44404
# Velocity P-wave (km/s) = 6.38944 6.94791 6.67452
#
# Compressibility (1/GPa) = 0.01943177
#
# Stress axis : x y z
#
# Youngs Moduli (GPa) = 102.77809 67.95753 101.18619
#
# Poissons Ratio (x) = 0.11591 0.25490
# Poissons Ratio (y) = 0.17530 0.32613
# Poissons Ratio (z) = 0.25891 0.21903
#
# Static dielectric constant tensor:
#      x y z
#    x 3.767600 0.000000 -0.066700 
#    y 0.000000 3.180480 0.000000 
#    z -0.066700 0.000000 3.487150 
# 
# 
# High freq. dielectric constant tensor:
#      x y z
#    x 1.738610 0.000000 -0.003630 
#    y 0.000000 1.704920 0.000000 
#    z -0.003630 0.000000 1.732520 
# 
# From -- ./inp_files/46042.got.cif
#   From: 2010.06.25/outbox.cif.g09.slc.cpg/sg11_24_cif.got.tgz:46042.got - 2010.06.27 23:14:04.
