data_PCOD8076700
_publ_section_title
;
Structure prediction by ZEFSAII (Michael W. Deem and Ramdas Pophale) SiO2 
 PCOD8076700
Probable space group: P 21/M
;
_chemical_formula_sum "Si O2"
_cell_formula_units_Z 32
_cell_length_a 31.042284
_cell_length_b 8.684615
_cell_length_c 11.940841
_cell_angle_alpha 90.000000
_cell_angle_beta 150.141323
_cell_angle_gamma 90.000000
_cell_volume 1602.686094
_symmetry_space_group_name_H-M "P 21/M"
_symmetry_group_IT_number 11
_symmetry_cell_setting 'monoclinic'
loop_
_space_group_symop_operation_xyz
x,y,z
-x,1/2+y,-z
-x,-y,-z
x,1/2-y,z
loop_
_atom_site_type_symbol
_atom_site_label
_atom_site_fract_x
_atom_site_fract_y
_atom_site_fract_z
Si Si1 0.593074 0.071826 0.688422
Si Si2 0.247152 0.928468 0.803460
Si Si3 0.273668 0.070524 0.629555
Si Si4 0.769708 0.430660 0.700888
Si Si5 0.475136 0.071091 0.061417
Si Si6 0.919835 0.928521 0.174322
Si Si7 0.623355 0.931768 0.527847
Si Si8 0.098158 0.428952 0.608959
O O1 0.579923 0.250000 0.631449
O O2 0.500000 0.000000 0.500000
O O3 0.641636 0.993963 0.693022
O O4 0.653954 0.045951 0.933519
O O5 0.221385 0.750000 0.750196
O O6 0.233893 0.991221 0.649052
O O7 0.185976 0.023595 0.747494
O O8 0.250890 0.250000 0.578848
O O9 0.229818 0.992986 0.423878
O O10 0.375438 0.040929 0.859262
O O11 0.753535 0.250000 0.664163
O O12 0.693473 0.509159 0.598507
O O13 0.862041 0.469352 0.962015
O O14 0.499097 0.250000 0.115094
O O15 0.527852 0.986296 0.277619
O O16 0.500000 0.000000 0.000000
O O17 0.906343 0.750000 0.114930
O O18 0.891077 0.966647 0.235804
O O19 0.019378 0.973778 0.379423
O O20 0.627838 0.750000 0.539011
O O21 0.078339 0.250000 0.545560
#
# Coordination Sequence:
#
# PCOD8076700 Si02
#       8
#     4   4   4   4   4   4   4   4
#     4  11  24  41  61  88 122 160 204 252 305 362
#     4  11  24  41  62  88 121 162 205 249 301 361
#     4  11  24  41  61  86 119 160 205 251 303 364
#     4  12  24  39  61  89 122 157 200 251 304 359
#     4  11  22  37  59  85 117 157 203 253 304 359
#     4  10  21  39  65  95 127 157 194 246 302 359
#     4  12  24  38  59  87 121 159 204 253 306 361
#     4  10  21  39  65  95 124 159 199 242 297 360
#
# _framework density 19.966480000000001
#
# number of rings (size 3 to 8) (size 9 to 14) (size 15 to 20)
#    0.000    1.000    1.250    6.000    0.000    9.000 
#    0.000    0.625    0.000    0.000    0.000    0.000 
#    0.000    0.000    0.000    0.000    0.000    0.000 
#
# Total GULP energy -397036.720268 kJ/mol
# GULP energy per Si atom -12407.397508 kJ/mol
# Density = 1.992104 g / cm^3
# Si number density = 19.966480 Si / 1000 Ang^3
#
#
#
# Elastic Constant Matrix: (Units=GPa)
#
#
# Indices 1 2 3 4 5 6 
#
# 1 103.9710 26.8285 38.3121 0.0000 -11.6937 0.0000
# 2 26.8285 196.4230 50.1302 0.0000 10.2542 0.0000
# 3 38.3121 50.1302 99.6856 0.0000 -10.0622 0.0000
# 4 0.0000 0.0000 0.0000 34.9900 0.0000 -1.0549
# 5 -11.6937 10.2542 -10.0622 0.0000 36.5564 0.0000
# 6 0.0000 0.0000 0.0000 -1.0549 0.0000 37.1491
#
#
#
# Elastic Compliance Matrix: (Units=1/GPa)
#
#
# Indices 1 2 3 4 5 6 
#
# 1 0.011521 -0.000765 -0.003754 0.000000 0.002867 0.000000
# 2 -0.000765 0.006126 -0.003070 0.000000 -0.002808 0.000000
# 3 -0.003754 -0.003070 0.013355 0.000000 0.003336 0.000000
# 4 0.000000 0.000000 0.000000 0.028604 0.000000 0.000812
# 5 0.002867 -0.002808 0.003336 0.000000 0.029978 0.000000
# 6 0.000000 0.000000 0.000000 0.000812 0.000000 0.026942
#
#
# Mechanical properties :
#
#
# Convention : Reuss Voigt Hill
#
# Bulk Modulus (GPa) = 63.19534 70.06902 66.63218
# Shear Modulus (GPa) = 36.50236 40.72635 38.61436
#
# Velocity S-wave (km/s) = 4.28036 4.52124 4.40245
# Velocity P-wave (km/s) = 7.49320 7.90095 7.69978
#
# Compressibility (1/GPa) = 0.01582395
#
# Stress axis : x y z
#
# Youngs Moduli (GPa) = 86.79672 163.24846 74.88000
#
# Poissons Ratio (x) = 0.12493 0.28108
# Poissons Ratio (y) = 0.06642 0.22987
# Poissons Ratio (z) = 0.32581 0.50114
#
# Static dielectric constant tensor:
#      x y z
#    x 3.582980 0.000000 -0.145460 
#    y 0.000000 3.791880 0.000000 
#    z -0.145460 0.000000 3.668700 
# 
# 
# High freq. dielectric constant tensor:
#      x y z
#    x 1.777190 0.000000 -0.006340 
#    y 0.000000 1.797620 0.000000 
#    z -0.006340 0.000000 1.781840 
# 
# From -- ./inp_files/45321.got.cif
#   From: 2010.06.25/outbox.cif.g09.slc.cpg/sg11_23_cif.got.tgz:45321.got - 2010.06.27 23:14:04.
