data_PCOD8076694
_publ_section_title
;
Structure prediction by ZEFSAII (Michael W. Deem and Ramdas Pophale) SiO2 
 PCOD8076694
Probable space group: P 21/M
;
_chemical_formula_sum "Si O2"
_cell_formula_units_Z 28
_cell_length_a 20.751188
_cell_length_b 8.933537
_cell_length_c 15.857352
_cell_angle_alpha 90.000000
_cell_angle_beta 152.086320
_cell_angle_gamma 90.000000
_cell_volume 1376.174715
_symmetry_space_group_name_H-M "P 21/M"
_symmetry_group_IT_number 11
_symmetry_cell_setting 'monoclinic'
loop_
_space_group_symop_operation_xyz
x,y,z
-x,1/2+y,-z
-x,-y,-z
x,1/2-y,z
loop_
_atom_site_type_symbol
_atom_site_label
_atom_site_fract_x
_atom_site_fract_y
_atom_site_fract_z
Si Si1 0.148975 0.076911 0.073612
Si Si2 0.840114 0.920743 0.385038
Si Si3 0.684011 0.072463 0.878481
Si Si4 0.437326 0.575293 0.672723
Si Si5 0.145051 0.573529 0.764835
Si Si6 0.160316 0.921964 0.260876
Si Si7 0.568266 0.922175 0.158404
O O1 0.187114 0.250000 0.105115
O O2 0.243515 0.977129 0.123312
O O3 0.182118 0.031085 0.207444
O O4 0.987670 0.046526 0.867087
O O5 0.855396 0.750000 0.373193
O O6 0.732895 0.936734 0.337334
O O7 0.986848 0.983079 0.586901
O O8 0.786080 0.011853 0.241119
O O9 0.667608 0.250000 0.859289
O O10 0.533783 0.997510 0.712426
O O11 0.775299 0.011508 0.061961
O O12 0.468633 0.750000 0.715169
O O13 0.278695 0.543563 0.465790
O O14 0.474605 0.501121 0.804969
O O15 0.155268 0.750000 0.775256
O O16 0.167692 0.750000 0.237959
O O17 0.520685 0.750000 0.107872
O O18 0.500000 0.000000 0.000000
#
# Coordination Sequence:
#
# PCOD8076694 Si02
#       7
#     4   4   4   4   4   4   4
#     4  10  21  39  65  93 120 153 195 245 301 357
#     4   9  19  35  54  78 107 147 192 240 292 343
#     4  11  23  38  59  87 120 158 198 243 297 356
#     4  11  24  41  61  87 122 159 201 249 296 353
#     4   9  19  35  54  79 111 146 191 240 288 343
#     4   9  21  42  64  90 121 155 197 244 298 358
#     4  11  23  38  58  83 117 158 203 247 297 353
#
# _framework density 20.346254999999999
#
# number of rings (size 3 to 8) (size 9 to 14) (size 15 to 20)
#    0.000    2.000    0.000    2.571    2.000    6.857 
#    0.000    0.000    0.000    0.000    0.000    0.000 
#    0.000    0.000    0.000    0.000    0.000    0.000 
#
# Total GULP energy -347293.850953 kJ/mol
# GULP energy per Si atom -12403.351820 kJ/mol
# Density = 2.029995 g / cm^3
# Si number density = 20.346255 Si / 1000 Ang^3
#
#
#
# Elastic Constant Matrix: (Units=GPa)
#
#
# Indices 1 2 3 4 5 6 
#
# 1 104.7302 41.6836 27.2054 0.0000 9.5056 0.0000
# 2 41.6836 91.0701 40.5825 0.0000 2.9129 0.0000
# 3 27.2054 40.5825 80.2360 0.0000 0.9632 0.0000
# 4 0.0000 0.0000 0.0000 28.3943 0.0000 -1.9654
# 5 9.5056 2.9129 0.9632 0.0000 23.4106 0.0000
# 6 0.0000 0.0000 0.0000 -1.9654 0.0000 39.4353
#
#
#
# Elastic Compliance Matrix: (Units=1/GPa)
#
#
# Indices 1 2 3 4 5 6 
#
# 1 0.012262 -0.004705 -0.001726 0.000000 -0.004322 0.000000
# 2 -0.004705 0.016032 -0.006516 0.000000 0.000184 0.000000
# 3 -0.001726 -0.006516 0.016334 0.000000 0.000839 0.000000
# 4 0.000000 0.000000 0.000000 0.035340 0.000000 0.001761
# 5 -0.004322 0.000184 0.000839 0.000000 0.044413 0.000000
# 6 0.000000 0.000000 0.000000 0.001761 0.000000 0.025446
#
#
# Mechanical properties :
#
#
# Convention : Reuss Voigt Hill
#
# Bulk Modulus (GPa) = 53.37801 54.99771 54.18786
# Shear Modulus (GPa) = 27.47798 29.35235 28.41516
#
# Velocity S-wave (km/s) = 3.67893 3.80233 3.74114
# Velocity P-wave (km/s) = 6.65866 6.80930 6.73440
#
# Compressibility (1/GPa) = 0.01873430
#
# Stress axis : x y z
#
# Youngs Moduli (GPa) = 81.55561 62.37681 61.22253
#
# Poissons Ratio (x) = 0.29348 0.10567
# Poissons Ratio (y) = 0.38371 0.39890
# Poissons Ratio (z) = 0.14076 0.40642
#
# Static dielectric constant tensor:
#      x y z
#    x 3.659850 0.000000 0.216830 
#    y 0.000000 3.654360 0.000000 
#    z 0.216830 0.000000 3.827990 
# 
# 
# High freq. dielectric constant tensor:
#      x y z
#    x 1.794280 0.000000 0.013590 
#    y 0.000000 1.797120 0.000000 
#    z 0.013590 0.000000 1.796070 
# 
# From -- ./inp_files/54530.got.cif
#   From: 2010.06.25/outbox.cif.g09.slc.cpg/sg11_28_cif.got.tgz:54530.got - 2010.06.27 23:14:04.
