data_PCOD8076609
_publ_section_title
;
Structure prediction by ZEFSAII (Michael W. Deem and Ramdas Pophale) SiO2 
 PCOD8076609
Probable space group: P 21/M
;
_chemical_formula_sum "Si O2"
_cell_formula_units_Z 28
_cell_length_a 15.739481
_cell_length_b 8.730133
_cell_length_c 11.879714
_cell_angle_alpha 90.000000
_cell_angle_beta 123.588437
_cell_angle_gamma 90.000000
_cell_volume 1359.813691
_symmetry_space_group_name_H-M "P 21/M"
_symmetry_group_IT_number 11
_symmetry_cell_setting 'monoclinic'
loop_
_space_group_symop_operation_xyz
x,y,z
-x,1/2+y,-z
-x,-y,-z
x,1/2-y,z
loop_
_atom_site_type_symbol
_atom_site_label
_atom_site_fract_x
_atom_site_fract_y
_atom_site_fract_z
Si Si1 0.387930 0.931021 0.404833
Si Si2 0.534430 0.932196 0.142104
Si Si3 0.639748 0.929085 0.845962
Si Si4 0.165834 0.429103 0.859528
Si Si5 0.762575 0.570850 0.324647
Si Si6 0.788140 0.569694 0.591501
Si Si7 0.986618 0.930213 0.867997
O O1 0.397126 0.750000 0.407522
O O2 0.500000 0.000000 0.500000
O O3 0.332320 0.993797 0.252081
O O4 0.315780 0.981712 0.454754
O O5 0.526726 0.750000 0.134382
O O6 0.648117 0.993678 0.247188
O O7 0.465470 0.997035 0.191146
O O8 0.500000 0.000000 0.000000
O O9 0.623666 0.750000 0.815490
O O10 0.728226 0.962877 0.000039
O O11 0.138057 0.250000 0.845163
O O12 0.176075 0.493205 0.738861
O O13 0.077485 0.524065 0.852871
O O14 0.753954 0.750000 0.296509
O O15 0.817793 0.531721 0.483085
O O16 0.768039 0.750000 0.591108
O O17 0.880713 0.511127 0.736746
O O18 0.984344 0.750000 0.879385
O O19 0.000000 0.000000 0.000000
#
# Coordination Sequence:
#
# PCOD8076609 Si02
#       7
#     4   4   4   4   4   4   4
#     4  12  25  41  62  90 123 161 204 250 305 365
#     4  11  20  34  57  87 123 164 204 246 303 365
#     4  11  22  38  60  89 122 159 207 256 308 365
#     4  10  21  39  62  88 120 159 198 248 307 366
#     4   9  19  38  61  86 119 161 201 241 302 365
#     4  10  22  42  65  88 121 161 204 254 306 362
#     4  11  24  41  63  91 119 156 202 255 309 364
#
# _framework density 20.591056999999999
#
# number of rings (size 3 to 8) (size 9 to 14) (size 15 to 20)
#    0.000    1.429    1.429    4.286    0.000    7.429 
#    0.000    1.429    0.000    0.000    0.000    0.000 
#    0.000    0.000    0.000    0.000    0.000    0.000 
#
# Total GULP energy -347266.120317 kJ/mol
# GULP energy per Si atom -12402.361440 kJ/mol
# Density = 2.054419 g / cm^3
# Si number density = 20.591057 Si / 1000 Ang^3
#
#
#
# Elastic Constant Matrix: (Units=GPa)
#
#
# Indices 1 2 3 4 5 6 
#
# 1 140.3314 39.5417 57.8771 0.0000 -9.1668 0.0000
# 2 39.5417 83.7238 43.6605 0.0000 -0.4249 0.0000
# 3 57.8771 43.6605 140.8468 0.0000 -12.0013 0.0000
# 4 0.0000 0.0000 0.0000 28.0170 0.0000 -4.2549
# 5 -9.1668 -0.4249 -12.0013 0.0000 37.1251 0.0000
# 6 0.0000 0.0000 0.0000 -4.2549 0.0000 37.5870
#
#
#
# Elastic Compliance Matrix: (Units=1/GPa)
#
#
# Indices 1 2 3 4 5 6 
#
# 1 0.009163 -0.002883 -0.002758 0.000000 0.001338 0.000000
# 2 -0.002883 0.015215 -0.003679 0.000000 -0.001727 0.000000
# 3 -0.002758 -0.003679 0.009576 0.000000 0.002372 0.000000
# 4 0.000000 0.000000 0.000000 0.036317 0.000000 0.004111
# 5 0.001338 -0.001727 0.002372 0.000000 0.028014 0.000000
# 6 0.000000 0.000000 0.000000 0.004111 0.000000 0.027070
#
#
# Mechanical properties :
#
#
# Convention : Reuss Voigt Hill
#
# Bulk Modulus (GPa) = 65.29515 71.89564 68.59540
# Shear Modulus (GPa) = 33.53477 35.46733 34.50105
#
# Velocity S-wave (km/s) = 4.03998 4.15476 4.09777
# Velocity P-wave (km/s) = 7.31719 7.61628 7.46823
#
# Compressibility (1/GPa) = 0.01531507
#
# Stress axis : x y z
#
# Youngs Moduli (GPa) = 109.13433 65.72311 104.43056
#
# Poissons Ratio (x) = 0.18946 0.28799
# Poissons Ratio (y) = 0.31460 0.38421
# Poissons Ratio (z) = 0.30096 0.24180
#
# Static dielectric constant tensor:
#      x y z
#    x 4.571680 0.000000 -0.002360 
#    y 0.000000 3.643440 0.000000 
#    z -0.002360 0.000000 3.976870 
# 
# 
# High freq. dielectric constant tensor:
#      x y z
#    x 1.813920 0.000000 -0.011330 
#    y 0.000000 1.791420 0.000000 
#    z -0.011330 0.000000 1.818650 
# 
# From -- ./inp_files/38455.got.cif
#   From: 2010.06.25/outbox.cif.g09.slc.cpg/sg11_20_cif.got.tgz:38455.got - 2010.06.27 23:14:04.
