data_PCOD8076337
_publ_section_title
;
Structure prediction by ZEFSAII (Michael W. Deem and Ramdas Pophale) SiO2 
 PCOD8076337
Probable space group: P 21/M
;
_chemical_formula_sum "Si O2"
_cell_formula_units_Z 24
_cell_length_a 11.885834
_cell_length_b 9.000160
_cell_length_c 11.881895
_cell_angle_alpha 90.000000
_cell_angle_beta 89.081853
_cell_angle_gamma 90.000000
_cell_volume 1270.895486
_symmetry_space_group_name_H-M "P 21/M"
_symmetry_group_IT_number 11
_symmetry_cell_setting 'monoclinic'
loop_
_space_group_symop_operation_xyz
x,y,z
-x,1/2+y,-z
-x,-y,-z
x,1/2-y,z
loop_
_atom_site_type_symbol
_atom_site_label
_atom_site_fract_x
_atom_site_fract_y
_atom_site_fract_z
Si Si1 0.164772 0.924795 0.453840
Si Si2 0.908531 0.073837 0.081042
Si Si3 0.458115 0.921342 0.161354
Si Si4 0.024841 0.924140 0.670687
Si Si5 0.416407 0.924328 0.416342
Si Si6 0.678353 0.922212 0.021198
O O1 0.159513 0.750000 0.435242
O O2 0.117734 0.971887 0.576862
O O3 0.291294 0.984838 0.442120
O O4 0.092806 0.997149 0.354885
O O5 0.914338 0.250000 0.067042
O O6 0.932635 0.023610 0.208429
O O7 0.785653 0.018704 0.050511
O O8 0.000000 0.000000 0.000000
O O9 0.423191 0.750000 0.143452
O O10 0.453494 0.968425 0.290706
O O11 0.584948 0.949904 0.118201
O O12 0.369907 0.024065 0.097288
O O13 0.002938 0.750000 0.667747
O O14 0.422178 0.750000 0.436337
O O15 0.500000 0.000000 0.500000
O O16 0.712326 0.750000 0.011039
#
# Coordination Sequence:
#
# PCOD8076337 Si02
#       6
#     4   4   4   4   4   4
#     4   9  19  37  59  83 112 147 185 228 280 332
#     4  11  24  39  58  85 117 149 190 237 284 338
#     4   9  20  39  59  84 117 152 191 235 284 338
#     4   9  20  38  58  82 111 146 188 230 277 335
#     4  10  22  37  57  86 116 148 188 231 279 333
#     4  10  21  38  60  85 114 151 193 234 286 340
#
# _framework density 18.884322000000001
#
# number of rings (size 3 to 8) (size 9 to 14) (size 15 to 20)
#    0.000    2.333    0.000    1.000    4.667    3.333 
#    0.000    0.000    0.000    0.000    0.000    0.000 
#    0.000    0.000    0.000    0.000    0.000    0.000 
#
# Total GULP energy -297689.175781 kJ/mol
# GULP energy per Si atom -12403.715658 kJ/mol
# Density = 1.884134 g / cm^3
# Si number density = 18.884322 Si / 1000 Ang^3
#
#
#
# Elastic Constant Matrix: (Units=GPa)
#
#
# Indices 1 2 3 4 5 6 
#
# 1 153.4266 49.9975 82.0573 0.0000 9.2070 0.0000
# 2 49.9975 55.8600 52.1654 0.0000 4.7904 0.0000
# 3 82.0573 52.1654 147.7789 0.0000 5.9109 0.0000
# 4 0.0000 0.0000 0.0000 31.2320 0.0000 6.3724
# 5 9.2070 4.7904 5.9109 0.0000 23.1017 0.0000
# 6 0.0000 0.0000 0.0000 6.3724 0.0000 36.6209
#
#
#
# Elastic Compliance Matrix: (Units=1/GPa)
#
#
# Indices 1 2 3 4 5 6 
#
# 1 0.010505 -0.005753 -0.003721 0.000000 -0.002042 0.000000
# 2 -0.005753 0.030086 -0.007343 0.000000 -0.002067 0.000000
# 3 -0.003721 -0.007343 0.011422 0.000000 0.000083 0.000000
# 4 0.000000 0.000000 0.000000 0.033197 0.000000 -0.005777
# 5 -0.002042 -0.002067 0.000083 0.000000 0.044508 0.000000
# 6 0.000000 0.000000 0.000000 -0.005777 0.000000 0.028312
#
#
# Mechanical properties :
#
#
# Convention : Reuss Voigt Hill
#
# Bulk Modulus (GPa) = 54.40983 80.61179 67.51081
# Shear Modulus (GPa) = 25.27955 29.71395 27.49675
#
# Velocity S-wave (km/s) = 3.66273 3.97100 3.81998
# Velocity P-wave (km/s) = 6.83829 7.98780 7.43529
#
# Compressibility (1/GPa) = 0.01837903
#
# Stress axis : x y z
#
# Youngs Moduli (GPa) = 95.19374 33.23858 87.55309
#
# Poissons Ratio (x) = 0.19121 0.32576
# Poissons Ratio (y) = 0.54762 0.64291
# Poissons Ratio (z) = 0.35419 0.24407
#
# Static dielectric constant tensor:
#      x y z
#    x 3.640320 0.000000 -0.129670 
#    y 0.000000 3.388520 0.000000 
#    z -0.129670 0.000000 3.619140 
# 
# 
# High freq. dielectric constant tensor:
#      x y z
#    x 1.742180 0.000000 -0.002290 
#    y 0.000000 1.731340 0.000000 
#    z -0.002290 0.000000 1.741760 
# 
# From -- ./inp_files/33801.got.cif
#   From: 2010.06.25/outbox.cif.g09.slc.cpg/sg11_17_cif.got.tgz:33801.got - 2010.06.27 23:14:04.
