data_PCOD8076189
_publ_section_title
;
Structure prediction by ZEFSAII (Michael W. Deem and Ramdas Pophale) SiO2 
 PCOD8076189
Probable space group: P 21/M
;
_chemical_formula_sum "Si O2"
_cell_formula_units_Z 28
_cell_length_a 14.379135
_cell_length_b 17.834639
_cell_length_c 6.670245
_cell_angle_alpha 90.000000
_cell_angle_beta 57.031653
_cell_angle_gamma 90.000000
_cell_volume 1435.112634
_symmetry_space_group_name_H-M "P 21/M"
_symmetry_group_IT_number 11
_symmetry_cell_setting 'monoclinic'
loop_
_space_group_symop_operation_xyz
x,y,z
-x,1/2+y,-z
-x,-y,-z
x,1/2-y,z
loop_
_atom_site_type_symbol
_atom_site_label
_atom_site_fract_x
_atom_site_fract_y
_atom_site_fract_z
Si Si1 0.329047 0.664788 0.964092
Si Si2 0.104310 0.576803 0.296499
Si Si3 0.677541 0.664013 0.544461
Si Si4 0.930816 0.837834 0.220201
Si Si5 0.021982 0.447210 0.164329
Si Si6 0.507479 0.912380 0.481396
Si Si7 0.491003 0.332978 0.919473
O O1 0.300109 0.750000 0.933514
O O2 0.403308 0.627565 0.706130
O O3 0.218225 0.618224 0.124429
O O4 0.394932 0.664226 0.093304
O O5 0.111753 0.492110 0.195893
O O6 0.007068 0.621770 0.295326
O O7 0.080597 0.570960 0.563992
O O8 0.658482 0.750000 0.503177
O O9 0.805259 0.645860 0.433432
O O10 0.625705 0.613742 0.429578
O O11 0.613866 0.645419 0.822770
O O12 0.959381 0.750000 0.182295
O O13 0.941717 0.868569 0.978093
O O14 0.000000 0.500000 0.000000
O O15 0.502396 0.895112 0.254891
O O16 0.500000 0.000000 0.500000
O O17 0.474834 0.250000 0.845985
#
# Coordination Sequence:
#
# PCOD8076189 Si02
#       7
#     4   4   4   4   4   4   4
#     4  10  22  39  61  89 120 155 202 252 294 356
#     4  10  21  40  61  87 123 162 199 246 306 362
#     4   9  20  38  58  84 118 154 198 246 290 350
#     4  10  21  37  61  91 121 157 203 247 293 358
#     4   9  21  40  57  85 120 162 199 245 299 354
#     4  11  23  38  58  90 118 156 200 246 301 358
#     4   9  19  39  61  82 114 155 193 240 299 349
#
# _framework density 19.510663000000001
#
# number of rings (size 3 to 8) (size 9 to 14) (size 15 to 20)
#    0.000    2.286    0.000    2.571    2.000    6.857 
#   10.286    4.286    0.000    0.000    0.000    0.000 
#    0.000    0.000    0.000    0.000    0.000    0.000 
#
# Total GULP energy -347066.921567 kJ/mol
# GULP energy per Si atom -12395.247199 kJ/mol
# Density = 1.946626 g / cm^3
# Si number density = 19.510663 Si / 1000 Ang^3
#
#
#
# Elastic Constant Matrix: (Units=GPa)
#
#
# Indices 1 2 3 4 5 6 
#
# 1 74.0313 19.0803 45.2258 0.0000 -7.8478 0.0000
# 2 19.0803 72.9459 29.7220 0.0000 12.1898 0.0000
# 3 45.2258 29.7220 91.8816 0.0000 11.9546 0.0000
# 4 0.0000 0.0000 0.0000 38.0662 0.0000 0.0254
# 5 -7.8478 12.1898 11.9546 0.0000 27.2542 0.0000
# 6 0.0000 0.0000 0.0000 0.0254 0.0000 29.4248
#
#
#
# Elastic Compliance Matrix: (Units=1/GPa)
#
#
# Indices 1 2 3 4 5 6 
#
# 1 0.023187 -0.003403 -0.012068 0.000000 0.013492 0.000000
# 2 -0.003403 0.016991 -0.002869 0.000000 -0.007321 0.000000
# 3 -0.012068 -0.002869 0.019129 0.000000 -0.010582 0.000000
# 4 0.000000 0.000000 0.000000 0.026270 0.000000 -0.000023
# 5 0.013492 -0.007321 -0.010582 0.000000 0.048493 0.000000
# 6 0.000000 0.000000 0.000000 -0.000023 0.000000 0.033985
#
#
# Mechanical properties :
#
#
# Convention : Reuss Voigt Hill
#
# Bulk Modulus (GPa) = 44.19318 47.43498 45.81408
# Shear Modulus (GPa) = 23.55414 28.60440 26.07927
#
# Velocity S-wave (km/s) = 3.47831 3.83311 3.66001
# Velocity P-wave (km/s) = 6.23149 6.62989 6.43378
#
# Compressibility (1/GPa) = 0.02262793
#
# Stress axis : x y z
#
# Youngs Moduli (GPa) = 43.12686 58.85422 52.27772
#
# Poissons Ratio (x) = 0.20025 0.63089
# Poissons Ratio (y) = 0.14674 0.14999
# Poissons Ratio (z) = 0.52046 0.16885
#
# Static dielectric constant tensor:
#      x y z
#    x 2.665470 0.000000 -0.010570 
#    y 0.000000 3.811380 0.000000 
#    z -0.010570 0.000000 3.704550 
# 
# 
# High freq. dielectric constant tensor:
#      x y z
#    x 1.747650 0.000000 0.001680 
#    y 0.000000 1.771730 0.000000 
#    z 0.001680 0.000000 1.766300 
# 
# From -- ./inp_files/6777.got.cif
#   From: 2010.06.25/outbox.cif.g09.slc.cpg/sg11_4_cif.got.tgz:6777.got - 2010.06.27 23:14:04.
