data_PCOD8076205
_publ_section_title
;
Structure prediction by ZEFSAII (Michael W. Deem and Ramdas Pophale) SiO2 
 PCOD8076205
Probable space group: P 21/M
;
_chemical_formula_sum "Si O2"
_cell_formula_units_Z 28
_cell_length_a 9.505189
_cell_length_b 13.915491
_cell_length_c 11.854152
_cell_angle_alpha 90.000000
_cell_angle_beta 60.205035
_cell_angle_gamma 90.000000
_cell_volume 1360.673712
_symmetry_space_group_name_H-M "P 21/M"
_symmetry_group_IT_number 11
_symmetry_cell_setting 'monoclinic'
loop_
_space_group_symop_operation_xyz
x,y,z
-x,1/2+y,-z
-x,-y,-z
x,1/2-y,z
loop_
_atom_site_type_symbol
_atom_site_label
_atom_site_fract_x
_atom_site_fract_y
_atom_site_fract_z
Si Si1 0.110928 0.138277 0.793723
Si Si2 0.225935 0.639806 0.191630
Si Si3 0.245658 0.041466 0.320704
Si Si4 0.313585 0.012961 0.546791
Si Si5 0.145540 0.137400 0.029272
Si Si6 0.555811 0.638722 0.943172
Si Si7 0.952120 0.135956 0.320528
O O1 0.157285 0.250000 0.777082
O O2 0.242011 0.087756 0.663612
O O3 0.931310 0.121129 0.820124
O O4 0.118697 0.092423 0.916340
O O5 0.240444 0.750000 0.227881
O O6 0.220018 0.571746 0.303481
O O7 0.375126 0.610900 0.051498
O O8 0.291671 0.056757 0.431496
O O9 0.395419 0.080269 0.187247
O O10 0.080296 0.099847 0.363064
O O11 0.500000 0.000000 0.500000
O O12 0.222976 0.910520 0.589959
O O13 0.118088 0.250000 0.031078
O O14 0.325839 0.112397 0.000198
O O15 0.016026 0.099048 0.172853
O O16 0.572237 0.750000 0.905028
O O17 0.936170 0.250000 0.335207
#
# Coordination Sequence:
#
# PCOD8076205 Si02
#       7
#     4   4   4   4   4   4   4
#     4  10  22  41  62  89 124 160 201 255 313 371
#     4  10  21  37  62  94 123 156 202 257 315 366
#     4  11  22  42  62  90 127 164 212 252 301 376
#     4  12  28  43  58  92 129 167 214 253 310 377
#     4   8  17  36  63  91 120 154 200 251 308 366
#     4   9  19  37  64  96 122 156 203 255 312 367
#     4  10  22  44  69  91 120 166 213 259 311 368
#
# _framework density 20.578040999999999
#
# number of rings (size 3 to 8) (size 9 to 14) (size 15 to 20)
#    0.000    2.000    1.429    2.143    2.000    4.000 
#    0.000    1.429    0.000    0.000    0.000    0.000 
#    0.000    0.000    0.000    0.000    0.000    0.000 
#
# Total GULP energy -347258.657940 kJ/mol
# GULP energy per Si atom -12402.094926 kJ/mol
# Density = 2.053120 g / cm^3
# Si number density = 20.578041 Si / 1000 Ang^3
#
#
#
# Elastic Constant Matrix: (Units=GPa)
#
#
# Indices 1 2 3 4 5 6 
#
# 1 133.1955 36.5719 84.9001 0.0000 -7.5581 0.0000
# 2 36.5719 77.0455 36.5060 0.0000 -3.1552 0.0000
# 3 84.9001 36.5060 106.9175 0.0000 11.4859 0.0000
# 4 0.0000 0.0000 0.0000 34.6972 0.0000 -4.5443
# 5 -7.5581 -3.1552 11.4859 0.0000 49.8677 0.0000
# 6 0.0000 0.0000 0.0000 -4.5443 0.0000 23.6141
#
#
#
# Elastic Compliance Matrix: (Units=1/GPa)
#
#
# Indices 1 2 3 4 5 6 
#
# 1 0.016767 -0.001360 -0.013446 0.000000 0.005552 0.000000
# 2 -0.001360 0.015846 -0.004528 0.000000 0.001839 0.000000
# 3 -0.013446 -0.004528 0.022380 0.000000 -0.007479 0.000000
# 4 0.000000 0.000000 0.000000 0.029566 0.000000 0.005690
# 5 0.005552 0.001839 -0.007479 0.000000 0.022734 0.000000
# 6 0.000000 0.000000 0.000000 0.005690 0.000000 0.043443
#
#
# Mechanical properties :
#
#
# Convention : Reuss Voigt Hill
#
# Bulk Modulus (GPa) = 61.26018 70.34606 65.80312
# Shear Modulus (GPa) = 25.66148 32.24784 28.95466
#
# Velocity S-wave (km/s) = 3.53517 3.96296 3.75516
# Velocity P-wave (km/s) = 6.81891 7.42962 7.13080
#
# Compressibility (1/GPa) = 0.01632382
#
# Stress axis : x y z
#
# Youngs Moduli (GPa) = 59.64046 63.10831 44.68346
#
# Poissons Ratio (x) = 0.08586 0.60082
# Poissons Ratio (y) = 0.08114 0.20231
# Poissons Ratio (z) = 0.80194 0.28573
#
# Static dielectric constant tensor:
#      x y z
#    x 3.703140 0.000000 0.013620 
#    y 0.000000 3.815620 0.000000 
#    z 0.013620 0.000000 3.848540 
# 
# 
# High freq. dielectric constant tensor:
#      x y z
#    x 1.797210 0.000000 -0.004140 
#    y 0.000000 1.812500 0.000000 
#    z -0.004140 0.000000 1.806450 
# 
# From -- ./inp_files/17950.got.cif
#   From: 2010.06.25/outbox.cif.g09.slc.cpg/sg11_9_cif.got.tgz:17950.got - 2010.06.27 23:14:04.
