data_PCOD8076688
_publ_section_title
;
Structure prediction by ZEFSAII (Michael W. Deem and Ramdas Pophale) SiO2 
 PCOD8076688
Probable space group: P 21/M
;
_chemical_formula_sum "Si O2"
_cell_formula_units_Z 20
_cell_length_a 14.659104
_cell_length_b 10.803906
_cell_length_c 12.187696
_cell_angle_alpha 90.000000
_cell_angle_beta 150.163371
_cell_angle_gamma 90.000000
_cell_volume 960.346379
_symmetry_space_group_name_H-M "P 21/M"
_symmetry_group_IT_number 11
_symmetry_cell_setting 'monoclinic'
loop_
_space_group_symop_operation_xyz
x,y,z
-x,1/2+y,-z
-x,-y,-z
x,1/2-y,z
loop_
_atom_site_type_symbol
_atom_site_label
_atom_site_fract_x
_atom_site_fract_y
_atom_site_fract_z
Si Si1 0.249999 0.464897 0.999999
Si Si2 0.102650 0.390892 0.431197
Si Si3 0.629919 0.613112 0.101776
Si Si4 0.602651 0.890894 0.431196
Si Si5 0.870082 0.613113 0.898227
O O1 0.334438 0.382861 0.991002
O O2 0.093023 0.545741 0.780207
O O3 0.406980 0.545735 0.219800
O O4 0.165557 0.382860 0.008992
O O5 0.069953 0.250000 0.362468
O O6 0.179112 0.404472 0.634334
O O7 0.250002 0.450393 0.500005
O O8 0.546541 0.750000 0.045340
O O9 0.500000 0.500000 0.000000
O O10 0.569940 0.750000 0.362459
O O11 0.679116 0.904475 0.634337
O O12 0.953461 0.750000 0.954662
O O13 0.000000 0.500000 0.000000
#
# Coordination Sequence:
#
# PCOD8076688 Si02
#       5
#     4   4   4   4   4
#     4  12  22  40  68  94 125 168 211 266 323 362
#     4  10  21  39  64  95 129 167 213 258 312 386
#     4  11  24  43  65  95 132 167 212 263 315 379
#     4  10  21  39  64  95 129 167 213 258 312 386
#     4  11  24  43  65  95 132 167 212 263 315 379
#
# _framework density 20.82582
#
# number of rings (size 3 to 8) (size 9 to 14) (size 15 to 20)
#    0.000    1.200    4.000    2.400    0.000    1.600 
#    0.000    6.000    0.000    0.000    0.000    0.000 
#    0.000    0.000    0.000    0.000    0.000    0.000 
#
# Total GULP energy -247918.096003 kJ/mol
# GULP energy per Si atom -12395.904800 kJ/mol
# Density = 2.077842 g / cm^3
# Si number density = 20.825820 Si / 1000 Ang^3
#
#
#
# Elastic Constant Matrix: (Units=GPa)
#
#
# Indices 1 2 3 4 5 6 
#
# 1 103.7047 37.1767 25.6619 0.0000 -21.1997 0.0000
# 2 37.1767 137.5303 66.5553 0.0000 8.6796 0.0000
# 3 25.6619 66.5553 119.0525 0.0000 -4.2806 0.0000
# 4 0.0000 0.0000 0.0000 29.8593 0.0000 -0.4457
# 5 -21.1997 8.6796 -4.2806 0.0000 41.5208 0.0000
# 6 0.0000 0.0000 0.0000 -0.4457 0.0000 19.3668
#
#
#
# Elastic Compliance Matrix: (Units=1/GPa)
#
#
# Indices 1 2 3 4 5 6 
#
# 1 0.012495 -0.003627 -0.000411 0.000000 0.007095 0.000000
# 2 -0.003627 0.011324 -0.005722 0.000000 -0.004809 0.000000
# 3 -0.000411 -0.005722 0.011766 0.000000 0.002199 0.000000
# 4 0.000000 0.000000 0.000000 0.033502 0.000000 0.000771
# 5 0.007095 -0.004809 0.002199 0.000000 0.028939 0.000000
# 6 0.000000 0.000000 0.000000 0.000771 0.000000 0.051653
#
#
# Mechanical properties :
#
#
# Convention : Reuss Voigt Hill
#
# Bulk Modulus (GPa) = 62.24077 68.78616 65.51347
# Shear Modulus (GPa) = 28.64477 33.54229 31.09353
#
# Velocity S-wave (km/s) = 3.71272 4.01760 3.86816
# Velocity P-wave (km/s) = 6.95200 7.39070 7.17470
#
# Compressibility (1/GPa) = 0.01606664
#
# Stress axis : x y z
#
# Youngs Moduli (GPa) = 80.03212 88.30930 84.99124
#
# Poissons Ratio (x) = 0.32026 0.03491
# Poissons Ratio (y) = 0.29025 0.48629
# Poissons Ratio (z) = 0.03287 0.50528
#
# Static dielectric constant tensor:
#      x y z
#    x 3.887870 0.000000 -0.253140 
#    y 0.000000 3.682850 0.000000 
#    z -0.253140 0.000000 3.810410 
# 
# 
# High freq. dielectric constant tensor:
#      x y z
#    x 1.812250 0.000000 -0.022090 
#    y 0.000000 1.807660 0.000000 
#    z -0.022090 0.000000 1.822390 
# 
# From -- ./inp_files/39251.got.cif
#   From: 2010.06.25/outbox.cif.g09.slc.cpg/sg11_20_cif.got.tgz:39251.got - 2010.06.27 23:14:04.
