data_PCOD8076152
_publ_section_title
;
Structure prediction by ZEFSAII (Michael W. Deem and Ramdas Pophale) SiO2 
 PCOD8076152
Probable space group: P 21/M
;
_chemical_formula_sum "Si O2"
_cell_formula_units_Z 20
_cell_length_a 21.202896
_cell_length_b 8.911278
_cell_length_c 14.974559
_cell_angle_alpha 90.000000
_cell_angle_beta 20.221502
_cell_angle_gamma 90.000000
_cell_volume 977.971608
_symmetry_space_group_name_H-M "P 21/M"
_symmetry_group_IT_number 11
_symmetry_cell_setting 'monoclinic'
loop_
_space_group_symop_operation_xyz
x,y,z
-x,1/2+y,-z
-x,-y,-z
x,1/2-y,z
loop_
_atom_site_type_symbol
_atom_site_label
_atom_site_fract_x
_atom_site_fract_y
_atom_site_fract_z
Si Si1 0.377520 0.423916 0.088478
Si Si2 0.713704 0.075070 0.369707
Si Si3 0.998467 0.922439 0.321486
Si Si4 0.014940 0.424346 0.114969
Si Si5 0.382670 0.926386 0.893759
O O1 0.429155 0.250000 0.015224
O O2 0.165243 0.449632 0.392082
O O3 0.500000 0.500000 0.000000
O O4 0.424905 0.496507 0.931318
O O5 0.672611 0.250000 0.413686
O O6 0.840425 0.038812 0.286167
O O7 0.524407 0.987400 0.632328
O O8 0.810193 0.016844 0.151602
O O9 0.006623 0.750000 0.278789
O O10 0.965678 0.026714 0.279922
O O11 0.181791 0.971081 0.128098
O O12 0.064569 0.250000 0.045838
O O13 0.406506 0.750000 0.873713
#
# Coordination Sequence:
#
# PCOD8076152 Si02
#       5
#     4   4   4   4   4
#     4  11  23  40  62  87 115 150 192 236 284 338
#     4  10  21  38  60  86 116 151 192 237 285 338
#     4  10  23  40  58  83 117 154 190 233 285 341
#     4  10  21  37  60  87 114 149 193 238 284 337
#     4  11  23  39  59  85 117 152 191 235 285 339
#
# _framework density 20.450492000000001
#
# number of rings (size 3 to 8) (size 9 to 14) (size 15 to 20)
#    0.000    1.600    0.000    4.200    0.000    9.600 
#    0.000    0.000    0.000    0.000    0.000    0.000 
#    0.000    0.000    0.000    0.000    0.000    0.000 
#
# Total GULP energy -248163.704412 kJ/mol
# GULP energy per Si atom -12408.185221 kJ/mol
# Density = 2.040395 g / cm^3
# Si number density = 20.450492 Si / 1000 Ang^3
#
#
#
# Elastic Constant Matrix: (Units=GPa)
#
#
# Indices 1 2 3 4 5 6 
#
# 1 34.1917 15.2825 -8.5088 0.0000 2.2642 0.0000
# 2 15.2825 89.1667 31.2386 0.0000 -4.6554 0.0000
# 3 -8.5088 31.2386 94.6967 0.0000 -6.9494 0.0000
# 4 0.0000 0.0000 0.0000 38.6538 0.0000 6.3570
# 5 2.2642 -4.6554 -6.9494 0.0000 31.7499 0.0000
# 6 0.0000 0.0000 0.0000 6.3570 0.0000 36.2005
#
#
#
# Elastic Compliance Matrix: (Units=1/GPa)
#
#
# Indices 1 2 3 4 5 6 
#
# 1 0.034335 -0.007948 0.005531 0.000000 -0.002403 0.000000
# 2 -0.007948 0.014549 -0.005402 0.000000 0.001518 0.000000
# 3 0.005531 -0.005402 0.012960 0.000000 0.001650 0.000000
# 4 0.000000 0.000000 0.000000 0.026640 0.000000 -0.004678
# 5 -0.002403 0.001518 0.001650 0.000000 0.032251 0.000000
# 6 0.000000 0.000000 0.000000 -0.004678 0.000000 0.028445
#
#
# Mechanical properties :
#
#
# Convention : Reuss Voigt Hill
#
# Bulk Modulus (GPa) = 21.64270 32.67553 27.15912
# Shear Modulus (GPa) = 27.74370 33.32369 30.53369
#
# Velocity S-wave (km/s) = 3.68724 4.04106 3.86820
# Velocity P-wave (km/s) = 5.36037 6.14704 5.76714
#
# Compressibility (1/GPa) = 0.04620495
#
# Stress axis : x y z
#
# Youngs Moduli (GPa) = 29.12504 68.73334 77.15965
#
# Poissons Ratio (x) = 0.54628 -0.42673
# Poissons Ratio (y) = 0.23148 0.41683
# Poissons Ratio (z) = -0.16108 0.37131
#
# Static dielectric constant tensor:
#      x y z
#    x 3.539580 0.000000 -0.009460 
#    y 0.000000 3.762250 0.000000 
#    z -0.009460 0.000000 3.865300 
# 
# 
# High freq. dielectric constant tensor:
#      x y z
#    x 1.793890 0.000000 0.003620 
#    y 0.000000 1.809250 0.000000 
#    z 0.003620 0.000000 1.814280 
# 
# From -- ./inp_files/15882.got.cif
#   From: 2010.06.25/outbox.cif.g09.slc.cpg/sg11_8_cif.got.tgz:15882.got - 2010.06.27 23:14:04.
