data_PCOD8076530
_publ_section_title
;
Structure prediction by ZEFSAII (Michael W. Deem and Ramdas Pophale) SiO2 
 PCOD8076530
Probable space group: P 21/M
;
_chemical_formula_sum "Si O2"
_cell_formula_units_Z 32
_cell_length_a 18.610682
_cell_length_b 9.091000
_cell_length_c 25.312585
_cell_angle_alpha 90.000000
_cell_angle_beta 157.453040
_cell_angle_gamma 90.000000
_cell_volume 1642.133465
_symmetry_space_group_name_H-M "P 21/M"
_symmetry_group_IT_number 11
_symmetry_cell_setting 'monoclinic'
loop_
_space_group_symop_operation_xyz
x,y,z
-x,1/2+y,-z
-x,-y,-z
x,1/2-y,z
loop_
_atom_site_type_symbol
_atom_site_label
_atom_site_fract_x
_atom_site_fract_y
_atom_site_fract_z
Si Si1 0.601998 0.088742 0.612897
Si Si2 0.023713 0.086369 0.864390
Si Si3 0.877581 0.918727 0.576533
Si Si4 0.489685 0.583106 0.637825
Si Si5 0.864669 0.582225 0.948750
Si Si6 0.167144 0.921836 0.864370
Si Si7 0.527448 0.425605 0.075648
Si Si8 0.921713 0.078951 0.394541
O O1 0.511311 0.250000 0.557110
O O2 0.811928 0.100678 0.737375
O O3 0.500000 0.000000 0.500000
O O4 0.581069 0.007371 0.653336
O O5 0.099663 0.250000 0.900556
O O6 0.042371 0.973210 0.828970
O O7 0.125889 0.019125 0.985332
O O8 0.816522 0.750000 0.542589
O O9 0.055036 0.953758 0.734295
O O10 0.932664 0.952197 0.553726
O O11 0.705871 0.021312 0.474816
O O12 0.454691 0.750000 0.595519
O O13 0.644369 0.572257 0.788138
O O14 0.936683 0.750000 0.997078
O O15 0.000000 0.500000 0.000000
O O16 0.215956 0.750000 0.902577
O O17 0.355838 0.018102 0.994718
O O18 0.525820 0.250000 0.066856
O O19 0.717148 0.475419 0.235119
O O20 0.500000 0.500000 0.000000
O O21 0.909703 0.250000 0.400175
O O22 0.000000 0.000000 0.500000
#
# Coordination Sequence:
#
# PCOD8076530 Si02
#       8
#     4   4   4   4   4   4   4   4
#     4  11  22  37  58  83 116 156 198 246 302 360
#     4  10  22  39  58  85 119 156 199 251 308 361
#     4  10  22  42  62  86 126 165 205 257 312 368
#     4  11  23  37  59  89 118 156 206 251 305 370
#     4  10  21  39  60  82 115 156 203 253 302 364
#     4  11  23  40  63  93 125 161 209 260 312 368
#     4  11  22  41  68  96 129 168 212 261 316 377
#     4  10  23  43  66  96 132 169 210 261 315 377
#
# _framework density 19.486844000000001
#
# number of rings (size 3 to 8) (size 9 to 14) (size 15 to 20)
#    0.000    1.500    2.500    2.250    0.000    7.500 
#    0.000    3.750    0.000    0.000    0.000    0.000 
#    0.000    0.000    0.000    0.000    0.000    0.000 
#
# Total GULP energy -396752.947139 kJ/mol
# GULP energy per Si atom -12398.529598 kJ/mol
# Density = 1.944249 g / cm^3
# Si number density = 19.486844 Si / 1000 Ang^3
#
#
#
# Elastic Constant Matrix: (Units=GPa)
#
#
# Indices 1 2 3 4 5 6 
#
# 1 99.1736 45.7661 36.3370 0.0000 -13.6407 0.0000
# 2 45.7661 102.0225 50.0803 0.0000 -3.8241 0.0000
# 3 36.3370 50.0803 104.7377 0.0000 -9.6249 0.0000
# 4 0.0000 0.0000 0.0000 31.5246 0.0000 1.2929
# 5 -13.6407 -3.8241 -9.6249 0.0000 41.4466 0.0000
# 6 0.0000 0.0000 0.0000 1.2929 0.0000 37.1747
#
#
#
# Elastic Compliance Matrix: (Units=1/GPa)
#
#
# Indices 1 2 3 4 5 6 
#
# 1 0.013609 -0.004984 -0.002012 0.000000 0.003552 0.000000
# 2 -0.004984 0.014636 -0.005411 0.000000 -0.001547 0.000000
# 3 -0.002012 -0.005411 0.013004 0.000000 0.001858 0.000000
# 4 0.000000 0.000000 0.000000 0.031767 0.000000 -0.001105
# 5 0.003552 -0.001547 0.001858 0.000000 0.025585 0.000000
# 6 0.000000 0.000000 0.000000 -0.001105 0.000000 0.026938
#
#
# Mechanical properties :
#
#
# Convention : Reuss Voigt Hill
#
# Bulk Modulus (GPa) = 60.84789 63.36673 62.10731
# Shear Modulus (GPa) = 32.08602 33.61254 32.84928
#
# Velocity S-wave (km/s) = 4.06217 4.15768 4.11020
# Velocity P-wave (km/s) = 7.30031 7.45900 7.38008
#
# Compressibility (1/GPa) = 0.01643442
#
# Stress axis : x y z
#
# Youngs Moduli (GPa) = 73.48037 68.32577 76.90117
#
# Poissons Ratio (x) = 0.34055 0.15471
# Poissons Ratio (y) = 0.36624 0.41611
# Poissons Ratio (z) = 0.14783 0.36971
#
# Static dielectric constant tensor:
#      x y z
#    x 3.541450 0.000000 -0.060420 
#    y 0.000000 3.755850 0.000000 
#    z -0.060420 0.000000 3.694420 
# 
# 
# High freq. dielectric constant tensor:
#      x y z
#    x 1.762730 0.000000 -0.002780 
#    y 0.000000 1.763020 0.000000 
#    z -0.002780 0.000000 1.768570 
# 
# From -- ./inp_files/72171.got.cif
#   From: 2010.06.25/outbox.cif.g09.slc.cpg/sg11_37_cif.got.tgz:72171.got - 2010.06.27 23:14:04.
