data_PCOD8076156
_publ_section_title
;
Structure prediction by ZEFSAII (Michael W. Deem and Ramdas Pophale) SiO2 
 PCOD8076156
Probable space group: P 21/M
;
_chemical_formula_sum "Si O2"
_cell_formula_units_Z 20
_cell_length_a 5.232305
_cell_length_b 8.706524
_cell_length_c 18.252179
_cell_angle_alpha 90.000000
_cell_angle_beta 101.126381
_cell_angle_gamma 90.000000
_cell_volume 815.852870
_symmetry_space_group_name_H-M "P 21/M"
_symmetry_group_IT_number 11
_symmetry_cell_setting 'monoclinic'
loop_
_space_group_symop_operation_xyz
x,y,z
-x,1/2+y,-z
-x,-y,-z
x,1/2-y,z
loop_
_atom_site_type_symbol
_atom_site_label
_atom_site_fract_x
_atom_site_fract_y
_atom_site_fract_z
Si Si1 0.776019 0.066645 0.538874
Si Si2 0.534635 0.568148 0.222384
Si Si3 0.186527 0.414029 0.103474
Si Si4 0.915532 0.566707 0.702428
Si Si5 0.728959 0.912893 0.050946
O O1 0.772604 0.250000 0.532924
O O2 0.500000 0.000000 0.500000
O O3 0.827090 0.014950 0.623800
O O4 0.000000 0.000000 0.500000
O O5 0.548138 0.750000 0.236228
O O6 0.455352 0.519023 0.133168
O O7 0.281318 0.492389 0.246434
O O8 0.791780 0.487350 0.264936
O O9 0.219125 0.250000 0.147358
O O10 0.925399 0.500717 0.118592
O O11 0.115294 0.376341 0.015979
O O12 0.908122 0.750000 0.692952
O O13 0.654920 0.750000 0.084886
O O14 0.500000 0.000000 0.000000
#
# Coordination Sequence:
#
# PCOD8076156 Si02
#       5
#     4   4   4   4   4
#     4  12  25  45  72 105 141 181 227 276 332 394
#     4  12  26  45  69  99 136 180 227 279 338 404
#     4  10  22  40  60  87 121 165 215 269 332 397
#     4  12  26  47  71 101 139 181 226 277 335 399
#     4  10  21  37  60  87 120 159 211 270 330 394
#
# _framework density 24.514222
#
# number of rings (size 3 to 8) (size 9 to 14) (size 15 to 20)
#    0.000    0.800    0.000    7.800    2.800    2.400 
#    0.000    0.000    0.000    0.000    0.000    0.000 
#    0.000    0.000    0.000    0.000    0.000    0.000 
#
# Total GULP energy -247784.525960 kJ/mol
# GULP energy per Si atom -12389.226298 kJ/mol
# Density = 2.445843 g / cm^3
# Si number density = 24.514222 Si / 1000 Ang^3
#
#
#
# Elastic Constant Matrix: (Units=GPa)
#
#
# Indices 1 2 3 4 5 6 
#
# 1 146.3845 64.0713 37.9390 0.0000 45.1631 0.0000
# 2 64.0713 243.2771 35.7509 0.0000 25.1034 0.0000
# 3 37.9390 35.7509 96.4095 0.0000 30.8162 0.0000
# 4 0.0000 0.0000 0.0000 37.9544 0.0000 10.8754
# 5 45.1631 25.1034 30.8162 0.0000 47.0065 0.0000
# 6 0.0000 0.0000 0.0000 10.8754 0.0000 47.1197
#
#
#
# Elastic Compliance Matrix: (Units=1/GPa)
#
#
# Indices 1 2 3 4 5 6 
#
# 1 0.010448 -0.001757 -0.000697 0.000000 -0.008642 0.000000
# 2 -0.001757 0.004740 -0.001008 0.000000 -0.000182 0.000000
# 3 -0.000697 -0.001008 0.013454 0.000000 -0.007612 0.000000
# 4 0.000000 0.000000 0.000000 0.028213 0.000000 -0.006512
# 5 -0.008642 -0.000182 -0.007612 0.000000 0.034664 0.000000
# 6 0.000000 0.000000 0.000000 -0.006512 0.000000 0.022725
#
#
# Mechanical properties :
#
#
# Convention : Reuss Voigt Hill
#
# Bulk Modulus (GPa) = 46.04857 84.62150 65.33503
# Shear Modulus (GPa) = 38.93835 49.63680 44.28758
#
# Velocity S-wave (km/s) = 3.98980 4.50468 4.25503
# Velocity P-wave (km/s) = 6.32849 7.85178 7.13093
#
# Compressibility (1/GPa) = 0.02171620
#
# Stress axis : x y z
#
# Youngs Moduli (GPa) = 95.71655 210.95727 74.32991
#
# Poissons Ratio (x) = 0.37071 0.05183
# Poissons Ratio (y) = 0.16820 0.07493
# Poissons Ratio (z) = 0.06674 0.21265
#
# Static dielectric constant tensor:
#      x y z
#    x 3.006520 0.000000 2.622960 
#    y 0.000000 4.908910 0.000000 
#    z 2.622960 0.000000 -0.180690 
# 
# 
# High freq. dielectric constant tensor:
#      x y z
#    x 2.001470 0.000000 -0.000120 
#    y 0.000000 2.005490 0.000000 
#    z -0.000120 0.000000 1.989520 
# 
# From -- ./inp_files/8509.got.cif
#   From: 2010.06.25/outbox.cif.g09.slc.cpg/sg11_5_cif.got.tgz:8509.got - 2010.06.27 23:14:04.
