data_PCOD8076912
_publ_section_title
;
Structure prediction by ZEFSAII (Michael W. Deem and Ramdas Pophale) SiO2 
 PCOD8076912
Probable space group: P 21/M
;
_chemical_formula_sum "Si O2"
_cell_formula_units_Z 28
_cell_length_a 8.912648
_cell_length_b 25.045158
_cell_length_c 8.385281
_cell_angle_alpha 90.000000
_cell_angle_beta 42.999870
_cell_angle_gamma 90.000000
_cell_volume 1276.528234
_symmetry_space_group_name_H-M "P 21/M"
_symmetry_group_IT_number 11
_symmetry_cell_setting 'monoclinic'
loop_
_space_group_symop_operation_xyz
x,y,z
-x,1/2+y,-z
-x,-y,-z
x,1/2-y,z
loop_
_atom_site_type_symbol
_atom_site_label
_atom_site_fract_x
_atom_site_fract_y
_atom_site_fract_z
Si Si1 0.967426 0.372059 0.756242
Si Si2 0.195914 0.960563 0.881421
Si Si3 0.624840 0.811989 0.440432
Si Si4 0.433054 0.463685 0.906488
Si Si5 0.691690 0.113361 0.498166
Si Si6 0.141969 0.380319 0.282702
Si Si7 0.531854 0.188935 0.081323
O O1 0.132403 0.337758 0.739384
O O2 0.094276 0.394471 0.503759
O O3 0.875009 0.421780 0.922342
O O4 0.767312 0.335102 0.852168
O O5 0.281495 0.927798 0.666164
O O6 0.395101 0.997579 0.786277
O O7 0.000000 0.000000 0.000000
O O8 0.648890 0.750000 0.375268
O O9 0.484470 0.841455 0.412407
O O10 0.502345 0.819094 0.703701
O O11 0.614046 0.419876 0.714288
O O12 0.500000 0.500000 0.000000
O O13 0.211623 0.433360 0.133508
O O14 0.923179 0.141504 0.363472
O O15 0.337845 0.337189 0.127091
O O16 0.532043 0.250000 0.031006
#
# Coordination Sequence:
#
# PCOD8076912 Si02
#       7
#     4   4   4   4   4   4   4
#     4  11  23  44  69  97 134 176 226 278 328 413
#     4  12  24  42  67  98 135 181 224 279 341 394
#     4  10  23  42  71 101 132 173 221 281 345 397
#     4  12  27  43  66  96 136 186 226 271 338 402
#     4  12  25  44  67 101 143 172 228 282 337 409
#     4  11  25  43  64  97 136 174 225 272 330 411
#     4  10  21  43  70  97 129 175 226 280 340 404
#
# _framework density 21.934494000000001
#
# number of rings (size 3 to 8) (size 9 to 14) (size 15 to 20)
#    0.000    0.857    2.857    4.286    4.000    2.286 
#    0.000    2.143    0.000    0.000    0.000    0.000 
#    0.000    0.000    0.000    0.000    0.000    0.000 
#
# Total GULP energy -347275.228338 kJ/mol
# GULP energy per Si atom -12402.686726 kJ/mol
# Density = 2.188457 g / cm^3
# Si number density = 21.934494 Si / 1000 Ang^3
#
#
#
# Elastic Constant Matrix: (Units=GPa)
#
#
# Indices 1 2 3 4 5 6 
#
# 1 140.2788 53.6028 24.9555 0.0000 -31.0615 0.0000
# 2 53.6028 118.6433 32.9790 0.0000 -10.4321 0.0000
# 3 24.9555 32.9790 77.6441 0.0000 -10.0469 0.0000
# 4 0.0000 0.0000 0.0000 28.1266 0.0000 -1.6098
# 5 -31.0615 -10.4321 -10.0469 0.0000 43.9307 0.0000
# 6 0.0000 0.0000 0.0000 -1.6098 0.0000 38.5658
#
#
#
# Elastic Compliance Matrix: (Units=1/GPa)
#
#
# Indices 1 2 3 4 5 6 
#
# 1 0.010056 -0.003778 -0.000848 0.000000 0.006019 0.000000
# 2 -0.003778 0.011059 -0.003595 0.000000 -0.000868 0.000000
# 3 -0.000848 -0.003595 0.014933 0.000000 0.001961 0.000000
# 4 0.000000 0.000000 0.000000 0.035639 0.000000 0.001488
# 5 0.006019 -0.000868 0.001961 0.000000 0.027261 0.000000
# 6 0.000000 0.000000 0.000000 0.001488 0.000000 0.025992
#
#
# Mechanical properties :
#
#
# Convention : Reuss Voigt Hill
#
# Bulk Modulus (GPa) = 51.00994 62.18233 56.59613
# Shear Modulus (GPa) = 33.80261 37.12654 35.46458
#
# Velocity S-wave (km/s) = 3.92991 4.11860 4.02536
# Velocity P-wave (km/s) = 6.62558 7.14337 6.88934
#
# Compressibility (1/GPa) = 0.01960402
#
# Stress axis : x y z
#
# Youngs Moduli (GPa) = 99.44220 90.42701 66.96680
#
# Poissons Ratio (x) = 0.34165 0.05682
# Poissons Ratio (y) = 0.37572 0.24075
# Poissons Ratio (z) = 0.08438 0.32509
#
# Static dielectric constant tensor:
#      x y z
#    x 4.030350 0.000000 -0.122950 
#    y 0.000000 3.867070 0.000000 
#    z -0.122950 0.000000 4.003170 
# 
# 
# High freq. dielectric constant tensor:
#      x y z
#    x 1.872110 0.000000 -0.004890 
#    y 0.000000 1.861780 0.000000 
#    z -0.004890 0.000000 1.867560 
# 
# From -- ./inp_files/15252.got.cif
#   From: 2010.06.25/outbox.cif.g09.slc.cpg/sg11_8_cif.got.tgz:15252.got - 2010.06.27 23:14:04.
