data_PCOD8076763
_publ_section_title
;
Structure prediction by ZEFSAII (Michael W. Deem and Ramdas Pophale) SiO2 
 PCOD8076763
Probable space group: P 21/M
;
_chemical_formula_sum "Si O2"
_cell_formula_units_Z 28
_cell_length_a 13.634653
_cell_length_b 8.712320
_cell_length_c 12.272943
_cell_angle_alpha 90.000000
_cell_angle_beta 61.699381
_cell_angle_gamma 90.000000
_cell_volume 1283.637184
_symmetry_space_group_name_H-M "P 21/M"
_symmetry_group_IT_number 11
_symmetry_cell_setting 'monoclinic'
loop_
_space_group_symop_operation_xyz
x,y,z
-x,1/2+y,-z
-x,-y,-z
x,1/2-y,z
loop_
_atom_site_type_symbol
_atom_site_label
_atom_site_fract_x
_atom_site_fract_y
_atom_site_fract_z
Si Si1 0.864568 0.069356 0.317603
Si Si2 0.966532 0.418699 0.628064
Si Si3 0.489657 0.916225 0.239285
Si Si4 0.717695 0.020219 0.772577
Si Si5 0.689220 0.917271 0.563190
Si Si6 0.121435 0.432588 0.918263
Si Si7 0.304059 0.932737 0.978002
O O1 0.863780 0.250000 0.295245
O O2 0.986581 0.018637 0.295785
O O3 0.774917 0.027540 0.456846
O O4 0.834238 0.978154 0.224319
O O5 0.023257 0.250000 0.600728
O O6 0.000000 0.500000 0.500000
O O7 0.835015 0.391197 0.709354
O O8 0.541160 0.750000 0.244942
O O9 0.391652 0.881037 0.202527
O O10 0.432521 0.000199 0.374102
O O11 0.583256 0.029074 0.144882
O O12 0.697379 0.969345 0.908311
O O13 0.726032 0.892220 0.671820
O O14 0.683115 0.750000 0.510749
O O15 0.122152 0.250000 0.932876
O O16 0.199057 0.513650 0.964877
O O17 0.000000 0.500000 0.000000
O O18 0.297968 0.750000 0.004225
#
# Coordination Sequence:
#
# PCOD8076763 Si02
#       7
#     4   4   4   4   4   4   4
#     4  12  25  43  67  96 133 174 220 271 330 392
#     4  12  22  36  60  93 131 172 215 265 324 386
#     4  10  21  40  63  95 134 173 216 268 329 389
#     4  10  24  37  63  91 137 170 218 264 330 382
#     4  10  22  39  64  94 129 171 215 266 328 387
#     4  12  27  49  72  97 130 171 221 271 325 386
#     4  12  24  42  67  97 131 174 223 269 324 388
#
# _framework density 21.813016999999999
#
# number of rings (size 3 to 8) (size 9 to 14) (size 15 to 20)
#    0.857    0.000    1.429    6.857    0.000    1.714 
#    0.000    0.714    0.000    0.000    0.000    0.000 
#    0.000    0.000    0.000    0.000    0.000    0.000 
#
# Total GULP energy -346883.658033 kJ/mol
# GULP energy per Si atom -12388.702073 kJ/mol
# Density = 2.176337 g / cm^3
# Si number density = 21.813017 Si / 1000 Ang^3
#
#
#
# Elastic Constant Matrix: (Units=GPa)
#
#
# Indices 1 2 3 4 5 6 
#
# 1 76.1193 19.2286 31.5629 0.0000 -21.4669 0.0000
# 2 19.2286 117.4841 24.2372 0.0000 -6.9579 0.0000
# 3 31.5629 24.2372 75.7418 0.0000 -13.5208 0.0000
# 4 0.0000 0.0000 0.0000 24.8461 0.0000 -1.5104
# 5 -21.4669 -6.9579 -13.5208 0.0000 37.9341 0.0000
# 6 0.0000 0.0000 0.0000 -1.5104 0.0000 24.1823
#
#
#
# Elastic Compliance Matrix: (Units=1/GPa)
#
#
# Indices 1 2 3 4 5 6 
#
# 1 0.018073 -0.001313 -0.005691 0.000000 0.007958 0.000000
# 2 -0.001313 0.009225 -0.002387 0.000000 0.000098 0.000000
# 3 -0.005691 -0.002387 0.016751 0.000000 0.002312 0.000000
# 4 0.000000 0.000000 0.000000 0.040401 0.000000 0.002523
# 5 0.007958 0.000098 0.002312 0.000000 0.031707 0.000000
# 6 0.000000 0.000000 0.000000 0.002523 0.000000 0.041510
#
#
# Mechanical properties :
#
#
# Convention : Reuss Voigt Hill
#
# Bulk Modulus (GPa) = 39.57669 46.60028 43.08849
# Shear Modulus (GPa) = 27.04588 30.34694 28.69641
#
# Velocity S-wave (km/s) = 3.52504 3.73397 3.63100
# Velocity P-wave (km/s) = 5.89498 6.32455 6.11354
#
# Compressibility (1/GPa) = 0.02526740
#
# Stress axis : x y z
#
# Youngs Moduli (GPa) = 55.33163 108.40126 59.69854
#
# Poissons Ratio (x) = 0.14230 0.33972
# Poissons Ratio (y) = 0.07263 0.14253
# Poissons Ratio (z) = 0.31487 0.25880
#
# Static dielectric constant tensor:
#      x y z
#    x 3.917350 0.000000 -0.065090 
#    y 0.000000 3.772830 0.000000 
#    z -0.065090 0.000000 4.054410 
# 
# 
# High freq. dielectric constant tensor:
#      x y z
#    x 1.848670 0.000000 -0.016360 
#    y 0.000000 1.858020 0.000000 
#    z -0.016360 0.000000 1.860140 
# 
# From -- ./inp_files/37380.got.cif
#   From: 2010.06.25/outbox.cif.g09.slc.cpg/sg11_19_cif.got.tgz:37380.got - 2010.06.27 23:14:04.
