data_PCOD8076915
_publ_section_title
;
Structure prediction by ZEFSAII (Michael W. Deem and Ramdas Pophale) SiO2 
 PCOD8076915
Probable space group: P 21/M
;
_chemical_formula_sum "Si O2"
_cell_formula_units_Z 18
_cell_length_a 7.945833
_cell_length_b 15.841359
_cell_length_c 8.677247
_cell_angle_alpha 90.000000
_cell_angle_beta 54.323994
_cell_angle_gamma 90.000000
_cell_volume 887.248268
_symmetry_space_group_name_H-M "P 21/M"
_symmetry_group_IT_number 11
_symmetry_cell_setting 'monoclinic'
loop_
_space_group_symop_operation_xyz
x,y,z
-x,1/2+y,-z
-x,-y,-z
x,1/2-y,z
loop_
_atom_site_type_symbol
_atom_site_label
_atom_site_fract_x
_atom_site_fract_y
_atom_site_fract_z
Si Si1 0.991972 0.414452 0.909197
Si Si2 0.368944 0.424212 0.501249
Si Si3 0.328678 0.250000 0.153683
Si Si4 0.996500 0.250000 0.090302
Si Si5 0.489664 0.750000 0.606966
Si Si6 0.478213 0.584056 0.917634
O O1 0.131032 0.428860 0.682610
O O2 0.758402 0.394978 0.988947
O O3 0.000000 0.500000 0.000000
O O4 0.076035 0.334302 0.960689
O O5 0.500000 0.500000 0.500000
O O6 0.462573 0.335071 0.513343
O O7 0.384552 0.428315 0.308976
O O8 0.093762 0.250000 0.211873
O O9 0.358027 0.250000 0.323633
O O10 0.436556 0.164438 0.032343
O O11 0.750098 0.250000 0.223104
O O12 0.500000 0.500000 0.000000
#
# Coordination Sequence:
#
# PCOD8076915 Si02
#       6
#     4   4   2   2   2   4
#     4  12  22  40  68  95 127 178 216 265 332 389
#     4  11  22  40  66  96 129 174 221 265 331 392
#     4  10  22  39  66  93 129 172 217 269 330 387
#     4  12  21  41  71  94 126 180 220 265 338 389
#     4  10  21  44  63  95 135 166 219 282 318 394
#     4  11  23  43  64  94 140 165 217 282 323 388
#
# _framework density 20.287444000000001
#
# number of rings (size 3 to 8) (size 9 to 14) (size 15 to 20)
#    0.000    0.889    6.667    2.000    0.000    0.889 
#    0.000    2.222    0.000    0.000    0.000    0.000 
#    0.000    0.000    0.000    0.000    0.000    0.000 
#
# Total GULP energy -223086.709966 kJ/mol
# GULP energy per Si atom -12393.706109 kJ/mol
# Density = 2.024127 g / cm^3
# Si number density = 20.287444 Si / 1000 Ang^3
#
#
#
# Elastic Constant Matrix: (Units=GPa)
#
#
# Indices 1 2 3 4 5 6 
#
# 1 102.1789 34.8970 41.7295 0.0000 0.3191 0.0000
# 2 34.8970 212.3671 42.7043 0.0000 10.6539 0.0000
# 3 41.7295 42.7043 144.3403 0.0000 -19.6620 0.0000
# 4 0.0000 0.0000 0.0000 35.1129 0.0000 4.7379
# 5 0.3191 10.6539 -19.6620 0.0000 19.0940 0.0000
# 6 0.0000 0.0000 0.0000 4.7379 0.0000 35.4557
#
#
#
# Elastic Compliance Matrix: (Units=1/GPa)
#
#
# Indices 1 2 3 4 5 6 
#
# 1 0.011570 -0.001044 -0.003470 0.000000 -0.003184 0.000000
# 2 -0.001044 0.005552 -0.002048 0.000000 -0.005190 0.000000
# 3 -0.003470 -0.002048 0.010120 0.000000 0.011622 0.000000
# 4 0.000000 0.000000 0.000000 0.029002 0.000000 -0.003876
# 5 -0.003184 -0.005190 0.011622 0.000000 0.067289 0.000000
# 6 0.000000 0.000000 0.000000 -0.003876 0.000000 0.028722
#
#
# Mechanical properties :
#
#
# Convention : Reuss Voigt Hill
#
# Bulk Modulus (GPa) = 70.82256 77.50532 74.16394
# Shear Modulus (GPa) = 29.39679 40.56956 34.98317
#
# Velocity S-wave (km/s) = 3.81072 4.47669 4.15707
# Velocity P-wave (km/s) = 7.37207 8.06273 7.72512
#
# Compressibility (1/GPa) = 0.01411979
#
# Stress axis : x y z
#
# Youngs Moduli (GPa) = 86.42816 180.09913 98.81128
#
# Poissons Ratio (x) = 0.18798 0.34287
# Poissons Ratio (y) = 0.09021 0.20236
# Poissons Ratio (z) = 0.29990 0.36883
#
# Static dielectric constant tensor:
#      x y z
#    x 3.217320 0.000000 -0.214040 
#    y 0.000000 4.477540 0.000000 
#    z -0.214040 0.000000 3.738810 
# 
# 
# High freq. dielectric constant tensor:
#      x y z
#    x 1.775350 0.000000 -0.014010 
#    y 0.000000 1.834780 0.000000 
#    z -0.014010 0.000000 1.774890 
# 
# From -- ./inp_files/13075.got.cif
#   From: 2010.06.25/outbox.cif.g09.slc.cpg/sg11_7_cif.got.tgz:13075.got - 2010.06.27 23:14:04.
