data_PCOD8076626
_publ_section_title
;
Structure prediction by ZEFSAII (Michael W. Deem and Ramdas Pophale) SiO2 
 PCOD8076626
Probable space group: P 21/M
;
_chemical_formula_sum "Si O2"
_cell_formula_units_Z 24
_cell_length_a 11.932349
_cell_length_b 8.818175
_cell_length_c 11.784568
_cell_angle_alpha 90.000000
_cell_angle_beta 90.634919
_cell_angle_gamma 90.000000
_cell_volume 1239.914279
_symmetry_space_group_name_H-M "P 21/M"
_symmetry_group_IT_number 11
_symmetry_cell_setting 'monoclinic'
loop_
_space_group_symop_operation_xyz
x,y,z
-x,1/2+y,-z
-x,-y,-z
x,1/2-y,z
loop_
_atom_site_type_symbol
_atom_site_label
_atom_site_fract_x
_atom_site_fract_y
_atom_site_fract_z
Si Si1 0.838291 0.926794 0.044938
Si Si2 0.324393 0.425662 0.459352
Si Si3 0.484090 0.425969 0.668363
Si Si4 0.089581 0.571137 0.416940
Si Si5 0.412001 0.428488 0.915313
Si Si6 0.031274 0.426205 0.179597
O O1 0.850091 0.750000 0.075886
O O2 0.711566 0.985461 0.053102
O O3 0.878673 0.959768 0.917840
O O4 0.909519 0.020518 0.136972
O O5 0.294152 0.250000 0.441954
O O6 0.384707 0.457899 0.579064
O O7 0.405759 0.477028 0.358615
O O8 0.212256 0.522683 0.458300
O O9 0.518364 0.250000 0.667813
O O10 0.439420 0.481498 0.788654
O O11 0.078474 0.750000 0.423522
O O12 0.068774 0.519383 0.288725
O O13 0.000000 0.500000 0.500000
O O14 0.419531 0.250000 0.927243
O O15 0.500000 0.500000 0.000000
O O16 0.026275 0.250000 0.211248
#
# Coordination Sequence:
#
# PCOD8076626 Si02
#       6
#     4   4   4   4   4   4
#     4   9  20  39  62  87 121 161 200 248 301 352
#     4  10  21  39  63  89 119 157 200 247 301 357
#     4   9  20  39  61  87 120 159 200 245 300 357
#     4  12  26  42  62  90 123 157 199 249 303 359
#     4  10  22  38  58  88 120 157 202 247 297 349
#     4  10  21  39  62  91 121 156 202 246 300 362
#
# _framework density 19.356176000000001
#
# number of rings (size 3 to 8) (size 9 to 14) (size 15 to 20)
#    0.000    2.000    0.000    2.500    4.667    2.667 
#    0.000    0.000    0.000    0.000    0.000    0.000 
#    0.000    0.000    0.000    0.000    0.000    0.000 
#
# Total GULP energy -297721.594090 kJ/mol
# GULP energy per Si atom -12405.066420 kJ/mol
# Density = 1.931212 g / cm^3
# Si number density = 19.356176 Si / 1000 Ang^3
#
#
#
# Elastic Constant Matrix: (Units=GPa)
#
#
# Indices 1 2 3 4 5 6 
#
# 1 160.2448 58.1219 75.4814 0.0000 -5.7843 0.0000
# 2 58.1219 99.8341 50.8270 0.0000 0.8601 0.0000
# 3 75.4814 50.8270 122.4948 0.0000 -6.3052 0.0000
# 4 0.0000 0.0000 0.0000 34.8807 0.0000 2.9492
# 5 -5.7843 0.8601 -6.3052 0.0000 22.3567 0.0000
# 6 0.0000 0.0000 0.0000 2.9492 0.0000 37.2550
#
#
#
# Elastic Compliance Matrix: (Units=1/GPa)
#
#
# Indices 1 2 3 4 5 6 
#
# 1 0.009599 -0.003327 -0.004465 0.000000 0.001352 0.000000
# 2 -0.003327 0.013941 -0.003863 0.000000 -0.002487 0.000000
# 3 -0.004465 -0.003863 0.012649 0.000000 0.002561 0.000000
# 4 0.000000 0.000000 0.000000 0.028862 0.000000 -0.002285
# 5 0.001352 -0.002487 0.002561 0.000000 0.045897 0.000000
# 6 0.000000 0.000000 0.000000 -0.002285 0.000000 0.027023
#
#
# Mechanical properties :
#
#
# Convention : Reuss Voigt Hill
#
# Bulk Modulus (GPa) = 77.63396 83.49268 80.56332
# Shear Modulus (GPa) = 30.19774 32.10803 31.15289
#
# Velocity S-wave (km/s) = 3.95411 4.07726 4.01615
# Velocity P-wave (km/s) = 7.81292 8.08665 7.95096
#
# Compressibility (1/GPa) = 0.01288096
#
# Stress axis : x y z
#
# Youngs Moduli (GPa) = 104.17621 71.72830 79.05470
#
# Poissons Ratio (x) = 0.23864 0.35297
# Poissons Ratio (y) = 0.34659 0.30536
# Poissons Ratio (z) = 0.46514 0.27706
#
# Static dielectric constant tensor:
#      x y z
#    x 3.672780 0.000000 -0.095180 
#    y 0.000000 3.594120 0.000000 
#    z -0.095180 0.000000 3.628510 
# 
# 
# High freq. dielectric constant tensor:
#      x y z
#    x 1.763550 0.000000 -0.001970 
#    y 0.000000 1.755620 0.000000 
#    z -0.001970 0.000000 1.761530 
# 
# From -- ./inp_files/33795.got.cif
#   From: 2010.06.25/outbox.cif.g09.slc.cpg/sg11_17_cif.got.tgz:33795.got - 2010.06.27 23:14:04.
