data_PCOD8076504
_publ_section_title
;
Structure prediction by ZEFSAII (Michael W. Deem and Ramdas Pophale) SiO2 
 PCOD8076504
Probable space group: P 21/M
;
_chemical_formula_sum "Si O2"
_cell_formula_units_Z 32
_cell_length_a 11.464052
_cell_length_b 30.211933
_cell_length_c 7.848903
_cell_angle_alpha 90.000000
_cell_angle_beta 144.947733
_cell_angle_gamma 90.000000
_cell_volume 1561.284953
_symmetry_space_group_name_H-M "P 21/M"
_symmetry_group_IT_number 11
_symmetry_cell_setting 'monoclinic'
loop_
_space_group_symop_operation_xyz
x,y,z
-x,1/2+y,-z
-x,-y,-z
x,1/2-y,z
loop_
_atom_site_type_symbol
_atom_site_label
_atom_site_fract_x
_atom_site_fract_y
_atom_site_fract_z
Si Si1 0.535078 0.124819 0.732577
Si Si2 0.194144 0.165211 0.803932
Si Si3 0.697943 0.950677 0.369155
Si Si4 0.985805 0.199415 0.880969
Si Si5 0.393231 0.635752 0.567214
Si Si6 0.930448 0.411344 0.362111
Si Si7 0.656916 0.451803 0.306939
Si Si8 0.734813 0.800498 0.469015
O O1 0.394582 0.082281 0.601816
O O2 0.516594 0.135664 0.512995
O O3 0.458546 0.167293 0.746855
O O4 0.766991 0.116712 0.060430
O O5 0.131296 0.194060 0.891591
O O6 0.058041 0.121328 0.634310
O O7 0.163218 0.193373 0.594153
O O8 0.429639 0.151375 0.094736
O O9 0.927641 0.936517 0.602978
O O10 0.695232 0.000613 0.441149
O O11 0.569790 0.949404 0.040844
O O12 0.913461 0.250000 0.805866
O O13 0.789133 0.169535 0.627805
O O14 0.103384 0.185787 0.193244
O O15 0.316160 0.586598 0.522036
O O16 0.819368 0.446848 0.348868
O O17 0.662349 0.750000 0.406988
#
# Coordination Sequence:
#
# PCOD8076504 Si02
#       8
#     4   4   4   4   4   4   4   4
#     4  11  24  40  64  95 131 171 212 266 330 384
#     4  12  22  43  70  93 128 171 215 263 322 384
#     4  10  21  40  64  91 132 168 218 272 316 386
#     4  11  26  45  66  96 130 167 214 272 329 385
#     4  12  24  41  66  96 131 171 215 272 323 386
#     4  11  20  40  67  91 126 175 212 261 329 379
#     4  10  21  38  64  98 123 171 223 265 323 380
#     4  11  24  45  68  93 129 170 214 268 326 387
#
# _framework density 20.495937000000001
#
# number of rings (size 3 to 8) (size 9 to 14) (size 15 to 20)
#    0.000    1.000    5.000    2.250    0.000    2.000 
#    0.000    1.250    0.000    0.000    0.000    0.000 
#    0.000    0.000    0.000    0.000    0.000    0.000 
#
# Total GULP energy -396975.915353 kJ/mol
# GULP energy per Si atom -12405.497355 kJ/mol
# Density = 2.044929 g / cm^3
# Si number density = 20.495937 Si / 1000 Ang^3
#
#
#
# Elastic Constant Matrix: (Units=GPa)
#
#
# Indices 1 2 3 4 5 6 
#
# 1 114.2746 39.5604 41.5528 0.0000 -2.6876 0.0000
# 2 39.5604 139.1722 51.5657 0.0000 10.8161 0.0000
# 3 41.5528 51.5657 109.2913 0.0000 12.0590 0.0000
# 4 0.0000 0.0000 0.0000 30.9181 0.0000 -1.8980
# 5 -2.6876 10.8161 12.0590 0.0000 35.4035 0.0000
# 6 0.0000 0.0000 0.0000 -1.8980 0.0000 14.6124
#
#
#
# Elastic Compliance Matrix: (Units=1/GPa)
#
#
# Indices 1 2 3 4 5 6 
#
# 1 0.010748 -0.001983 -0.003437 0.000000 0.002592 0.000000
# 2 -0.001983 0.009132 -0.003356 0.000000 -0.001797 0.000000
# 3 -0.003437 -0.003356 0.012423 0.000000 -0.003467 0.000000
# 4 0.000000 0.000000 0.000000 0.032603 0.000000 0.004235
# 5 0.002592 -0.001797 -0.003467 0.000000 0.030173 0.000000
# 6 0.000000 0.000000 0.000000 0.004235 0.000000 0.068985
#
#
# Mechanical properties :
#
#
# Convention : Reuss Voigt Hill
#
# Bulk Modulus (GPa) = 67.79585 69.78842 68.79214
# Shear Modulus (GPa) = 26.80475 31.52408 29.16442
#
# Velocity S-wave (km/s) = 3.62029 3.92607 3.77628
# Velocity P-wave (km/s) = 7.11511 7.39431 7.25605
#
# Compressibility (1/GPa) = 0.01475017
#
# Stress axis : x y z
#
# Youngs Moduli (GPa) = 93.03970 109.49999 80.49789
#
# Poissons Ratio (x) = 0.21717 0.27665
# Poissons Ratio (y) = 0.18453 0.27019
# Poissons Ratio (z) = 0.31975 0.36753
#
# Static dielectric constant tensor:
#      x y z
#    x 3.637870 0.000000 0.047230 
#    y 0.000000 3.806610 0.000000 
#    z 0.047230 0.000000 3.657340 
# 
# 
# High freq. dielectric constant tensor:
#      x y z
#    x 1.802170 0.000000 0.007980 
#    y 0.000000 1.809890 0.000000 
#    z 0.007980 0.000000 1.796390 
# 
# From -- ./inp_files/19889.got.cif
#   From: 2010.06.25/outbox.cif.g09.slc.cpg/sg11_10_cif.got.tgz:19889.got - 2010.06.27 23:14:04.
