data_PCOD8076889
_publ_section_title
;
Structure prediction by ZEFSAII (Michael W. Deem and Ramdas Pophale) SiO2 
 PCOD8076889
Probable space group: P 21/M
;
_chemical_formula_sum "Si O2"
_cell_formula_units_Z 20
_cell_length_a 5.116525
_cell_length_b 10.998006
_cell_length_c 16.868890
_cell_angle_alpha 90.000000
_cell_angle_beta 117.491930
_cell_angle_gamma 90.000000
_cell_volume 842.046976
_symmetry_space_group_name_H-M "P 21/M"
_symmetry_group_IT_number 11
_symmetry_cell_setting 'monoclinic'
loop_
_space_group_symop_operation_xyz
x,y,z
-x,1/2+y,-z
-x,-y,-z
x,1/2-y,z
loop_
_atom_site_type_symbol
_atom_site_label
_atom_site_fract_x
_atom_site_fract_y
_atom_site_fract_z
Si Si1 0.524882 0.250000 0.994996
Si Si2 0.219626 0.882006 0.833910
Si Si3 0.626309 0.488087 0.770888
Si Si4 0.929638 0.506311 0.398124
Si Si5 0.123486 0.250000 0.429772
Si Si6 0.156076 0.750000 0.124051
Si Si7 0.809188 0.250000 0.554314
O O1 0.619446 0.250000 0.917514
O O2 0.174122 0.250000 0.954236
O O3 0.652102 0.369820 0.058164
O O4 0.244666 0.750000 0.794683
O O5 0.410496 0.979989 0.813669
O O6 0.875052 0.912882 0.790019
O O7 0.419435 0.476433 0.664348
O O8 0.790983 0.363901 0.812256
O O9 0.000000 0.500000 0.500000
O O10 0.030301 0.376787 0.371835
O O11 0.097528 0.625721 0.385579
O O12 0.468320 0.250000 0.489656
O O13 0.975645 0.250000 0.494500
#
# Coordination Sequence:
#
# PCOD8076889 Si02
#       7
#     2   4   4   4   2   2   2
#     4  10  24  46  70 104 136 178 228 272 360 422
#     4  10  25  45  68 100 136 173 224 290 340 400
#     4  12  25  43  69 101 144 176 231 289 336 411
#     4  10  24  44  67  98 135 186 228 281 339 400
#     4  10  22  36  66  88 118 169 230 271 326 382
#     4  12  25  42  71 104 134 188 218 275 358 419
#     4  10  21  42  59  90 128 163 224 276 326 395
#
# _framework density 23.751646000000001
#
# number of rings (size 3 to 8) (size 9 to 14) (size 15 to 20)
#    0.600    0.800    0.000    4.200    2.800   11.200 
#    0.000    4.000    0.000    0.000    0.000    0.000 
#    0.000    0.000    0.000    0.000    0.000    0.000 
#
# Total GULP energy -247917.212641 kJ/mol
# GULP energy per Si atom -12395.860632 kJ/mol
# Density = 2.369759 g / cm^3
# Si number density = 23.751646 Si / 1000 Ang^3
#
#
#
# Elastic Constant Matrix: (Units=GPa)
#
#
# Indices 1 2 3 4 5 6 
#
# 1 99.2592 13.2098 27.5026 0.0000 31.1915 0.0000
# 2 13.2098 164.7891 37.7658 0.0000 22.2832 0.0000
# 3 27.5026 37.7658 140.9396 0.0000 35.2914 0.0000
# 4 0.0000 0.0000 0.0000 43.2215 0.0000 3.9916
# 5 31.1915 22.2832 35.2914 0.0000 50.8713 0.0000
# 6 0.0000 0.0000 0.0000 3.9916 0.0000 14.7998
#
#
#
# Elastic Compliance Matrix: (Units=1/GPa)
#
#
# Indices 1 2 3 4 5 6 
#
# 1 0.012528 0.000131 -0.000656 0.000000 -0.007284 0.000000
# 2 0.000131 0.006635 -0.001277 0.000000 -0.002100 0.000000
# 3 -0.000656 -0.001277 0.008865 0.000000 -0.005188 0.000000
# 4 0.000000 0.000000 0.000000 0.023728 0.000000 -0.006400
# 5 -0.007284 -0.002100 -0.005188 0.000000 0.028643 0.000000
# 6 0.000000 0.000000 0.000000 -0.006400 0.000000 0.069295
#
#
# Mechanical properties :
#
#
# Convention : Reuss Voigt Hill
#
# Bulk Modulus (GPa) = 40.94612 62.43823 51.69217
# Shear Modulus (GPa) = 30.97177 43.54582 37.25880
#
# Velocity S-wave (km/s) = 3.61499 4.28645 3.96496
# Velocity P-wave (km/s) = 5.89075 7.13044 6.54003
#
# Compressibility (1/GPa) = 0.02442234
#
# Stress axis : x y z
#
# Youngs Moduli (GPa) = 79.82255 150.72436 112.80806
#
# Poissons Ratio (x) = -0.01974 0.07399
# Poissons Ratio (y) = -0.01046 0.14411
# Poissons Ratio (z) = 0.05235 0.19254
#
# Static dielectric constant tensor:
#      x y z
#    x 3.590700 0.000000 0.261210 
#    y 0.000000 5.688330 0.000000 
#    z 0.261210 0.000000 4.257290 
# 
# 
# High freq. dielectric constant tensor:
#      x y z
#    x 1.926570 0.000000 0.018940 
#    y 0.000000 1.958770 0.000000 
#    z 0.018940 0.000000 1.947190 
# 
# From -- ./inp_files/62622.got.cif
#   From: 2010.06.25/outbox.cif.g09.slc.cpg/sg11_32_cif.got.tgz:62622.got - 2010.06.27 23:14:04.
