data_PCOD8076093
_publ_section_title
;
Structure prediction by ZEFSAII (Michael W. Deem and Ramdas Pophale) SiO2 
 PCOD8076093
Probable space group: P 21/M
;
_chemical_formula_sum "Si O2"
_cell_formula_units_Z 32
_cell_length_a 9.958215
_cell_length_b 11.078910
_cell_length_c 30.522264
_cell_angle_alpha 90.000000
_cell_angle_beta 28.425461
_cell_angle_gamma 90.000000
_cell_volume 1602.935212
_symmetry_space_group_name_H-M "P 21/M"
_symmetry_group_IT_number 11
_symmetry_cell_setting 'monoclinic'
loop_
_space_group_symop_operation_xyz
x,y,z
-x,1/2+y,-z
-x,-y,-z
x,1/2-y,z
loop_
_atom_site_type_symbol
_atom_site_label
_atom_site_fract_x
_atom_site_fract_y
_atom_site_fract_z
Si Si1 0.957880 0.384765 0.189702
Si Si2 0.093949 0.386352 0.665853
Si Si3 0.344626 0.031142 0.151609
Si Si4 0.542120 0.884765 0.310298
Si Si5 0.406049 0.886352 0.834148
Si Si6 0.178668 0.112466 0.031882
Si Si7 0.678666 0.387534 0.531883
Si Si8 0.844625 0.468858 0.651609
O O1 0.809323 0.250000 0.230961
O O2 0.151026 0.383309 0.177503
O O3 0.155401 0.398801 0.090807
O O4 0.750000 0.500000 0.250000
O O5 0.110594 0.250000 0.677212
O O6 0.398415 0.445228 0.589540
O O7 0.848513 0.443333 0.764791
O O8 0.031452 0.392064 0.632009
O O9 0.531454 0.107936 0.132009
O O10 0.546222 0.958016 0.061707
O O11 0.690677 0.750000 0.269038
O O12 0.344600 0.898801 0.409193
O O13 0.348972 0.883309 0.322498
O O14 0.389406 0.750000 0.822788
O O15 0.651485 0.943334 0.735209
O O16 0.101583 0.945228 0.910460
O O17 0.217504 0.250000 0.005377
O O18 0.717500 0.250000 0.505377
O O19 0.953776 0.458015 0.438293
#
# Coordination Sequence:
#
# PCOD8076093 Si02
#       8
#     4   4   4   4   4   4   4   4
#     4  11  23  41  63  90 125 160 205 254 302 359
#     4  10  21  37  58  87 123 157 198 252 300 357
#     4  11  21  37  62  86 120 159 204 243 305 356
#     4  11  23  41  63  90 125 160 205 254 302 359
#     4  10  21  37  58  87 123 157 198 252 300 357
#     4  10  21  38  61  88 119 159 203 249 303 363
#     4  10  21  38  61  88 119 159 203 249 303 363
#     4  11  21  37  62  86 120 159 204 243 305 356
#
# _framework density 19.963377000000001
#
# number of rings (size 3 to 8) (size 9 to 14) (size 15 to 20)
#    0.000    1.500    2.500    3.000    0.000    1.000 
#    0.000    2.500    0.000    0.000    0.000    0.000 
#    0.000    0.000    0.000    0.000    0.000    0.000 
#
# Total GULP energy -396670.763140 kJ/mol
# GULP energy per Si atom -12395.961348 kJ/mol
# Density = 1.991794 g / cm^3
# Si number density = 19.963377 Si / 1000 Ang^3
#
#
#
# Elastic Constant Matrix: (Units=GPa)
#
#
# Indices 1 2 3 4 5 6 
#
# 1 136.2677 20.0708 14.8244 0.0000 2.9010 0.0000
# 2 20.0708 101.0202 44.0146 0.0000 4.8719 0.0000
# 3 14.8244 44.0146 81.5696 0.0000 9.1236 0.0000
# 4 0.0000 0.0000 0.0000 29.5105 0.0000 -3.7260
# 5 2.9010 4.8719 9.1236 0.0000 28.7235 0.0000
# 6 0.0000 0.0000 0.0000 -3.7260 0.0000 28.3101
#
#
#
# Elastic Compliance Matrix: (Units=1/GPa)
#
#
# Indices 1 2 3 4 5 6 
#
# 1 0.007597 -0.001187 -0.000702 0.000000 -0.000343 0.000000
# 2 -0.001187 0.013127 -0.006876 0.000000 0.000078 0.000000
# 3 -0.000702 -0.006876 0.016547 0.000000 -0.004019 0.000000
# 4 0.000000 0.000000 0.000000 0.034459 0.000000 0.004535
# 5 -0.000343 0.000078 -0.004019 0.000000 0.036113 0.000000
# 6 0.000000 0.000000 0.000000 0.004535 0.000000 0.035920
#
#
# Mechanical properties :
#
#
# Convention : Reuss Voigt Hill
#
# Bulk Modulus (GPa) = 50.65651 52.96412 51.81032
# Shear Modulus (GPa) = 29.78441 33.30532 31.54486
#
# Velocity S-wave (km/s) = 3.86677 4.08894 3.97941
# Velocity P-wave (km/s) = 6.73541 6.99148 6.86464
#
# Compressibility (1/GPa) = 0.01974080
#
# Stress axis : x y z
#
# Youngs Moduli (GPa) = 131.63116 76.17816 60.43426
#
# Poissons Ratio (x) = 0.09043 0.04241
# Poissons Ratio (y) = 0.15626 0.41556
# Poissons Ratio (z) = 0.09237 0.52382
#
# Static dielectric constant tensor:
#      x y z
#    x 4.081490 0.000000 -0.081610 
#    y 0.000000 3.579960 0.000000 
#    z -0.081610 0.000000 3.489030 
# 
# 
# High freq. dielectric constant tensor:
#      x y z
#    x 1.801020 0.000000 0.001740 
#    y 0.000000 1.770190 0.000000 
#    z 0.001740 0.000000 1.770350 
# 
# From -- ./inp_files/52321.got.cif
#   From: 2010.06.25/outbox.cif.g09.slc.cpg/sg11_27_cif.got.tgz:52321.got - 2010.06.27 23:14:04.
