data_PCOD8076186
_publ_section_title
;
Structure prediction by ZEFSAII (Michael W. Deem and Ramdas Pophale) SiO2 
 PCOD8076186
Probable space group: P 21/M
;
_chemical_formula_sum "Si O2"
_cell_formula_units_Z 32
_cell_length_a 14.601568
_cell_length_b 14.113461
_cell_length_c 20.452410
_cell_angle_alpha 90.000000
_cell_angle_beta 22.023516
_cell_angle_gamma 90.000000
_cell_volume 1580.497632
_symmetry_space_group_name_H-M "P 21/M"
_symmetry_group_IT_number 11
_symmetry_cell_setting 'monoclinic'
loop_
_space_group_symop_operation_xyz
x,y,z
-x,1/2+y,-z
-x,-y,-z
x,1/2-y,z
loop_
_atom_site_type_symbol
_atom_site_label
_atom_site_fract_x
_atom_site_fract_y
_atom_site_fract_z
Si Si1 0.356422 0.523754 0.393212
Si Si2 0.964670 0.358258 0.836948
Si Si3 0.531982 0.140082 0.027116
Si Si4 0.635246 0.355799 0.734883
Si Si5 0.182025 0.531166 0.272060
Si Si6 0.867724 0.483449 0.020747
Si Si7 0.700288 0.013770 0.423888
Si Si8 0.915753 0.856491 0.893194
O O1 0.353744 0.617504 0.349446
O O2 0.580567 0.459538 0.219060
O O3 0.418006 0.544328 0.428792
O O4 0.101662 0.468968 0.558254
O O5 0.047937 0.250000 0.785558
O O6 0.158721 0.413610 0.663396
O O7 0.696149 0.370016 0.983605
O O8 0.974354 0.401674 0.903596
O O9 0.454909 0.250000 0.067443
O O10 0.291987 0.075112 0.194562
O O11 0.682998 0.104847 0.864657
O O12 0.741427 0.250000 0.670683
O O13 0.799149 0.429819 0.666578
O O14 0.364258 0.359840 0.946570
O O15 0.919623 0.586679 0.957409
O O16 0.000000 0.500000 0.000000
O O17 0.899773 0.095607 0.279611
O O18 0.500000 0.000000 0.500000
O O19 0.004084 0.750000 0.847878
#
# Coordination Sequence:
#
# PCOD8076186 Si02
#       8
#     4   4   4   4   4   4   4   4
#     4  11  22  37  60  91 123 156 198 254 306 352
#     4  10  21  41  62  85 117 162 208 247 297 367
#     4  10  21  37  61  89 121 164 208 246 300 372
#     4  10  22  39  60  89 124 163 199 242 301 370
#     4  11  21  37  61  88 127 164 199 249 307 363
#     4  10  21  40  62  85 116 159 202 248 306 363
#     4  11  22  39  61  87 120 155 200 258 312 355
#     4   9  20  38  60  81 113 155 200 240 293 362
#
# _framework density 20.246787000000001
#
# number of rings (size 3 to 8) (size 9 to 14) (size 15 to 20)
#    0.000    1.750    1.250    4.500    1.750    2.000 
#    0.000    5.625    0.000    0.750    0.000    0.000 
#    0.000    0.000    0.000    0.000    0.000    0.000 
#
# Total GULP energy -396636.909148 kJ/mol
# GULP energy per Si atom -12394.903411 kJ/mol
# Density = 2.020070 g / cm^3
# Si number density = 20.246787 Si / 1000 Ang^3
#
#
#
# Elastic Constant Matrix: (Units=GPa)
#
#
# Indices 1 2 3 4 5 6 
#
# 1 98.8722 42.7544 17.6664 0.0000 13.1765 0.0000
# 2 42.7544 150.0370 39.5496 0.0000 3.8378 0.0000
# 3 17.6664 39.5496 76.9104 0.0000 10.2559 0.0000
# 4 0.0000 0.0000 0.0000 18.1610 0.0000 -1.5434
# 5 13.1765 3.8378 10.2559 0.0000 32.1340 0.0000
# 6 0.0000 0.0000 0.0000 -1.5434 0.0000 21.1015
#
#
#
# Elastic Compliance Matrix: (Units=1/GPa)
#
#
# Indices 1 2 3 4 5 6 
#
# 1 0.012195 -0.003215 -0.000556 0.000000 -0.004439 0.000000
# 2 -0.003215 0.008562 -0.003868 0.000000 0.001530 0.000000
# 3 -0.000556 -0.003868 0.015695 0.000000 -0.004319 0.000000
# 4 0.000000 0.000000 0.000000 0.055407 0.000000 0.004053
# 5 -0.004439 0.001530 -0.004319 0.000000 0.034136 0.000000
# 6 0.000000 0.000000 0.000000 0.004053 0.000000 0.047686
#
#
# Mechanical properties :
#
#
# Convention : Reuss Voigt Hill
#
# Bulk Modulus (GPa) = 47.22923 58.41783 52.82353
# Shear Modulus (GPa) = 25.50788 29.33592 27.42190
#
# Velocity S-wave (km/s) = 3.55328 3.81059 3.68419
# Velocity P-wave (km/s) = 6.34128 6.94812 6.65162
#
# Compressibility (1/GPa) = 0.02117333
#
# Stress axis : x y z
#
# Youngs Moduli (GPa) = 81.99903 116.79923 63.71450
#
# Poissons Ratio (x) = 0.37551 0.03543
# Poissons Ratio (y) = 0.26363 0.24646
# Poissons Ratio (z) = 0.04559 0.45181
#
# Static dielectric constant tensor:
#      x y z
#    x 3.544880 0.000000 0.085440 
#    y 0.000000 3.681630 0.000000 
#    z 0.085440 0.000000 3.783300 
# 
# 
# High freq. dielectric constant tensor:
#      x y z
#    x 1.797200 0.000000 0.001860 
#    y 0.000000 1.778210 0.000000 
#    z 0.001860 0.000000 1.790940 
# 
# From -- ./inp_files/47662.got.cif
#   From: 2010.06.25/outbox.cif.g09.slc.cpg/sg11_24_cif.got.tgz:47662.got - 2010.06.27 23:14:04.
