data_PCOD8076473
_publ_section_title
;
Structure prediction by ZEFSAII (Michael W. Deem and Ramdas Pophale) SiO2 
 PCOD8076473
Probable space group: P 21/M
;
_chemical_formula_sum "Si O2"
_cell_formula_units_Z 28
_cell_length_a 11.198655
_cell_length_b 13.809507
_cell_length_c 9.710926
_cell_angle_alpha 90.000000
_cell_angle_beta 68.013414
_cell_angle_gamma 90.000000
_cell_volume 1392.552609
_symmetry_space_group_name_H-M "P 21/M"
_symmetry_group_IT_number 11
_symmetry_cell_setting 'monoclinic'
loop_
_space_group_symop_operation_xyz
x,y,z
-x,1/2+y,-z
-x,-y,-z
x,1/2-y,z
loop_
_atom_site_type_symbol
_atom_site_label
_atom_site_fract_x
_atom_site_fract_y
_atom_site_fract_z
Si Si1 0.028275 0.864285 0.859869
Si Si2 0.542802 0.968720 0.260360
Si Si3 0.195276 0.358763 0.408518
Si Si4 0.281997 0.536700 0.241163
Si Si5 0.085840 0.638528 0.518767
Si Si6 0.805746 0.484516 0.010423
Si Si7 0.433999 0.140717 0.476864
O O1 0.002734 0.750000 0.895086
O O2 0.075077 0.885303 0.684879
O O3 0.139197 0.901734 0.914083
O O4 0.900763 0.925568 0.946136
O O5 0.516557 0.072833 0.340750
O O6 0.432439 0.939871 0.197743
O O7 0.544701 0.885861 0.374577
O O8 0.677342 0.968905 0.125951
O O9 0.192871 0.250000 0.350704
O O10 0.259706 0.420931 0.258797
O O11 0.280860 0.368664 0.509795
O O12 0.047639 0.390975 0.501100
O O13 0.202616 0.579348 0.403947
O O14 0.230365 0.571713 0.115935
O O15 0.118252 0.750000 0.479915
O O16 0.482407 0.250000 0.430926
#
# Coordination Sequence:
#
# PCOD8076473 Si02
#       7
#     4   4   4   4   4   4   4
#     4  10  24  43  63  89 122 162 204 250 307 361
#     4  10  23  39  59  89 124 161 202 245 301 367
#     4   9  18  34  60  88 115 153 202 252 299 345
#     4  11  22  38  62  89 125 158 203 247 300 360
#     4  10  21  38  63  89 118 158 205 253 299 354
#     4  11  24  40  64  90 126 162 197 249 310 363
#     4   9  20  38  60  87 118 158 207 254 299 354
#
# _framework density 20.106960000000001
#
# number of rings (size 3 to 8) (size 9 to 14) (size 15 to 20)
#    0.000    2.000    1.429    0.857    6.000    3.429 
#    0.000    1.429    0.000    5.143    0.000    0.000 
#    0.000    0.000    0.000    0.000    0.000    0.000 
#
# Total GULP energy -347176.118247 kJ/mol
# GULP energy per Si atom -12399.147080 kJ/mol
# Density = 2.006120 g / cm^3
# Si number density = 20.106960 Si / 1000 Ang^3
#
#
#
# Elastic Constant Matrix: (Units=GPa)
#
#
# Indices 1 2 3 4 5 6 
#
# 1 138.2922 35.4324 56.6263 0.0000 9.5079 0.0000
# 2 35.4324 70.5832 29.3264 0.0000 7.3946 0.0000
# 3 56.6263 29.3264 92.3069 0.0000 -0.0722 0.0000
# 4 0.0000 0.0000 0.0000 14.5781 0.0000 4.0793
# 5 9.5079 7.3946 -0.0722 0.0000 35.1958 0.0000
# 6 0.0000 0.0000 0.0000 4.0793 0.0000 25.5088
#
#
#
# Elastic Compliance Matrix: (Units=1/GPa)
#
#
# Indices 1 2 3 4 5 6 
#
# 1 0.010312 -0.002665 -0.005481 0.000000 -0.002237 0.000000
# 2 -0.002665 0.017438 -0.003908 0.000000 -0.002952 0.000000
# 3 -0.005481 -0.003908 0.015439 0.000000 0.002333 0.000000
# 4 0.000000 0.000000 0.000000 0.071809 0.000000 -0.011484
# 5 -0.002237 -0.002952 0.002333 0.000000 0.029642 0.000000
# 6 0.000000 0.000000 0.000000 -0.011484 0.000000 0.041039
#
#
# Mechanical properties :
#
#
# Convention : Reuss Voigt Hill
#
# Bulk Modulus (GPa) = 52.40530 60.43917 56.42224
# Shear Modulus (GPa) = 23.13237 27.04302 25.08769
#
# Velocity S-wave (km/s) = 3.39553 3.67135 3.53613
# Velocity P-wave (km/s) = 6.44148 6.93511 6.69285
#
# Compressibility (1/GPa) = 0.01908204
#
# Stress axis : x y z
#
# Youngs Moduli (GPa) = 96.97477 57.34493 64.77035
#
# Poissons Ratio (x) = 0.15282 0.35501
# Poissons Ratio (y) = 0.25843 0.25311
# Poissons Ratio (z) = 0.53152 0.22409
#
# Static dielectric constant tensor:
#      x y z
#    x 3.927640 0.000000 0.202840 
#    y 0.000000 3.685160 0.000000 
#    z 0.202840 0.000000 3.457230 
# 
# 
# High freq. dielectric constant tensor:
#      x y z
#    x 1.804690 0.000000 0.011130 
#    y 0.000000 1.784040 0.000000 
#    z 0.011130 0.000000 1.764360 
# 
# From -- ./inp_files/17719.got.cif
#   From: 2010.06.25/outbox.cif.g09.slc.cpg/sg11_9_cif.got.tgz:17719.got - 2010.06.27 23:14:04.
