data_PCOD8076345
_publ_section_title
;
Structure prediction by ZEFSAII (Michael W. Deem and Ramdas Pophale) SiO2 
 PCOD8076345
Probable space group: P 21/M
;
_chemical_formula_sum "Si O2"
_cell_formula_units_Z 28
_cell_length_a 21.163685
_cell_length_b 8.735788
_cell_length_c 15.489071
_cell_angle_alpha 90.000000
_cell_angle_beta 151.579451
_cell_angle_gamma 90.000000
_cell_volume 1362.920876
_symmetry_space_group_name_H-M "P 21/M"
_symmetry_group_IT_number 11
_symmetry_cell_setting 'monoclinic'
loop_
_space_group_symop_operation_xyz
x,y,z
-x,1/2+y,-z
-x,-y,-z
x,1/2-y,z
loop_
_atom_site_type_symbol
_atom_site_label
_atom_site_fract_x
_atom_site_fract_y
_atom_site_fract_z
Si Si1 0.586207 0.930652 0.300463
Si Si2 0.146141 0.931880 0.430111
Si Si3 0.598583 0.569057 0.048279
Si Si4 0.100247 0.068649 0.551086
Si Si5 0.298926 0.923265 0.221049
Si Si6 0.525048 0.423375 0.397992
Si Si7 0.972565 0.570638 0.059986
O O1 0.586291 0.750000 0.291238
O O2 0.707283 0.996919 0.390042
O O3 0.448201 0.001053 0.099855
O O4 0.602884 0.981584 0.419232
O O5 0.152993 0.750000 0.445062
O O6 0.077654 0.984824 0.258268
O O7 0.065774 0.998347 0.415544
O O8 0.584336 0.750000 0.032421
O O9 0.500000 0.500000 0.000000
O O10 0.750356 0.518956 0.244503
O O11 0.083174 0.250000 0.527393
O O12 0.000000 0.000000 0.500000
O O13 0.259552 0.750000 0.149357
O O14 0.381902 0.926811 0.407846
O O15 0.384597 0.995952 0.247078
O O16 0.170700 0.026144 0.077599
O O17 0.499762 0.250000 0.336726
O O18 0.981660 0.750000 0.058683
O O19 0.000000 0.500000 0.000000
#
# Coordination Sequence:
#
# PCOD8076345 Si02
#       7
#     4   4   4   4   4   4   4
#     4  12  24  38  62  94 124 160 208 256 312 372
#     4  11  24  42  64  90 125 166 210 262 317 376
#     4  11  23  41  66  94 125 162 207 256 311 372
#     4  11  25  44  68  97 129 169 214 262 323 386
#     4  10  21  38  60  86 119 159 203 254 312 370
#     4  10  21  38  60  87 120 159 203 254 310 368
#     4  11  24  40  61  90 124 166 209 255 313 374
#
# _framework density 20.544111999999998
#
# number of rings (size 3 to 8) (size 9 to 14) (size 15 to 20)
#    0.000    1.143    1.429    4.714    0.000   10.286 
#    0.000    1.429    0.000    0.000    0.000    0.000 
#    0.000    0.000    0.000    0.000    0.000    0.000 
#
# Total GULP energy -347327.165382 kJ/mol
# GULP energy per Si atom -12404.541621 kJ/mol
# Density = 2.049735 g / cm^3
# Si number density = 20.544112 Si / 1000 Ang^3
#
#
#
# Elastic Constant Matrix: (Units=GPa)
#
#
# Indices 1 2 3 4 5 6 
#
# 1 135.7165 61.4592 53.5513 0.0000 3.9530 0.0000
# 2 61.4592 95.0217 46.2793 0.0000 -7.2930 0.0000
# 3 53.5513 46.2793 86.9590 0.0000 1.3485 0.0000
# 4 0.0000 0.0000 0.0000 32.5132 0.0000 -0.5922
# 5 3.9530 -7.2930 1.3485 0.0000 28.9381 0.0000
# 6 0.0000 0.0000 0.0000 -0.5922 0.0000 42.4593
#
#
#
# Elastic Compliance Matrix: (Units=1/GPa)
#
#
# Indices 1 2 3 4 5 6 
#
# 1 0.011680 -0.005795 -0.004064 0.000000 -0.002867 0.000000
# 2 -0.005795 0.017544 -0.005853 0.000000 0.005486 0.000000
# 3 -0.004064 -0.005853 0.017144 0.000000 -0.001719 0.000000
# 4 0.000000 0.000000 0.000000 0.030765 0.000000 0.000429
# 5 -0.002867 0.005486 -0.001719 0.000000 0.036411 0.000000
# 6 0.000000 0.000000 0.000000 0.000429 0.000000 0.023558
#
#
# Mechanical properties :
#
#
# Convention : Reuss Voigt Hill
#
# Bulk Modulus (GPa) = 66.92019 71.14187 69.03103
# Shear Modulus (GPa) = 28.81741 31.20929 30.01335
#
# Velocity S-wave (km/s) = 3.74934 3.90184 3.82635
# Velocity P-wave (km/s) = 7.16854 7.41641 7.29353
#
# Compressibility (1/GPa) = 0.01494317
#
# Stress axis : x y z
#
# Youngs Moduli (GPa) = 85.61904 57.00020 58.32906
#
# Poissons Ratio (x) = 0.33031 0.23705
# Poissons Ratio (y) = 0.49616 0.34141
# Poissons Ratio (z) = 0.34796 0.33363
#
# Static dielectric constant tensor:
#      x y z
#    x 3.803960 0.000000 -0.054760 
#    y 0.000000 3.845530 0.000000 
#    z -0.054760 0.000000 3.977010 
# 
# 
# High freq. dielectric constant tensor:
#      x y z
#    x 1.812240 0.000000 -0.003160 
#    y 0.000000 1.817890 0.000000 
#    z -0.003160 0.000000 1.803140 
# 
# From -- ./inp_files/54631.got.cif
#   From: 2010.06.25/outbox.cif.g09.slc.cpg/sg11_28_cif.got.tgz:54631.got - 2010.06.27 23:14:04.
