data_PCOD8076731
_publ_section_title
;
Structure prediction by ZEFSAII (Michael W. Deem and Ramdas Pophale) SiO2 
 PCOD8076731
Probable space group: P 21/M
;
_chemical_formula_sum "Si O2"
_cell_formula_units_Z 32
_cell_length_a 23.690595
_cell_length_b 8.920392
_cell_length_c 14.333540
_cell_angle_alpha 90.000000
_cell_angle_beta 147.345838
_cell_angle_gamma 90.000000
_cell_volume 1634.401249
_symmetry_space_group_name_H-M "P 21/M"
_symmetry_group_IT_number 11
_symmetry_cell_setting 'monoclinic'
loop_
_space_group_symop_operation_xyz
x,y,z
-x,1/2+y,-z
-x,-y,-z
x,1/2-y,z
loop_
_atom_site_type_symbol
_atom_site_label
_atom_site_fract_x
_atom_site_fract_y
_atom_site_fract_z
Si Si1 0.204616 0.572729 0.497505
Si Si2 0.500602 0.425419 0.290098
Si Si3 0.306576 0.424406 0.342938
Si Si4 0.556626 0.425052 0.164898
Si Si5 0.130231 0.577507 0.762172
Si Si6 0.893667 0.926747 0.817895
Si Si7 0.887100 0.922479 0.451305
Si Si8 0.702703 0.927213 0.883824
O O1 0.193958 0.750000 0.468705
O O2 0.324553 0.518159 0.658050
O O3 0.136906 0.490647 0.325096
O O4 0.161299 0.526544 0.537289
O O5 0.510323 0.250000 0.318567
O O6 0.604330 0.493140 0.476904
O O7 0.493221 0.466777 0.170484
O O8 0.397756 0.486109 0.198720
O O9 0.328224 0.250000 0.383678
O O10 0.194536 0.468740 0.229254
O O11 0.311680 0.474653 0.242988
O O12 0.556563 0.250000 0.145258
O O13 0.500000 0.500000 0.000000
O O14 0.157260 0.750000 0.779007
O O15 0.157514 0.479858 0.709232
O O16 0.011048 0.558083 0.626766
O O17 0.196707 0.514924 0.940180
O O18 0.909484 0.750000 0.830632
O O19 0.000000 0.000000 0.000000
O O20 0.853040 0.750000 0.417676
O O21 0.720401 0.750000 0.919907
#
# Coordination Sequence:
#
# PCOD8076731 Si02
#       8
#     4   4   4   4   4   4   4   4
#     4  11  23  41  64  92 124 161 204 254 306 363
#     4  10  21  40  62  86 118 156 198 245 302 359
#     4  10  22  40  61  88 119 155 199 247 303 358
#     4  10  23  40  60  89 122 160 203 250 304 361
#     4  10  22  40  60  89 120 155 199 245 297 355
#     4  11  24  41  62  91 124 163 207 254 308 367
#     4  10  22  40  62  87 120 159 198 244 300 357
#     4  10  22  38  60  89 120 155 197 247 301 355
#
# _framework density 19.579035000000001
#
# number of rings (size 3 to 8) (size 9 to 14) (size 15 to 20)
#    0.000    1.750    1.250    1.875    3.500    4.500 
#    0.000    0.000    0.000    0.000    0.000    0.000 
#    0.000    0.000    0.000    0.000    0.000    0.000 
#
# Total GULP energy -396958.630838 kJ/mol
# GULP energy per Si atom -12404.957214 kJ/mol
# Density = 1.953447 g / cm^3
# Si number density = 19.579035 Si / 1000 Ang^3
#
#
#
# Elastic Constant Matrix: (Units=GPa)
#
#
# Indices 1 2 3 4 5 6 
#
# 1 87.3380 14.6345 10.6599 0.0000 -4.1865 0.0000
# 2 14.6345 48.7411 28.5490 0.0000 2.3990 0.0000
# 3 10.6599 28.5490 88.5799 0.0000 -11.1766 0.0000
# 4 0.0000 0.0000 0.0000 38.5266 0.0000 -4.0590
# 5 -4.1865 2.3990 -11.1766 0.0000 23.6349 0.0000
# 6 0.0000 0.0000 0.0000 -4.0590 0.0000 29.5084
#
#
#
# Elastic Compliance Matrix: (Units=1/GPa)
#
#
# Indices 1 2 3 4 5 6 
#
# 1 0.012208 -0.003852 0.000101 0.000000 0.002601 0.000000
# 2 -0.003852 0.027587 -0.009430 0.000000 -0.007942 0.000000
# 3 0.000101 -0.009430 0.015356 0.000000 0.008236 0.000000
# 4 0.000000 0.000000 0.000000 0.026338 0.000000 0.003623
# 5 0.002601 -0.007942 0.008236 0.000000 0.047472 0.000000
# 6 0.000000 0.000000 0.000000 0.003623 0.000000 0.034387
#
#
# Mechanical properties :
#
#
# Convention : Reuss Voigt Hill
#
# Bulk Modulus (GPa) = 34.73704 36.92733 35.83219
# Shear Modulus (GPa) = 25.08700 29.72166 27.40433
#
# Velocity S-wave (km/s) = 3.58344 3.90042 3.74529
# Velocity P-wave (km/s) = 5.90778 6.25987 6.08637
#
# Compressibility (1/GPa) = 0.02878771
#
# Stress axis : x y z
#
# Youngs Moduli (GPa) = 81.91578 36.24840 65.12298
#
# Poissons Ratio (x) = 0.13964 -0.00656
# Poissons Ratio (y) = 0.31557 0.61410
# Poissons Ratio (z) = -0.00825 0.34182
#
# Static dielectric constant tensor:
#      x y z
#    x 3.826370 0.000000 0.056520 
#    y 0.000000 3.558980 0.000000 
#    z 0.056520 0.000000 3.527610 
# 
# 
# High freq. dielectric constant tensor:
#      x y z
#    x 1.777190 0.000000 -0.002510 
#    y 0.000000 1.763390 0.000000 
#    z -0.002510 0.000000 1.770210 
# 
# From -- ./inp_files/55547.got.cif
#   From: 2010.06.25/outbox.cif.g09.slc.cpg/sg11_28_cif.got.tgz:55547.got - 2010.06.27 23:14:04.
