data_PCOD8076650
_publ_section_title
;
Structure prediction by ZEFSAII (Michael W. Deem and Ramdas Pophale) SiO2 
 PCOD8076650
Probable space group: P 21/M
;
_chemical_formula_sum "Si O2"
_cell_formula_units_Z 28
_cell_length_a 9.372031
_cell_length_b 8.849827
_cell_length_c 27.272776
_cell_angle_alpha 90.000000
_cell_angle_beta 141.764840
_cell_angle_gamma 90.000000
_cell_volume 1399.947269
_symmetry_space_group_name_H-M "P 21/M"
_symmetry_group_IT_number 11
_symmetry_cell_setting 'monoclinic'
loop_
_space_group_symop_operation_xyz
x,y,z
-x,1/2+y,-z
-x,-y,-z
x,1/2-y,z
loop_
_atom_site_type_symbol
_atom_site_label
_atom_site_fract_x
_atom_site_fract_y
_atom_site_fract_z
Si Si1 0.246378 0.571612 0.061483
Si Si2 0.299048 0.428512 0.975681
Si Si3 0.297281 0.925690 0.343612
Si Si4 0.506772 0.073548 0.219413
Si Si5 0.957143 0.573941 0.633652
Si Si6 0.821404 0.571185 0.489922
Si Si7 0.819416 0.073185 0.795966
O O1 0.225077 0.750000 0.051133
O O2 0.401053 0.530691 0.149162
O O3 0.354629 0.499866 0.042848
O O4 0.000000 0.500000 0.000000
O O5 0.320256 0.250000 0.983885
O O6 0.052887 0.476432 0.886630
O O7 0.500000 0.500000 0.000000
O O8 0.293203 0.750000 0.354558
O O9 0.561039 0.979005 0.406808
O O10 0.158771 0.962872 0.256090
O O11 0.177116 0.003643 0.357035
O O12 0.459304 0.250000 0.196813
O O13 0.774533 0.034866 0.291951
O O14 0.391672 0.024443 0.239636
O O15 0.910286 0.750000 0.624272
O O16 0.866566 0.510732 0.557257
O O17 0.856086 0.750000 0.496428
O O18 0.000000 0.500000 0.500000
O O19 0.767716 0.250000 0.790324
#
# Coordination Sequence:
#
# PCOD8076650 Si02
#       7
#     4   4   4   4   4   4   4
#     4  12  24  41  64  90 120 158 204 254 307 361
#     4  11  24  41  61  88 123 161 204 252 305 362
#     4  10  22  39  61  90 122 159 202 246 297 358
#     4  11  23  39  61  89 120 158 205 249 302 364
#     4  10  23  40  59  90 125 158 198 247 298 355
#     4  10  21  39  63  91 124 158 199 245 294 356
#     4  10  22  40  60  86 119 157 203 251 299 358
#
# _framework density 20.000755999999999
#
# number of rings (size 3 to 8) (size 9 to 14) (size 15 to 20)
#    0.000    1.429    1.429    3.429    2.000    3.429 
#    0.000    0.000    0.000    0.000    0.000    0.000 
#    0.000    0.000    0.000    0.000    0.000    0.000 
#
# Total GULP energy -347233.891039 kJ/mol
# GULP energy per Si atom -12401.210394 kJ/mol
# Density = 1.995523 g / cm^3
# Si number density = 20.000756 Si / 1000 Ang^3
#
#
#
# Elastic Constant Matrix: (Units=GPa)
#
#
# Indices 1 2 3 4 5 6 
#
# 1 155.6293 49.2821 40.5728 0.0000 -3.2301 0.0000
# 2 49.2821 71.9422 34.8506 0.0000 6.9537 0.0000
# 3 40.5728 34.8506 88.9802 0.0000 -8.6420 0.0000
# 4 0.0000 0.0000 0.0000 26.1775 0.0000 -1.5287
# 5 -3.2301 6.9537 -8.6420 0.0000 37.4390 0.0000
# 6 0.0000 0.0000 0.0000 -1.5287 0.0000 44.2685
#
#
#
# Elastic Compliance Matrix: (Units=1/GPa)
#
#
# Indices 1 2 3 4 5 6 
#
# 1 0.008531 -0.005113 -0.001763 0.000000 0.001279 0.000000
# 2 -0.005113 0.021125 -0.006512 0.000000 -0.005868 0.000000
# 3 -0.001763 -0.006512 0.015033 0.000000 0.004527 0.000000
# 4 0.000000 0.000000 0.000000 0.038278 0.000000 0.001322
# 5 0.001279 -0.005868 0.004527 0.000000 0.028955 0.000000
# 6 0.000000 0.000000 0.000000 0.001322 0.000000 0.022635
#
#
# Mechanical properties :
#
#
# Convention : Reuss Voigt Hill
#
# Bulk Modulus (GPa) = 55.83105 62.88472 59.35788
# Shear Modulus (GPa) = 29.88570 34.36674 32.12622
#
# Velocity S-wave (km/s) = 3.86972 4.14970 4.01215
# Velocity P-wave (km/s) = 6.92397 7.38034 7.15580
#
# Compressibility (1/GPa) = 0.01791118
#
# Stress axis : x y z
#
# Youngs Moduli (GPa) = 117.22077 47.33787 66.52213
#
# Poissons Ratio (x) = 0.24206 0.11727
# Poissons Ratio (y) = 0.59941 0.43320
# Poissons Ratio (z) = 0.20665 0.30827
#
# Static dielectric constant tensor:
#      x y z
#    x 3.687330 0.000000 0.008100 
#    y 0.000000 3.481910 0.000000 
#    z 0.008100 0.000000 3.743370 
# 
# 
# High freq. dielectric constant tensor:
#      x y z
#    x 1.796510 0.000000 -0.005170 
#    y 0.000000 1.777300 0.000000 
#    z -0.005170 0.000000 1.793700 
# 
# From -- ./inp_files/28367.got.cif
#   From: 2010.06.25/outbox.cif.g09.slc.cpg/sg11_15_cif.got.tgz:28367.got - 2010.06.27 23:14:04.
