data_PCOD8076641
_publ_section_title
;
Structure prediction by ZEFSAII (Michael W. Deem and Ramdas Pophale) SiO2 
 PCOD8076641
Probable space group: P 21/M
;
_chemical_formula_sum "Si O2"
_cell_formula_units_Z 20
_cell_length_a 12.488679
_cell_length_b 8.793604
_cell_length_c 19.065975
_cell_angle_alpha 90.000000
_cell_angle_beta 151.333865
_cell_angle_gamma 90.000000
_cell_volume 1004.422992
_symmetry_space_group_name_H-M "P 21/M"
_symmetry_group_IT_number 11
_symmetry_cell_setting 'monoclinic'
loop_
_space_group_symop_operation_xyz
x,y,z
-x,1/2+y,-z
-x,-y,-z
x,1/2-y,z
loop_
_atom_site_type_symbol
_atom_site_label
_atom_site_fract_x
_atom_site_fract_y
_atom_site_fract_z
Si Si1 0.934609 0.927100 0.147934
Si Si2 0.034700 0.574948 0.688261
Si Si3 0.837471 0.571218 0.849510
Si Si4 0.564134 0.426929 0.180717
Si Si5 0.397947 0.426072 0.650331
O O1 0.976272 0.750000 0.159542
O O2 0.996118 0.969020 0.262353
O O3 0.680454 0.972822 0.986104
O O4 0.097799 0.018938 0.190869
O O5 0.033981 0.750000 0.712041
O O6 0.266316 0.532480 0.783950
O O7 0.836338 0.539867 0.520802
O O8 0.859279 0.750000 0.868369
O O9 0.584773 0.523782 0.718748
O O10 0.000000 0.500000 0.000000
O O11 0.579013 0.250000 0.210101
O O12 0.627115 0.527057 0.283583
O O13 0.464808 0.250000 0.684229
#
# Coordination Sequence:
#
# PCOD8076641 Si02
#       5
#     4   4   4   4   4
#     4  11  23  39  63  93 123 161 205 250 305 362
#     4  10  23  41  60  90 128 164 204 250 303 360
#     4  12  24  41  65  90 120 157 202 253 304 362
#     4  10  21  39  63  90 124 163 206 253 299 358
#     4  11  23  39  63  92 123 162 206 251 303 361
#
# _framework density 19.911929000000001
#
# number of rings (size 3 to 8) (size 9 to 14) (size 15 to 20)
#    0.000    1.200    2.000    4.200    0.000    4.000 
#    0.000    0.000    0.000    0.000    0.000    0.000 
#    0.000    0.000    0.000    0.000    0.000    0.000 
#
# Total GULP energy -248158.605787 kJ/mol
# GULP energy per Si atom -12407.930289 kJ/mol
# Density = 1.986661 g / cm^3
# Si number density = 19.911929 Si / 1000 Ang^3
#
#
#
# Elastic Constant Matrix: (Units=GPa)
#
#
# Indices 1 2 3 4 5 6 
#
# 1 106.5661 38.2011 15.0787 0.0000 -6.3045 0.0000
# 2 38.2011 100.2940 27.3603 0.0000 -8.7006 0.0000
# 3 15.0787 27.3603 54.0209 0.0000 -14.4087 0.0000
# 4 0.0000 0.0000 0.0000 29.2401 0.0000 -5.6062
# 5 -6.3045 -8.7006 -14.4087 0.0000 35.1565 0.0000
# 6 0.0000 0.0000 0.0000 -5.6062 0.0000 38.2894
#
#
#
# Elastic Compliance Matrix: (Units=1/GPa)
#
#
# Indices 1 2 3 4 5 6 
#
# 1 0.010935 -0.003857 -0.000933 0.000000 0.000624 0.000000
# 2 -0.003857 0.012938 -0.005397 0.000000 0.000299 0.000000
# 3 -0.000933 -0.005397 0.023694 0.000000 0.008208 0.000000
# 4 0.000000 0.000000 0.000000 0.035187 0.000000 0.005152
# 5 0.000624 0.000299 0.008208 0.000000 0.031994 0.000000
# 6 0.000000 0.000000 0.000000 0.005152 0.000000 0.026871
#
#
# Mechanical properties :
#
#
# Convention : Reuss Voigt Hill
#
# Bulk Modulus (GPa) = 36.77034 46.90681 41.83858
# Shear Modulus (GPa) = 29.23012 32.55326 30.89169
#
# Velocity S-wave (km/s) = 3.83557 4.04773 3.94308
# Velocity P-wave (km/s) = 6.17430 6.74194 6.46435
#
# Compressibility (1/GPa) = 0.02719583
#
# Stress axis : x y z
#
# Youngs Moduli (GPa) = 91.44765 77.29348 42.20440
#
# Poissons Ratio (x) = 0.29809 0.03936
# Poissons Ratio (y) = 0.35267 0.22776
# Poissons Ratio (z) = 0.08528 0.41712
#
# Static dielectric constant tensor:
#      x y z
#    x 3.785240 0.000000 0.145750 
#    y 0.000000 3.839470 0.000000 
#    z 0.145750 0.000000 3.672970 
# 
# 
# High freq. dielectric constant tensor:
#      x y z
#    x 1.791030 0.000000 0.003790 
#    y 0.000000 1.782090 0.000000 
#    z 0.003790 0.000000 1.780990 
# 
# From -- ./inp_files/15913.got.cif
#   From: 2010.06.25/outbox.cif.g09.slc.cpg/sg11_8_cif.got.tgz:15913.got - 2010.06.27 23:14:04.
