data_PCOD8076520
_publ_section_title
;
Structure prediction by ZEFSAII (Michael W. Deem and Ramdas Pophale) SiO2 
 PCOD8076520
Probable space group: P 21/M
;
_chemical_formula_sum "Si O2"
_cell_formula_units_Z 20
_cell_length_a 9.001177
_cell_length_b 9.674629
_cell_length_c 11.601763
_cell_angle_alpha 90.000000
_cell_angle_beta 95.470869
_cell_angle_gamma 90.000000
_cell_volume 1005.714690
_symmetry_space_group_name_H-M "P 21/M"
_symmetry_group_IT_number 11
_symmetry_cell_setting 'monoclinic'
loop_
_space_group_symop_operation_xyz
x,y,z
-x,1/2+y,-z
-x,-y,-z
x,1/2-y,z
loop_
_atom_site_type_symbol
_atom_site_label
_atom_site_fract_x
_atom_site_fract_y
_atom_site_fract_z
Si Si1 0.492706 0.040835 0.716143
Si Si2 0.930652 0.750000 0.270734
Si Si3 0.148865 0.750000 0.957180
Si Si4 0.204720 0.250000 0.070181
Si Si5 0.618476 0.750000 0.685852
Si Si6 0.748899 0.540402 0.115028
Si Si7 0.253808 0.750000 0.225794
Si Si8 0.692924 0.750000 0.436146
O O1 0.408239 0.057459 0.831709
O O2 0.653262 0.112387 0.740146
O O3 0.396840 0.113583 0.609246
O O4 0.510567 0.881797 0.683760
O O5 0.880017 0.614453 0.196517
O O6 0.857816 0.750000 0.392390
O O7 0.108823 0.750000 0.297535
O O8 0.211004 0.618827 0.894014
O O9 0.972133 0.750000 0.942489
O O10 0.203625 0.750000 0.090988
O O11 0.261530 0.250000 0.203950
O O12 0.266585 0.113160 0.010736
O O13 0.711840 0.750000 0.574509
#
# Coordination Sequence:
#
# PCOD8076520 Si02
#       8
#     4   2   2   2   2   4   2   2
#     4  10  23  39  64  90 115 153 199 243 292 352
#     4   9  20  39  64  79 115 162 197 234 291 350
#     4  12  22  33  61  89 128 154 191 236 291 355
#     4  11  23  35  57  88 128 155 194 234 289 354
#     4  12  23  37  63  89 121 149 198 253 289 332
#     4  10  21  39  58  88 123 155 192 235 292 350
#     4  11  21  37  62  87 117 160 196 230 301 352
#     4   9  21  45  63  82 115 158 198 243 297 347
#
# _framework density 19.886354999999998
#
# number of rings (size 3 to 8) (size 9 to 14) (size 15 to 20)
#    0.000    1.600    2.000    4.800    2.800    4.800 
#    0.000    1.000    8.800    0.000    0.000    0.000 
#    0.000    0.000    0.000    0.000    0.000    0.000 
#
# Total GULP energy -248094.863749 kJ/mol
# GULP energy per Si atom -12404.743187 kJ/mol
# Density = 1.984109 g / cm^3
# Si number density = 19.886355 Si / 1000 Ang^3
#
#
#
# Elastic Constant Matrix: (Units=GPa)
#
#
# Indices 1 2 3 4 5 6 
#
# 1 152.1586 55.0654 57.7339 0.0000 -16.5190 0.0000
# 2 55.0654 169.0657 44.2307 0.0000 -6.6749 0.0000
# 3 57.7339 44.2307 137.2596 0.0000 -18.6041 0.0000
# 4 0.0000 0.0000 0.0000 3.2803 0.0000 4.0754
# 5 -16.5190 -6.6749 -18.6041 0.0000 16.6359 0.0000
# 6 0.0000 0.0000 0.0000 4.0754 0.0000 -4.0449
#
#
#
# Elastic Compliance Matrix: (Units=1/GPa)
#
#
# Indices 1 2 3 4 5 6 
#
# 1 0.008762 -0.002040 -0.002310 0.000000 0.005299 0.000000
# 2 -0.002040 0.006936 -0.001502 0.000000 -0.000923 0.000000
# 3 -0.002310 -0.001502 0.009840 0.000000 0.008108 0.000000
# 4 0.000000 0.000000 0.000000 0.135381 0.000000 0.136405
# 5 0.005299 -0.000923 0.008108 0.000000 0.074069 0.000000
# 6 0.000000 0.000000 0.000000 0.136405 0.000000 -0.109791
#
#
# Mechanical properties :
#
#
# Convention : Reuss Voigt Hill
#
# Bulk Modulus (GPa) = 72.28661 85.83821 79.06241
# Shear Modulus (GPa) = 35.33233 23.27119 29.30176
#
# Velocity S-wave (km/s) = 4.21968 3.42454 3.84273
# Velocity P-wave (km/s) = 7.75691 7.67429 7.71571
#
# Compressibility (1/GPa) = 0.01383382
#
# Stress axis : x y z
#
# Youngs Moduli (GPa) = 114.12684 144.17716 101.62671
#
# Poissons Ratio (x) = 0.29418 0.23474
# Poissons Ratio (y) = 0.23286 0.15263
# Poissons Ratio (z) = 0.26362 0.21654
#
# Static dielectric constant tensor:
#      x y z
#    x 3.629740 0.000000 -0.124870 
#    y 0.000000 3.913100 0.000000 
#    z -0.124870 0.000000 3.618480 
# 
# 
# High freq. dielectric constant tensor:
#      x y z
#    x 1.776150 0.000000 -0.015300 
#    y 0.000000 1.788860 0.000000 
#    z -0.015300 0.000000 1.760520 
# 
# From -- ./inp_files/16051.got.cif
#   From: 2010.06.25/outbox.cif.g09.slc.cpg/sg11_9_cif.got.tgz:16051.got - 2010.06.27 23:14:04.
