data_PCOD8076935
_publ_section_title
;
Structure prediction by ZEFSAII (Michael W. Deem and Ramdas Pophale) SiO2 
 PCOD8076935
Probable space group: P 21/M
;
_chemical_formula_sum "Si O2"
_cell_formula_units_Z 24
_cell_length_a 5.054666
_cell_length_b 22.221914
_cell_length_c 12.692335
_cell_angle_alpha 90.000000
_cell_angle_beta 124.507565
_cell_angle_gamma 90.000000
_cell_volume 1174.815729
_symmetry_space_group_name_H-M "P 21/M"
_symmetry_group_IT_number 11
_symmetry_cell_setting 'monoclinic'
loop_
_space_group_symop_operation_xyz
x,y,z
-x,1/2+y,-z
-x,-y,-z
x,1/2-y,z
loop_
_atom_site_type_symbol
_atom_site_label
_atom_site_fract_x
_atom_site_fract_y
_atom_site_fract_z
Si Si1 0.548677 0.179271 0.500169
Si Si2 0.543484 0.424850 0.112495
Si Si3 0.232095 0.056250 0.824914
Si Si4 0.778276 0.879994 0.376643
Si Si5 0.259937 0.387249 0.249322
Si Si6 0.469966 0.509647 0.372531
O O1 0.586467 0.250000 0.516950
O O2 0.450902 0.155657 0.593836
O O3 0.303931 0.163788 0.348997
O O4 0.879342 0.150404 0.537945
O O5 0.574603 0.494361 0.161346
O O6 0.395828 0.376103 0.162082
O O7 0.888513 0.401743 0.154920
O O8 0.307299 0.423843 0.960087
O O9 0.335870 0.112548 0.771545
O O10 0.851015 0.046466 0.730215
O O11 0.782256 0.950604 0.411126
O O12 0.479727 0.444184 0.325945
O O13 0.500000 0.500000 0.500000
#
# Coordination Sequence:
#
# PCOD8076935 Si02
#       6
#     4   4   4   4   4   4
#     4  12  27  43  63  88 119 162 214 267 310 354
#     4  10  23  35  60  92 131 165 194 240 306 379
#     4  10  22  36  59  95 135 161 196 241 309 382
#     4  12  22  40  65  91 125 163 198 258 314 374
#     4  11  22  38  61  89 123 164 201 250 305 375
#     4  11  21  35  62  98 131 159 199 246 324 375
#
# _framework density 20.428737999999999
#
# number of rings (size 3 to 8) (size 9 to 14) (size 15 to 20)
#    0.000    1.000    5.000    1.500    4.667    3.333 
#    0.000    0.000    0.000    6.000    0.000    0.000 
#    0.000    0.000    0.000    0.000    0.000    0.000 
#
# Total GULP energy -297329.810320 kJ/mol
# GULP energy per Si atom -12388.742097 kJ/mol
# Density = 2.038224 g / cm^3
# Si number density = 20.428738 Si / 1000 Ang^3
#
#
#
# Elastic Constant Matrix: (Units=GPa)
#
#
# Indices 1 2 3 4 5 6 
#
# 1 78.7469 26.6823 16.7881 0.0000 -13.9731 0.0000
# 2 26.6823 67.4904 34.2613 0.0000 4.2578 0.0000
# 3 16.7881 34.2613 106.4082 0.0000 -7.8101 0.0000
# 4 0.0000 0.0000 0.0000 16.8344 0.0000 -2.4980
# 5 -13.9731 4.2578 -7.8101 0.0000 29.0346 0.0000
# 6 0.0000 0.0000 0.0000 -2.4980 0.0000 15.8815
#
#
#
# Elastic Compliance Matrix: (Units=1/GPa)
#
#
# Indices 1 2 3 4 5 6 
#
# 1 0.016773 -0.007434 0.000428 0.000000 0.009277 0.000000
# 2 -0.007434 0.021527 -0.006379 0.000000 -0.008450 0.000000
# 3 0.000428 -0.006379 0.011699 0.000000 0.004288 0.000000
# 4 0.000000 0.000000 0.000000 0.060822 0.000000 0.009567
# 5 0.009277 -0.008450 0.004288 0.000000 0.041299 0.000000
# 6 0.000000 0.000000 0.000000 0.009567 0.000000 0.064471
#
#
# Mechanical properties :
#
#
# Convention : Reuss Voigt Hill
#
# Bulk Modulus (GPa) = 43.04763 45.34544 44.19653
# Shear Modulus (GPa) = 19.91222 24.01103 21.96162
#
# Velocity S-wave (km/s) = 3.12543 3.43207 3.28233
# Velocity P-wave (km/s) = 5.84314 6.16040 6.00386
#
# Compressibility (1/GPa) = 0.02323008
#
# Stress axis : x y z
#
# Youngs Moduli (GPa) = 59.62103 46.45326 85.47909
#
# Poissons Ratio (x) = 0.34532 -0.03660
# Poissons Ratio (y) = 0.44320 0.54524
# Poissons Ratio (z) = -0.02553 0.29631
#
# Static dielectric constant tensor:
#      x y z
#    x 5.052730 0.000000 -0.848590 
#    y 0.000000 3.624780 0.000000 
#    z -0.848590 0.000000 4.398640 
# 
# 
# High freq. dielectric constant tensor:
#      x y z
#    x 1.813240 0.000000 -0.015940 
#    y 0.000000 1.747760 0.000000 
#    z -0.015940 0.000000 1.810910 
# 
# From -- ./inp_files/30123.got.cif
#   From: 2010.06.25/outbox.cif.g09.slc.cpg/sg11_16_cif.got.tgz:30123.got - 2010.06.27 23:14:04.
