data_PCOD8076837
_publ_section_title
;
Structure prediction by ZEFSAII (Michael W. Deem and Ramdas Pophale) SiO2 
 PCOD8076837
Probable space group: P 21/M
;
_chemical_formula_sum "Si O2"
_cell_formula_units_Z 28
_cell_length_a 16.531117
_cell_length_b 16.703388
_cell_length_c 7.549377
_cell_angle_alpha 90.000000
_cell_angle_beta 46.769209
_cell_angle_gamma 90.000000
_cell_volume 1518.823937
_symmetry_space_group_name_H-M "P 21/M"
_symmetry_group_IT_number 11
_symmetry_cell_setting 'monoclinic'
loop_
_space_group_symop_operation_xyz
x,y,z
-x,1/2+y,-z
-x,-y,-z
x,1/2-y,z
loop_
_atom_site_type_symbol
_atom_site_label
_atom_site_fract_x
_atom_site_fract_y
_atom_site_fract_z
Si Si1 0.913170 0.842264 0.925720
Si Si2 0.913331 0.842245 0.333758
Si Si3 0.685001 0.434963 0.972372
Si Si4 0.463969 0.344184 0.304020
Si Si5 0.298653 0.057957 0.357500
Si Si6 0.913644 0.343080 0.629776
Si Si7 0.701138 0.942037 0.253465
O O1 0.880949 0.750000 0.942833
O O2 0.017508 0.866330 0.648779
O O3 0.945222 0.858162 0.081761
O O4 0.808343 0.894514 0.021357
O O5 0.880930 0.750000 0.413460
O O6 0.808668 0.894592 0.552647
O O7 0.017853 0.866139 0.297206
O O8 0.667585 0.488235 0.825097
O O9 0.804661 0.395705 0.793124
O O10 0.593276 0.365897 0.109784
O O11 0.667341 0.488247 0.172186
O O12 0.450027 0.250000 0.325067
O O13 0.402162 0.380179 0.222326
O O14 0.402428 0.380240 0.570893
O O15 0.272388 0.020530 0.591606
O O16 0.881230 0.250000 0.678035
#
# Coordination Sequence:
#
# PCOD8076837 Si02
#       7
#     4   4   4   4   4   4   4
#     4   9  17  34  56  81 112 147 191 235 270 314
#     4   9  17  34  56  81 112 147 191 235 270 314
#     4  12  22  38  56  83 121 150 176 224 287 342
#     4  10  21  41  63  80 109 148 190 231 276 331
#     4   9  21  35  61  84 109 142 186 238 281 314
#     4  10  22  35  54  82 116 154 186 218 274 345
#     4   9  21  35  61  84 109 142 186 238 281 314
#
# _framework density 18.435316
#
# number of rings (size 3 to 8) (size 9 to 14) (size 15 to 20)
#    0.857    1.429    0.000    3.000    0.000    3.429 
#    0.000    5.000    0.000    1.714    0.000    0.000 
#    0.000    0.000    0.000    0.000    0.000    0.000 
#
# Total GULP energy -347120.146373 kJ/mol
# GULP energy per Si atom -12397.148085 kJ/mol
# Density = 1.839336 g / cm^3
# Si number density = 18.435316 Si / 1000 Ang^3
#
#
#
# Elastic Constant Matrix: (Units=GPa)
#
#
# Indices 1 2 3 4 5 6 
#
# 1 81.7420 38.1058 42.7543 0.0000 -5.5007 0.0000
# 2 38.1058 73.3448 39.5448 0.0000 -4.0531 0.0000
# 3 42.7543 39.5448 86.8316 0.0000 -9.0823 0.0000
# 4 0.0000 0.0000 0.0000 29.3343 0.0000 -13.0090
# 5 -5.5007 -4.0531 -9.0823 0.0000 31.9912 0.0000
# 6 0.0000 0.0000 0.0000 -13.0090 0.0000 25.3398
#
#
#
# Elastic Compliance Matrix: (Units=1/GPa)
#
#
# Indices 1 2 3 4 5 6 
#
# 1 0.018389 -0.006194 -0.006168 0.000000 0.000626 0.000000
# 2 -0.006194 0.020158 -0.006158 0.000000 -0.000259 0.000000
# 3 -0.006168 -0.006158 0.017691 0.000000 0.003182 0.000000
# 4 0.000000 0.000000 0.000000 0.044139 0.000000 0.022660
# 5 0.000626 -0.000259 0.003182 0.000000 0.032237 0.000000
# 6 0.000000 0.000000 0.000000 0.022660 0.000000 0.051097
#
#
# Mechanical properties :
#
#
# Convention : Reuss Voigt Hill
#
# Bulk Modulus (GPa) = 52.08749 53.63646 52.86198
# Shear Modulus (GPa) = 22.01191 25.43396 23.72294
#
# Velocity S-wave (km/s) = 3.45919 3.71837 3.59112
# Velocity P-wave (km/s) = 6.65359 6.89874 6.77727
#
# Compressibility (1/GPa) = 0.01919847
#
# Stress axis : x y z
#
# Youngs Moduli (GPa) = 54.37920 49.60845 56.52632
#
# Poissons Ratio (x) = 0.30726 0.34867
# Poissons Ratio (y) = 0.33681 0.34807
# Poissons Ratio (z) = 0.33543 0.30548
#
# Static dielectric constant tensor:
#      x y z
#    x 3.359820 0.000000 0.053330 
#    y 0.000000 3.198070 0.000000 
#    z 0.053330 0.000000 3.343750 
# 
# 
# High freq. dielectric constant tensor:
#      x y z
#    x 1.713240 0.000000 -0.002210 
#    y 0.000000 1.705950 0.000000 
#    z -0.002210 0.000000 1.713950 
# 
# From -- ./inp_files/24931.got.cif
#   From: 2010.06.25/outbox.cif.g09.slc.cpg/sg11_13_cif.got.tgz:24931.got - 2010.06.27 23:14:04.
