data_PCOD8076883
_publ_section_title
;
Structure prediction by ZEFSAII (Michael W. Deem and Ramdas Pophale) SiO2 
 PCOD8076883
Probable space group: P 21/M
;
_chemical_formula_sum "Si O2"
_cell_formula_units_Z 24
_cell_length_a 5.088875
_cell_length_b 25.728590
_cell_length_c 9.276241
_cell_angle_alpha 90.000000
_cell_angle_beta 77.250382
_cell_angle_gamma 90.000000
_cell_volume 1184.588513
_symmetry_space_group_name_H-M "P 21/M"
_symmetry_group_IT_number 11
_symmetry_cell_setting 'monoclinic'
loop_
_space_group_symop_operation_xyz
x,y,z
-x,1/2+y,-z
-x,-y,-z
x,1/2-y,z
loop_
_atom_site_type_symbol
_atom_site_label
_atom_site_fract_x
_atom_site_fract_y
_atom_site_fract_z
Si Si1 0.167993 0.812207 0.173986
Si Si2 0.107032 0.092867 0.274167
Si Si3 0.235628 0.848814 0.474635
Si Si4 0.868110 0.750000 0.768314
Si Si5 0.446127 0.750000 0.584489
Si Si6 0.427937 0.553706 0.581583
Si Si7 0.733990 0.840281 0.991901
O O1 0.208312 0.750000 0.177518
O O2 0.103029 0.837514 0.336400
O O3 0.428984 0.841538 0.082181
O O4 0.919295 0.826563 0.103900
O O5 0.361043 0.068049 0.321393
O O6 0.183747 0.106165 0.099186
O O7 0.002451 0.144407 0.376088
O O8 0.864509 0.050553 0.304697
O O9 0.431033 0.800883 0.487392
O O10 0.415149 0.901760 0.457920
O O11 0.193261 0.750000 0.725865
O O12 0.736414 0.750000 0.625273
O O13 0.753826 0.798866 0.864444
O O14 0.500000 0.500000 0.500000
#
# Coordination Sequence:
#
# PCOD8076883 Si02
#       7
#     4   4   4   2   2   4   4
#     4  12  24  38  54  87 129 171 198 241 306 372
#     4  10  22  39  64  92 111 160 205 256 302 355
#     4  10  25  37  62  90 125 159 202 257 309 363
#     4  12  20  34  54  82 112 165 203 240 286 350
#     4  12  22  34  60  88 126 151 207 256 300 362
#     4  10  21  41  69  95 115 153 213 265 310 352
#     4  12  23  38  57  84 126 163 208 236 298 368
#
# _framework density 20.260199
#
# number of rings (size 3 to 8) (size 9 to 14) (size 15 to 20)
#    1.000    0.000    4.167    3.500    2.333    0.000 
#    0.000    0.000    0.000    6.000    0.000    0.000 
#    0.000    0.000    0.000    0.000    0.000    0.000 
#
# Total GULP energy -297484.060059 kJ/mol
# GULP energy per Si atom -12395.169169 kJ/mol
# Density = 2.021409 g / cm^3
# Si number density = 20.260199 Si / 1000 Ang^3
#
#
#
# Elastic Constant Matrix: (Units=GPa)
#
#
# Indices 1 2 3 4 5 6 
#
# 1 546.0934 -39.7202 400.4019 0.0000 -74.6800 0.0000
# 2 -39.7202 83.3660 -25.8829 0.0000 30.0489 0.0000
# 3 400.4019 -25.8829 409.9116 0.0000 -67.5059 0.0000
# 4 0.0000 0.0000 0.0000 15.9568 0.0000 1.9167
# 5 -74.6800 30.0489 -67.5059 0.0000 54.0702 0.0000
# 6 0.0000 0.0000 0.0000 1.9167 0.0000 19.8237
#
#
#
# Elastic Compliance Matrix: (Units=1/GPa)
#
#
# Indices 1 2 3 4 5 6 
#
# 1 0.006582 0.000913 -0.006241 0.000000 0.000791 0.000000
# 2 0.000913 0.015221 -0.001405 0.000000 -0.008952 0.000000
# 3 -0.006241 -0.001405 0.009009 0.000000 0.003408 0.000000
# 4 0.000000 0.000000 0.000000 0.063405 0.000000 -0.006130
# 5 0.000791 -0.008952 0.003408 0.000000 0.028816 0.000000
# 6 0.000000 0.000000 0.000000 -0.006130 0.000000 0.051037
#
#
# Mechanical properties :
#
#
# Convention : Reuss Voigt Hill
#
# Bulk Modulus (GPa) = 57.65450 189.88540 123.76995
# Shear Modulus (GPa) = 25.86398 64.94163 45.40281
#
# Velocity S-wave (km/s) = 3.57682 5.66775 4.73904
# Velocity P-wave (km/s) = 6.75107 11.69436 9.54817
#
# Compressibility (1/GPa) = 0.01734470
#
# Stress axis : x y z
#
# Youngs Moduli (GPa) = 151.92719 65.69969 111.00440
#
# Poissons Ratio (x) = -0.05999 0.69283
# Poissons Ratio (y) = -0.13872 0.15597
# Poissons Ratio (z) = 0.94825 0.09231
#
# Static dielectric constant tensor:
#      x y z
#    x 3.456980 0.000000 -0.285890 
#    y 0.000000 4.033810 0.000000 
#    z -0.285890 0.000000 3.170800 
# 
# 
# High freq. dielectric constant tensor:
#      x y z
#    x 1.805290 0.000000 0.004940 
#    y 0.000000 1.765320 0.000000 
#    z 0.004940 0.000000 1.781190 
# 
# From -- ./inp_files/10528.got.cif
#   From: 2010.06.25/outbox.cif.g09.slc.cpg/sg11_6_cif.got.tgz:10528.got - 2010.06.27 23:14:04.
