data_PCOD8076224
_publ_section_title
;
Structure prediction by ZEFSAII (Michael W. Deem and Ramdas Pophale) SiO2 
 PCOD8076224
Probable space group: P 21/M
;
_chemical_formula_sum "Si O2"
_cell_formula_units_Z 28
_cell_length_a 5.181002
_cell_length_b 29.289038
_cell_length_c 9.269312
_cell_angle_alpha 90.000000
_cell_angle_beta 71.898355
_cell_angle_gamma 90.000000
_cell_volume 1336.969812
_symmetry_space_group_name_H-M "P 21/M"
_symmetry_group_IT_number 11
_symmetry_cell_setting 'monoclinic'
loop_
_space_group_symop_operation_xyz
x,y,z
-x,1/2+y,-z
-x,-y,-z
x,1/2-y,z
loop_
_atom_site_type_symbol
_atom_site_label
_atom_site_fract_x
_atom_site_fract_y
_atom_site_fract_z
Si Si1 0.750111 0.041363 0.849114
Si Si2 0.742428 0.941329 0.870072
Si Si3 0.080565 0.698672 0.919088
Si Si4 0.824546 0.891533 0.557990
Si Si5 0.437402 0.909489 0.370285
Si Si6 0.115838 0.383305 0.890708
Si Si7 0.305704 0.198289 0.281148
O O1 0.590778 0.044190 0.722138
O O2 0.964981 0.082966 0.804496
O O3 0.887586 0.991256 0.834849
O O4 0.563110 0.049601 0.021957
O O5 0.741876 0.917035 0.717532
O O6 0.896207 0.908847 0.954124
O O7 0.031555 0.750000 0.982896
O O8 0.383338 0.691721 0.813272
O O9 0.875381 0.686466 0.826113
O O10 0.027582 0.665452 0.064001
O O11 0.637512 0.915870 0.470816
O O12 0.758139 0.837467 0.580527
O O13 0.144762 0.893148 0.473508
O O14 0.585083 0.874549 0.230377
O O15 0.247813 0.250000 0.345585
#
# Coordination Sequence:
#
# PCOD8076224 Si02
#       7
#     4   4   4   4   4   4   4
#     4  10  22  44  60  97 123 171 203 273 304 378
#     4  10  23  37  70  92 120 163 226 253 317 362
#     4  10  21  37  67  98 120 154 209 263 309 358
#     4  12  23  43  62  96 120 174 204 258 306 385
#     4  11  26  41  62  87 138 163 206 246 324 364
#     4  11  21  43  64  90 131 166 202 265 309 375
#     4  10  21  39  64  97 124 153 207 267 307 360
#
# _framework density 20.942882999999998
#
# number of rings (size 3 to 8) (size 9 to 14) (size 15 to 20)
#    0.000    1.429    2.857    2.143    4.000    1.143 
#    0.000    1.429    0.000    0.857    0.000    0.000 
#    0.000    0.000    0.000    0.000    0.000    0.000 
#
# Total GULP energy -347018.617554 kJ/mol
# GULP energy per Si atom -12393.522056 kJ/mol
# Density = 2.089522 g / cm^3
# Si number density = 20.942883 Si / 1000 Ang^3
#
#
#
# Elastic Constant Matrix: (Units=GPa)
#
#
# Indices 1 2 3 4 5 6 
#
# 1 120.7552 29.0707 40.3675 0.0000 4.6042 0.0000
# 2 29.0707 105.4310 42.3504 0.0000 -3.7969 0.0000
# 3 40.3675 42.3504 105.6172 0.0000 9.1837 0.0000
# 4 0.0000 0.0000 0.0000 13.4506 0.0000 -2.8816
# 5 4.6042 -3.7969 9.1837 0.0000 31.7216 0.0000
# 6 0.0000 0.0000 0.0000 -2.8816 0.0000 27.0890
#
#
#
# Elastic Compliance Matrix: (Units=1/GPa)
#
#
# Indices 1 2 3 4 5 6 
#
# 1 0.009681 -0.001469 -0.003050 0.000000 -0.000698 0.000000
# 2 -0.001469 0.011765 -0.004408 0.000000 0.002898 0.000000
# 3 -0.003050 -0.004408 0.012729 0.000000 -0.003770 0.000000
# 4 0.000000 0.000000 0.000000 0.076080 0.000000 0.008093
# 5 -0.000698 0.002898 -0.003770 0.000000 0.033064 0.000000
# 6 0.000000 0.000000 0.000000 0.008093 0.000000 0.037776
#
#
# Mechanical properties :
#
#
# Convention : Reuss Voigt Hill
#
# Bulk Modulus (GPa) = 61.27293 61.70895 61.49094
# Shear Modulus (GPa) = 24.46292 29.11989 26.79140
#
# Velocity S-wave (km/s) = 3.42142 3.73291 3.58056
# Velocity P-wave (km/s) = 6.70290 6.93605 6.82047
#
# Compressibility (1/GPa) = 0.01632042
#
# Stress axis : x y z
#
# Youngs Moduli (GPa) = 103.29236 84.99821 78.55863
#
# Poissons Ratio (x) = 0.12488 0.23964
# Poissons Ratio (y) = 0.15176 0.34628
# Poissons Ratio (z) = 0.31508 0.37466
#
# Static dielectric constant tensor:
#      x y z
#    x 3.877610 0.000000 0.013640 
#    y 0.000000 3.908300 0.000000 
#    z 0.013640 0.000000 3.766680 
# 
# 
# High freq. dielectric constant tensor:
#      x y z
#    x 1.828360 0.000000 -0.003550 
#    y 0.000000 1.812700 0.000000 
#    z -0.003550 0.000000 1.814610 
# 
# From -- ./inp_files/3200.got.cif
#   From: 2010.06.25/outbox.cif.g09.slc.cpg/sg11_2_cif.got.tgz:3200.got - 2010.06.27 23:14:04.
