data_PCOD8076142
_publ_section_title
;
Structure prediction by ZEFSAII (Michael W. Deem and Ramdas Pophale) SiO2 
 PCOD8076142
Probable space group: P 21/M
;
_chemical_formula_sum "Si O2"
_cell_formula_units_Z 32
_cell_length_a 26.943691
_cell_length_b 9.098328
_cell_length_c 21.051630
_cell_angle_alpha 90.000000
_cell_angle_beta 161.143935
_cell_angle_gamma 90.000000
_cell_volume 1667.880050
_symmetry_space_group_name_H-M "P 21/M"
_symmetry_group_IT_number 11
_symmetry_cell_setting 'monoclinic'
loop_
_space_group_symop_operation_xyz
x,y,z
-x,1/2+y,-z
-x,-y,-z
x,1/2-y,z
loop_
_atom_site_type_symbol
_atom_site_label
_atom_site_fract_x
_atom_site_fract_y
_atom_site_fract_z
Si Si1 0.941020 0.577983 0.025223
Si Si2 0.102151 0.413453 0.444927
Si Si3 0.845462 0.076662 0.035349
Si Si4 0.791011 0.918848 0.711326
Si Si5 0.092508 0.914601 0.664640
Si Si6 0.405197 0.077671 0.068492
Si Si7 0.459942 0.920820 0.261506
Si Si8 0.412076 0.578515 0.836553
O O1 0.955664 0.750000 0.055310
O O2 0.856687 0.504861 0.982311
O O3 0.111996 0.514224 0.221609
O O4 0.836273 0.539043 0.837723
O O5 0.167250 0.250000 0.508573
O O6 0.237521 0.527519 0.619780
O O7 0.992737 0.468675 0.255655
O O8 0.004337 0.405531 0.389500
O O9 0.840110 0.250000 0.017028
O O10 0.689341 0.024139 0.880890
O O11 0.830558 0.750000 0.744510
O O12 0.610345 0.950262 0.485987
O O13 0.131234 0.750000 0.687404
O O14 0.000000 0.000000 0.500000
O O15 0.244291 0.002196 0.863022
O O16 0.380005 0.250000 0.046440
O O17 0.510523 0.039803 0.136277
O O18 0.483714 0.012563 0.226189
O O19 0.441296 0.750000 0.220686
O O20 0.415957 0.750000 0.856250
O O21 0.500000 0.500000 0.000000
#
# Coordination Sequence:
#
# PCOD8076142 Si02
#       8
#     4   4   4   4   4   4   4   4
#     4  10  21  37  59  90 124 156 195 242 290 344
#     4  10  22  40  60  84 116 153 196 240 288 347
#     4  10  21  39  60  86 118 156 197 240 289 348
#     4   9  20  39  62  88 119 158 200 240 288 346
#     4  11  22  39  62  88 116 153 197 240 290 347
#     4  11  24  40  58  87 121 151 191 245 296 347
#     4  10  21  40  63  86 115 156 201 241 287 350
#     4  11  25  42  60  86 118 152 194 243 296 351
#
# _framework density 19.186032999999998
#
# number of rings (size 3 to 8) (size 9 to 14) (size 15 to 20)
#    0.000    1.750    1.250    2.250    1.750    8.500 
#    0.000    0.000    0.000    0.000    0.000    0.000 
#    0.000    0.000    0.000    0.000    0.000    0.000 
#
# Total GULP energy -396927.950413 kJ/mol
# GULP energy per Si atom -12403.998450 kJ/mol
# Density = 1.914236 g / cm^3
# Si number density = 19.186033 Si / 1000 Ang^3
#
#
#
# Elastic Constant Matrix: (Units=GPa)
#
#
# Indices 1 2 3 4 5 6 
#
# 1 128.2653 65.6007 55.2954 0.0000 -1.6031 0.0000
# 2 65.6007 78.4151 46.7078 0.0000 -0.1173 0.0000
# 3 55.2954 46.7078 127.2806 0.0000 2.1077 0.0000
# 4 0.0000 0.0000 0.0000 36.0756 0.0000 -1.4483
# 5 -1.6031 -0.1173 2.1077 0.0000 29.1011 0.0000
# 6 0.0000 0.0000 0.0000 -1.4483 0.0000 37.2997
#
#
#
# Elastic Compliance Matrix: (Units=1/GPa)
#
#
# Indices 1 2 3 4 5 6 
#
# 1 0.014160 -0.010457 -0.002329 0.000000 0.000907 0.000000
# 2 -0.010457 0.024050 -0.004280 0.000000 -0.000169 0.000000
# 3 -0.002329 -0.004280 0.010454 0.000000 -0.000903 0.000000
# 4 0.000000 0.000000 0.000000 0.027763 0.000000 0.001078
# 5 0.000907 -0.000169 -0.000903 0.000000 0.034478 0.000000
# 6 0.000000 0.000000 0.000000 0.001078 0.000000 0.026852
#
#
# Mechanical properties :
#
#
# Convention : Reuss Voigt Hill
#
# Bulk Modulus (GPa) = 68.81533 74.35208 71.58370
# Shear Modulus (GPa) = 28.29126 31.58576 29.93851
#
# Velocity S-wave (km/s) = 3.84419 4.06185 3.95452
# Velocity P-wave (km/s) = 7.45982 7.79971 7.63166
#
# Compressibility (1/GPa) = 0.01453165
#
# Stress axis : x y z
#
# Youngs Moduli (GPa) = 70.62050 41.57984 95.65715
#
# Poissons Ratio (x) = 0.43482 0.22280
# Poissons Ratio (y) = 0.73851 0.40938
# Poissons Ratio (z) = 0.16449 0.17795
#
# Static dielectric constant tensor:
#      x y z
#    x 3.626360 0.000000 -0.077510 
#    y 0.000000 3.675860 0.000000 
#    z -0.077510 0.000000 3.579740 
# 
# 
# High freq. dielectric constant tensor:
#      x y z
#    x 1.753190 0.000000 -0.002560 
#    y 0.000000 1.750940 0.000000 
#    z -0.002560 0.000000 1.755530 
# 
# From -- ./inp_files/67266.got.cif
#   From: 2010.06.25/outbox.cif.g09.slc.cpg/sg11_34_cif.got.tgz:67266.got - 2010.06.27 23:14:04.
