data_PCOD8076640
_publ_section_title
;
Structure prediction by ZEFSAII (Michael W. Deem and Ramdas Pophale) SiO2 
 PCOD8076640
Probable space group: P 21/M
;
_chemical_formula_sum "Si O2"
_cell_formula_units_Z 32
_cell_length_a 11.544061
_cell_length_b 19.142300
_cell_length_c 19.172527
_cell_angle_alpha 90.000000
_cell_angle_beta 156.473929
_cell_angle_gamma 90.000000
_cell_volume 1691.164959
_symmetry_space_group_name_H-M "P 21/M"
_symmetry_group_IT_number 11
_symmetry_cell_setting 'monoclinic'
loop_
_space_group_symop_operation_xyz
x,y,z
-x,1/2+y,-z
-x,-y,-z
x,1/2-y,z
loop_
_atom_site_type_symbol
_atom_site_label
_atom_site_fract_x
_atom_site_fract_y
_atom_site_fract_z
Si Si1 0.833438 0.422684 0.707715
Si Si2 0.487760 0.433631 0.041880
Si Si3 0.715245 0.920653 0.680305
Si Si4 0.196309 0.069349 0.113564
Si Si5 0.940017 0.329835 0.238723
Si Si6 0.222475 0.832310 0.192728
Si Si7 0.829933 0.827606 0.481671
Si Si8 0.772162 0.055648 0.347253
O O1 0.627810 0.416321 0.526438
O O2 0.829877 0.501245 0.733777
O O3 0.711153 0.368444 0.696708
O O4 0.164141 0.404912 0.873062
O O5 0.641803 0.457739 0.198608
O O6 0.640063 0.369115 0.087807
O O7 0.500000 0.500000 0.000000
O O8 0.768838 0.901507 0.789628
O O9 0.893052 0.866789 0.731845
O O10 0.515800 0.055123 0.261262
O O11 0.063931 0.132724 0.996539
O O12 0.000000 0.000000 0.000000
O O13 0.874633 0.250000 0.181315
O O14 0.128081 0.334216 0.412321
O O15 0.172682 0.750000 0.176963
O O16 0.488512 0.846717 0.285551
O O17 0.892785 0.750000 0.489852
O O18 0.044751 0.872949 0.553521
O O19 0.000000 0.000000 0.500000
#
# Coordination Sequence:
#
# PCOD8076640 Si02
#       8
#     4   4   4   4   4   4   4   4
#     4  11  22  39  62  98 120 163 210 260 310 365
#     4  11  22  39  62  92 124 157 206 257 307 368
#     4  11  23  37  66  89 129 161 204 261 310 374
#     4  12  24  41  60  93 129 163 206 259 313 377
#     4  10  21  39  63  90 120 160 204 252 309 364
#     4  11  22  40  64  90 123 165 208 253 310 376
#     4   9  20  40  63  88 120 158 202 249 304 371
#     4  11  24  37  61  92 122 163 201 253 307 370
#
# _framework density 18.921868
#
# number of rings (size 3 to 8) (size 9 to 14) (size 15 to 20)
#    0.000    1.250    5.000    0.750    1.750    1.500 
#    0.000    0.000    0.000    0.000    0.000    0.000 
#    0.000    0.000    0.000    0.000    0.000    0.000 
#
# Total GULP energy -396778.243380 kJ/mol
# GULP energy per Si atom -12399.320106 kJ/mol
# Density = 1.887880 g / cm^3
# Si number density = 18.921868 Si / 1000 Ang^3
#
#
#
# Elastic Constant Matrix: (Units=GPa)
#
#
# Indices 1 2 3 4 5 6 
#
# 1 88.0102 45.0092 40.7915 0.0000 13.1709 0.0000
# 2 45.0092 132.2808 48.9989 0.0000 16.2579 0.0000
# 3 40.7915 48.9989 115.3918 0.0000 21.1428 0.0000
# 4 0.0000 0.0000 0.0000 26.4636 0.0000 1.8365
# 5 13.1709 16.2579 21.1428 0.0000 39.3579 0.0000
# 6 0.0000 0.0000 0.0000 1.8365 0.0000 31.1698
#
#
#
# Elastic Compliance Matrix: (Units=1/GPa)
#
#
# Indices 1 2 3 4 5 6 
#
# 1 0.015087 -0.003638 -0.003482 0.000000 -0.001676 0.000000
# 2 -0.003638 0.009970 -0.002680 0.000000 -0.001461 0.000000
# 3 -0.003482 -0.002680 0.011778 0.000000 -0.004055 0.000000
# 4 0.000000 0.000000 0.000000 0.037943 0.000000 -0.002236
# 5 -0.001676 -0.001461 -0.004055 0.000000 0.028751 0.000000
# 6 0.000000 0.000000 0.000000 -0.002236 0.000000 0.032214
#
#
# Mechanical properties :
#
#
# Convention : Reuss Voigt Hill
#
# Bulk Modulus (GPa) = 58.01693 67.25355 62.63524
# Shear Modulus (GPa) = 31.03935 32.79048 31.91492
#
# Velocity S-wave (km/s) = 4.05457 4.16738 4.11136
# Velocity P-wave (km/s) = 7.25585 7.66655 7.46402
#
# Compressibility (1/GPa) = 0.01723635
#
# Stress axis : x y z
#
# Youngs Moduli (GPa) = 66.28119 100.30399 84.90619
#
# Poissons Ratio (x) = 0.36490 0.29561
# Poissons Ratio (y) = 0.24112 0.22752
# Poissons Ratio (z) = 0.23076 0.26878
#
# Static dielectric constant tensor:
#      x y z
#    x 3.434940 0.000000 0.045660 
#    y 0.000000 4.816950 0.000000 
#    z 0.045660 0.000000 3.674400 
# 
# 
# High freq. dielectric constant tensor:
#      x y z
#    x 1.727390 0.000000 0.009080 
#    y 0.000000 1.735490 0.000000 
#    z 0.009080 0.000000 1.749270 
# 
# From -- ./inp_files/64924.got.cif
#   From: 2010.06.25/outbox.cif.g09.slc.cpg/sg11_33_cif.got.tgz:64924.got - 2010.06.27 23:14:04.
