data_PCOD8076748
_publ_section_title
;
Structure prediction by ZEFSAII (Michael W. Deem and Ramdas Pophale) SiO2 
 PCOD8076748
Probable space group: P 21/M
;
_chemical_formula_sum "Si O2"
_cell_formula_units_Z 32
_cell_length_a 23.976806
_cell_length_b 9.389096
_cell_length_c 14.289880
_cell_angle_alpha 90.000000
_cell_angle_beta 29.609230
_cell_angle_gamma 90.000000
_cell_volume 1589.434597
_symmetry_space_group_name_H-M "P 21/M"
_symmetry_group_IT_number 11
_symmetry_cell_setting 'monoclinic'
loop_
_space_group_symop_operation_xyz
x,y,z
-x,1/2+y,-z
-x,-y,-z
x,1/2-y,z
loop_
_atom_site_type_symbol
_atom_site_label
_atom_site_fract_x
_atom_site_fract_y
_atom_site_fract_z
Si Si1 0.595852 0.407671 0.093392
Si Si2 0.593150 0.412689 0.310180
Si Si3 0.541393 0.416022 0.849943
Si Si4 0.005794 0.418437 0.088384
Si Si5 0.207033 0.586371 0.475052
Si Si6 0.153201 0.915320 0.015418
Si Si7 0.921140 0.899122 0.709640
Si Si8 0.170241 0.527125 0.327904
O O1 0.540367 0.250000 0.169239
O O2 0.604210 0.463919 0.187069
O O3 0.518598 0.521847 0.153619
O O4 0.719694 0.389394 0.868079
O O5 0.500000 0.500000 0.500000
O O6 0.555008 0.250000 0.369417
O O7 0.712878 0.434052 0.185484
O O8 0.510429 0.250000 0.905509
O O9 0.675138 0.439660 0.644537
O O10 0.500000 0.500000 0.000000
O O11 0.026542 0.250000 0.043488
O O12 0.889037 0.449851 0.311022
O O13 0.106338 0.487171 0.001008
O O14 0.000000 0.500000 0.000000
O O15 0.197646 0.750000 0.453446
O O16 0.193343 0.485314 0.403164
O O17 0.118001 0.750000 0.054916
O O18 0.105543 0.967478 0.185090
O O19 0.888159 0.750000 0.808626
O O20 0.053879 0.885150 0.492342
O O21 0.850205 0.899189 0.715793
#
# Coordination Sequence:
#
# PCOD8076748 Si02
#       8
#     4   4   4   4   4   4   4   4
#     4  11  22  41  64  89 124 165 206 252 312 370
#     4  10  24  44  66  91 123 166 210 258 311 368
#     4  11  23  39  60  89 122 163 209 256 307 365
#     4  11  24  45  68  94 124 163 212 259 311 370
#     4  10  21  40  63  87 122 167 205 248 310 373
#     4  11  23  42  66  95 128 165 206 256 316 375
#     4  11  23  37  60  97 131 166 207 252 304 374
#     4  11  21  37  61  92 131 167 200 245 316 374
#
# _framework density 20.132944999999999
#
# number of rings (size 3 to 8) (size 9 to 14) (size 15 to 20)
#    0.000    1.250    3.750    2.250    0.000    5.500 
#    0.000    6.250    0.000    0.000    0.000    0.000 
#    0.000    0.000    0.000    0.000    0.000    0.000 
#
# Total GULP energy -396646.255469 kJ/mol
# GULP energy per Si atom -12395.195483 kJ/mol
# Density = 2.008712 g / cm^3
# Si number density = 20.132945 Si / 1000 Ang^3
#
#
#
# Elastic Constant Matrix: (Units=GPa)
#
#
# Indices 1 2 3 4 5 6 
#
# 1 148.8583 68.7173 66.3951 0.0000 1.3106 0.0000
# 2 68.7173 123.2818 51.7352 0.0000 -0.1238 0.0000
# 3 66.3951 51.7352 120.2748 0.0000 5.8916 0.0000
# 4 0.0000 0.0000 0.0000 21.5980 0.0000 5.1902
# 5 1.3106 -0.1238 5.8916 0.0000 36.8307 0.0000
# 6 0.0000 0.0000 0.0000 5.1902 0.0000 31.2043
#
#
#
# Elastic Compliance Matrix: (Units=1/GPa)
#
#
# Indices 1 2 3 4 5 6 
#
# 1 0.010393 -0.004124 -0.003975 0.000000 0.000252 0.000000
# 2 -0.004124 0.011554 -0.002724 0.000000 0.000621 0.000000
# 3 -0.003975 -0.002724 0.011766 0.000000 -0.001750 0.000000
# 4 0.000000 0.000000 0.000000 0.048228 0.000000 -0.008022
# 5 0.000252 0.000621 -0.001750 0.000000 0.027424 0.000000
# 6 0.000000 0.000000 0.000000 -0.008022 0.000000 0.033381
#
#
# Mechanical properties :
#
#
# Convention : Reuss Voigt Hill
#
# Bulk Modulus (GPa) = 82.87614 85.12336 83.99975
# Shear Modulus (GPa) = 29.68864 31.63109 30.65986
#
# Velocity S-wave (km/s) = 3.84426 3.96802 3.90663
# Velocity P-wave (km/s) = 7.80757 7.96028 7.88430
#
# Compressibility (1/GPa) = 0.01206620
#
# Stress axis : x y z
#
# Youngs Moduli (GPa) = 96.22225 86.55045 84.99066
#
# Poissons Ratio (x) = 0.35696 0.33786
# Poissons Ratio (y) = 0.39685 0.23147
# Poissons Ratio (z) = 0.38251 0.23572
#
# Static dielectric constant tensor:
#      x y z
#    x 3.924020 0.000000 -0.176070 
#    y 0.000000 4.000700 0.000000 
#    z -0.176070 0.000000 3.657910 
# 
# 
# High freq. dielectric constant tensor:
#      x y z
#    x 1.796480 0.000000 -0.007340 
#    y 0.000000 1.777900 0.000000 
#    z -0.007340 0.000000 1.783080 
# 
# From -- ./inp_files/55539.got.cif
#   From: 2010.06.25/outbox.cif.g09.slc.cpg/sg11_28_cif.got.tgz:55539.got - 2010.06.27 23:14:04.
