data_PCOD8076426
_publ_section_title
;
Structure prediction by ZEFSAII (Michael W. Deem and Ramdas Pophale) SiO2 
 PCOD8076426
Probable space group: P 21/M
;
_chemical_formula_sum "Si O2"
_cell_formula_units_Z 24
_cell_length_a 20.882326
_cell_length_b 12.691716
_cell_length_c 11.819967
_cell_angle_alpha 90.000000
_cell_angle_beta 22.053348
_cell_angle_gamma 90.000000
_cell_volume 1176.225015
_symmetry_space_group_name_H-M "P 21/M"
_symmetry_group_IT_number 11
_symmetry_cell_setting 'monoclinic'
loop_
_space_group_symop_operation_xyz
x,y,z
-x,1/2+y,-z
-x,-y,-z
x,1/2-y,z
loop_
_atom_site_type_symbol
_atom_site_label
_atom_site_fract_x
_atom_site_fract_y
_atom_site_fract_z
Si Si1 0.459128 0.130755 0.756029
Si Si2 0.084096 0.125533 0.742556
Si Si3 0.129631 0.069974 0.418940
Si Si4 0.542942 0.873955 0.495676
Si Si5 0.749913 0.990886 0.329236
Si Si6 0.188597 0.869464 0.193734
O O1 0.525437 0.250000 0.645669
O O2 0.470465 0.080576 0.610448
O O3 0.586072 0.063317 0.627362
O O4 0.267483 0.128227 0.115201
O O5 0.056823 0.250000 0.798731
O O6 0.168745 0.095324 0.484636
O O7 0.214412 0.085867 0.624444
O O8 0.905062 0.067443 0.047131
O O9 0.944511 0.115797 0.690799
O O10 0.138531 0.944374 0.380934
O O11 0.569730 0.750000 0.440537
O O12 0.709480 0.919787 0.285663
O O13 0.374363 0.901149 0.844089
O O14 0.185607 0.750000 0.243362
#
# Coordination Sequence:
#
# PCOD8076426 Si02
#       6
#     4   4   4   4   4   4
#     4  11  22  37  62  94 126 158 202 254 306 360
#     4  11  25  44  63  85 123 166 204 251 308 367
#     4  11  23  39  61  91 128 163 199 247 311 365
#     4  10  21  39  63  92 126 161 200 250 304 358
#     4  11  23  41  64  88 115 161 215 249 297 358
#     4  10  21  38  61  91 126 163 202 248 305 362
#
# _framework density 20.404260000000001
#
# number of rings (size 3 to 8) (size 9 to 14) (size 15 to 20)
#    0.000    1.333    1.667    4.000    4.667    2.000 
#    0.000    4.167    0.000    0.000    0.000    0.000 
#    0.000    0.000    0.000    0.000    0.000    0.000 
#
# Total GULP energy -297722.058357 kJ/mol
# GULP energy per Si atom -12405.085765 kJ/mol
# Density = 2.035782 g / cm^3
# Si number density = 20.404260 Si / 1000 Ang^3
#
#
#
# Elastic Constant Matrix: (Units=GPa)
#
#
# Indices 1 2 3 4 5 6 
#
# 1 125.0420 51.6524 56.8914 0.0000 -7.4857 0.0000
# 2 51.6524 109.9097 47.1946 0.0000 -3.0588 0.0000
# 3 56.8914 47.1946 74.0261 0.0000 -7.1882 0.0000
# 4 0.0000 0.0000 0.0000 32.2030 0.0000 -2.9305
# 5 -7.4857 -3.0588 -7.1882 0.0000 32.1776 0.0000
# 6 0.0000 0.0000 0.0000 -2.9305 0.0000 30.7452
#
#
#
# Elastic Compliance Matrix: (Units=1/GPa)
#
#
# Indices 1 2 3 4 5 6 
#
# 1 0.012789 -0.002482 -0.008157 0.000000 0.000917 0.000000
# 2 -0.002482 0.013021 -0.006470 0.000000 -0.000785 0.000000
# 3 -0.008157 -0.006470 0.024184 0.000000 0.002890 0.000000
# 4 0.000000 0.000000 0.000000 0.031325 0.000000 0.002986
# 5 0.000917 -0.000785 0.002890 0.000000 0.031862 0.000000
# 6 0.000000 0.000000 0.000000 0.002986 0.000000 0.032810
#
#
# Mechanical properties :
#
#
# Convention : Reuss Voigt Hill
#
# Bulk Modulus (GPa) = 63.39318 68.93939 66.16628
# Shear Modulus (GPa) = 26.95895 29.24113 28.10004
#
# Velocity S-wave (km/s) = 3.63883 3.78972 3.71504
# Velocity P-wave (km/s) = 6.98504 7.28076 7.13443
#
# Compressibility (1/GPa) = 0.01577457
#
# Stress axis : x y z
#
# Youngs Moduli (GPa) = 78.19335 76.79753 41.35048
#
# Poissons Ratio (x) = 0.19061 0.33730
# Poissons Ratio (y) = 0.19407 0.26755
# Poissons Ratio (z) = 0.63784 0.49691
#
# Static dielectric constant tensor:
#      x y z
#    x 3.613570 0.000000 -0.099630 
#    y 0.000000 3.974010 0.000000 
#    z -0.099630 0.000000 3.563520 
# 
# 
# High freq. dielectric constant tensor:
#      x y z
#    x 1.780290 0.000000 -0.009360 
#    y 0.000000 1.830510 0.000000 
#    z -0.009360 0.000000 1.794450 
# 
# From -- ./inp_files/43415.got.cif
#   From: 2010.06.25/outbox.cif.g09.slc.cpg/sg11_22_cif.got.tgz:43415.got - 2010.06.27 23:14:04.
