data_PCOD8076270
_publ_section_title
;
Structure prediction by ZEFSAII (Michael W. Deem and Ramdas Pophale) SiO2 
 PCOD8076270
Probable space group: P 21/M
;
_chemical_formula_sum "Si O2"
_cell_formula_units_Z 28
_cell_length_a 26.875983
_cell_length_b 8.795106
_cell_length_c 9.566625
_cell_angle_alpha 90.000000
_cell_angle_beta 39.212822
_cell_angle_gamma 90.000000
_cell_volume 1429.619747
_symmetry_space_group_name_H-M "P 21/M"
_symmetry_group_IT_number 11
_symmetry_cell_setting 'monoclinic'
loop_
_space_group_symop_operation_xyz
x,y,z
-x,1/2+y,-z
-x,-y,-z
x,1/2-y,z
loop_
_atom_site_type_symbol
_atom_site_label
_atom_site_fract_x
_atom_site_fract_y
_atom_site_fract_z
Si Si1 0.318373 0.928241 0.745258
Si Si2 0.475625 0.076388 0.411020
Si Si3 0.745581 0.068472 0.579361
Si Si4 0.083218 0.075361 0.298976
Si Si5 0.431595 0.578064 0.060923
Si Si6 0.804004 0.572473 0.187371
Si Si7 0.225157 0.430608 0.185197
O O1 0.317373 0.750000 0.777540
O O2 0.402972 0.982253 0.506082
O O3 0.260205 0.969470 0.748098
O O4 0.298991 0.016476 0.931157
O O5 0.450498 0.250000 0.491552
O O6 0.500000 0.000000 0.500000
O O7 0.548100 0.066216 0.146817
O O8 0.751304 0.250000 0.560440
O O9 0.656969 0.010566 0.732717
O O10 0.807555 0.990247 0.337632
O O11 0.772052 0.013657 0.673427
O O12 0.070385 0.250000 0.357285
O O13 0.146688 0.014419 0.273554
O O14 0.113656 0.047840 0.073741
O O15 0.000000 0.000000 0.500000
O O16 0.429998 0.750000 0.117383
O O17 0.500000 0.500000 0.000000
O O18 0.780205 0.750000 0.234713
O O19 0.228216 0.250000 0.198407
#
# Coordination Sequence:
#
# PCOD8076270 Si02
#       7
#     4   4   4   4   4   4   4
#     4  11  21  35  55  80 108 143 190 240 282 335
#     4  11  22  36  53  76 106 143 186 237 292 343
#     4  11  22  37  57  85 115 147 191 240 283 335
#     4   9  20  38  62  89 116 144 182 226 274 335
#     4  10  23  38  53  76 108 144 188 235 282 332
#     4  10  21  38  58  83 113 148 185 225 275 336
#     4  10  21  38  59  85 115 151 188 229 283 342
#
# _framework density 19.585628
#
# number of rings (size 3 to 8) (size 9 to 14) (size 15 to 20)
#    0.000    1.714    0.000    5.571    0.000    9.143 
#    0.000    0.714    0.000    0.000    0.000    0.000 
#    0.000    0.000    0.000    0.000    0.000    0.000 
#
# Total GULP energy -347182.462210 kJ/mol
# GULP energy per Si atom -12399.373650 kJ/mol
# Density = 1.954105 g / cm^3
# Si number density = 19.585628 Si / 1000 Ang^3
#
#
#
# Elastic Constant Matrix: (Units=GPa)
#
#
# Indices 1 2 3 4 5 6 
#
# 1 69.5558 31.5554 43.6220 0.0000 7.0743 0.0000
# 2 31.5554 87.4018 42.5517 0.0000 -3.4551 0.0000
# 3 43.6220 42.5517 109.5404 0.0000 2.8000 0.0000
# 4 0.0000 0.0000 0.0000 35.0944 0.0000 1.8096
# 5 7.0743 -3.4551 2.8000 0.0000 35.4652 0.0000
# 6 0.0000 0.0000 0.0000 1.8096 0.0000 37.4167
#
#
#
# Elastic Compliance Matrix: (Units=1/GPa)
#
#
# Indices 1 2 3 4 5 6 
#
# 1 0.020913 -0.004574 -0.006446 0.000000 -0.004108 0.000000
# 2 -0.004574 0.015228 -0.004163 0.000000 0.002725 0.000000
# 3 -0.006446 -0.004163 0.013318 0.000000 -0.000171 0.000000
# 4 0.000000 0.000000 0.000000 0.028566 0.000000 -0.001382
# 5 -0.004108 0.002725 -0.000171 0.000000 0.029295 0.000000
# 6 0.000000 0.000000 0.000000 -0.001382 0.000000 0.026793
#
#
# Mechanical properties :
#
#
# Convention : Reuss Voigt Hill
#
# Bulk Modulus (GPa) = 52.38203 55.77291 54.07747
# Shear Modulus (GPa) = 29.26670 31.51316 30.38993
#
# Velocity S-wave (km/s) = 3.86980 4.01558 3.94337
# Velocity P-wave (km/s) = 6.83889 7.07376 6.95732
#
# Compressibility (1/GPa) = 0.01909052
#
# Stress axis : x y z
#
# Youngs Moduli (GPa) = 47.81782 65.67044 75.08839
#
# Poissons Ratio (x) = 0.30041 0.48402
# Poissons Ratio (y) = 0.21874 0.31261
# Poissons Ratio (z) = 0.30823 0.27340
#
# Static dielectric constant tensor:
#      x y z
#    x 3.726020 0.000000 -0.158840 
#    y 0.000000 3.616140 0.000000 
#    z -0.158840 0.000000 3.979560 
# 
# 
# High freq. dielectric constant tensor:
#      x y z
#    x 1.750130 0.000000 0.013070 
#    y 0.000000 1.770470 0.000000 
#    z 0.013070 0.000000 1.768740 
# 
# From -- ./inp_files/28160.got.cif
#   From: 2010.06.25/outbox.cif.g09.slc.cpg/sg11_15_cif.got.tgz:28160.got - 2010.06.27 23:14:04.
