data_PCOD8076592
_publ_section_title
;
Structure prediction by ZEFSAII (Michael W. Deem and Ramdas Pophale) SiO2 
 PCOD8076592
Probable space group: P 21/M
;
_chemical_formula_sum "Si O2"
_cell_formula_units_Z 24
_cell_length_a 11.991170
_cell_length_b 17.038983
_cell_length_c 7.511704
_cell_angle_alpha 90.000000
_cell_angle_beta 51.076535
_cell_angle_gamma 90.000000
_cell_volume 1194.030514
_symmetry_space_group_name_H-M "P 21/M"
_symmetry_group_IT_number 11
_symmetry_cell_setting 'monoclinic'
loop_
_space_group_symop_operation_xyz
x,y,z
-x,1/2+y,-z
-x,-y,-z
x,1/2-y,z
loop_
_atom_site_type_symbol
_atom_site_label
_atom_site_fract_x
_atom_site_fract_y
_atom_site_fract_z
Si Si1 0.225307 0.591766 0.419737
Si Si2 0.110943 0.160005 0.852252
Si Si3 0.920191 0.659298 0.714842
Si Si4 0.277049 0.087620 0.375947
Si Si5 0.583549 0.340750 0.067365
Si Si6 0.783148 0.340961 0.192693
O O1 0.256254 0.501996 0.342607
O O2 0.329920 0.646349 0.200566
O O3 0.256607 0.608259 0.595137
O O4 0.061342 0.609069 0.531844
O O5 0.151183 0.250000 0.769830
O O6 0.210466 0.103566 0.636503
O O7 0.140597 0.139478 0.028532
O O8 0.945910 0.143035 0.968551
O O9 0.966169 0.750000 0.660463
O O10 0.798140 0.642322 0.694672
O O11 0.444233 0.105624 0.210807
O O12 0.539439 0.250000 0.126509
O O13 0.680920 0.367077 0.135777
O O14 0.764925 0.250000 0.262008
#
# Coordination Sequence:
#
# PCOD8076592 Si02
#       6
#     4   4   4   4   4   4
#     4  11  23  39  60  86 118 154 193 238 288 343
#     4   9  19  37  59  82 110 148 194 239 283 339
#     4  10  21  39  62  85 113 154 200 237 277 341
#     4  12  24  36  57  91 124 148 182 243 305 341
#     4  11  23  39  59  82 114 157 199 236 281 344
#     4   9  20  39  62  83 107 151 203 238 274 339
#
# _framework density 20.099989000000001
#
# number of rings (size 3 to 8) (size 9 to 14) (size 15 to 20)
#    0.000    1.667    0.000    6.000    0.000    7.333 
#    0.000    1.667    0.000    0.000    0.000    0.000 
#    0.000    0.000    0.000    0.000    0.000    0.000 
#
# Total GULP energy -297762.255389 kJ/mol
# GULP energy per Si atom -12406.760641 kJ/mol
# Density = 2.005424 g / cm^3
# Si number density = 20.099989 Si / 1000 Ang^3
#
#
#
# Elastic Constant Matrix: (Units=GPa)
#
#
# Indices 1 2 3 4 5 6 
#
# 1 60.2831 11.3499 60.0996 0.0000 0.1347 0.0000
# 2 11.3499 47.4900 11.9073 0.0000 6.4389 0.0000
# 3 60.0996 11.9073 91.3553 0.0000 4.3374 0.0000
# 4 0.0000 0.0000 0.0000 25.1471 0.0000 -3.0442
# 5 0.1347 6.4389 4.3374 0.0000 20.4025 0.0000
# 6 0.0000 0.0000 0.0000 -3.0442 0.0000 28.2810
#
#
#
# Elastic Compliance Matrix: (Units=1/GPa)
#
#
# Indices 1 2 3 4 5 6 
#
# 1 0.050100 -0.004879 -0.032711 0.000000 0.008163 0.000000
# 2 -0.004879 0.023084 0.000551 0.000000 -0.007370 0.000000
# 3 -0.032711 0.000551 0.032722 0.000000 -0.006914 0.000000
# 4 0.000000 0.000000 0.000000 0.040291 0.000000 0.004337
# 5 0.008163 -0.007370 -0.006914 0.000000 0.052756 0.000000
# 6 0.000000 0.000000 0.000000 0.004337 0.000000 0.035826
#
#
# Mechanical properties :
#
#
# Convention : Reuss Voigt Hill
#
# Bulk Modulus (GPa) = 31.41826 40.64911 36.03369
# Shear Modulus (GPa) = 15.65113 22.48421 19.06767
#
# Velocity S-wave (km/s) = 2.79348 3.34820 3.08334
# Velocity P-wave (km/s) = 5.10584 5.93419 5.53553
#
# Compressibility (1/GPa) = 0.03182862
#
# Stress axis : x y z
#
# Youngs Moduli (GPa) = 19.96022 43.31948 30.56055
#
# Poissons Ratio (x) = 0.21135 0.99965
# Poissons Ratio (y) = 0.09738 -0.01683
# Poissons Ratio (z) = 0.65291 -0.02386
#
# Static dielectric constant tensor:
#      x y z
#    x 3.675540 0.000000 0.073500 
#    y 0.000000 3.503940 0.000000 
#    z 0.073500 0.000000 3.585610 
# 
# 
# High freq. dielectric constant tensor:
#      x y z
#    x 1.787480 0.000000 0.008060 
#    y 0.000000 1.781380 0.000000 
#    z 0.008060 0.000000 1.788320 
# 
# From -- ./inp_files/21982.got.cif
#   From: 2010.06.25/outbox.cif.g09.slc.cpg/sg11_11_cif.got.tgz:21982.got - 2010.06.27 23:14:04.
