data_PCOD8076089
_publ_section_title
;
Structure prediction by ZEFSAII (Michael W. Deem and Ramdas Pophale) SiO2 
 PCOD8076089
Probable space group: P 21/M
;
_chemical_formula_sum "Si O2"
_cell_formula_units_Z 32
_cell_length_a 14.940597
_cell_length_b 8.668356
_cell_length_c 25.253597
_cell_angle_alpha 90.000000
_cell_angle_beta 151.461006
_cell_angle_gamma 90.000000
_cell_volume 1562.553037
_symmetry_space_group_name_H-M "P 21/M"
_symmetry_group_IT_number 11
_symmetry_cell_setting 'monoclinic'
loop_
_space_group_symop_operation_xyz
x,y,z
-x,1/2+y,-z
-x,-y,-z
x,1/2-y,z
loop_
_atom_site_type_symbol
_atom_site_label
_atom_site_fract_x
_atom_site_fract_y
_atom_site_fract_z
Si Si1 0.067164 0.429475 0.255360
Si Si2 0.316178 0.927725 0.299685
Si Si3 0.661374 0.073014 0.424345
Si Si4 0.018137 0.074231 0.680086
Si Si5 0.343250 0.929314 0.789810
Si Si6 0.267726 0.930214 0.996227
Si Si7 0.018411 0.071120 0.952399
Si Si8 0.793755 0.931752 0.388985
O O1 0.078330 0.250000 0.274235
O O2 0.247494 0.476031 0.314641
O O3 0.073799 0.524326 0.312726
O O4 0.877640 0.472423 0.125637
O O5 0.324729 0.750000 0.320854
O O6 0.178125 0.955020 0.178847
O O7 0.520487 0.983950 0.389458
O O8 0.597807 0.250000 0.386925
O O9 0.868132 0.056515 0.555461
O O10 0.661231 0.998841 0.366078
O O11 0.087191 0.250000 0.720106
O O12 0.193609 0.965858 0.757850
O O13 0.335655 0.750000 0.771440
O O14 0.544804 0.974514 0.917861
O O15 0.301017 0.028914 0.715895
O O16 0.313445 0.750000 0.021693
O O17 0.183838 0.980969 0.008865
O O18 0.073207 0.250000 0.984001
O O19 0.000000 0.000000 0.000000
O O20 0.808056 0.750000 0.402948
O O21 0.000000 0.000000 0.500000
#
# Coordination Sequence:
#
# PCOD8076089 Si02
#       8
#     4   4   4   4   4   4   4   4
#     4  10  22  42  67  92 122 161 206 258 313 368
#     4  10  22  40  62  89 123 162 205 254 309 367
#     4  11  24  41  63  92 125 164 209 254 307 368
#     4  11  24  42  65  91 123 162 207 259 310 366
#     4  12  25  41  64  93 125 164 208 254 307 371
#     4  10  22  41  63  89 123 160 203 255 309 367
#     4  10  21  37  58  86 120 159 204 251 305 366
#     4  12  24  41  64  90 126 166 205 254 309 366
#
# _framework density 20.479306000000001
#
# number of rings (size 3 to 8) (size 9 to 14) (size 15 to 20)
#    0.000    1.250    1.250    4.500    1.750    5.500 
#    0.000    0.000    0.000    0.000    0.000    0.000 
#    0.000    0.000    0.000    0.000    0.000    0.000 
#
# Total GULP energy -397059.785347 kJ/mol
# GULP energy per Si atom -12408.118292 kJ/mol
# Density = 2.043269 g / cm^3
# Si number density = 20.479306 Si / 1000 Ang^3
#
#
#
# Elastic Constant Matrix: (Units=GPa)
#
#
# Indices 1 2 3 4 5 6 
#
# 1 103.6252 21.1523 18.0422 0.0000 0.0730 0.0000
# 2 21.1523 84.9833 25.7008 0.0000 0.9645 0.0000
# 3 18.0422 25.7008 32.9842 0.0000 10.7856 0.0000
# 4 0.0000 0.0000 0.0000 32.5338 0.0000 2.1640
# 5 0.0730 0.9645 10.7856 0.0000 38.8599 0.0000
# 6 0.0000 0.0000 0.0000 2.1640 0.0000 42.3043
#
#
#
# Elastic Compliance Matrix: (Units=1/GPa)
#
#
# Indices 1 2 3 4 5 6 
#
# 1 0.010840 -0.001003 -0.005663 0.000000 0.001576 0.000000
# 2 -0.001003 0.015868 -0.012854 0.000000 0.003176 0.000000
# 3 -0.005663 -0.012854 0.047647 0.000000 -0.012895 0.000000
# 4 0.000000 0.000000 0.000000 0.030842 0.000000 -0.001578
# 5 0.001576 0.003176 -0.012895 0.000000 0.029231 0.000000
# 6 0.000000 0.000000 0.000000 -0.001578 0.000000 0.023719
#
#
# Mechanical properties :
#
#
# Convention : Reuss Voigt Hill
#
# Bulk Modulus (GPa) = 28.31667 39.04261 33.67964
# Shear Modulus (GPa) = 23.92821 33.18609 28.55715
#
# Velocity S-wave (km/s) = 3.42191 4.02987 3.73827
# Velocity P-wave (km/s) = 5.42859 6.38428 5.92573
#
# Compressibility (1/GPa) = 0.03531489
#
# Stress axis : x y z
#
# Youngs Moduli (GPa) = 92.25231 63.02021 20.98762
#
# Poissons Ratio (x) = 0.06323 0.11885
# Poissons Ratio (y) = 0.09256 0.26977
# Poissons Ratio (z) = 0.52243 0.81004
#
# Static dielectric constant tensor:
#      x y z
#    x 3.721380 0.000000 0.048730 
#    y 0.000000 3.939230 0.000000 
#    z 0.048730 0.000000 3.636900 
# 
# 
# High freq. dielectric constant tensor:
#      x y z
#    x 1.810350 0.000000 0.002880 
#    y 0.000000 1.816670 0.000000 
#    z 0.002880 0.000000 1.794640 
# 
# From -- ./inp_files/51650.got.cif
#   From: 2010.06.25/outbox.cif.g09.slc.cpg/sg11_26_cif.got.tgz:51650.got - 2010.06.27 23:14:04.
