data_PCOD8076340
_publ_section_title
;
Structure prediction by ZEFSAII (Michael W. Deem and Ramdas Pophale) SiO2 
 PCOD8076340
Probable space group: P 21/M
;
_chemical_formula_sum "Si O2"
_cell_formula_units_Z 24
_cell_length_a 18.407360
_cell_length_b 8.430597
_cell_length_c 5.954333
_cell_angle_alpha 90.000000
_cell_angle_beta 95.613769
_cell_angle_gamma 90.000000
_cell_volume 919.591680
_symmetry_space_group_name_H-M "P 21/M"
_symmetry_group_IT_number 11
_symmetry_cell_setting 'monoclinic'
loop_
_space_group_symop_operation_xyz
x,y,z
-x,1/2+y,-z
-x,-y,-z
x,1/2-y,z
loop_
_atom_site_type_symbol
_atom_site_label
_atom_site_fract_x
_atom_site_fract_y
_atom_site_fract_z
Si Si1 0.685027 0.069969 0.912785
Si Si2 0.017217 0.061588 0.252647
Si Si3 0.169538 0.063389 0.144311
Si Si4 0.136944 0.936888 0.644003
Si Si5 0.426852 0.066820 0.375817
Si Si6 0.284963 0.066337 0.614345
O O1 0.690783 0.250000 0.837855
O O2 0.743726 0.970844 0.772282
O O3 0.599877 0.008743 0.868438
O O4 0.707931 0.049371 0.173541
O O5 0.011380 0.250000 0.250354
O O6 0.950006 0.999963 0.400792
O O7 0.104551 0.005922 0.305013
O O8 0.000000 0.000000 0.000000
O O9 0.159921 0.250000 0.098435
O O10 0.155015 0.968250 0.911036
O O11 0.142874 0.750000 0.595917
O O12 0.199624 0.032558 0.512789
O O13 0.439393 0.250000 0.350519
O O14 0.355112 0.015760 0.491917
O O15 0.500000 0.000000 0.500000
O O16 0.291464 0.250000 0.683951
#
# Coordination Sequence:
#
# PCOD8076340 Si02
#       6
#     4   4   4   4   4   4
#     4  11  22  37  60  88 118 152 189 231 280 335
#     4   8  14  22  37  66 103 143 185 229 273 317
#     4   9  15  26  45  71 107 148 189 231 274 323
#     4   9  15  25  44  73 108 145 187 231 275 325
#     4  11  25  44  65  88 114 145 184 231 283 341
#     4  10  21  38  60  86 116 151 189 230 280 336
#
# _framework density 26.09854
#
# number of rings (size 3 to 8) (size 9 to 14) (size 15 to 20)
#    0.000    2.333    0.000    5.500    0.000    4.667 
#    0.000    0.000    0.000    1.000    0.000    0.000 
#    0.000    0.000    0.000    0.000    0.000    0.000 
#
# Total GULP energy -297399.104286 kJ/mol
# GULP energy per Si atom -12391.629345 kJ/mol
# Density = 2.603914 g / cm^3
# Si number density = 26.098540 Si / 1000 Ang^3
#
#
#
# Elastic Constant Matrix: (Units=GPa)
#
#
# Indices 1 2 3 4 5 6 
#
# 1 193.0520 46.5209 61.6396 0.0000 52.0207 0.0000
# 2 46.5209 124.5638 14.3529 0.0000 3.0043 0.0000
# 3 61.6396 14.3529 68.6792 0.0000 11.2404 0.0000
# 4 0.0000 0.0000 0.0000 29.4627 0.0000 2.4382
# 5 52.0207 3.0043 11.2404 0.0000 40.5600 0.0000
# 6 0.0000 0.0000 0.0000 2.4382 0.0000 47.2919
#
#
#
# Elastic Compliance Matrix: (Units=1/GPa)
#
#
# Indices 1 2 3 4 5 6 
#
# 1 0.011991 -0.003248 -0.007966 0.000000 -0.012930 0.000000
# 2 -0.003248 0.009107 0.000462 0.000000 0.003364 0.000000
# 3 -0.007966 0.000462 0.020895 0.000000 0.004393 0.000000
# 4 0.000000 0.000000 0.000000 0.034087 0.000000 -0.001757
# 5 -0.012930 0.003364 0.004393 0.000000 0.039772 0.000000
# 6 0.000000 0.000000 0.000000 -0.001757 0.000000 0.021236
#
#
# Mechanical properties :
#
#
# Convention : Reuss Voigt Hill
#
# Bulk Modulus (GPa) = 48.81350 70.14686 59.48018
# Shear Modulus (GPa) = 30.22565 41.04835 35.63700
#
# Velocity S-wave (km/s) = 3.40683 3.97018 3.69925
# Velocity P-wave (km/s) = 5.84974 6.92478 6.40984
#
# Compressibility (1/GPa) = 0.02048614
#
# Stress axis : x y z
#
# Youngs Moduli (GPa) = 83.39845 109.80741 47.85840
#
# Poissons Ratio (x) = 0.35669 0.38126
# Poissons Ratio (y) = 0.27091 -0.02210
# Poissons Ratio (z) = 0.66439 -0.05070
#
# Static dielectric constant tensor:
#      x y z
#    x 5.480310 0.000000 -0.009140 
#    y 0.000000 4.210660 0.000000 
#    z -0.009140 0.000000 5.259240 
# 
# 
# High freq. dielectric constant tensor:
#      x y z
#    x 2.103540 0.000000 0.015700 
#    y 0.000000 2.019490 0.000000 
#    z 0.015700 0.000000 2.108510 
# 
# From -- ./inp_files/23772.got.cif
#   From: 2010.06.25/outbox.cif.g09.slc.cpg/sg11_12_cif.got.tgz:23772.got - 2010.06.27 23:14:04.
