data_PCOD8076331
_publ_section_title
;
Structure prediction by ZEFSAII (Michael W. Deem and Ramdas Pophale) SiO2 
 PCOD8076331
Probable space group: P 21/M
;
_chemical_formula_sum "Si O2"
_cell_formula_units_Z 32
_cell_length_a 23.778295
_cell_length_b 8.764505
_cell_length_c 11.042283
_cell_angle_alpha 90.000000
_cell_angle_beta 133.489996
_cell_angle_gamma 90.000000
_cell_volume 1669.556538
_symmetry_space_group_name_H-M "P 21/M"
_symmetry_group_IT_number 11
_symmetry_cell_setting 'monoclinic'
loop_
_space_group_symop_operation_xyz
x,y,z
-x,1/2+y,-z
-x,-y,-z
x,1/2-y,z
loop_
_atom_site_type_symbol
_atom_site_label
_atom_site_fract_x
_atom_site_fract_y
_atom_site_fract_z
Si Si1 0.082831 0.921550 0.109595
Si Si2 0.457604 0.069601 0.055070
Si Si3 0.539774 0.069683 0.678708
Si Si4 0.856574 0.926462 0.022393
Si Si5 0.281240 0.578869 0.059977
Si Si6 0.705350 0.076336 0.193304
Si Si7 0.997875 0.426738 0.368382
Si Si8 0.139380 0.920216 0.457615
O O1 0.069851 0.750000 0.039063
O O2 0.130992 0.914144 0.302739
O O3 0.138330 0.022957 0.108534
O O4 0.000000 0.000000 0.000000
O O5 0.472370 0.250000 0.080710
O O6 0.486322 0.000857 0.228658
O O7 0.500000 0.000000 0.000000
O O8 0.366899 0.036235 0.900483
O O9 0.523380 0.250000 0.660986
O O10 0.629721 0.032589 0.792417
O O11 0.500000 0.000000 0.500000
O O12 0.874918 0.750000 0.064382
O O13 0.770787 0.961489 0.942596
O O14 0.922079 0.018752 0.188110
O O15 0.266608 0.750000 0.087080
O O16 0.257708 0.566821 0.885158
O O17 0.677236 0.250000 0.178088
O O18 0.773597 0.022915 0.384404
O O19 0.991603 0.250000 0.376668
O O20 0.000000 0.500000 0.500000
O O21 0.076168 0.464547 0.414095
O O22 0.127112 0.750000 0.494911
#
# Coordination Sequence:
#
# PCOD8076331 Si02
#       8
#     4   4   4   4   4   4   4   4
#     4  11  22  38  59  81 112 156 198 241 293 349
#     4  11  22  39  64  93 126 165 205 250 301 362
#     4  10  21  40  66  95 127 163 202 248 302 365
#     4  12  24  38  57  82 114 152 198 243 288 343
#     4   9  19  37  61  87 118 154 192 238 296 350
#     4   9  19  38  62  88 118 152 190 242 299 354
#     4  12  24  37  57  82 112 146 187 239 289 344
#     4  10  21  38  60  84 113 149 193 239 291 351
#
# _framework density 19.166765000000002
#
# number of rings (size 3 to 8) (size 9 to 14) (size 15 to 20)
#    0.000    1.500    1.250    5.625    0.000    4.500 
#    2.250    0.000    0.000    0.000    0.000    0.000 
#    0.000    0.000    0.000    0.000    0.000    0.000 
#
# Total GULP energy -396758.407442 kJ/mol
# GULP energy per Si atom -12398.700233 kJ/mol
# Density = 1.912314 g / cm^3
# Si number density = 19.166765 Si / 1000 Ang^3
#
#
#
# Elastic Constant Matrix: (Units=GPa)
#
#
# Indices 1 2 3 4 5 6 
#
# 1 111.1945 55.0106 43.5328 0.0000 -9.6104 0.0000
# 2 55.0106 136.0329 42.3882 0.0000 -5.6871 0.0000
# 3 43.5328 42.3882 123.2000 0.0000 -6.7803 0.0000
# 4 0.0000 0.0000 0.0000 29.5993 0.0000 -0.6791
# 5 -9.6104 -5.6871 -6.7803 0.0000 24.4749 0.0000
# 6 0.0000 0.0000 0.0000 -0.6791 0.0000 36.0199
#
#
#
# Elastic Compliance Matrix: (Units=1/GPa)
#
#
# Indices 1 2 3 4 5 6 
#
# 1 0.012336 -0.003980 -0.002817 0.000000 0.003139 0.000000
# 2 -0.003980 0.009550 -0.001872 0.000000 0.000138 0.000000
# 3 -0.002817 -0.001872 0.009821 0.000000 0.001180 0.000000
# 4 0.000000 0.000000 0.000000 0.033799 0.000000 0.000637
# 5 0.003139 0.000138 0.001180 0.000000 0.042449 0.000000
# 6 0.000000 0.000000 0.000000 0.000637 0.000000 0.027774
#
#
# Mechanical properties :
#
#
# Convention : Reuss Voigt Hill
#
# Bulk Modulus (GPa) = 69.58947 72.47673 71.03310
# Shear Modulus (GPa) = 31.67422 33.31855 32.49638
#
# Velocity S-wave (km/s) = 4.06958 4.17388 4.12206
# Velocity P-wave (km/s) = 7.64645 7.81819 7.73280
#
# Compressibility (1/GPa) = 0.01436999
#
# Stress axis : x y z
#
# Youngs Moduli (GPa) = 81.06196 104.71723 101.82025
#
# Poissons Ratio (x) = 0.41674 0.28683
# Poissons Ratio (y) = 0.32260 0.19059
# Poissons Ratio (z) = 0.22835 0.19601
#
# Static dielectric constant tensor:
#      x y z
#    x 3.499800 0.000000 -0.127650 
#    y 0.000000 3.606190 0.000000 
#    z -0.127650 0.000000 3.818540 
# 
# 
# High freq. dielectric constant tensor:
#      x y z
#    x 1.742180 0.000000 -0.006900 
#    y 0.000000 1.753090 0.000000 
#    z -0.006900 0.000000 1.750270 
# 
# From -- ./inp_files/43803.got.cif
#   From: 2010.06.25/outbox.cif.g09.slc.cpg/sg11_22_cif.got.tgz:43803.got - 2010.06.27 23:14:04.
