data_PCOD8076761
_publ_section_title
;
Structure prediction by ZEFSAII (Michael W. Deem and Ramdas Pophale) SiO2 
 PCOD8076761
Probable space group: P 21/M
;
_chemical_formula_sum "Si O2"
_cell_formula_units_Z 20
_cell_length_a 11.068250
_cell_length_b 14.125614
_cell_length_c 7.854658
_cell_angle_alpha 90.000000
_cell_angle_beta 138.359792
_cell_angle_gamma 90.000000
_cell_volume 815.974186
_symmetry_space_group_name_H-M "P 21/M"
_symmetry_group_IT_number 11
_symmetry_cell_setting 'monoclinic'
loop_
_space_group_symop_operation_xyz
x,y,z
-x,1/2+y,-z
-x,-y,-z
x,1/2-y,z
loop_
_atom_site_type_symbol
_atom_site_label
_atom_site_fract_x
_atom_site_fract_y
_atom_site_fract_z
Si Si1 0.329469 0.642344 0.996239
Si Si2 0.165202 0.947852 0.493593
Si Si3 0.781098 0.644397 0.013652
Si Si4 0.728621 0.853868 0.330402
Si Si5 0.791103 0.473897 0.817967
O O1 0.268894 0.750000 0.904703
O O2 0.276861 0.583748 0.774041
O O3 0.546183 0.632637 0.248904
O O4 0.231151 0.605460 0.062385
O O5 0.285097 0.936725 0.444529
O O6 0.980491 0.890108 0.283154
O O7 0.128610 0.062063 0.476190
O O8 0.790128 0.750000 0.943540
O O9 0.665163 0.643525 0.065043
O O10 0.697491 0.571923 0.786114
O O11 0.817338 0.750000 0.462034
O O12 0.000000 0.500000 0.000000
#
# Coordination Sequence:
#
# PCOD8076761 Si02
#       5
#     4   4   4   4   4
#     4  11  24  43  64  93 132 169 207 265 319 370
#     4  11  22  41  68  93 123 170 218 253 315 376
#     4  10  21  40  63  93 127 165 215 263 313 376
#     4  10  22  40  65  94 129 169 212 260 318 375
#     4  10  24  39  64  94 125 163 210 261 314 374
#
# _framework density 24.510579
#
# number of rings (size 3 to 8) (size 9 to 14) (size 15 to 20)
#    0.000    1.600    2.000    1.800    2.800    5.600 
#    0.000    0.000    0.000    0.000    0.000    0.000 
#    0.000    0.000    0.000    0.000    0.000    0.000 
#
# Total GULP energy -247817.850514 kJ/mol
# GULP energy per Si atom -12390.892526 kJ/mol
# Density = 2.445479 g / cm^3
# Si number density = 24.510579 Si / 1000 Ang^3
#
#
#
# Elastic Constant Matrix: (Units=GPa)
#
#
# Indices 1 2 3 4 5 6 
#
# 1 114.7248 40.8990 18.1437 0.0000 -33.3179 0.0000
# 2 40.8990 168.2422 15.4146 0.0000 -21.0628 0.0000
# 3 18.1437 15.4146 34.2297 0.0000 -37.7923 0.0000
# 4 0.0000 0.0000 0.0000 11.1483 0.0000 -0.3311
# 5 -33.3179 -21.0628 -37.7923 0.0000 43.3907 0.0000
# 6 0.0000 0.0000 0.0000 -0.3311 0.0000 34.9719
#
#
#
# Elastic Compliance Matrix: (Units=1/GPa)
#
#
# Indices 1 2 3 4 5 6 
#
# 1 -1.096441 0.003320 -9.071447 0.000000 -8.741333 0.000000
# 2 0.003320 0.006592 0.042197 0.000000 0.042501 0.000000
# 3 -9.071447 0.042197-74.258713 0.000000-71.622827 0.000000
# 4 0.000000 0.000000 0.000000 0.089725 0.000000 0.000849
# 5 -8.741333 0.042501-71.622827 0.000000-69.050353 0.000000
# 6 0.000000 0.000000 0.000000 0.000849 0.000000 0.028602
#
#
# Mechanical properties :
#
#
# Convention : Reuss Voigt Hill
#
# Bulk Modulus (GPa) = -0.01071 51.79015 25.88972
# Shear Modulus (GPa) = -0.03177 34.08480 17.02651
#
# Velocity S-wave (km/s) = -0.11398 3.73314 2.63850
# Velocity P-wave (km/s) = 0.14731 6.30535 4.45734
#
# Compressibility (1/GPa) = -93.40042234
#
# Stress axis : x y z
#
# Youngs Moduli (GPa) = -0.91204 151.70931 -0.01347
#
# Poissons Ratio (x) = -0.50364 -0.12216
# Poissons Ratio (y) = 0.00303 0.00057
# Poissons Ratio (z) = -8.27354 -6.40163
#
# Static dielectric constant tensor:
#      x y z
#    x 4.990680 0.000000 -0.694050 
#    y 0.000000 4.752560 0.000000 
#    z -0.694050 0.000000 4.193840 
# 
# 
# High freq. dielectric constant tensor:
#      x y z
#    x 1.990050 0.000000 -0.025130 
#    y 0.000000 1.984520 0.000000 
#    z -0.025130 0.000000 1.936960 
# 
# From -- ./inp_files/12236.got.cif
#   From: 2010.06.25/outbox.cif.g09.slc.cpg/sg11_7_cif.got.tgz:12236.got - 2010.06.27 23:14:04.
