data_PCOD8076649
_publ_section_title
;
Structure prediction by ZEFSAII (Michael W. Deem and Ramdas Pophale) SiO2 
 PCOD8076649
Probable space group: P 21/M
;
_chemical_formula_sum "Si O2"
_cell_formula_units_Z 28
_cell_length_a 27.057501
_cell_length_b 8.872449
_cell_length_c 9.348603
_cell_angle_alpha 90.000000
_cell_angle_beta 38.470266
_cell_angle_gamma 90.000000
_cell_volume 1396.188276
_symmetry_space_group_name_H-M "P 21/M"
_symmetry_group_IT_number 11
_symmetry_cell_setting 'monoclinic'
loop_
_space_group_symop_operation_xyz
x,y,z
-x,1/2+y,-z
-x,-y,-z
x,1/2-y,z
loop_
_atom_site_type_symbol
_atom_site_label
_atom_site_fract_x
_atom_site_fract_y
_atom_site_fract_z
Si Si1 0.134752 0.072397 0.540294
Si Si2 0.157615 0.926143 0.796108
Si Si3 0.012626 0.927732 0.316500
Si Si4 0.556353 0.923661 0.260046
Si Si5 0.695330 0.426316 0.348413
Si Si6 0.527535 0.571902 0.793702
Si Si7 0.268643 0.076885 0.020374
O O1 0.137925 0.250000 0.553219
O O2 0.054627 0.019456 0.643264
O O3 0.141417 0.003721 0.682247
O O4 0.206751 0.015982 0.277456
O O5 0.145937 0.750000 0.797869
O O6 0.246171 0.963866 0.651877
O O7 0.095575 0.981197 0.058258
O O8 0.009350 0.750000 0.347266
O O9 0.000000 0.000000 0.500000
O O10 0.532081 0.750000 0.293471
O O11 0.646089 0.940856 0.102785
O O12 0.500000 0.000000 0.500000
O O13 0.543155 0.018316 0.147720
O O14 0.676021 0.250000 0.385312
O O15 0.613868 0.516752 0.548970
O O16 0.738614 0.475811 0.104483
O O17 0.530291 0.750000 0.796961
O O18 0.500000 0.500000 0.000000
O O19 0.250864 0.250000 0.018790
#
# Coordination Sequence:
#
# PCOD8076649 Si02
#       7
#     4   4   4   4   4   4   4
#     4  10  22  39  61  91 122 158 202 246 296 358
#     4  10  23  40  59  89 125 159 198 248 301 356
#     4  10  21  39  63  91 124 158 199 245 294 356
#     4  11  22  39  62  90 122 159 204 252 303 359
#     4  11  23  40  61  88 120 158 205 250 302 364
#     4  12  26  43  63  88 121 160 204 254 309 364
#     4  10  22  39  60  88 120 156 202 250 299 359
#
# _framework density 20.054603
#
# number of rings (size 3 to 8) (size 9 to 14) (size 15 to 20)
#    0.000    1.429    1.429    3.429    2.000    3.429 
#    0.000    0.000    0.000    0.000    0.000    0.000 
#    0.000    0.000    0.000    0.000    0.000    0.000 
#
# Total GULP energy -347236.491456 kJ/mol
# GULP energy per Si atom -12401.303266 kJ/mol
# Density = 2.000896 g / cm^3
# Si number density = 20.054603 Si / 1000 Ang^3
#
#
#
# Elastic Constant Matrix: (Units=GPa)
#
#
# Indices 1 2 3 4 5 6 
#
# 1 119.2790 53.4113 33.2494 0.0000 20.9475 0.0000
# 2 53.4113 99.7935 38.0728 0.0000 7.0419 0.0000
# 3 33.2494 38.0728 96.5350 0.0000 14.5681 0.0000
# 4 0.0000 0.0000 0.0000 34.7577 0.0000 9.8255
# 5 20.9475 7.0419 14.5681 0.0000 41.8013 0.0000
# 6 0.0000 0.0000 0.0000 9.8255 0.0000 35.6331
#
#
#
# Elastic Compliance Matrix: (Units=1/GPa)
#
#
# Indices 1 2 3 4 5 6 
#
# 1 0.012085 -0.005673 -0.001219 0.000000 -0.004675 0.000000
# 2 -0.005673 0.014464 -0.004024 0.000000 0.001808 0.000000
# 3 -0.001219 -0.004024 0.012847 0.000000 -0.003188 0.000000
# 4 0.000000 0.000000 0.000000 0.031203 0.000000 -0.008604
# 5 -0.004675 0.001808 -0.003188 0.000000 0.027072 0.000000
# 6 0.000000 0.000000 0.000000 -0.008604 0.000000 0.030436
#
#
# Mechanical properties :
#
#
# Convention : Reuss Voigt Hill
#
# Bulk Modulus (GPa) = 56.93376 62.78605 59.85991
# Shear Modulus (GPa) = 32.09354 35.16333 33.62844
#
# Velocity S-wave (km/s) = 4.00472 4.19188 4.09937
# Velocity P-wave (km/s) = 7.05937 7.40302 7.23324
#
# Compressibility (1/GPa) = 0.01756427
#
# Stress axis : x y z
#
# Youngs Moduli (GPa) = 82.74746 69.13516 77.83901
#
# Poissons Ratio (x) = 0.39220 0.09492
# Poissons Ratio (y) = 0.46942 0.31320
# Poissons Ratio (z) = 0.10091 0.27818
#
# Static dielectric constant tensor:
#      x y z
#    x 3.739150 0.000000 0.004630 
#    y 0.000000 3.643870 0.000000 
#    z 0.004630 0.000000 3.828170 
# 
# 
# High freq. dielectric constant tensor:
#      x y z
#    x 1.800090 0.000000 -0.000160 
#    y 0.000000 1.780170 0.000000 
#    z -0.000160 0.000000 1.794940 
# 
# From -- ./inp_files/28364.got.cif
#   From: 2010.06.25/outbox.cif.g09.slc.cpg/sg11_15_cif.got.tgz:28364.got - 2010.06.27 23:14:04.
