data_PCOD8076945
_publ_section_title
;
Structure prediction by ZEFSAII (Michael W. Deem and Ramdas Pophale) SiO2 
 PCOD8076945
Probable space group: P 21/M
;
_chemical_formula_sum "Si O2"
_cell_formula_units_Z 20
_cell_length_a 23.930825
_cell_length_b 8.800224
_cell_length_c 7.777510
_cell_angle_alpha 90.000000
_cell_angle_beta 143.167290
_cell_angle_gamma 90.000000
_cell_volume 981.899718
_symmetry_space_group_name_H-M "P 21/M"
_symmetry_group_IT_number 11
_symmetry_cell_setting 'monoclinic'
loop_
_space_group_symop_operation_xyz
x,y,z
-x,1/2+y,-z
-x,-y,-z
x,1/2-y,z
loop_
_atom_site_type_symbol
_atom_site_label
_atom_site_fract_x
_atom_site_fract_y
_atom_site_fract_z
Si Si1 0.404899 0.924151 0.710023
Si Si2 0.219561 0.429268 0.733804
Si Si3 0.100611 0.430060 0.772203
Si Si4 0.402951 0.573395 0.308062
Si Si5 0.791971 0.430780 0.645832
O O1 0.419838 0.750000 0.789195
O O2 0.382406 0.953108 0.456550
O O3 0.315200 0.985878 0.592255
O O4 0.500000 0.000000 0.000000
O O5 0.219352 0.250000 0.706920
O O6 0.162166 0.479081 0.760028
O O7 0.173260 0.508070 0.452924
O O8 0.324746 0.488417 0.006653
O O9 0.094114 0.250000 0.772704
O O10 0.000000 0.500000 0.500000
O O11 0.143777 0.497438 0.050744
O O12 0.500000 0.500000 0.500000
O O13 0.403113 0.750000 0.257650
O O14 0.801036 0.250000 0.678794
#
# Coordination Sequence:
#
# PCOD8076945 Si02
#       5
#     4   4   4   4   4
#     4  10  22  37  57  87 125 167 212 260 312 372
#     4  11  24  42  65  96 130 169 214 265 324 385
#     4  11  25  45  70  97 129 169 216 271 327 387
#     4  11  22  38  59  89 128 171 217 265 317 379
#     4  11  23  42  67  95 129 171 216 266 323 385
#
# _framework density 20.368679
#
# number of rings (size 3 to 8) (size 9 to 14) (size 15 to 20)
#    0.000    1.200    2.000    3.600    0.000    9.600 
#    0.000    0.000    0.000    0.000    0.000    0.000 
#    0.000    0.000    0.000    0.000    0.000    0.000 
#
# Total GULP energy -248089.461336 kJ/mol
# GULP energy per Si atom -12404.473067 kJ/mol
# Density = 2.032232 g / cm^3
# Si number density = 20.368679 Si / 1000 Ang^3
#
#
#
# Elastic Constant Matrix: (Units=GPa)
#
#
# Indices 1 2 3 4 5 6 
#
# 1 93.5613 43.4444 65.4781 0.0000 -3.5751 0.0000
# 2 43.4444 81.4732 55.2824 0.0000 -2.2222 0.0000
# 3 65.4781 55.2824 160.5135 0.0000 -6.1094 0.0000
# 4 0.0000 0.0000 0.0000 43.9276 0.0000 -2.8927
# 5 -3.5751 -2.2222 -6.1094 0.0000 29.7499 0.0000
# 6 0.0000 0.0000 0.0000 -2.8927 0.0000 33.6849
#
#
#
# Elastic Compliance Matrix: (Units=1/GPa)
#
#
# Indices 1 2 3 4 5 6 
#
# 1 0.016716 -0.005593 -0.004870 0.000000 0.000591 0.000000
# 2 -0.005593 0.017888 -0.003885 0.000000 -0.000134 0.000000
# 3 -0.004870 -0.003885 0.009596 0.000000 0.001095 0.000000
# 4 0.000000 0.000000 0.000000 0.022894 0.000000 0.001966
# 5 0.000591 -0.000134 0.001095 0.000000 0.033899 0.000000
# 6 0.000000 0.000000 0.000000 0.001966 0.000000 0.029856
#
#
# Mechanical properties :
#
#
# Convention : Reuss Voigt Hill
#
# Bulk Modulus (GPa) = 64.49318 73.77308 69.13313
# Shear Modulus (GPa) = 30.35558 32.89535 31.62546
#
# Velocity S-wave (km/s) = 3.86464 4.02306 3.94464
# Velocity P-wave (km/s) = 7.18648 7.60773 7.40010
#
# Compressibility (1/GPa) = 0.01550552
#
# Stress axis : x y z
#
# Youngs Moduli (GPa) = 59.82217 55.90193 104.20685
#
# Poissons Ratio (x) = 0.31265 0.50752
# Poissons Ratio (y) = 0.33458 0.40480
# Poissons Ratio (z) = 0.29135 0.21715
#
# Static dielectric constant tensor:
#      x y z
#    x 4.043910 0.000000 -0.093660 
#    y 0.000000 1.415550 0.000000 
#    z -0.093660 0.000000 3.630130 
# 
# 
# High freq. dielectric constant tensor:
#      x y z
#    x 1.808630 0.000000 -0.008870 
#    y 0.000000 1.803560 0.000000 
#    z -0.008870 0.000000 1.804430 
# 
# From -- ./inp_files/28204.got.cif
#   From: 2010.06.25/outbox.cif.g09.slc.cpg/sg11_15_cif.got.tgz:28204.got - 2010.06.27 23:14:04.
