data_PCOD8076380
_publ_section_title
;
Structure prediction by ZEFSAII (Michael W. Deem and Ramdas Pophale) SiO2 
 PCOD8076380
Probable space group: P 21/M
;
_chemical_formula_sum "Si O2"
_cell_formula_units_Z 32
_cell_length_a 25.421038
_cell_length_b 8.660986
_cell_length_c 14.679735
_cell_angle_alpha 90.000000
_cell_angle_beta 30.657593
_cell_angle_gamma 90.000000
_cell_volume 1648.045758
_symmetry_space_group_name_H-M "P 21/M"
_symmetry_group_IT_number 11
_symmetry_cell_setting 'monoclinic'
loop_
_space_group_symop_operation_xyz
x,y,z
-x,1/2+y,-z
-x,-y,-z
x,1/2-y,z
loop_
_atom_site_type_symbol
_atom_site_label
_atom_site_fract_x
_atom_site_fract_y
_atom_site_fract_z
Si Si1 0.611747 0.931048 0.843705
Si Si2 0.758021 0.428637 0.485683
Si Si3 0.712780 0.070648 0.347617
Si Si4 0.496723 0.068412 0.404328
Si Si5 0.158755 0.067547 0.001894
Si Si6 0.930157 0.069574 0.365749
Si Si7 0.765209 0.433210 0.754058
Si Si8 0.703283 0.931028 0.031236
O O1 0.606881 0.750000 0.869734
O O2 0.672888 0.964785 0.659754
O O3 0.663115 0.013874 0.853549
O O4 0.500000 0.000000 0.000000
O O5 0.730355 0.250000 0.547231
O O6 0.759578 0.465120 0.376860
O O7 0.870066 0.468388 0.361302
O O8 0.687644 0.250000 0.371513
O O9 0.607754 0.976935 0.490966
O O10 0.799863 0.017799 0.148286
O O11 0.502081 0.250000 0.406051
O O12 0.500000 0.000000 0.500000
O O13 0.591897 0.010599 0.201927
O O14 0.157065 0.250000 0.986091
O O15 0.232082 0.024377 0.976208
O O16 0.044763 0.998523 0.191502
O O17 0.942362 0.250000 0.361668
O O18 0.865213 0.005584 0.548918
O O19 0.764679 0.250000 0.763708
O O20 0.767899 0.508501 0.849273
O O21 0.686078 0.750000 0.048344
#
# Coordination Sequence:
#
# PCOD8076380 Si02
#       8
#     4   4   4   4   4   4   4   4
#     4  11  22  37  58  84 116 151 194 242 294 354
#     4   9  20  39  60  84 118 155 194 240 293 346
#     4  11  23  38  59  88 121 156 198 244 293 352
#     4  12  24  40  61  84 117 157 197 245 299 353
#     4  10  21  38  61  86 117 157 200 245 295 348
#     4   8  17  38  63  85 115 156 197 243 295 346
#     4  10  21  39  61  85 117 156 198 243 295 349
#     4  11  23  38  58  88 122 157 199 244 294 351
#
# _framework density 19.416937000000001
#
# number of rings (size 3 to 8) (size 9 to 14) (size 15 to 20)
#    0.000    1.750    1.250    4.125    1.750    2.500 
#    0.000    3.125    0.000    0.000    0.000    0.000 
#    0.000    0.000    0.000    0.000    0.000    0.000 
#
# Total GULP energy -396894.456334 kJ/mol
# GULP energy per Si atom -12402.951760 kJ/mol
# Density = 1.937274 g / cm^3
# Si number density = 19.416937 Si / 1000 Ang^3
#
#
#
# Elastic Constant Matrix: (Units=GPa)
#
#
# Indices 1 2 3 4 5 6 
#
# 1 79.9654 38.0568 51.4641 0.0000 22.7306 0.0000
# 2 38.0568 77.2210 41.0525 0.0000 4.2943 0.0000
# 3 51.4641 41.0525 130.1030 0.0000 -4.8986 0.0000
# 4 0.0000 0.0000 0.0000 30.7367 0.0000 5.8050
# 5 22.7306 4.2943 -4.8986 0.0000 34.6301 0.0000
# 6 0.0000 0.0000 0.0000 5.8050 0.0000 27.3497
#
#
#
# Elastic Compliance Matrix: (Units=1/GPa)
#
#
# Indices 1 2 3 4 5 6 
#
# 1 0.027008 -0.007527 -0.008988 0.000000 -0.018065 0.000000
# 2 -0.007527 0.017901 -0.002582 0.000000 0.002356 0.000000
# 3 -0.008988 -0.002582 0.012357 0.000000 0.007968 0.000000
# 4 0.000000 0.000000 0.000000 0.033893 0.000000 -0.007194
# 5 -0.018065 0.002356 0.007968 0.000000 0.041569 0.000000
# 6 0.000000 0.000000 0.000000 -0.007194 0.000000 0.038090
#
#
# Mechanical properties :
#
#
# Convention : Reuss Voigt Hill
#
# Bulk Modulus (GPa) = 52.43915 60.93735 56.68825
# Shear Modulus (GPa) = 23.21583 28.99104 26.10343
#
# Velocity S-wave (km/s) = 3.46157 3.86823 3.67053
# Velocity P-wave (km/s) = 6.56065 7.16957 6.87186
#
# Compressibility (1/GPa) = 0.01906972
#
# Stress axis : x y z
#
# Youngs Moduli (GPa) = 37.02672 55.86190 80.92886
#
# Poissons Ratio (x) = 0.42048 0.72741
# Poissons Ratio (y) = 0.27870 0.20899
# Poissons Ratio (z) = 0.33281 0.14426
#
# Static dielectric constant tensor:
#      x y z
#    x 3.651750 0.000000 -0.034080 
#    y 0.000000 3.684140 0.000000 
#    z -0.034080 0.000000 3.827920 
# 
# 
# High freq. dielectric constant tensor:
#      x y z
#    x 1.761180 0.000000 0.001110 
#    y 0.000000 1.751470 0.000000 
#    z 0.001110 0.000000 1.762730 
# 
# From -- ./inp_files/55575.got.cif
#   From: 2010.06.25/outbox.cif.g09.slc.cpg/sg11_28_cif.got.tgz:55575.got - 2010.06.27 23:14:04.
