data_PCOD8076662
_publ_section_title
;
Structure prediction by ZEFSAII (Michael W. Deem and Ramdas Pophale) SiO2 
 PCOD8076662
Probable space group: P 21/M
;
_chemical_formula_sum "Si O2"
_cell_formula_units_Z 32
_cell_length_a 22.511816
_cell_length_b 8.802042
_cell_length_c 15.081449
_cell_angle_alpha 90.000000
_cell_angle_beta 148.692741
_cell_angle_gamma 90.000000
_cell_volume 1552.848362
_symmetry_space_group_name_H-M "P 21/M"
_symmetry_group_IT_number 11
_symmetry_cell_setting 'monoclinic'
loop_
_space_group_symop_operation_xyz
x,y,z
-x,1/2+y,-z
-x,-y,-z
x,1/2-y,z
loop_
_atom_site_type_symbol
_atom_site_label
_atom_site_fract_x
_atom_site_fract_y
_atom_site_fract_z
Si Si1 0.625114 0.930450 0.661645
Si Si2 0.246211 0.929927 0.007970
Si Si3 0.228387 0.570610 0.643951
Si Si4 0.588940 0.424854 0.262925
Si Si5 0.046384 0.427222 0.147441
Si Si6 0.305356 0.424407 0.442464
Si Si7 0.669164 0.926433 0.059152
Si Si8 0.986134 0.928832 0.251307
O O1 0.618154 0.750000 0.664388
O O2 0.687002 0.979931 0.649228
O O3 0.500000 0.000000 0.500000
O O4 0.699241 0.998685 0.834988
O O5 0.247895 0.750000 0.018673
O O6 0.318736 0.980422 0.015744
O O7 0.117026 0.989004 0.829451
O O8 0.242860 0.750000 0.676391
O O9 0.323742 0.504016 0.697653
O O10 0.103494 0.527157 0.449390
O O11 0.242353 0.487730 0.755477
O O12 0.619905 0.250000 0.310551
O O13 0.603709 0.491829 0.379820
O O14 0.458897 0.452852 0.066881
O O15 0.015573 0.250000 0.111497
O O16 0.181107 0.456112 0.323816
O O17 0.986581 0.512998 0.151566
O O18 0.000000 0.500000 0.000000
O O19 0.339363 0.250000 0.489290
O O20 0.693474 0.750000 0.071128
O O21 0.964775 0.750000 0.223969
#
# Coordination Sequence:
#
# PCOD8076662 Si02
#       8
#     4   4   4   4   4   4   4   4
#     4  11  23  41  63  92 129 170 216 264 315 373
#     4  12  26  44  65  91 126 169 217 266 318 381
#     4  10  22  41  65  94 127 164 206 259 322 382
#     4  10  21  39  63  94 128 163 206 257 314 376
#     4  11  22  37  59  89 122 161 208 255 309 371
#     4  10  22  37  58  88 122 160 202 250 306 368
#     4  11  24  41  65  94 125 164 211 264 320 382
#     4  11  23  42  66  91 126 166 208 264 320 378
#
# _framework density 20.607292000000001
#
# number of rings (size 3 to 8) (size 9 to 14) (size 15 to 20)
#    0.000    1.250    1.250    4.500    0.000    7.500 
#    0.000    0.000    0.000    0.000    0.000    0.000 
#    0.000    0.000    0.000    0.000    0.000    0.000 
#
# Total GULP energy -396977.674596 kJ/mol
# GULP energy per Si atom -12405.552331 kJ/mol
# Density = 2.056039 g / cm^3
# Si number density = 20.607292 Si / 1000 Ang^3
#
#
#
# Elastic Constant Matrix: (Units=GPa)
#
#
# Indices 1 2 3 4 5 6 
#
# 1 88.0700 31.2210 28.1675 0.0000 -1.9812 0.0000
# 2 31.2210 84.2667 43.0229 0.0000 1.4015 0.0000
# 3 28.1675 43.0229 108.1636 0.0000 -10.0718 0.0000
# 4 0.0000 0.0000 0.0000 35.2221 0.0000 -3.5801
# 5 -1.9812 1.4015 -10.0718 0.0000 38.0480 0.0000
# 6 0.0000 0.0000 0.0000 -3.5801 0.0000 36.2779
#
#
#
# Elastic Compliance Matrix: (Units=1/GPa)
#
#
# Indices 1 2 3 4 5 6 
#
# 1 0.013379 -0.004017 -0.001854 0.000000 0.000354 0.000000
# 2 -0.004017 0.016274 -0.005641 0.000000 -0.002302 0.000000
# 3 -0.001854 -0.005641 0.012285 0.000000 0.003363 0.000000
# 4 0.000000 0.000000 0.000000 0.028679 0.000000 0.002830
# 5 0.000354 -0.002302 0.003363 0.000000 0.027276 0.000000
# 6 0.000000 0.000000 0.000000 0.002830 0.000000 0.027844
#
#
# Mechanical properties :
#
#
# Convention : Reuss Voigt Hill
#
# Bulk Modulus (GPa) = 52.86813 53.92478 53.39646
# Shear Modulus (GPa) = 32.24443 33.78219 33.01331
#
# Velocity S-wave (km/s) = 3.95993 4.05326 4.00687
# Velocity P-wave (km/s) = 6.82780 6.93757 6.88290
#
# Compressibility (1/GPa) = 0.01891499
#
# Stress axis : x y z
#
# Youngs Moduli (GPa) = 74.74241 61.44862 81.39986
#
# Poissons Ratio (x) = 0.24681 0.15088
# Poissons Ratio (y) = 0.30021 0.45921
# Poissons Ratio (z) = 0.13854 0.34665
#
# Static dielectric constant tensor:
#      x y z
#    x 3.893780 0.000000 0.029560 
#    y 0.000000 3.733650 0.000000 
#    z 0.029560 0.000000 3.654060 
# 
# 
# High freq. dielectric constant tensor:
#      x y z
#    x 1.814340 0.000000 0.000900 
#    y 0.000000 1.808330 0.000000 
#    z 0.000900 0.000000 1.816120 
# 
# From -- ./inp_files/55675.got.cif
#   From: 2010.06.25/outbox.cif.g09.slc.cpg/sg11_28_cif.got.tgz:55675.got - 2010.06.27 23:14:04.
