data_PCOD8076894
_publ_section_title
;
Structure prediction by ZEFSAII (Michael W. Deem and Ramdas Pophale) SiO2 
 PCOD8076894
Probable space group: P 21/M
;
_chemical_formula_sum "Si O2"
_cell_formula_units_Z 24
_cell_length_a 24.023578
_cell_length_b 10.620385
_cell_length_c 8.874823
_cell_angle_alpha 90.000000
_cell_angle_beta 30.598581
_cell_angle_gamma 90.000000
_cell_volume 1152.583987
_symmetry_space_group_name_H-M "P 21/M"
_symmetry_group_IT_number 11
_symmetry_cell_setting 'monoclinic'
loop_
_space_group_symop_operation_xyz
x,y,z
-x,1/2+y,-z
-x,-y,-z
x,1/2-y,z
loop_
_atom_site_type_symbol
_atom_site_label
_atom_site_fract_x
_atom_site_fract_y
_atom_site_fract_z
Si Si1 0.906918 0.250000 0.349298
Si Si2 0.801311 0.750000 0.035239
Si Si3 0.595921 0.395036 0.111338
Si Si4 0.786980 0.115190 0.168869
Si Si5 0.646193 0.967343 0.298089
Si Si6 0.159705 0.250000 0.705188
Si Si7 0.217017 0.518198 0.508915
Si Si8 0.942969 0.250000 0.609370
O O1 0.856729 0.119064 0.406965
O O2 0.892709 0.250000 0.560702
O O3 0.030574 0.250000 0.011318
O O4 0.745706 0.870772 0.088849
O O5 0.788351 0.750000 0.246944
O O6 0.927049 0.750000 0.691246
O O7 0.627187 0.250000 0.071921
O O8 0.466832 0.405216 0.385201
O O9 0.637295 0.485212 0.148432
O O10 0.657115 0.445936 0.819794
O O11 0.763247 0.250000 0.302258
O O12 0.809428 0.018661 0.250798
O O13 0.676984 0.083814 0.332703
O O14 0.893621 0.126292 0.810602
O O15 0.195434 0.371507 0.521735
#
# Coordination Sequence:
#
# PCOD8076894 Si02
#       8
#     2   2   4   4   4   2   4   2
#     4  11  21  44  71  91 135 187 217 280 336 403
#     4  11  22  45  65  95 135 175 216 283 332 391
#     4  11  24  44  69  98 131 179 224 277 340 397
#     4  10  21  42  64  99 129 171 223 269 323 410
#     4  11  23  42  70  94 133 172 224 278 326 399
#     4  11  26  44  61 102 140 168 230 279 335 399
#     4  12  23  45  68  98 136 179 220 276 345 397
#     4   9  23  41  67 100 126 174 229 268 329 403
#
# _framework density 20.822779000000001
#
# number of rings (size 3 to 8) (size 9 to 14) (size 15 to 20)
#    0.500    0.667    4.167    2.000    0.000    2.000 
#   12.000    0.000    0.000    0.000    0.000    0.000 
#    0.000    0.000    0.000    0.000    0.000    0.000 
#
# Total GULP energy -297465.555504 kJ/mol
# GULP energy per Si atom -12394.398146 kJ/mol
# Density = 2.077539 g / cm^3
# Si number density = 20.822779 Si / 1000 Ang^3
#
#
#
# Elastic Constant Matrix: (Units=GPa)
#
#
# Indices 1 2 3 4 5 6 
#
# 1 98.6501 38.6821 62.9756 0.0000 -11.4342 0.0000
# 2 38.6821 144.2287 55.7334 0.0000 -8.0841 0.0000
# 3 62.9756 55.7334 127.4213 0.0000 3.8274 0.0000
# 4 0.0000 0.0000 0.0000 27.4899 0.0000 -9.2498
# 5 -11.4342 -8.0841 3.8274 0.0000 25.1722 0.0000
# 6 0.0000 0.0000 0.0000 -9.2498 0.0000 27.9378
#
#
#
# Elastic Compliance Matrix: (Units=1/GPa)
#
#
# Indices 1 2 3 4 5 6 
#
# 1 0.016630 -0.000852 -0.008102 0.000000 0.008512 0.000000
# 2 -0.000852 0.008661 -0.003455 0.000000 0.002919 0.000000
# 3 -0.008102 -0.003455 0.013569 0.000000 -0.006853 0.000000
# 4 0.000000 0.000000 0.000000 0.040938 0.000000 0.013554
# 5 0.008512 0.002919 -0.006853 0.000000 0.045572 0.000000
# 6 0.000000 0.000000 0.000000 0.013554 0.000000 0.040281
#
#
# Mechanical properties :
#
#
# Convention : Reuss Voigt Hill
#
# Bulk Modulus (GPa) = 71.21515 76.12024 73.66770
# Shear Modulus (GPa) = 25.62157 30.31391 27.96774
#
# Velocity S-wave (km/s) = 3.51159 3.81964 3.66885
# Velocity P-wave (km/s) = 7.12156 7.48922 7.30770
#
# Compressibility (1/GPa) = 0.01404196
#
# Stress axis : x y z
#
# Youngs Moduli (GPa) = 60.13397 115.46576 73.69755
#
# Poissons Ratio (x) = 0.09840 0.59708
# Poissons Ratio (y) = 0.05125 0.25459
# Poissons Ratio (z) = 0.48719 0.39889
#
# Static dielectric constant tensor:
#      x y z
#    x 3.652830 0.000000 -0.026280 
#    y 0.000000 3.975490 0.000000 
#    z -0.026280 0.000000 3.746680 
# 
# 
# High freq. dielectric constant tensor:
#      x y z
#    x 1.810220 0.000000 -0.003030 
#    y 0.000000 1.830410 0.000000 
#    z -0.003030 0.000000 1.811310 
# 
# From -- ./inp_files/27580.got.cif
#   From: 2010.06.25/outbox.cif.g09.slc.cpg/sg11_14_cif.got.tgz:27580.got - 2010.06.27 23:14:04.
