data_PCOD8076702
_publ_section_title
;
Structure prediction by ZEFSAII (Michael W. Deem and Ramdas Pophale) SiO2 
 PCOD8076702
Probable space group: P 21/M
;
_chemical_formula_sum "Si O2"
_cell_formula_units_Z 28
_cell_length_a 9.662549
_cell_length_b 13.124165
_cell_length_c 12.113219
_cell_angle_alpha 90.000000
_cell_angle_beta 123.335023
_cell_angle_gamma 90.000000
_cell_volume 1283.378191
_symmetry_space_group_name_H-M "P 21/M"
_symmetry_group_IT_number 11
_symmetry_cell_setting 'monoclinic'
loop_
_space_group_symop_operation_xyz
x,y,z
-x,1/2+y,-z
-x,-y,-z
x,1/2-y,z
loop_
_atom_site_type_symbol
_atom_site_label
_atom_site_fract_x
_atom_site_fract_y
_atom_site_fract_z
Si Si1 0.746523 0.129630 0.314487
Si Si2 0.626329 0.370474 0.025351
Si Si3 0.904107 0.869872 0.452689
Si Si4 0.595299 0.865077 0.463204
Si Si5 0.563233 0.939995 0.687252
Si Si6 0.248025 0.370669 0.840262
Si Si7 0.175084 0.020160 0.022334
O O1 0.765719 0.250000 0.311451
O O2 0.700592 0.086485 0.173168
O O3 0.606964 0.103829 0.341203
O O4 0.918617 0.080660 0.435617
O O5 0.635761 0.250000 0.021522
O O6 0.437640 0.409212 0.931731
O O7 0.736462 0.415112 0.974595
O O8 0.930294 0.750000 0.447958
O O9 0.773947 0.893014 0.492106
O O10 0.833809 0.916398 0.307051
O O11 0.543323 0.750000 0.407769
O O12 0.610809 0.874953 0.601116
O O13 0.456371 0.940693 0.353174
O O14 0.709123 0.922981 0.838482
O O15 0.242375 0.250000 0.834760
O O16 0.148872 0.408234 0.904329
O O17 0.000000 0.000000 0.000000
#
# Coordination Sequence:
#
# PCOD8076702 Si02
#       7
#     4   4   4   4   4   4   4
#     4  10  21  39  65  96 126 162 212 262 312 373
#     4  10  22  42  67  91 122 170 216 261 316 378
#     4   9  20  38  64  95 123 160 208 261 314 367
#     4  10  23  42  64  92 128 164 206 260 319 380
#     4  11  24  41  64  92 125 171 211 255 321 378
#     4  10  21  41  68  94 125 168 215 263 318 377
#     4  12  27  41  61  94 132 168 213 263 320 382
#
# _framework density 21.817418
#
# number of rings (size 3 to 8) (size 9 to 14) (size 15 to 20)
#    0.000    1.714    1.429    1.714    4.000    5.714 
#    0.000    1.429    0.000    0.000    0.000    0.000 
#    0.000    0.000    0.000    0.000    0.000    0.000 
#
# Total GULP energy -347364.660737 kJ/mol
# GULP energy per Si atom -12405.880741 kJ/mol
# Density = 2.176776 g / cm^3
# Si number density = 21.817418 Si / 1000 Ang^3
#
#
#
# Elastic Constant Matrix: (Units=GPa)
#
#
# Indices 1 2 3 4 5 6 
#
# 1 166.8378 21.2842 74.3101 0.0000 -5.3781 0.0000
# 2 21.2842 29.4176 30.6076 0.0000 9.7733 0.0000
# 3 74.3101 30.6076 164.0736 0.0000 0.7393 0.0000
# 4 0.0000 0.0000 0.0000 33.5883 0.0000 -2.2156
# 5 -5.3781 9.7733 0.7393 0.0000 39.2976 0.0000
# 6 0.0000 0.0000 0.0000 -2.2156 0.0000 34.1781
#
#
#
# Elastic Compliance Matrix: (Units=1/GPa)
#
#
# Indices 1 2 3 4 5 6 
#
# 1 0.007770 -0.003212 -0.002928 0.000000 0.001917 0.000000
# 2 -0.003212 0.048177 -0.007477 0.000000 -0.012280 0.000000
# 3 -0.002928 -0.007477 0.008810 0.000000 0.001293 0.000000
# 4 0.000000 0.000000 0.000000 0.029900 0.000000 0.001938
# 5 0.001917 -0.012280 0.001293 0.000000 0.028739 0.000000
# 6 0.000000 0.000000 0.000000 0.001938 0.000000 0.029384
#
#
# Mechanical properties :
#
#
# Convention : Reuss Voigt Hill
#
# Bulk Modulus (GPa) = 26.65119 68.08141 47.36630
# Shear Modulus (GPa) = 25.97106 37.02127 31.49616
#
# Velocity S-wave (km/s) = 3.45393 4.12377 3.80363
# Velocity P-wave (km/s) = 5.30550 7.34485 6.40684
#
# Compressibility (1/GPa) = 0.03752178
#
# Stress axis : x y z
#
# Youngs Moduli (GPa) = 128.70482 20.75694 113.50440
#
# Poissons Ratio (x) = 0.06666 0.33240
# Poissons Ratio (y) = 0.41334 0.84872
# Poissons Ratio (z) = 0.37691 0.15521
#
# Static dielectric constant tensor:
#      x y z
#    x 3.797270 0.000000 0.006190 
#    y 0.000000 3.991070 0.000000 
#    z 0.006190 0.000000 4.292100 
# 
# 
# High freq. dielectric constant tensor:
#      x y z
#    x 1.844990 0.000000 -0.007030 
#    y 0.000000 1.881740 0.000000 
#    z -0.007030 0.000000 1.869570 
# 
# From -- ./inp_files/31970.got.cif
#   From: 2010.06.25/outbox.cif.g09.slc.cpg/sg11_16_cif.got.tgz:31970.got - 2010.06.27 23:14:04.
