data_PCOD8076999
_publ_section_title
;
Structure prediction by ZEFSAII (Michael W. Deem and Ramdas Pophale) SiO2 
 PCOD8076999
Probable space group: P 21/M
;
_chemical_formula_sum "Si O2"
_cell_formula_units_Z 20
_cell_length_a 9.971436
_cell_length_b 18.905205
_cell_length_c 12.460318
_cell_angle_alpha 90.000000
_cell_angle_beta 22.885652
_cell_angle_gamma 90.000000
_cell_volume 913.479139
_symmetry_space_group_name_H-M "P 21/M"
_symmetry_group_IT_number 11
_symmetry_cell_setting 'monoclinic'
loop_
_space_group_symop_operation_xyz
x,y,z
-x,1/2+y,-z
-x,-y,-z
x,1/2-y,z
loop_
_atom_site_type_symbol
_atom_site_label
_atom_site_fract_x
_atom_site_fract_y
_atom_site_fract_z
Si Si1 0.448701 0.902049 0.501105
Si Si2 0.632795 0.893372 0.608763
Si Si3 0.265083 0.951241 0.246291
Si Si4 0.505396 0.750000 0.464621
Si Si5 0.681759 0.250000 0.154236
Si Si6 0.731842 0.537863 0.081308
O O1 0.639048 0.893899 0.474494
O O2 0.341585 0.822921 0.538255
O O3 0.707540 0.933548 0.220962
O O4 0.126410 0.955254 0.750713
O O5 0.474088 0.822412 0.780002
O O6 0.036398 0.895960 0.346654
O O7 0.397786 0.957198 0.827551
O O8 0.502941 0.916275 0.164884
O O9 0.000000 0.000000 0.500000
O O10 0.500000 0.000000 0.000000
O O11 0.440194 0.750000 0.636162
O O12 0.911191 0.750000 0.146850
#
# Coordination Sequence:
#
# PCOD8076999 Si02
#       6
#     4   4   4   2   2   4
#     4  11  22  38  62  89 118 158 203 252 297 360
#     4  10  22  40  62  89 120 159 207 250 300 363
#     4  10  22  39  59  84 121 156 187 242 305 354
#     4  10  22  40  56  86 126 158 193 250 319 356
#     4  10  22  38  60  86 118 160 201 250 297 358
#     4  11  22  37  61  93 121 154 199 254 305 355
#
# _framework density 21.894316
#
# number of rings (size 3 to 8) (size 9 to 14) (size 15 to 20)
#    0.000    1.600    0.000    6.000    0.000   12.800 
#    0.000    2.000    0.000    0.000    0.000    0.000 
#    0.000    0.000    0.000    0.000    0.000    0.000 
#
# Total GULP energy -247782.884611 kJ/mol
# GULP energy per Si atom -12389.144231 kJ/mol
# Density = 2.184448 g / cm^3
# Si number density = 21.894316 Si / 1000 Ang^3
#
#
#
# Elastic Constant Matrix: (Units=GPa)
#
#
# Indices 1 2 3 4 5 6 
#
# 1 109.3048 7.7138 22.4317 0.0000 -17.3206 0.0000
# 2 7.7138 139.1632 14.5996 0.0000 0.4569 0.0000
# 3 22.4317 14.5996 118.9845 0.0000 16.2557 0.0000
# 4 0.0000 0.0000 0.0000 23.6226 0.0000 -5.8036
# 5 -17.3206 0.4569 16.2557 0.0000 34.0938 0.0000
# 6 0.0000 0.0000 0.0000 -5.8036 0.0000 10.5070
#
#
#
# Elastic Compliance Matrix: (Units=1/GPa)
#
#
# Indices 1 2 3 4 5 6 
#
# 1 0.010879 -0.000315 -0.002961 0.000000 0.006943 0.000000
# 2 -0.000315 0.007293 -0.000856 0.000000 0.000150 0.000000
# 3 -0.002961 -0.000856 0.009918 0.000000 -0.006221 0.000000
# 4 0.000000 0.000000 0.000000 0.048979 0.000000 0.027054
# 5 0.006943 0.000150 -0.006221 0.000000 0.035822 0.000000
# 6 0.000000 0.000000 0.000000 0.027054 0.000000 0.110119
#
#
# Mechanical properties :
#
#
# Convention : Reuss Voigt Hill
#
# Bulk Modulus (GPa) = 50.44085 50.77142 50.60613
# Shear Modulus (GPa) = 21.01894 35.15850 28.08872
#
# Velocity S-wave (km/s) = 3.10178 4.01163 3.58568
# Velocity P-wave (km/s) = 5.99303 6.68559 6.34876
#
# Compressibility (1/GPa) = 0.01982520
#
# Stress axis : x y z
#
# Youngs Moduli (GPa) = 91.92270 137.12570 100.83070
#
# Poissons Ratio (x) = 0.04322 0.29853
# Poissons Ratio (y) = 0.02897 0.08630
# Poissons Ratio (z) = 0.27216 0.11737
#
# Static dielectric constant tensor:
#      x y z
#    x 5.047320 0.000000 -0.649360 
#    y 0.000000 5.679160 0.000000 
#    z -0.649360 0.000000 4.300570 
# 
# 
# High freq. dielectric constant tensor:
#      x y z
#    x 1.846880 0.000000 0.008320 
#    y 0.000000 1.849520 0.000000 
#    z 0.008320 0.000000 1.876610 
# 
# From -- ./inp_files/50577.got.cif
#   From: 2010.06.25/outbox.cif.g09.slc.cpg/sg11_26_cif.got.tgz:50577.got - 2010.06.27 23:14:04.
