data_PCOD8076251
_publ_section_title
;
Structure prediction by ZEFSAII (Michael W. Deem and Ramdas Pophale) SiO2 
 PCOD8076251
Probable space group: P 21/M
;
_chemical_formula_sum "Si O2"
_cell_formula_units_Z 28
_cell_length_a 13.950529
_cell_length_b 14.353103
_cell_length_c 13.886097
_cell_angle_alpha 90.000000
_cell_angle_beta 31.077055
_cell_angle_gamma 90.000000
_cell_volume 1435.246777
_symmetry_space_group_name_H-M "P 21/M"
_symmetry_group_IT_number 11
_symmetry_cell_setting 'monoclinic'
loop_
_space_group_symop_operation_xyz
x,y,z
-x,1/2+y,-z
-x,-y,-z
x,1/2-y,z
loop_
_atom_site_type_symbol
_atom_site_label
_atom_site_fract_x
_atom_site_fract_y
_atom_site_fract_z
Si Si1 0.317106 0.502023 0.284580
Si Si2 0.063688 0.541190 0.124550
Si Si3 0.122625 0.853949 0.749118
Si Si4 0.714935 0.861285 0.515704
Si Si5 0.928438 0.350463 0.416332
Si Si6 0.283821 0.047448 0.092181
Si Si7 0.332144 0.855937 0.754154
O O1 0.301635 0.411701 0.366400
O O2 0.143974 0.570334 0.450611
O O3 0.302800 0.471445 0.187923
O O4 0.511210 0.559000 0.130987
O O5 0.185661 0.536252 0.117466
O O6 0.023347 0.438365 0.115233
O O7 0.882587 0.599758 0.307963
O O8 0.171245 0.591110 0.947783
O O9 0.034983 0.750000 0.845290
O O10 0.192685 0.856284 0.577865
O O11 0.297683 0.869777 0.669450
O O12 0.734410 0.750000 0.515214
O O13 0.536194 0.890515 0.606592
O O14 0.904811 0.250000 0.486411
O O15 0.147065 0.363501 0.200955
O O16 0.313169 0.750000 0.802850
#
# Coordination Sequence:
#
# PCOD8076251 Si02
#       7
#     4   4   4   4   4   4   4
#     4  11  21  41  59  84 118 154 189 240 291 340
#     4  11  20  38  60  85 113 152 190 237 290 339
#     4   9  19  36  59  85 115 149 190 234 285 343
#     4  11  23  37  58  84 114 151 194 237 287 344
#     4  10  21  39  61  87 117 152 193 240 285 339
#     4  10  22  37  62  83 118 152 191 237 288 344
#     4  10  21  38  57  84 119 151 186 237 287 341
#
# _framework density 19.508839999999999
#
# number of rings (size 3 to 8) (size 9 to 14) (size 15 to 20)
#    0.000    1.714    4.286    1.286    0.000    1.714 
#    0.000    2.857    0.000    9.429    0.000    0.000 
#    0.000    0.000    0.000    0.000    0.000    0.000 
#
# Total GULP energy -346925.173699 kJ/mol
# GULP energy per Si atom -12390.184775 kJ/mol
# Density = 1.946444 g / cm^3
# Si number density = 19.508840 Si / 1000 Ang^3
#
#
#
# Elastic Constant Matrix: (Units=GPa)
#
#
# Indices 1 2 3 4 5 6 
#
# 1 86.9635 22.2695 17.0027 0.0000 -6.0547 0.0000
# 2 22.2695 90.3467 33.7713 0.0000 -3.6497 0.0000
# 3 17.0027 33.7713 84.1920 0.0000 -11.0986 0.0000
# 4 0.0000 0.0000 0.0000 16.6079 0.0000 -1.3119
# 5 -6.0547 -3.6497 -11.0986 0.0000 22.7902 0.0000
# 6 0.0000 0.0000 0.0000 -1.3119 0.0000 16.5337
#
#
#
# Elastic Compliance Matrix: (Units=1/GPa)
#
#
# Indices 1 2 3 4 5 6 
#
# 1 0.012550 -0.002549 -0.001204 0.000000 0.002340 0.000000
# 2 -0.002549 0.013544 -0.005045 0.000000 -0.000965 0.000000
# 3 -0.001204 -0.005045 0.014956 0.000000 0.006156 0.000000
# 4 0.000000 0.000000 0.000000 0.060592 0.000000 0.004808
# 5 0.002340 -0.000965 0.006156 0.000000 0.047343 0.000000
# 6 0.000000 0.000000 0.000000 0.004808 0.000000 0.060864
#
#
# Mechanical properties :
#
#
# Convention : Reuss Voigt Hill
#
# Bulk Modulus (GPa) = 42.63646 45.28766 43.96206
# Shear Modulus (GPa) = 21.25288 23.75029 22.50158
#
# Velocity S-wave (km/s) = 3.30418 3.49293 3.39987
# Velocity P-wave (km/s) = 6.03815 6.28742 6.16405
#
# Compressibility (1/GPa) = 0.02345410
#
# Stress axis : x y z
#
# Youngs Moduli (GPa) = 79.68094 73.83540 66.86343
#
# Poissons Ratio (x) = 0.18821 0.08047
# Poissons Ratio (y) = 0.20311 0.33733
# Poissons Ratio (z) = 0.09590 0.37251
#
# Static dielectric constant tensor:
#      x y z
#    x 3.852290 0.000000 -0.186830 
#    y 0.000000 3.658560 0.000000 
#    z -0.186830 0.000000 3.529640 
# 
# 
# High freq. dielectric constant tensor:
#      x y z
#    x 1.776440 0.000000 -0.003200 
#    y 0.000000 1.756940 0.000000 
#    z -0.003200 0.000000 1.743180 
# 
# From -- ./inp_files/52450.got.cif
#   From: 2010.06.25/outbox.cif.g09.slc.cpg/sg11_27_cif.got.tgz:52450.got - 2010.06.27 23:14:04.
