data_PCOD8076127
_publ_section_title
;
Structure prediction by ZEFSAII (Michael W. Deem and Ramdas Pophale) SiO2 
 PCOD8076127
Probable space group: P 21/M
;
_chemical_formula_sum "Si O2"
_cell_formula_units_Z 32
_cell_length_a 12.026836
_cell_length_b 14.344586
_cell_length_c 9.038424
_cell_angle_alpha 90.000000
_cell_angle_beta 80.661181
_cell_angle_gamma 90.000000
_cell_volume 1538.641680
_symmetry_space_group_name_H-M "P 21/M"
_symmetry_group_IT_number 11
_symmetry_cell_setting 'monoclinic'
loop_
_space_group_symop_operation_xyz
x,y,z
-x,1/2+y,-z
-x,-y,-z
x,1/2-y,z
loop_
_atom_site_type_symbol
_atom_site_label
_atom_site_fract_x
_atom_site_fract_y
_atom_site_fract_z
Si Si1 0.058712 0.903187 0.030099
Si Si2 0.103090 0.141035 0.400358
Si Si3 0.464540 0.933238 0.877172
Si Si4 0.137416 0.149067 0.728352
Si Si5 0.119581 0.647180 0.700321
Si Si6 0.676620 0.532009 0.681455
Si Si7 0.289217 0.640938 0.125125
Si Si8 0.692640 0.498423 0.343007
O O1 0.174128 0.909061 0.098085
O O2 0.968298 0.845163 0.141027
O O3 0.091375 0.845956 0.878557
O O4 0.000000 0.000000 0.000000
O O5 0.119972 0.250000 0.355671
O O6 0.092785 0.123486 0.576084
O O7 0.204271 0.080442 0.310627
O O8 0.987367 0.100411 0.357865
O O9 0.583450 0.900271 0.780297
O O10 0.407137 0.984085 0.750078
O O11 0.380485 0.857762 0.969235
O O12 0.500000 0.000000 0.000000
O O13 0.197013 0.250000 0.714914
O O14 0.228943 0.073732 0.757698
O O15 0.139370 0.750000 0.631593
O O16 0.233685 0.593012 0.642426
O O17 0.670752 0.425471 0.747397
O O18 0.648548 0.532375 0.512039
O O19 0.273066 0.750000 0.176818
#
# Coordination Sequence:
#
# PCOD8076127 Si02
#       8
#     4   4   4   4   4   4   4   4
#     4  12  21  36  57  85 122 163 199 244 303 364
#     4   9  21  39  59  90 124 160 204 248 305 371
#     4  10  22  43  62  85 118 162 209 260 310 362
#     4  10  21  37  59  87 121 158 198 249 305 368
#     4  11  22  36  57  88 127 161 198 247 304 371
#     4  10  23  39  65  87 122 162 211 255 314 367
#     4  11  23  39  60  91 125 160 209 259 310 371
#     4  11  22  39  62  90 122 159 206 256 312 372
#
# _framework density 20.797564000000001
#
# number of rings (size 3 to 8) (size 9 to 14) (size 15 to 20)
#    0.000    1.500    2.500    2.250    1.750    3.000 
#    0.000    2.500    0.000    4.500    0.000    0.000 
#    0.000    0.000    0.000    0.000    0.000    0.000 
#
# Total GULP energy -396576.907639 kJ/mol
# GULP energy per Si atom -12393.028364 kJ/mol
# Density = 2.075023 g / cm^3
# Si number density = 20.797564 Si / 1000 Ang^3
#
#
#
# Elastic Constant Matrix: (Units=GPa)
#
#
# Indices 1 2 3 4 5 6 
#
# 1 85.6412 23.3599 18.5574 0.0000 3.1621 0.0000
# 2 23.3599 73.6207 5.5081 0.0000 -0.7622 0.0000
# 3 18.5574 5.5081 63.4823 0.0000 -5.9939 0.0000
# 4 0.0000 0.0000 0.0000 20.5638 0.0000 -1.1652
# 5 3.1621 -0.7622 -5.9939 0.0000 42.6119 0.0000
# 6 0.0000 0.0000 0.0000 -1.1652 0.0000 6.7421
#
#
#
# Elastic Compliance Matrix: (Units=1/GPa)
#
#
# Indices 1 2 3 4 5 6 
#
# 1 0.013669 -0.004070 -0.003796 0.000000 -0.001621 0.000000
# 2 -0.004070 0.014884 -0.000049 0.000000 0.000561 0.000000
# 3 -0.003796 -0.000049 0.017120 0.000000 0.002689 0.000000
# 4 0.000000 0.000000 0.000000 0.049110 0.000000 0.008488
# 5 -0.001621 0.000561 0.002689 0.000000 0.023976 0.000000
# 6 0.000000 0.000000 0.000000 0.008488 0.000000 0.149789
#
#
# Mechanical properties :
#
#
# Convention : Reuss Voigt Hill
#
# Bulk Modulus (GPa) = 33.50709 35.28834 34.39772
# Shear Modulus (GPa) = 16.98800 25.67148 21.32974
#
# Velocity S-wave (km/s) = 2.86112 3.51714 3.20595
# Velocity P-wave (km/s) = 5.20199 5.78775 5.50267
#
# Compressibility (1/GPa) = 0.02984443
#
# Stress axis : x y z
#
# Youngs Moduli (GPa) = 73.15752 67.18616 58.41086
#
# Poissons Ratio (x) = 0.27345 0.22171
# Poissons Ratio (y) = 0.29775 0.00284
# Poissons Ratio (z) = 0.27769 0.00327
#
# Static dielectric constant tensor:
#      x y z
#    x 4.016460 0.000000 -0.185840 
#    y 0.000000 3.609870 0.000000 
#    z -0.185840 0.000000 3.922080 
# 
# 
# High freq. dielectric constant tensor:
#      x y z
#    x 1.816250 0.000000 -0.005040 
#    y 0.000000 1.798920 0.000000 
#    z -0.005040 0.000000 1.822470 
# 
# From -- ./inp_files/18078.got.cif
#   From: 2010.06.25/outbox.cif.g09.slc.cpg/sg11_10_cif.got.tgz:18078.got - 2010.06.27 23:14:04.
