data_PCOD8076218
_publ_section_title
;
Structure prediction by ZEFSAII (Michael W. Deem and Ramdas Pophale) SiO2 
 PCOD8076218
Probable space group: P 21/M
;
_chemical_formula_sum "Si O2"
_cell_formula_units_Z 16
_cell_length_a 8.504938
_cell_length_b 17.404401
_cell_length_c 9.855122
_cell_angle_alpha 90.000000
_cell_angle_beta 30.117416
_cell_angle_gamma 90.000000
_cell_volume 731.981533
_symmetry_space_group_name_H-M "P 21/M"
_symmetry_group_IT_number 11
_symmetry_cell_setting 'monoclinic'
loop_
_space_group_symop_operation_xyz
x,y,z
-x,1/2+y,-z
-x,-y,-z
x,1/2-y,z
loop_
_atom_site_type_symbol
_atom_site_label
_atom_site_fract_x
_atom_site_fract_y
_atom_site_fract_z
Si Si1 0.553995 0.162668 0.076938
Si Si2 0.322591 0.903470 0.735362
Si Si3 0.903617 0.411790 0.580308
Si Si4 0.616087 0.922681 0.244377
O O1 0.602271 0.250000 0.993542
O O2 0.628827 0.157152 0.181100
O O3 0.197090 0.138834 0.314869
O O4 0.795753 0.108728 0.813727
O O5 0.540665 0.882687 0.444906
O O6 0.426554 0.985778 0.716267
O O7 0.969950 0.902323 0.941310
O O8 0.613860 0.390999 0.699125
O O9 0.000000 0.500000 0.500000
#
# Coordination Sequence:
#
# PCOD8076218 Si02
#       4
#     4   4   4   4
#     4  12  26  44  64  95 137 177 214 268 342 397
#     4  10  21  38  63  94 127 163 208 271 317 388
#     4  12  24  42  69 100 128 173 222 277 321 389
#     4  10  21  37  64  97 123 156 220 270 313 367
#
# _framework density 21.858474999999999
#
# number of rings (size 3 to 8) (size 9 to 14) (size 15 to 20)
#    0.000    1.000    2.500    4.500    7.000    0.000 
#    0.000    7.500    0.000    0.000    0.000    0.000 
#    0.000    0.000    0.000    0.000    0.000    0.000 
#
# Total GULP energy -198501.362403 kJ/mol
# GULP energy per Si atom -12406.335150 kJ/mol
# Density = 2.180872 g / cm^3
# Si number density = 21.858475 Si / 1000 Ang^3
#
#
#
# Elastic Constant Matrix: (Units=GPa)
#
#
# Indices 1 2 3 4 5 6 
#
# 1 87.9948 31.3594 3.1468 0.0000 -1.6348 0.0000
# 2 31.3594 87.5745 35.2596 0.0000 6.4859 0.0000
# 3 3.1468 35.2596 110.3828 0.0000 8.3682 0.0000
# 4 0.0000 0.0000 0.0000 26.9890 0.0000 -0.5940
# 5 -1.6348 6.4859 8.3682 0.0000 34.2085 0.0000
# 6 0.0000 0.0000 0.0000 -0.5940 0.0000 23.8456
#
#
#
# Elastic Compliance Matrix: (Units=1/GPa)
#
#
# Indices 1 2 3 4 5 6 
#
# 1 0.013247 -0.005337 0.001225 0.000000 0.001345 0.000000
# 2 -0.005337 0.015329 -0.004590 0.000000 -0.002039 0.000000
# 3 0.001225 -0.004590 0.010617 0.000000 -0.001668 0.000000
# 4 0.000000 0.000000 0.000000 0.037072 0.000000 0.000924
# 5 0.001345 -0.002039 -0.001668 0.000000 0.030091 0.000000
# 6 0.000000 0.000000 0.000000 0.000924 0.000000 0.041959
#
#
# Mechanical properties :
#
#
# Convention : Reuss Voigt Hill
#
# Bulk Modulus (GPa) = 45.89161 47.27598 46.58379
# Shear Modulus (GPa) = 28.90463 31.42103 30.16283
#
# Velocity S-wave (km/s) = 3.64036 3.79552 3.71875
# Velocity P-wave (km/s) = 6.22175 6.39399 6.30846
#
# Compressibility (1/GPa) = 0.02179048
#
# Stress axis : x y z
#
# Youngs Moduli (GPa) = 75.48692 65.23691 94.18800
#
# Poissons Ratio (x) = 0.34814 -0.11538
# Poissons Ratio (y) = 0.40284 0.43230
# Poissons Ratio (z) = -0.09247 0.29942
#
# Static dielectric constant tensor:
#      x y z
#    x 3.967340 0.000000 -0.042170 
#    y 0.000000 3.561480 0.000000 
#    z -0.042170 0.000000 4.137460 
# 
# 
# High freq. dielectric constant tensor:
#      x y z
#    x 1.869310 0.000000 -0.006700 
#    y 0.000000 1.819140 0.000000 
#    z -0.006700 0.000000 1.878350 
# 
# From -- ./inp_files/1657.got.cif
#   From: 2010.06.25/outbox.cif.g09.slc.cpg/sg11_1_cif.got.tgz:1657.got - 2010.06.27 23:14:04.
