data_PCOD8076157
_publ_section_title
;
Structure prediction by ZEFSAII (Michael W. Deem and Ramdas Pophale) SiO2 
 PCOD8076157
Probable space group: P 21/M
;
_chemical_formula_sum "Si O2"
_cell_formula_units_Z 28
_cell_length_a 9.049920
_cell_length_b 14.480471
_cell_length_c 20.740983
_cell_angle_alpha 90.000000
_cell_angle_beta 29.230564
_cell_angle_gamma 90.000000
_cell_volume 1327.290357
_symmetry_space_group_name_H-M "P 21/M"
_symmetry_group_IT_number 11
_symmetry_cell_setting 'monoclinic'
loop_
_space_group_symop_operation_xyz
x,y,z
-x,1/2+y,-z
-x,-y,-z
x,1/2-y,z
loop_
_atom_site_type_symbol
_atom_site_label
_atom_site_fract_x
_atom_site_fract_y
_atom_site_fract_z
Si Si1 0.540042 0.355498 0.413868
Si Si2 0.129943 0.464499 0.179353
Si Si3 0.383797 0.143616 0.328499
Si Si4 0.652642 0.535501 0.179354
Si Si5 0.278838 1.000000 0.985581
Si Si6 0.802211 0.856384 0.328497
Si Si7 0.695511 0.355498 0.586134
O O1 0.642885 0.250000 0.377391
O O2 0.403895 0.382041 0.396543
O O3 0.285158 0.375590 0.564093
O O4 0.839550 0.412742 0.316987
O O5 0.193806 0.437463 0.080311
O O6 0.075954 0.575794 0.204926
O O7 0.426542 0.438393 0.108367
O O8 0.478885 0.250000 0.279573
O O9 0.041526 0.124412 0.435908
O O10 0.604340 0.075795 0.204927
O O11 0.392499 0.587257 0.316988
O O12 0.984951 0.562537 0.080309
O O13 0.639983 0.561606 0.108369
O O14 0.902831 0.750000 0.279572
O O15 0.509937 0.882040 0.396541
O O16 0.652444 0.250000 0.622613
#
# Coordination Sequence:
#
# PCOD8076157 Si02
#       7
#     4   4   4   4   4   4   4
#     4  10  21  37  60  88 114 143 184 233 286 337
#     4  11  21  42  57  82 114 152 184 239 271 329
#     4  10  21  37  60  88 114 143 184 233 286 337
#     4  11  21  42  57  82 114 152 184 239 271 329
#     4  10  24  38  60  80 112 152 202 220 270 332
#     4  10  21  37  60  88 114 143 184 233 286 337
#     4  10  21  37  60  88 114 143 184 233 286 337
#
# _framework density 21.095610000000001
#
# number of rings (size 3 to 8) (size 9 to 14) (size 15 to 20)
#    0.000    1.714    2.857    0.857    4.000    0.000 
#    0.000    8.571    0.000    0.000    0.000    0.000 
#    0.000    0.000    0.000    0.000    0.000    0.000 
#
# Total GULP energy -347151.638474 kJ/mol
# GULP energy per Si atom -12398.272803 kJ/mol
# Density = 2.104760 g / cm^3
# Si number density = 21.095610 Si / 1000 Ang^3
#
#
#
# Elastic Constant Matrix: (Units=GPa)
#
#
# Indices 1 2 3 4 5 6 
#
# 1 109.9807 19.4484 31.6187 0.0000 -0.0223 0.0000
# 2 19.4484 66.8522 33.2992 0.0000 0.1262 0.0000
# 3 31.6187 33.2992 75.7367 0.0000 -0.2872 0.0000
# 4 0.0000 0.0000 0.0000 13.4484 0.0000 -0.0341
# 5 -0.0223 0.1262 -0.2872 0.0000 37.9014 0.0000
# 6 0.0000 0.0000 0.0000 -0.0341 0.0000 17.2203
#
#
#
# Elastic Compliance Matrix: (Units=1/GPa)
#
#
# Indices 1 2 3 4 5 6 
#
# 1 0.010396 -0.001104 -0.003855 0.000000 -0.000019 0.000000
# 2 -0.001104 0.019271 -0.008012 0.000000 -0.000126 0.000000
# 3 -0.003855 -0.008012 0.018336 0.000000 0.000163 0.000000
# 4 0.000000 0.000000 0.000000 0.074359 0.000000 0.000147
# 5 -0.000019 -0.000126 0.000163 0.000000 0.026386 0.000000
# 6 0.000000 0.000000 0.000000 0.000147 0.000000 0.058071
#
#
# Mechanical properties :
#
#
# Convention : Reuss Voigt Hill
#
# Bulk Modulus (GPa) = 45.32974 46.81136 46.07055
# Shear Modulus (GPa) = 20.82336 24.92757 22.87546
#
# Velocity S-wave (km/s) = 3.14521 3.44124 3.29655
# Velocity P-wave (km/s) = 5.89273 6.16667 6.03125
#
# Compressibility (1/GPa) = 0.02206057
#
# Stress axis : x y z
#
# Youngs Moduli (GPa) = 96.19113 51.89206 54.53681
#
# Poissons Ratio (x) = 0.05731 0.21022
# Poissons Ratio (y) = 0.10623 0.43696
# Poissons Ratio (z) = 0.37078 0.41577
#
# Static dielectric constant tensor:
#      x y z
#    x 4.049110 0.000000 -0.002560 
#    y 0.000000 3.604300 0.000000 
#    z -0.002560 0.000000 3.766160 
# 
# 
# High freq. dielectric constant tensor:
#      x y z
#    x 1.840390 0.000000 -0.000110 
#    y 0.000000 1.792790 0.000000 
#    z -0.000110 0.000000 1.828310 
# 
# From -- ./inp_files/26934.got.cif
#   From: 2010.06.25/outbox.cif.g09.slc.cpg/sg11_14_cif.got.tgz:26934.got - 2010.06.27 23:14:04.
