data_PCOD8076526
_publ_section_title
;
Structure prediction by ZEFSAII (Michael W. Deem and Ramdas Pophale) SiO2 
 PCOD8076526
Probable space group: P 21/M
;
_chemical_formula_sum "Si O2"
_cell_formula_units_Z 32
_cell_length_a 20.924894
_cell_length_b 9.332819
_cell_length_c 26.247549
_cell_angle_alpha 90.000000
_cell_angle_beta 19.313002
_cell_angle_gamma 90.000000
_cell_volume 1695.260970
_symmetry_space_group_name_H-M "P 21/M"
_symmetry_group_IT_number 11
_symmetry_cell_setting 'monoclinic'
loop_
_space_group_symop_operation_xyz
x,y,z
-x,1/2+y,-z
-x,-y,-z
x,1/2-y,z
loop_
_atom_site_type_symbol
_atom_site_label
_atom_site_fract_x
_atom_site_fract_y
_atom_site_fract_z
Si Si1 0.088187 0.584398 0.886803
Si Si2 0.116592 0.092023 0.342823
Si Si3 0.875682 0.083515 0.961636
Si Si4 0.097313 0.581141 0.593733
Si Si5 0.483325 0.412910 0.461252
Si Si6 0.283973 0.907485 0.297175
Si Si7 0.488026 0.580807 0.243862
Si Si8 0.107451 0.414173 0.687198
O O1 0.017330 0.750000 0.939179
O O2 0.319000 0.577736 0.719138
O O3 0.029161 0.503835 0.879632
O O4 0.000000 0.500000 0.000000
O O5 0.203572 0.250000 0.269853
O O6 0.055903 0.026343 0.333683
O O7 0.927078 0.100765 0.519880
O O8 0.281750 0.001420 0.247393
O O9 0.870534 0.250000 0.982544
O O10 0.939148 0.068377 0.855417
O O11 0.667328 0.013492 0.126972
O O12 0.074983 0.750000 0.617327
O O13 0.314599 0.543721 0.412884
O O14 0.045060 0.505390 0.685564
O O15 0.500000 0.500000 0.500000
O O16 0.432799 0.250000 0.514665
O O17 0.310405 0.474206 0.556549
O O18 0.351658 0.750000 0.229506
O O19 0.430972 0.967277 0.229326
O O20 0.536245 0.750000 0.209159
O O21 0.131628 0.250000 0.652082
#
# Coordination Sequence:
#
# PCOD8076526 Si02
#       8
#     4   4   4   4   4   4   4   4
#     4  11  24  40  60  85 111 141 176 218 269 320
#     4   8  14  26  45  72 106 135 170 215 259 311
#     4  11  23  39  57  78 108 144 180 221 268 316
#     4   9  19  34  53  80 109 141 177 219 268 316
#     4  10  21  39  60  81 106 138 178 220 264 315
#     4   8  14  26  46  72 104 139 172 211 262 313
#     4   9  19  35  53  79 112 142 178 222 266 319
#     4  10  22  38  55  78 108 140 177 223 265 312
#
# _framework density 18.876149999999999
#
# number of rings (size 3 to 8) (size 9 to 14) (size 15 to 20)
#    0.000    2.500    1.250    2.250    1.750    3.500 
#    0.000    2.500    0.000    0.750    0.000    0.000 
#    0.000    0.000    0.000    0.000    0.000    0.000 
#
# Total GULP energy -396733.748840 kJ/mol
# GULP energy per Si atom -12397.929651 kJ/mol
# Density = 1.883319 g / cm^3
# Si number density = 18.876150 Si / 1000 Ang^3
#
#
#
# Elastic Constant Matrix: (Units=GPa)
#
#
# Indices 1 2 3 4 5 6 
#
# 1 90.4312 34.6686 0.5767 0.0000 13.2955 0.0000
# 2 34.6686 73.1785 14.1417 0.0000 8.7321 0.0000
# 3 0.5767 14.1417 31.3087 0.0000 8.0633 0.0000
# 4 0.0000 0.0000 0.0000 23.6701 0.0000 0.8617
# 5 13.2955 8.7321 8.0633 0.0000 21.2769 0.0000
# 6 0.0000 0.0000 0.0000 0.8617 0.0000 39.4701
#
#
#
# Elastic Compliance Matrix: (Units=1/GPa)
#
#
# Indices 1 2 3 4 5 6 
#
# 1 0.014969 -0.007073 0.005076 0.000000 -0.008374 0.000000
# 2 -0.007073 0.018623 -0.008257 0.000000 -0.000094 0.000000
# 3 0.005076 -0.008257 0.039362 0.000000 -0.014700 0.000000
# 4 0.000000 0.000000 0.000000 0.042281 0.000000 -0.000923
# 5 -0.008374 -0.000094 -0.014700 0.000000 0.057842 0.000000
# 6 0.000000 0.000000 0.000000 -0.000923 0.000000 0.025356
#
#
# Mechanical properties :
#
#
# Convention : Reuss Voigt Hill
#
# Bulk Modulus (GPa) = 19.06769 32.63248 25.85009
# Shear Modulus (GPa) = 21.14854 26.58551 23.86702
#
# Velocity S-wave (km/s) = 3.35085 3.75696 3.55970
# Velocity P-wave (km/s) = 5.00942 6.01206 5.53350
#
# Compressibility (1/GPa) = 0.05244473
#
# Stress axis : x y z
#
# Youngs Moduli (GPa) = 66.80658 53.69703 25.40511
#
# Poissons Ratio (x) = 0.37980 -0.12895
# Poissons Ratio (y) = 0.47253 0.20978
# Poissons Ratio (z) = -0.33910 0.44339
#
# Static dielectric constant tensor:
#      x y z
#    x 3.579340 0.000000 -0.167990 
#    y 0.000000 3.604920 0.000000 
#    z -0.167990 0.000000 3.210720 
# 
# 
# High freq. dielectric constant tensor:
#      x y z
#    x 1.738150 0.000000 -0.008220 
#    y 0.000000 1.731080 0.000000 
#    z -0.008220 0.000000 1.706520 
# 
# From -- ./inp_files/72057.got.cif
#   From: 2010.06.25/outbox.cif.g09.slc.cpg/sg11_37_cif.got.tgz:72057.got - 2010.06.27 23:14:04.
