data_PCOD8076120
_publ_section_title
;
Structure prediction by ZEFSAII (Michael W. Deem and Ramdas Pophale) SiO2 
 PCOD8076120
Probable space group: P 21/M
;
_chemical_formula_sum "Si O2"
_cell_formula_units_Z 24
_cell_length_a 9.798074
_cell_length_b 8.771952
_cell_length_c 14.468900
_cell_angle_alpha 90.000000
_cell_angle_beta 80.155341
_cell_angle_gamma 90.000000
_cell_volume 1225.264665
_symmetry_space_group_name_H-M "P 21/M"
_symmetry_group_IT_number 11
_symmetry_cell_setting 'monoclinic'
loop_
_space_group_symop_operation_xyz
x,y,z
-x,1/2+y,-z
-x,-y,-z
x,1/2-y,z
loop_
_atom_site_type_symbol
_atom_site_label
_atom_site_fract_x
_atom_site_fract_y
_atom_site_fract_z
Si Si1 0.808004 0.071605 0.077654
Si Si2 0.150172 0.930145 0.475611
Si Si3 0.625054 0.929263 0.429140
Si Si4 0.102497 0.070379 0.114411
Si Si5 0.571894 0.074881 0.244227
Si Si6 0.254038 0.426262 0.278509
O O1 0.817881 0.250000 0.059194
O O2 0.669733 0.025662 0.148219
O O3 0.943559 0.016320 0.119511
O O4 0.801955 0.992595 0.978872
O O5 0.142537 0.750000 0.485005
O O6 0.233228 0.996248 0.552793
O O7 0.224656 0.974263 0.371888
O O8 0.000000 0.000000 0.500000
O O9 0.628131 0.750000 0.446639
O O10 0.500000 0.000000 0.500000
O O11 0.607638 0.963725 0.323753
O O12 0.117152 0.250000 0.111230
O O13 0.159359 0.009994 0.206000
O O14 0.601024 0.250000 0.270244
O O15 0.413828 0.053526 0.230922
O O16 0.220272 0.250000 0.304977
#
# Coordination Sequence:
#
# PCOD8076120 Si02
#       6
#     4   4   4   4   4   4
#     4   9  19  36  57  83 113 152 196 243 299 356
#     4  12  26  43  63  90 123 160 203 251 303 360
#     4  12  24  41  63  90 123 162 203 248 300 358
#     4   9  19  36  57  82 114 153 194 245 300 353
#     4  10  21  37  59  86 118 157 200 246 298 354
#     4  10  21  38  59  85 119 156 198 247 300 354
#
# _framework density 19.587606000000001
#
# number of rings (size 3 to 8) (size 9 to 14) (size 15 to 20)
#    0.000    1.667    1.667    3.000    2.333    2.000 
#    0.000    0.000    0.000    0.000    0.000    0.000 
#    0.000    0.000    0.000    0.000    0.000    0.000 
#
# Total GULP energy -297700.279762 kJ/mol
# GULP energy per Si atom -12404.178323 kJ/mol
# Density = 1.954302 g / cm^3
# Si number density = 19.587606 Si / 1000 Ang^3
#
#
#
# Elastic Constant Matrix: (Units=GPa)
#
#
# Indices 1 2 3 4 5 6 
#
# 1 95.7260 31.0812 20.2644 0.0000 -4.3436 0.0000
# 2 31.0812 92.7847 20.4949 0.0000 0.2835 0.0000
# 3 20.2644 20.4949 68.3455 0.0000 -0.6641 0.0000
# 4 0.0000 0.0000 0.0000 36.7079 0.0000 -0.3081
# 5 -4.3436 0.2835 -0.6641 0.0000 43.7390 0.0000
# 6 0.0000 0.0000 0.0000 -0.3081 0.0000 26.3694
#
#
#
# Elastic Compliance Matrix: (Units=1/GPa)
#
#
# Indices 1 2 3 4 5 6 
#
# 1 0.012183 -0.003523 -0.002544 0.000000 0.001194 0.000000
# 2 -0.003523 0.012561 -0.002727 0.000000 -0.000473 0.000000
# 3 -0.002544 -0.002727 0.016204 0.000000 0.000011 0.000000
# 4 0.000000 0.000000 0.000000 0.027245 0.000000 0.000318
# 5 0.001194 -0.000473 0.000011 0.000000 0.022985 0.000000
# 6 0.000000 0.000000 0.000000 0.000318 0.000000 0.037926
#
#
# Mechanical properties :
#
#
# Convention : Reuss Voigt Hill
#
# Bulk Modulus (GPa) = 42.80758 44.50413 43.65585
# Shear Modulus (GPa) = 32.36685 33.69763 33.03224
#
# Velocity S-wave (km/s) = 4.06940 4.15222 4.11102
# Velocity P-wave (km/s) = 6.63188 6.76445 6.69849
#
# Compressibility (1/GPa) = 0.02336035
#
# Stress axis : x y z
#
# Youngs Moduli (GPa) = 82.08117 79.60840 61.71401
#
# Poissons Ratio (x) = 0.28044 0.15702
# Poissons Ratio (y) = 0.28915 0.16829
# Poissons Ratio (z) = 0.20884 0.21709
#
# Static dielectric constant tensor:
#      x y z
#    x 3.847420 0.000000 0.115980 
#    y 0.000000 2.210400 0.000000 
#    z 0.115980 0.000000 3.967810 
# 
# 
# High freq. dielectric constant tensor:
#      x y z
#    x 1.774400 0.000000 0.000310 
#    y 0.000000 1.757220 0.000000 
#    z 0.000310 0.000000 1.763920 
# 
# From -- ./inp_files/46467.got.cif
#   From: 2010.06.25/outbox.cif.g09.slc.cpg/sg11_24_cif.got.tgz:46467.got - 2010.06.27 23:14:04.
