data_PCOD8076533
_publ_section_title
;
Structure prediction by ZEFSAII (Michael W. Deem and Ramdas Pophale) SiO2 
 PCOD8076533
Probable space group: P 21/M
;
_chemical_formula_sum "Si O2"
_cell_formula_units_Z 32
_cell_length_a 26.066401
_cell_length_b 8.844614
_cell_length_c 20.690564
_cell_angle_alpha 90.000000
_cell_angle_beta 159.177371
_cell_angle_gamma 90.000000
_cell_volume 1695.675505
_symmetry_space_group_name_H-M "P 21/M"
_symmetry_group_IT_number 11
_symmetry_cell_setting 'monoclinic'
loop_
_space_group_symop_operation_xyz
x,y,z
-x,1/2+y,-z
-x,-y,-z
x,1/2-y,z
loop_
_atom_site_type_symbol
_atom_site_label
_atom_site_fract_x
_atom_site_fract_y
_atom_site_fract_z
Si Si1 0.945435 0.573826 0.000700
Si Si2 0.156025 0.429598 0.680869
Si Si3 0.670040 0.077326 0.367658
Si Si4 0.646884 0.570649 0.969553
Si Si5 0.361038 0.423689 0.306811
Si Si6 0.649487 0.077234 0.191679
Si Si7 0.951007 0.571907 0.748233
Si Si8 0.775967 0.569901 0.986383
O O1 0.984603 0.750000 0.048286
O O2 0.773682 0.548654 0.804232
O O3 0.027206 0.493496 0.155070
O O4 0.000000 0.500000 0.000000
O O5 0.145936 0.250000 0.669271
O O6 0.249705 0.490365 0.851841
O O7 0.225373 0.485134 0.696110
O O8 0.000000 0.500000 0.500000
O O9 0.693674 0.250000 0.419030
O O10 0.680085 0.069074 0.302980
O O11 0.515750 0.013498 0.210197
O O12 0.789759 0.968353 0.537767
O O13 0.648228 0.750000 0.972972
O O14 0.703536 0.511234 0.967125
O O15 0.500000 0.500000 0.500000
O O16 0.399841 0.250000 0.345899
O O17 0.322011 0.486436 0.189283
O O18 0.646363 0.250000 0.163760
O O19 0.500000 0.000000 0.000000
O O20 0.972434 0.750000 0.774470
O O21 0.064569 0.500106 0.831543
O O22 0.793851 0.750000 0.005875
#
# Coordination Sequence:
#
# PCOD8076533 Si02
#       8
#     4   4   4   4   4   4   4   4
#     4  10  21  39  61  87 118 154 193 236 283 338
#     4  11  23  40  59  87 118 151 196 244 295 357
#     4  10  21  39  60  83 113 155 196 235 290 352
#     4   9  19  38  61  82 109 148 194 237 285 348
#     4   9  19  34  55  84 115 147 188 231 276 332
#     4  11  22  39  62  86 116 155 196 245 299 354
#     4  11  23  38  57  87 119 151 192 238 286 340
#     4   9  19  38  60  81 110 151 193 234 282 340
#
# _framework density 18.871534
#
# number of rings (size 3 to 8) (size 9 to 14) (size 15 to 20)
#    0.000    2.000    1.250    3.000    1.750    4.500 
#    0.000    2.500    0.000    0.000    0.000    0.000 
#    0.000    0.000    0.000    0.000    0.000    0.000 
#
# Total GULP energy -396863.910101 kJ/mol
# GULP energy per Si atom -12401.997191 kJ/mol
# Density = 1.882858 g / cm^3
# Si number density = 18.871534 Si / 1000 Ang^3
#
#
#
# Elastic Constant Matrix: (Units=GPa)
#
#
# Indices 1 2 3 4 5 6 
#
# 1 149.1050 43.7097 60.6673 0.0000 15.7150 0.0000
# 2 43.7097 84.1208 48.5449 0.0000 3.8022 0.0000
# 3 60.6673 48.5449 143.7309 0.0000 14.2665 0.0000
# 4 0.0000 0.0000 0.0000 36.9535 0.0000 1.8669
# 5 15.7150 3.8022 14.2665 0.0000 26.2141 0.0000
# 6 0.0000 0.0000 0.0000 1.8669 0.0000 30.0707
#
#
#
# Elastic Compliance Matrix: (Units=1/GPa)
#
#
# Indices 1 2 3 4 5 6 
#
# 1 0.008971 -0.003130 -0.002369 0.000000 -0.003635 0.000000
# 2 -0.003130 0.015867 -0.004224 0.000000 0.001874 0.000000
# 3 -0.002369 -0.004224 0.009706 0.000000 -0.003250 0.000000
# 4 0.000000 0.000000 0.000000 0.027146 0.000000 -0.001685
# 5 -0.003635 0.001874 -0.003250 0.000000 0.041823 0.000000
# 6 0.000000 0.000000 0.000000 -0.001685 0.000000 0.033360
#
#
# Mechanical properties :
#
#
# Convention : Reuss Voigt Hill
#
# Bulk Modulus (GPa) = 66.22876 75.86673 71.04775
# Shear Modulus (GPa) = 30.98815 33.58331 32.28573
#
# Velocity S-wave (km/s) = 4.05663 4.22308 4.14069
# Velocity P-wave (km/s) = 7.55727 8.00426 7.78397
#
# Compressibility (1/GPa) = 0.01509918
#
# Stress axis : x y z
#
# Youngs Moduli (GPa) = 111.46843 63.02401 103.02541
#
# Poissons Ratio (x) = 0.19728 0.24402
# Poissons Ratio (y) = 0.34893 0.43516
# Poissons Ratio (z) = 0.26402 0.26620
#
# Static dielectric constant tensor:
#      x y z
#    x 3.668080 0.000000 0.026300 
#    y 0.000000 3.398610 0.000000 
#    z 0.026300 0.000000 3.523240 
# 
# 
# High freq. dielectric constant tensor:
#      x y z
#    x 1.742630 0.000000 0.003200 
#    y 0.000000 1.723730 0.000000 
#    z 0.003200 0.000000 1.739620 
# 
# From -- ./inp_files/67156.got.cif
#   From: 2010.06.25/outbox.cif.g09.slc.cpg/sg11_34_cif.got.tgz:67156.got - 2010.06.27 23:14:04.
