data_PCOD8076536
_publ_section_title
;
Structure prediction by ZEFSAII (Michael W. Deem and Ramdas Pophale) SiO2 
 PCOD8076536
Probable space group: P 21/M
;
_chemical_formula_sum "Si O2"
_cell_formula_units_Z 28
_cell_length_a 11.563145
_cell_length_b 14.548794
_cell_length_c 9.360855
_cell_angle_alpha 90.000000
_cell_angle_beta 121.546225
_cell_angle_gamma 90.000000
_cell_volume 1342.052062
_symmetry_space_group_name_H-M "P 21/M"
_symmetry_group_IT_number 11
_symmetry_cell_setting 'monoclinic'
loop_
_space_group_symop_operation_xyz
x,y,z
-x,1/2+y,-z
-x,-y,-z
x,1/2-y,z
loop_
_atom_site_type_symbol
_atom_site_label
_atom_site_fract_x
_atom_site_fract_y
_atom_site_fract_z
Si Si1 0.122479 0.041693 0.934702
Si Si2 0.306664 0.646845 0.699718
Si Si3 0.992345 0.095159 0.573825
Si Si4 0.620760 0.459726 0.989178
Si Si5 0.800367 0.651009 0.503025
Si Si6 0.013297 0.145035 0.110351
Si Si7 0.555280 0.986203 0.376318
O O1 0.006705 0.078050 0.752259
O O2 0.269127 0.041217 0.955635
O O3 0.101825 0.934680 0.973095
O O4 0.125765 0.114077 0.066694
O O5 0.359562 0.750000 0.713991
O O6 0.150627 0.643404 0.548178
O O7 0.314722 0.622841 0.875103
O O8 0.405351 0.584144 0.667156
O O9 0.123789 0.150544 0.601336
O O10 0.000000 0.000000 0.500000
O O11 0.500000 0.500000 0.000000
O O12 0.560901 0.434407 0.793308
O O13 0.727849 0.750000 0.473669
O O14 0.691701 0.572603 0.459345
O O15 0.921570 0.639793 0.693064
O O16 0.960343 0.250000 0.045648
O O17 0.500000 0.000000 0.500000
#
# Coordination Sequence:
#
# PCOD8076536 Si02
#       7
#     4   4   4   4   4   4   4
#     4  11  21  38  61  87 121 154 196 248 300 362
#     4  11  23  40  63  92 124 159 205 257 309 363
#     4  12  19  38  65  92 118 154 196 255 311 360
#     4  10  21  39  60  84 118 162 203 241 297 357
#     4  11  22  39  61  88 119 155 200 251 306 365
#     4  10  22  38  59  87 118 154 192 244 311 366
#     4  11  23  41  63  89 123 167 208 249 301 361
#
# _framework density 20.863571
#
# number of rings (size 3 to 8) (size 9 to 14) (size 15 to 20)
#    0.000    1.143    4.286    2.143    0.000    5.143 
#    0.000    4.286    0.000    0.000    0.000    0.000 
#    0.000    0.000    0.000    0.000    0.000    0.000 
#
# Total GULP energy -347008.036837 kJ/mol
# GULP energy per Si atom -12393.144173 kJ/mol
# Density = 2.081608 g / cm^3
# Si number density = 20.863571 Si / 1000 Ang^3
#
#
#
# Elastic Constant Matrix: (Units=GPa)
#
#
# Indices 1 2 3 4 5 6 
#
# 1 101.8508 27.4898 38.5812 0.0000 -7.6594 0.0000
# 2 27.4898 113.0417 30.3888 0.0000 -6.8502 0.0000
# 3 38.5812 30.3888 78.6144 0.0000 -11.8416 0.0000
# 4 0.0000 0.0000 0.0000 17.2806 0.0000 -6.7412
# 5 -7.6594 -6.8502 -11.8416 0.0000 36.5070 0.0000
# 6 0.0000 0.0000 0.0000 -6.7412 0.0000 14.1503
#
#
#
# Elastic Compliance Matrix: (Units=1/GPa)
#
#
# Indices 1 2 3 4 5 6 
#
# 1 0.012302 -0.001515 -0.005368 0.000000 0.000556 0.000000
# 2 -0.001515 0.010073 -0.003063 0.000000 0.000579 0.000000
# 3 -0.005368 -0.003063 0.017119 0.000000 0.003852 0.000000
# 4 0.000000 0.000000 0.000000 0.071078 0.000000 0.033862
# 5 0.000556 0.000579 0.003852 0.000000 0.028867 0.000000
# 6 0.000000 0.000000 0.000000 0.033862 0.000000 0.086802
#
#
# Mechanical properties :
#
#
# Convention : Reuss Voigt Hill
#
# Bulk Modulus (GPa) = 51.01532 54.04738 52.53135
# Shear Modulus (GPa) = 19.78882 26.72405 23.25644
#
# Velocity S-wave (km/s) = 3.08309 3.58284 3.34232
# Velocity P-wave (km/s) = 6.09745 6.56331 6.33466
#
# Compressibility (1/GPa) = 0.01960196
#
# Stress axis : x y z
#
# Youngs Moduli (GPa) = 81.28449 99.27282 58.41389
#
# Poissons Ratio (x) = 0.15039 0.31359
# Poissons Ratio (y) = 0.12314 0.17894
# Poissons Ratio (z) = 0.43636 0.30410
#
# Static dielectric constant tensor:
#      x y z
#    x 3.960810 0.000000 0.269520 
#    y 0.000000 0.207980 0.000000 
#    z 0.269520 0.000000 3.447660 
# 
# 
# High freq. dielectric constant tensor:
#      x y z
#    x 1.814340 0.000000 -0.009320 
#    y 0.000000 1.805230 0.000000 
#    z -0.009320 0.000000 1.821550 
# 
# From -- ./inp_files/18149.got.cif
#   From: 2010.06.25/outbox.cif.g09.slc.cpg/sg11_10_cif.got.tgz:18149.got - 2010.06.27 23:14:04.
