data_PCOD8076464
_publ_section_title
;
Structure prediction by ZEFSAII (Michael W. Deem and Ramdas Pophale) SiO2 
 PCOD8076464
Probable space group: P 21/M
;
_chemical_formula_sum "Si O2"
_cell_formula_units_Z 32
_cell_length_a 12.269831
_cell_length_b 8.604863
_cell_length_c 29.300971
_cell_angle_alpha 90.000000
_cell_angle_beta 31.015974
_cell_angle_gamma 90.000000
_cell_volume 1594.062476
_symmetry_space_group_name_H-M "P 21/M"
_symmetry_group_IT_number 11
_symmetry_cell_setting 'monoclinic'
loop_
_space_group_symop_operation_xyz
x,y,z
-x,1/2+y,-z
-x,-y,-z
x,1/2-y,z
loop_
_atom_site_type_symbol
_atom_site_label
_atom_site_fract_x
_atom_site_fract_y
_atom_site_fract_z
Si Si1 0.098628 0.431450 0.034112
Si Si2 0.683550 0.932488 0.680653
Si Si3 0.269018 0.932108 0.590135
Si Si4 0.471000 0.066631 0.361221
Si Si5 0.720784 0.066809 0.937888
Si Si6 0.886685 0.932659 0.442999
Si Si7 0.304165 0.069714 0.864193
Si Si8 0.100254 0.933916 0.747826
O O1 0.052168 0.250000 0.057427
O O2 0.241668 0.464936 0.938667
O O3 0.218536 0.494603 0.035176
O O4 0.874571 0.515489 0.107395
O O5 0.733544 0.750000 0.662705
O O6 0.585202 0.994317 0.668658
O O7 0.517764 0.972743 0.779846
O O8 0.896388 0.028679 0.610004
O O9 0.296452 0.750000 0.582932
O O10 0.161165 0.990907 0.675393
O O11 0.500000 0.000000 0.500000
O O12 0.114212 0.981824 0.605182
O O13 0.450294 0.250000 0.370239
O O14 0.306050 0.999861 0.457516
O O15 0.708594 0.015343 0.287526
O O16 0.702081 0.250000 0.950134
O O17 0.893428 0.024904 0.837818
O O18 0.500000 0.000000 0.000000
O O19 0.864780 0.750000 0.442819
O O20 0.348471 0.250000 0.839976
O O21 0.057406 0.750000 0.765498
#
# Coordination Sequence:
#
# PCOD8076464 Si02
#       8
#     4   4   4   4   4   4   4   4
#     4  10  21  40  65  90 121 158 198 250 306 363
#     4  11  22  36  57  87 122 160 202 249 306 364
#     4  11  22  39  64  91 121 158 203 252 303 361
#     4   9  19  37  60  85 117 158 199 244 300 357
#     4  12  26  43  64  92 124 161 205 255 310 371
#     4  11  22  39  59  83 120 162 203 252 304 358
#     4  10  21  38  62  92 121 157 203 249 300 363
#     4  10  21  41  66  91 121 160 202 251 310 367
#
# _framework density 20.074494999999999
#
# number of rings (size 3 to 8) (size 9 to 14) (size 15 to 20)
#    0.000    1.500    1.250    4.125    0.000    4.500 
#    0.000    2.500    0.000    0.000    0.000    0.000 
#    0.000    0.000    0.000    0.000    0.000    0.000 
#
# Total GULP energy -396942.613326 kJ/mol
# GULP energy per Si atom -12404.456666 kJ/mol
# Density = 2.002880 g / cm^3
# Si number density = 20.074495 Si / 1000 Ang^3
#
#
#
# Elastic Constant Matrix: (Units=GPa)
#
#
# Indices 1 2 3 4 5 6 
#
# 1 114.6588 27.7350 56.9161 0.0000 6.9390 0.0000
# 2 27.7350 44.6029 20.4678 0.0000 10.2862 0.0000
# 3 56.9161 20.4678 117.1970 0.0000 -3.0432 0.0000
# 4 0.0000 0.0000 0.0000 34.5371 0.0000 -2.6695
# 5 6.9390 10.2862 -3.0432 0.0000 31.1764 0.0000
# 6 0.0000 0.0000 0.0000 -2.6695 0.0000 34.6162
#
#
#
# Elastic Compliance Matrix: (Units=1/GPa)
#
#
# Indices 1 2 3 4 5 6 
#
# 1 0.012689 -0.005062 -0.005322 0.000000 -0.001673 0.000000
# 2 -0.005062 0.028854 -0.002806 0.000000 -0.008667 0.000000
# 3 -0.005322 -0.002806 0.011692 0.000000 0.003251 0.000000
# 4 0.000000 0.000000 0.000000 0.029128 0.000000 0.002246
# 5 -0.001673 -0.008667 0.003251 0.000000 0.035625 0.000000
# 6 0.000000 0.000000 0.000000 0.002246 0.000000 0.029061
#
#
# Mechanical properties :
#
#
# Convention : Reuss Voigt Hill
#
# Bulk Modulus (GPa) = 37.23668 54.07737 45.65702
# Shear Modulus (GPa) = 27.41519 31.48860 29.45190
#
# Velocity S-wave (km/s) = 3.69951 3.96484 3.83447
# Velocity P-wave (km/s) = 6.06943 6.92508 6.51133
#
# Compressibility (1/GPa) = 0.02685524
#
# Stress axis : x y z
#
# Youngs Moduli (GPa) = 78.80849 34.65688 85.53184
#
# Poissons Ratio (x) = 0.17544 0.45517
# Poissons Ratio (y) = 0.39895 0.23999
# Poissons Ratio (z) = 0.41940 0.09724
#
# Static dielectric constant tensor:
#      x y z
#    x 3.900990 0.000000 0.098110 
#    y 0.000000 3.595690 0.000000 
#    z 0.098110 0.000000 3.705330 
# 
# 
# High freq. dielectric constant tensor:
#      x y z
#    x 1.792790 0.000000 0.004720 
#    y 0.000000 1.778600 0.000000 
#    z 0.004720 0.000000 1.793070 
# 
# From -- ./inp_files/73078.got.cif
#   From: 2010.06.25/outbox.cif.g09.slc.cpg/sg11_37_cif.got.tgz:73078.got - 2010.06.27 23:14:04.
