data_PCOD8076448
_publ_section_title
;
Structure prediction by ZEFSAII (Michael W. Deem and Ramdas Pophale) SiO2 
 PCOD8076448
Probable space group: P 21/M
;
_chemical_formula_sum "Si O2"
_cell_formula_units_Z 32
_cell_length_a 15.586921
_cell_length_b 15.630790
_cell_length_c 20.569571
_cell_angle_alpha 90.000000
_cell_angle_beta 161.333876
_cell_angle_gamma 90.000000
_cell_volume 1603.940530
_symmetry_space_group_name_H-M "P 21/M"
_symmetry_group_IT_number 11
_symmetry_cell_setting 'monoclinic'
loop_
_space_group_symop_operation_xyz
x,y,z
-x,1/2+y,-z
-x,-y,-z
x,1/2-y,z
loop_
_atom_site_type_symbol
_atom_site_label
_atom_site_fract_x
_atom_site_fract_y
_atom_site_fract_z
Si Si1 0.967000 0.154665 0.218830
Si Si2 0.032949 0.848829 0.280414
Si Si3 0.221364 0.503963 0.835256
Si Si4 0.990032 0.910350 0.106132
Si Si5 0.291371 0.589079 0.084675
Si Si6 0.182942 0.998691 0.567998
Si Si7 0.572577 0.155054 0.323706
Si Si8 0.577649 0.349204 0.678675
O O1 0.931733 0.250000 0.223458
O O2 0.273062 0.124232 0.444914
O O3 0.775432 0.084950 0.114717
O O4 0.870353 0.157510 0.074601
O O5 0.933800 0.750000 0.215336
O O6 0.085983 0.872076 0.243872
O O7 0.306350 0.863399 0.517661
O O8 0.811238 0.913981 0.149946
O O9 0.988715 0.523689 0.617502
O O10 0.500000 0.500000 0.000000
O O11 0.239220 0.906053 0.236554
O O12 0.746235 0.855805 0.900878
O O13 0.901507 0.007842 0.047646
O O14 0.572152 0.564980 0.251026
O O15 0.351628 0.630951 0.196663
O O16 0.303139 0.904154 0.643318
O O17 0.000000 0.000000 0.500000
O O18 0.645786 0.250000 0.353587
O O19 0.626517 0.250000 0.698498
#
# Coordination Sequence:
#
# PCOD8076448 Si02
#       8
#     4   4   4   4   4   4   4   4
#     4  11  24  43  64  90 126 170 213 256 312 377
#     4  10  21  39  62  91 125 160 202 260 314 366
#     4  11  22  41  65  90 126 161 207 263 312 377
#     4  11  22  38  66  91 124 166 207 257 315 366
#     4  11  22  41  64  90 127 166 208 260 311 372
#     4  10  21  38  62  90 122 158 202 252 316 371
#     4   9  20  37  59  88 122 156 200 252 306 371
#     4  11  24  41  60  92 130 166 213 261 306 371
#
# _framework density 19.950863999999999
#
# number of rings (size 3 to 8) (size 9 to 14) (size 15 to 20)
#    0.000    1.500    2.500    2.625    1.750    2.000 
#    0.000    5.625    0.000    0.000    0.000    0.000 
#    0.000    0.000    0.000    0.000    0.000    0.000 
#
# Total GULP energy -396825.895814 kJ/mol
# GULP energy per Si atom -12400.809244 kJ/mol
# Density = 1.990546 g / cm^3
# Si number density = 19.950864 Si / 1000 Ang^3
#
#
#
# Elastic Constant Matrix: (Units=GPa)
#
#
# Indices 1 2 3 4 5 6 
#
# 1 116.7047 25.4810 59.1844 0.0000 3.9087 0.0000
# 2 25.4810 74.3892 37.7634 0.0000 5.1694 0.0000
# 3 59.1844 37.7634 105.9633 0.0000 -2.2403 0.0000
# 4 0.0000 0.0000 0.0000 23.1664 0.0000 -5.5200
# 5 3.9087 5.1694 -2.2403 0.0000 40.3234 0.0000
# 6 0.0000 0.0000 0.0000 -5.5200 0.0000 23.9052
#
#
#
# Elastic Compliance Matrix: (Units=1/GPa)
#
#
# Indices 1 2 3 4 5 6 
#
# 1 0.012082 -0.000729 -0.006519 0.000000 -0.001440 0.000000
# 2 -0.000729 0.016698 -0.005594 0.000000 -0.002381 0.000000
# 3 -0.006519 -0.005594 0.015118 0.000000 0.002189 0.000000
# 4 0.000000 0.000000 0.000000 0.045679 0.000000 0.010548
# 5 -0.001440 -0.002381 0.002189 0.000000 0.025366 0.000000
# 6 0.000000 0.000000 0.000000 0.010548 0.000000 0.044267
#
#
# Mechanical properties :
#
#
# Convention : Reuss Voigt Hill
#
# Bulk Modulus (GPa) = 54.90259 60.21276 57.55768
# Shear Modulus (GPa) = 26.18277 29.12090 27.65184
#
# Velocity S-wave (km/s) = 3.62659 3.82466 3.72694
# Velocity P-wave (km/s) = 6.71676 7.05337 6.88712
#
# Compressibility (1/GPa) = 0.01821408
#
# Stress axis : x y z
#
# Youngs Moduli (GPa) = 82.76824 59.88848 66.14623
#
# Poissons Ratio (x) = 0.04367 0.43119
# Poissons Ratio (y) = 0.06036 0.37001
# Poissons Ratio (z) = 0.53955 0.33500
#
# Static dielectric constant tensor:
#      x y z
#    x 3.767240 0.000000 0.144490 
#    y 0.000000 3.902960 0.000000 
#    z 0.144490 0.000000 4.688140 
# 
# 
# High freq. dielectric constant tensor:
#      x y z
#    x 1.771920 0.000000 -0.019510 
#    y 0.000000 1.783620 0.000000 
#    z -0.019510 0.000000 1.789920 
# 
# From -- ./inp_files/65780.got.cif
#   From: 2010.06.25/outbox.cif.g09.slc.cpg/sg11_33_cif.got.tgz:65780.got - 2010.06.27 23:14:04.
