data_PCOD8076738
_publ_section_title
;
Structure prediction by ZEFSAII (Michael W. Deem and Ramdas Pophale) SiO2 
 PCOD8076738
Probable space group: P 21/M
;
_chemical_formula_sum "Si O2"
_cell_formula_units_Z 32
_cell_length_a 9.694659
_cell_length_b 17.041676
_cell_length_c 12.029508
_cell_angle_alpha 90.000000
_cell_angle_beta 51.249093
_cell_angle_gamma 90.000000
_cell_volume 1549.949217
_symmetry_space_group_name_H-M "P 21/M"
_symmetry_group_IT_number 11
_symmetry_cell_setting 'monoclinic'
loop_
_space_group_symop_operation_xyz
x,y,z
-x,1/2+y,-z
-x,-y,-z
x,1/2-y,z
loop_
_atom_site_type_symbol
_atom_site_label
_atom_site_fract_x
_atom_site_fract_y
_atom_site_fract_z
Si Si1 0.887693 0.081260 0.931755
Si Si2 0.521496 0.156468 0.068240
Si Si3 0.403551 0.161788 0.896953
Si Si4 0.952690 0.902868 0.919629
Si Si5 0.833517 0.841664 0.627607
Si Si6 0.529875 0.841816 0.377927
Si Si7 0.843548 0.409356 0.399116
Si Si8 0.816498 0.589444 0.395997
O O1 0.003103 0.102286 0.764936
O O2 0.864673 0.988699 0.958636
O O3 0.694950 0.118258 0.030146
O O4 0.982540 0.118326 0.990454
O O5 0.536232 0.250000 0.064345
O O6 0.350230 0.129116 0.224842
O O7 0.510112 0.124589 0.946599
O O8 0.469824 0.250000 0.849280
O O9 0.430555 0.120205 0.764046
O O10 0.197724 0.159671 0.035434
O O11 0.109893 0.895900 0.753035
O O12 0.862834 0.750000 0.634313
O O13 0.827890 0.856875 0.498885
O O14 0.996235 0.888202 0.599804
O O15 0.578753 0.750000 0.360078
O O16 0.322203 0.853077 0.499766
O O17 0.645212 0.887586 0.410352
O O18 0.792994 0.499659 0.445576
#
# Coordination Sequence:
#
# PCOD8076738 Si02
#       8
#     4   4   4   4   4   4   4   4
#     4  10  23  40  64  93 123 160 207 254 315 369
#     4  10  23  41  62  92 124 163 208 256 312 369
#     4  10  21  40  62  88 123 161 206 258 308 364
#     4  10  21  42  64  90 122 160 208 257 308 367
#     4  11  24  43  63  91 130 166 209 263 314 375
#     4  11  24  41  64  94 125 167 212 259 318 373
#     4  11  24  42  66  92 126 170 213 257 313 379
#     4  11  24  43  63  93 129 166 210 264 314 373
#
# _framework density 20.645835999999999
#
# number of rings (size 3 to 8) (size 9 to 14) (size 15 to 20)
#    0.000    1.500    2.500    1.500    3.500    3.500 
#    0.000    0.000    0.000    0.000    0.000    0.000 
#    0.000    0.000    0.000    0.000    0.000    0.000 
#
# Total GULP energy -396827.276383 kJ/mol
# GULP energy per Si atom -12400.852387 kJ/mol
# Density = 2.059885 g / cm^3
# Si number density = 20.645836 Si / 1000 Ang^3
#
#
#
# Elastic Constant Matrix: (Units=GPa)
#
#
# Indices 1 2 3 4 5 6 
#
# 1 137.9910 39.2793 59.8712 0.0000 -1.0892 0.0000
# 2 39.2793 49.9635 31.9933 0.0000 -0.9690 0.0000
# 3 59.8712 31.9933 101.3799 0.0000 1.4283 0.0000
# 4 0.0000 0.0000 0.0000 26.6013 0.0000 -5.4321
# 5 -1.0892 -0.9690 1.4283 0.0000 43.2207 0.0000
# 6 0.0000 0.0000 0.0000 -5.4321 0.0000 35.9530
#
#
#
# Elastic Compliance Matrix: (Units=1/GPa)
#
#
# Indices 1 2 3 4 5 6 
#
# 1 0.010849 -0.005537 -0.004664 0.000000 0.000303 0.000000
# 2 -0.005537 0.027938 -0.005556 0.000000 0.000670 0.000000
# 3 -0.004664 -0.005556 0.014382 0.000000 -0.000717 0.000000
# 4 0.000000 0.000000 0.000000 0.038789 0.000000 0.005861
# 5 0.000303 0.000670 -0.000717 0.000000 0.023183 0.000000
# 6 0.000000 0.000000 0.000000 0.005861 0.000000 0.028700
#
#
# Mechanical properties :
#
#
# Convention : Reuss Voigt Hill
#
# Bulk Modulus (GPa) = 46.17884 61.29135 53.73509
# Shear Modulus (GPa) = 27.38630 31.70105 29.54367
#
# Velocity S-wave (km/s) = 3.64604 3.92276 3.78693
# Velocity P-wave (km/s) = 6.33565 7.09005 6.72344
#
# Compressibility (1/GPa) = 0.02165494
#
# Stress axis : x y z
#
# Youngs Moduli (GPa) = 92.17603 35.79328 69.53195
#
# Poissons Ratio (x) = 0.19817 0.32430
# Poissons Ratio (y) = 0.51033 0.38635
# Poissons Ratio (z) = 0.42991 0.19889
#
# Static dielectric constant tensor:
#      x y z
#    x 3.743410 0.000000 0.173610 
#    y 0.000000 3.586260 0.000000 
#    z 0.173610 0.000000 3.876120 
# 
# 
# High freq. dielectric constant tensor:
#      x y z
#    x 1.818050 0.000000 0.008170 
#    y 0.000000 1.796440 0.000000 
#    z 0.008170 0.000000 1.818840 
# 
# From -- ./inp_files/32822.got.cif
#   From: 2010.06.25/outbox.cif.g09.slc.cpg/sg11_17_cif.got.tgz:32822.got - 2010.06.27 23:14:04.
