data_PCOD8076845
_publ_section_title
;
Structure prediction by ZEFSAII (Michael W. Deem and Ramdas Pophale) SiO2 
 PCOD8076845
Probable space group: P 21/M
;
_chemical_formula_sum "Si O2"
_cell_formula_units_Z 32
_cell_length_a 9.814069
_cell_length_b 20.965695
_cell_length_c 16.047447
_cell_angle_alpha 90.000000
_cell_angle_beta 29.531362
_cell_angle_gamma 90.000000
_cell_volume 1627.507672
_symmetry_space_group_name_H-M "P 21/M"
_symmetry_group_IT_number 11
_symmetry_cell_setting 'monoclinic'
loop_
_space_group_symop_operation_xyz
x,y,z
-x,1/2+y,-z
-x,-y,-z
x,1/2-y,z
loop_
_atom_site_type_symbol
_atom_site_label
_atom_site_fract_x
_atom_site_fract_y
_atom_site_fract_z
Si Si1 0.640053 0.177224 0.428420
Si Si2 0.971633 0.883171 0.642445
Si Si3 0.793666 0.941411 0.115049
Si Si4 0.396689 0.677085 0.901582
Si Si5 0.885977 0.322891 0.116544
Si Si6 0.199067 0.515840 0.196032
Si Si7 0.884212 0.603796 0.243614
Si Si8 0.206811 0.944371 0.367931
O O1 0.556172 0.250000 0.486399
O O2 0.855462 0.160521 0.386899
O O3 0.773265 0.165426 0.268110
O O4 0.358374 0.137490 0.576639
O O5 0.123531 0.883975 0.470427
O O6 0.661832 0.859412 0.794042
O O7 0.955033 0.952905 0.690780
O O8 0.739915 0.924237 0.238892
O O9 0.514083 0.967896 0.224849
O O10 0.881454 0.876599 0.020388
O O11 0.000000 0.000000 0.000000
O O12 0.441192 0.750000 0.900897
O O13 0.354815 0.666802 0.824487
O O14 0.126406 0.653196 0.093616
O O15 0.004400 0.250000 0.044532
O O16 0.207514 0.567471 0.267750
O O17 0.007508 0.544241 0.226884
O O18 0.500000 0.500000 0.000000
O O19 0.000000 0.000000 0.500000
#
# Coordination Sequence:
#
# PCOD8076845 Si02
#       8
#     4   4   4   4   4   4   4   4
#     4  11  24  43  65  94 128 162 212 268 314 374
#     4  11  23  41  61  91 128 166 204 254 320 369
#     4  11  23  40  67  94 126 167 214 258 319 381
#     4  10  21  41  65  86 119 169 212 248 309 381
#     4   9  23  41  64  93 127 167 212 265 320 382
#     4  11  23  40  63  92 129 160 205 257 311 375
#     4  11  23  40  64  96 123 162 207 262 315 370
#     4  10  24  41  57  90 130 162 198 255 316 373
#
# _framework density 19.661967000000001
#
# number of rings (size 3 to 8) (size 9 to 14) (size 15 to 20)
#    0.000    1.500    2.500    1.500   10.500    2.000 
#    0.000    0.000    0.000    0.750    0.000    0.000 
#    0.000    0.000    0.000    0.000    0.000    0.000 
#
# Total GULP energy -396744.348974 kJ/mol
# GULP energy per Si atom -12398.260905 kJ/mol
# Density = 1.961722 g / cm^3
# Si number density = 19.661967 Si / 1000 Ang^3
#
#
#
# Elastic Constant Matrix: (Units=GPa)
#
#
# Indices 1 2 3 4 5 6 
#
# 1 90.9982 35.8144 46.7495 0.0000 2.5937 0.0000
# 2 35.8144 92.9973 36.0778 0.0000 4.4177 0.0000
# 3 46.7495 36.0778 95.4510 0.0000 -0.8298 0.0000
# 4 0.0000 0.0000 0.0000 27.1576 0.0000 -0.0008
# 5 2.5937 4.4177 -0.8298 0.0000 42.8733 0.0000
# 6 0.0000 0.0000 0.0000 -0.0008 0.0000 34.1462
#
#
#
# Elastic Compliance Matrix: (Units=1/GPa)
#
#
# Indices 1 2 3 4 5 6 
#
# 1 0.015658 -0.003538 -0.006338 0.000000 -0.000705 0.000000
# 2 -0.003538 0.013483 -0.003374 0.000000 -0.001241 0.000000
# 3 -0.006338 -0.003374 0.014865 0.000000 0.001019 0.000000
# 4 0.000000 0.000000 0.000000 0.036822 0.000000 0.000001
# 5 -0.000705 -0.001241 0.001019 0.000000 0.023515 0.000000
# 6 0.000000 0.000000 0.000000 0.000001 0.000000 0.029286
#
#
# Mechanical properties :
#
#
# Convention : Reuss Voigt Hill
#
# Bulk Modulus (GPa) = 57.12250 57.41445 57.26848
# Shear Modulus (GPa) = 30.12701 31.55572 30.84137
#
# Velocity S-wave (km/s) = 3.91864 4.01048 3.96483
# Velocity P-wave (km/s) = 7.04199 7.12106 7.08164
#
# Compressibility (1/GPa) = 0.01750624
#
# Stress axis : x y z
#
# Youngs Moduli (GPa) = 63.86661 74.16481 67.27245
#
# Poissons Ratio (x) = 0.26238 0.42635
# Poissons Ratio (y) = 0.22595 0.22701
# Poissons Ratio (z) = 0.40477 0.25027
#
# Static dielectric constant tensor:
#      x y z
#    x 3.868880 0.000000 0.202600 
#    y 0.000000 2.511600 0.000000 
#    z 0.202600 0.000000 3.481840 
# 
# 
# High freq. dielectric constant tensor:
#      x y z
#    x 1.780440 0.000000 0.005010 
#    y 0.000000 1.761690 0.000000 
#    z 0.005010 0.000000 1.771640 
# 
# From -- ./inp_files/23402.got.cif
#   From: 2010.06.25/outbox.cif.g09.slc.cpg/sg11_12_cif.got.tgz:23402.got - 2010.06.27 23:14:04.
