data_PCOD8076648
_publ_section_title
;
Structure prediction by ZEFSAII (Michael W. Deem and Ramdas Pophale) SiO2 
 PCOD8076648
Probable space group: P 21/M
;
_chemical_formula_sum "Si O2"
_cell_formula_units_Z 20
_cell_length_a 9.131693
_cell_length_b 8.357596
_cell_length_c 12.408750
_cell_angle_alpha 90.000000
_cell_angle_beta 89.406692
_cell_angle_gamma 90.000000
_cell_volume 946.972628
_symmetry_space_group_name_H-M "P 21/M"
_symmetry_group_IT_number 11
_symmetry_cell_setting 'monoclinic'
loop_
_space_group_symop_operation_xyz
x,y,z
-x,1/2+y,-z
-x,-y,-z
x,1/2-y,z
loop_
_atom_site_type_symbol
_atom_site_label
_atom_site_fract_x
_atom_site_fract_y
_atom_site_fract_z
Si Si1 0.169527 0.067118 0.322271
Si Si2 0.145227 0.064652 0.703852
Si Si3 0.338599 0.935068 0.516585
Si Si4 0.659301 0.061615 0.116643
Si Si5 0.654041 0.064000 0.869280
O O1 0.197893 0.250000 0.354965
O O2 0.248737 0.953346 0.407162
O O3 0.232429 0.034819 0.203161
O O4 0.997196 0.035871 0.325657
O O5 0.103512 0.250000 0.710995
O O6 0.266689 0.036468 0.612410
O O7 0.203847 0.006421 0.818816
O O8 0.342294 0.750000 0.550256
O O9 0.500000 0.000000 0.500000
O O10 0.643821 0.250000 0.132871
O O11 0.511671 0.979682 0.161841
O O12 0.684981 0.015259 0.992268
O O13 0.680660 0.250000 0.848561
#
# Coordination Sequence:
#
# PCOD8076648 Si02
#       5
#     4   4   4   4   4
#     4  12  25  42  63  90 124 161 202 249 304 361
#     4  12  25  42  63  90 124 161 202 249 304 361
#     4  12  25  44  67  92 122 158 202 248 299 358
#     4  10  21  39  63  91 123 161 205 251 300 356
#     4  10  21  39  63  91 123 161 205 251 300 356
#
# _framework density 21.119934000000001
#
# number of rings (size 3 to 8) (size 9 to 14) (size 15 to 20)
#    0.000    0.800    0.000    8.400    0.000    3.200 
#    0.000    0.000    0.000    0.000    0.000    0.000 
#    0.000    0.000    0.000    0.000    0.000    0.000 
#
# Total GULP energy -248199.852352 kJ/mol
# GULP energy per Si atom -12409.992618 kJ/mol
# Density = 2.107186 g / cm^3
# Si number density = 21.119934 Si / 1000 Ang^3
#
#
#
# Elastic Constant Matrix: (Units=GPa)
#
#
# Indices 1 2 3 4 5 6 
#
# 1 111.7369 9.5241 34.9564 0.0000 16.0946 0.0000
# 2 9.5241 76.3932 16.9851 0.0000 5.9369 0.0000
# 3 34.9564 16.9851 87.2676 0.0000 6.7355 0.0000
# 4 0.0000 0.0000 0.0000 37.2286 0.0000 -2.0822
# 5 16.0946 5.9369 6.7355 0.0000 30.5544 0.0000
# 6 0.0000 0.0000 0.0000 -2.0822 0.0000 35.4403
#
#
#
# Elastic Compliance Matrix: (Units=1/GPa)
#
#
# Indices 1 2 3 4 5 6 
#
# 1 0.010899 -0.000099 -0.003972 0.000000 -0.004846 0.000000
# 2 -0.000099 0.013818 -0.002489 0.000000 -0.002084 0.000000
# 3 -0.003972 -0.002489 0.013567 0.000000 -0.000415 0.000000
# 4 0.000000 0.000000 0.000000 0.026950 0.000000 0.001583
# 5 -0.004846 -0.002084 -0.000415 0.000000 0.035778 0.000000
# 6 0.000000 0.000000 0.000000 0.001583 0.000000 0.028310
#
#
# Mechanical properties :
#
#
# Convention : Reuss Voigt Hill
#
# Bulk Modulus (GPa) = 39.74126 44.25880 42.00003
# Shear Modulus (GPa) = 33.15033 34.90679 34.02856
#
# Velocity S-wave (km/s) = 3.96614 4.06986 4.01834
# Velocity P-wave (km/s) = 6.31122 6.56403 6.43887
#
# Compressibility (1/GPa) = 0.02516276
#
# Stress axis : x y z
#
# Youngs Moduli (GPa) = 91.75319 72.37016 73.71027
#
# Poissons Ratio (x) = 0.00716 0.29281
# Poissons Ratio (y) = 0.00908 0.18346
# Poissons Ratio (z) = 0.36448 0.18012
#
# Static dielectric constant tensor:
#      x y z
#    x 3.815750 0.000000 0.048850 
#    y 0.000000 4.686950 0.000000 
#    z 0.048850 0.000000 3.927280 
# 
# 
# High freq. dielectric constant tensor:
#      x y z
#    x 1.831810 0.000000 0.002250 
#    y 0.000000 1.842100 0.000000 
#    z 0.002250 0.000000 1.838210 
# 
# From -- ./inp_files/16015.got.cif
#   From: 2010.06.25/outbox.cif.g09.slc.cpg/sg11_9_cif.got.tgz:16015.got - 2010.06.27 23:14:04.
