data_PCOD8076485
_publ_section_title
;
Structure prediction by ZEFSAII (Michael W. Deem and Ramdas Pophale) SiO2 
 PCOD8076485
Probable space group: P 21/M
;
_chemical_formula_sum "Si O2"
_cell_formula_units_Z 32
_cell_length_a 30.854018
_cell_length_b 8.813153
_cell_length_c 11.874959
_cell_angle_alpha 90.000000
_cell_angle_beta 30.092752
_cell_angle_gamma 90.000000
_cell_volume 1619.051280
_symmetry_space_group_name_H-M "P 21/M"
_symmetry_group_IT_number 11
_symmetry_cell_setting 'monoclinic'
loop_
_space_group_symop_operation_xyz
x,y,z
-x,1/2+y,-z
-x,-y,-z
x,1/2-y,z
loop_
_atom_site_type_symbol
_atom_site_label
_atom_site_fract_x
_atom_site_fract_y
_atom_site_fract_z
Si Si1 0.406243 0.574258 0.209401
Si Si2 0.748183 0.923391 0.323549
Si Si3 0.528153 0.072195 0.552825
Si Si4 0.708944 0.576873 0.161632
Si Si5 0.221753 0.928599 0.212804
Si Si6 0.109263 0.573697 0.849726
Si Si7 0.380350 0.576436 0.012947
Si Si8 0.912607 0.573880 0.333105
O O1 0.414355 0.750000 0.226155
O O2 0.346051 0.487494 0.433125
O O3 0.500000 0.500000 0.000000
O O4 0.361492 0.557978 0.187558
O O5 0.755231 0.750000 0.349479
O O6 0.761897 0.933247 0.158661
O O7 0.822582 0.024733 0.210284
O O8 0.529095 0.250000 0.535537
O O9 0.500000 0.000000 0.500000
O O10 0.622588 0.018120 0.373206
O O11 0.462489 0.026246 0.798784
O O12 0.685076 0.750000 0.185611
O O13 0.767021 0.508307 0.932250
O O14 0.220702 0.750000 0.196673
O O15 0.130834 0.982106 0.467759
O O16 0.297786 0.978774 0.127367
O O17 0.121287 0.750000 0.793960
O O18 0.126381 0.481019 0.697637
O O19 0.014292 0.539105 0.111238
O O20 0.402847 0.750000 0.932058
O O21 0.891569 0.750000 0.394555
#
# Coordination Sequence:
#
# PCOD8076485 Si02
#       8
#     4   4   4   4   4   4   4   4
#     4  11  23  39  59  85 120 156 196 246 295 352
#     4  11  24  41  62  87 119 159 201 245 298 357
#     4  12  23  36  57  83 113 153 198 244 293 348
#     4  11  24  41  59  83 118 157 199 248 297 352
#     4  11  22  37  60  88 117 152 196 245 298 352
#     4  10  21  39  64  93 122 156 197 241 292 353
#     4  10  22  38  56  82 115 150 193 244 295 347
#     4  10  21  38  63  93 125 155 190 241 298 354
#
# _framework density 19.764659999999999
#
# number of rings (size 3 to 8) (size 9 to 14) (size 15 to 20)
#    0.000    1.250    1.250    4.875    0.000    9.000 
#    0.000    0.625    0.000    0.000    0.000    0.000 
#    0.000    0.000    0.000    0.000    0.000    0.000 
#
# Total GULP energy -397020.156484 kJ/mol
# GULP energy per Si atom -12406.879890 kJ/mol
# Density = 1.971967 g / cm^3
# Si number density = 19.764660 Si / 1000 Ang^3
#
#
#
# Elastic Constant Matrix: (Units=GPa)
#
#
# Indices 1 2 3 4 5 6 
#
# 1 80.7070 23.0244 35.0864 0.0000 2.7385 0.0000
# 2 23.0244 95.2438 38.8530 0.0000 5.4120 0.0000
# 3 35.0864 38.8530 104.2053 0.0000 9.3761 0.0000
# 4 0.0000 0.0000 0.0000 36.8068 0.0000 0.2160
# 5 2.7385 5.4120 9.3761 0.0000 30.8730 0.0000
# 6 0.0000 0.0000 0.0000 0.2160 0.0000 32.8028
#
#
#
# Elastic Compliance Matrix: (Units=1/GPa)
#
#
# Indices 1 2 3 4 5 6 
#
# 1 0.014781 -0.001827 -0.004324 0.000000 0.000323 0.000000
# 2 -0.001827 0.012627 -0.004018 0.000000 -0.000831 0.000000
# 3 -0.004324 -0.004018 0.012803 0.000000 -0.002800 0.000000
# 4 0.000000 0.000000 0.000000 0.027170 0.000000 -0.000179
# 5 0.000323 -0.000831 -0.002800 0.000000 0.033358 0.000000
# 6 0.000000 0.000000 0.000000 -0.000179 0.000000 0.030486
#
#
# Mechanical properties :
#
#
# Convention : Reuss Voigt Hill
#
# Bulk Modulus (GPa) = 50.32441 52.67596 51.50019
# Shear Modulus (GPa) = 31.60772 32.30932 31.95852
#
# Velocity S-wave (km/s) = 4.00334 4.04753 4.02550
# Velocity P-wave (km/s) = 6.84734 6.96798 6.90793
#
# Compressibility (1/GPa) = 0.01987107
#
# Stress axis : x y z
#
# Youngs Moduli (GPa) = 67.65486 79.19247 78.10914
#
# Poissons Ratio (x) = 0.14472 0.33778
# Poissons Ratio (y) = 0.12363 0.31385
# Poissons Ratio (z) = 0.29257 0.31820
#
# Static dielectric constant tensor:
#      x y z
#    x 4.216600 0.000000 -0.673680 
#    y 0.000000 3.833210 0.000000 
#    z -0.673680 0.000000 4.364900 
# 
# 
# High freq. dielectric constant tensor:
#      x y z
#    x 1.767450 0.000000 0.007030 
#    y 0.000000 1.785770 0.000000 
#    z 0.007030 0.000000 1.770590 
# 
# From -- ./inp_files/45190.got.cif
#   From: 2010.06.25/outbox.cif.g09.slc.cpg/sg11_23_cif.got.tgz:45190.got - 2010.06.27 23:14:04.
