data_PCOD8076084
_publ_section_title
;
Structure prediction by ZEFSAII (Michael W. Deem and Ramdas Pophale) SiO2 
 PCOD8076084
Probable space group: P 21/M
;
_chemical_formula_sum "Si O2"
_cell_formula_units_Z 24
_cell_length_a 14.385211
_cell_length_b 9.231639
_cell_length_c 9.852931
_cell_angle_alpha 90.000000
_cell_angle_beta 99.686884
_cell_angle_gamma 90.000000
_cell_volume 1289.804115
_symmetry_space_group_name_H-M "P 21/M"
_symmetry_group_IT_number 11
_symmetry_cell_setting 'monoclinic'
loop_
_space_group_symop_operation_xyz
x,y,z
-x,1/2+y,-z
-x,-y,-z
x,1/2-y,z
loop_
_atom_site_type_symbol
_atom_site_label
_atom_site_fract_x
_atom_site_fract_y
_atom_site_fract_z
Si Si1 0.747430 0.583544 0.922246
Si Si2 0.380378 0.580365 0.594606
Si Si3 0.071044 0.581414 0.114958
Si Si4 0.965126 0.583465 0.361504
Si Si5 0.755430 0.580660 0.234978
Si Si6 0.595991 0.915768 0.664829
O O1 0.781917 0.750000 0.919530
O O2 0.824917 0.481312 0.874244
O O3 0.650144 0.557203 0.818761
O O4 0.730116 0.542189 0.073906
O O5 0.360044 0.750000 0.583595
O O6 0.313034 0.510346 0.688106
O O7 0.358870 0.514722 0.441262
O O8 0.487309 0.543580 0.663963
O O9 0.069960 0.750000 0.076367
O O10 0.039729 0.555398 0.261200
O O11 0.000000 0.500000 0.000000
O O12 0.959991 0.750000 0.400784
O O13 0.862302 0.530096 0.288797
O O14 0.000000 0.500000 0.500000
O O15 0.741222 0.750000 0.261425
O O16 0.605375 0.750000 0.618630
#
# Coordination Sequence:
#
# PCOD8076084 Si02
#       6
#     4   4   4   4   4   4
#     4  10  21  39  61  84 112 150 192 233 282 338
#     4  10  21  37  58  86 117 147 187 235 279 335
#     4  11  22  39  60  85 116 150 189 233 279 334
#     4  10  23  40  57  82 115 150 190 231 280 335
#     4  10  21  39  58  81 114 151 187 230 284 339
#     4   9  20  39  61  84 112 150 189 229 286 342
#
# _framework density 18.607478
#
# number of rings (size 3 to 8) (size 9 to 14) (size 15 to 20)
#    0.000    2.000    1.667    1.000    2.333    4.667 
#    0.000    0.000    0.000    0.000    0.000    0.000 
#    0.000    0.000    0.000    0.000    0.000    0.000 
#
# Total GULP energy -297699.085217 kJ/mol
# GULP energy per Si atom -12404.128551 kJ/mol
# Density = 1.856513 g / cm^3
# Si number density = 18.607478 Si / 1000 Ang^3
#
#
#
# Elastic Constant Matrix: (Units=GPa)
#
#
# Indices 1 2 3 4 5 6 
#
# 1 83.6912 49.3614 55.9485 0.0000 -13.9926 0.0000
# 2 49.3614 86.2702 63.6764 0.0000 -12.4290 0.0000
# 3 55.9485 63.6764 142.6286 0.0000 2.5645 0.0000
# 4 0.0000 0.0000 0.0000 32.6382 0.0000 -3.3692
# 5 -13.9926 -12.4290 2.5645 0.0000 35.3282 0.0000
# 6 0.0000 0.0000 0.0000 -3.3692 0.0000 36.3635
#
#
#
# Elastic Compliance Matrix: (Units=1/GPa)
#
#
# Indices 1 2 3 4 5 6 
#
# 1 0.020498 -0.007251 -0.004910 0.000000 0.005924 0.000000
# 2 -0.007251 0.021569 -0.006879 0.000000 0.005216 0.000000
# 3 -0.004910 -0.006879 0.012103 0.000000 -0.005244 0.000000
# 4 0.000000 0.000000 0.000000 0.030935 0.000000 0.002866
# 5 0.005924 0.005216 -0.005244 0.000000 0.032868 0.000000
# 6 0.000000 0.000000 0.000000 0.002866 0.000000 0.027766
#
#
# Mechanical properties :
#
#
# Convention : Reuss Voigt Hill
#
# Bulk Modulus (GPa) = 62.15020 72.28473 67.21747
# Shear Modulus (GPa) = 26.42957 30.43956 28.43456
#
# Velocity S-wave (km/s) = 3.77287 4.04899 3.91337
# Velocity P-wave (km/s) = 7.24242 7.79683 7.52473
#
# Compressibility (1/GPa) = 0.01609005
#
# Stress axis : x y z
#
# Youngs Moduli (GPa) = 48.78466 46.36273 82.62582
#
# Poissons Ratio (x) = 0.33616 0.40571
# Poissons Ratio (y) = 0.35372 0.56839
# Poissons Ratio (z) = 0.23954 0.31893
#
# Static dielectric constant tensor:
#      x y z
#    x 3.635090 0.000000 0.093740 
#    y 0.000000 3.936900 0.000000 
#    z 0.093740 0.000000 3.406510 
# 
# 
# High freq. dielectric constant tensor:
#      x y z
#    x 1.725960 0.000000 0.002270 
#    y 0.000000 1.724340 0.000000 
#    z 0.002270 0.000000 1.729850 
# 
# From -- ./inp_files/20306.got.cif
#   From: 2010.06.25/outbox.cif.g09.slc.cpg/sg11_11_cif.got.tgz:20306.got - 2010.06.27 23:14:04.
