data_PCOD8076163
_publ_section_title
;
Structure prediction by ZEFSAII (Michael W. Deem and Ramdas Pophale) SiO2 
 PCOD8076163
Probable space group: P 21/M
;
_chemical_formula_sum "Si O2"
_cell_formula_units_Z 32
_cell_length_a 21.271425
_cell_length_b 8.940209
_cell_length_c 27.425045
_cell_angle_alpha 90.000000
_cell_angle_beta 18.535896
_cell_angle_gamma 90.000000
_cell_volume 1657.984199
_symmetry_space_group_name_H-M "P 21/M"
_symmetry_group_IT_number 11
_symmetry_cell_setting 'monoclinic'
loop_
_space_group_symop_operation_xyz
x,y,z
-x,1/2+y,-z
-x,-y,-z
x,1/2-y,z
loop_
_atom_site_type_symbol
_atom_site_label
_atom_site_fract_x
_atom_site_fract_y
_atom_site_fract_z
Si Si1 0.621605 0.419385 0.951943
Si Si2 0.974445 0.074532 0.942916
Si Si3 0.746016 0.073890 0.450174
Si Si4 0.701627 0.575039 0.216732
Si Si5 0.031581 0.075710 0.155175
Si Si6 0.552858 0.575891 0.102770
Si Si7 0.849028 0.572827 0.573358
Si Si8 0.073595 0.083047 0.591944
O O1 0.542797 0.250000 0.019108
O O2 0.845519 0.414508 0.771547
O O3 0.500000 0.500000 0.000000
O O4 0.605741 0.522333 0.010413
O O5 0.944990 0.250000 0.960167
O O6 0.163248 0.030580 0.836803
O O7 0.016372 0.009201 0.859093
O O8 0.776760 0.007121 0.112626
O O9 0.769062 0.250000 0.433854
O O10 0.520245 0.023737 0.606897
O O11 0.887304 0.009429 0.303492
O O12 0.808404 0.018276 0.457264
O O13 0.711462 0.750000 0.198137
O O14 0.988513 0.250000 0.179035
O O15 0.259025 0.046709 0.001345
O O16 0.494643 0.750000 0.144032
O O17 0.373376 0.478865 0.254390
O O18 0.865804 0.750000 0.566553
O O19 0.903935 0.517759 0.478870
O O20 0.000000 0.500000 0.500000
O O21 0.162840 0.250000 0.529111
#
# Coordination Sequence:
#
# PCOD8076163 Si02
#       8
#     4   4   4   4   4   4   4   4
#     4  11  22  38  62  88 117 154 194 243 297 354
#     4  10  21  37  60  89 121 157 195 239 292 349
#     4  10  21  39  62  86 115 155 199 240 289 348
#     4   9  20  39  61  88 120 154 197 243 289 346
#     4  10  22  39  59  86 120 157 197 243 291 348
#     4  11  23  40  60  86 119 157 201 245 293 352
#     4  11  24  42  62  88 120 155 196 248 303 359
#     4  10  23  40  58  86 120 149 190 245 296 347
#
# _framework density 19.300547000000002
#
# number of rings (size 3 to 8) (size 9 to 14) (size 15 to 20)
#    0.000    1.750    1.250    2.250    1.750    5.500 
#    0.000    0.000    0.000    0.000    0.000    0.000 
#    0.000    0.000    0.000    0.000    0.000    0.000 
#
# Total GULP energy -396899.868857 kJ/mol
# GULP energy per Si atom -12403.120902 kJ/mol
# Density = 1.925662 g / cm^3
# Si number density = 19.300547 Si / 1000 Ang^3
#
#
#
# Elastic Constant Matrix: (Units=GPa)
#
#
# Indices 1 2 3 4 5 6 
#
# 1 141.3497 49.6335 60.2800 0.0000 16.6320 0.0000
# 2 49.6335 54.6190 40.2316 0.0000 -2.3901 0.0000
# 3 60.2800 40.2316 122.6918 0.0000 7.2113 0.0000
# 4 0.0000 0.0000 0.0000 30.8953 0.0000 1.2796
# 5 16.6320 -2.3901 7.2113 0.0000 34.6538 0.0000
# 6 0.0000 0.0000 0.0000 1.2796 0.0000 41.3256
#
#
#
# Elastic Compliance Matrix: (Units=1/GPa)
#
#
# Indices 1 2 3 4 5 6 
#
# 1 0.012180 -0.009467 -0.002529 0.000000 -0.005972 0.000000
# 2 -0.009467 0.031888 -0.006278 0.000000 0.008049 0.000000
# 3 -0.002529 -0.006278 0.011547 0.000000 -0.001622 0.000000
# 4 0.000000 0.000000 0.000000 0.032409 0.000000 -0.001003
# 5 -0.005972 0.008049 -0.001622 0.000000 0.032616 0.000000
# 6 0.000000 0.000000 0.000000 -0.001003 0.000000 0.024229
#
#
# Mechanical properties :
#
#
# Convention : Reuss Voigt Hill
#
# Bulk Modulus (GPa) = 52.44642 68.77229 60.60935
# Shear Modulus (GPa) = 26.62785 32.60931 29.61858
#
# Velocity S-wave (km/s) = 3.71838 4.11488 3.92164
# Velocity P-wave (km/s) = 6.75779 7.63452 7.20950
#
# Compressibility (1/GPa) = 0.01906708
#
# Stress axis : x y z
#
# Youngs Moduli (GPa) = 82.10125 31.35960 86.60231
#
# Poissons Ratio (x) = 0.29688 0.21901
# Poissons Ratio (y) = 0.77724 0.54371
# Poissons Ratio (z) = 0.20763 0.19688
#
# Static dielectric constant tensor:
#      x y z
#    x 3.432480 0.000000 0.018440 
#    y 0.000000 3.643280 0.000000 
#    z 0.018440 0.000000 3.766880 
# 
# 
# High freq. dielectric constant tensor:
#      x y z
#    x 1.759740 0.000000 0.002550 
#    y 0.000000 1.752900 0.000000 
#    z 0.002550 0.000000 1.761400 
# 
# From -- ./inp_files/72008.got.cif
#   From: 2010.06.25/outbox.cif.g09.slc.cpg/sg11_37_cif.got.tgz:72008.got - 2010.06.27 23:14:04.
