data_PCOD8076140
_publ_section_title
;
Structure prediction by ZEFSAII (Michael W. Deem and Ramdas Pophale) SiO2 
 PCOD8076140
Probable space group: P 21/M
;
_chemical_formula_sum "Si O2"
_cell_formula_units_Z 32
_cell_length_a 15.285952
_cell_length_b 8.576372
_cell_length_c 11.949968
_cell_angle_alpha 90.000000
_cell_angle_beta 89.035133
_cell_angle_gamma 90.000000
_cell_volume 1566.394900
_symmetry_space_group_name_H-M "P 21/M"
_symmetry_group_IT_number 11
_symmetry_cell_setting 'monoclinic'
loop_
_space_group_symop_operation_xyz
x,y,z
-x,1/2+y,-z
-x,-y,-z
x,1/2-y,z
loop_
_atom_site_type_symbol
_atom_site_label
_atom_site_fract_x
_atom_site_fract_y
_atom_site_fract_z
Si Si1 0.164516 0.069942 0.506506
Si Si2 0.650495 0.067782 0.509732
Si Si3 0.248181 0.932754 0.142457
Si Si4 0.603679 0.066539 0.266994
Si Si5 0.906211 0.930727 0.251625
Si Si6 0.912954 0.571197 0.724587
Si Si7 0.592277 0.568711 0.735955
Si Si8 0.242981 0.933711 0.890164
O O1 0.195379 0.250000 0.509741
O O2 0.119447 0.017638 0.622674
O O3 0.095525 0.043653 0.408249
O O4 0.246105 0.958588 0.481387
O O5 0.630104 0.250000 0.525991
O O6 0.618111 0.999792 0.391456
O O7 0.600244 0.970308 0.604912
O O8 0.227805 0.750000 0.148784
O O9 0.176823 0.024697 0.214630
O O10 0.343646 0.964316 0.191246
O O11 0.246016 0.998255 0.016177
O O12 0.618742 0.250000 0.274447
O O13 0.506741 0.027441 0.224460
O O14 0.675896 0.992626 0.181801
O O15 0.889776 0.750000 0.231576
O O16 0.848881 0.023670 0.163558
O O17 0.007705 0.969178 0.228988
O O18 0.933492 0.750000 0.751155
O O19 0.613817 0.750000 0.754330
O O20 0.253487 0.750000 0.893202
#
# Coordination Sequence:
#
# PCOD8076140 Si02
#       8
#     4   4   4   4   4   4   4   4
#     4  10  21  37  59  90 123 156 190 237 295 352
#     4  11  20  34  61  90 120 157 197 239 291 353
#     4  11  24  41  62  87 116 154 204 254 295 345
#     4   9  20  38  61  89 119 158 197 241 297 353
#     4  11  23  39  62  93 124 152 195 245 294 354
#     4  11  23  40  63  88 121 161 196 236 297 358
#     4  11  22  38  60  87 124 159 195 242 298 357
#     4  10  22  43  64  84 116 157 203 250 297 348
#
# _framework density 20.429075999999998
#
# number of rings (size 3 to 8) (size 9 to 14) (size 15 to 20)
#    0.000    1.500    2.500    2.625    0.000    3.000 
#    0.000    3.125    0.000    0.000    0.000    0.000 
#    0.000    0.000    0.000    0.000    0.000    0.000 
#
# Total GULP energy -396945.202336 kJ/mol
# GULP energy per Si atom -12404.537573 kJ/mol
# Density = 2.038258 g / cm^3
# Si number density = 20.429076 Si / 1000 Ang^3
#
#
#
# Elastic Constant Matrix: (Units=GPa)
#
#
# Indices 1 2 3 4 5 6 
#
# 1 97.8029 3.8972 29.4689 0.0000 6.9183 0.0000
# 2 3.8972 26.7216 14.4768 0.0000 -4.0256 0.0000
# 3 29.4689 14.4768 126.2531 0.0000 11.6106 0.0000
# 4 0.0000 0.0000 0.0000 19.9435 0.0000 3.5386
# 5 6.9183 -4.0256 11.6106 0.0000 13.1157 0.0000
# 6 0.0000 0.0000 0.0000 3.5386 0.0000 28.5056
#
#
#
# Elastic Compliance Matrix: (Units=1/GPa)
#
#
# Indices 1 2 3 4 5 6 
#
# 1 0.011210 -0.001181 -0.002073 0.000000 -0.004441 0.000000
# 2 -0.001181 0.044217 -0.006640 0.000000 0.020073 0.000000
# 3 -0.002073 -0.006640 0.010073 0.000000 -0.009862 0.000000
# 4 0.000000 0.000000 0.000000 0.051271 0.000000 -0.006365
# 5 -0.004441 0.020073 -0.009862 0.000000 0.093478 0.000000
# 6 0.000000 0.000000 0.000000 -0.006365 0.000000 0.035871
#
#
# Mechanical properties :
#
#
# Convention : Reuss Voigt Hill
#
# Bulk Modulus (GPa) = 21.87641 38.49592 30.18617
# Shear Modulus (GPa) = 17.78442 25.84194 21.81318
#
# Velocity S-wave (km/s) = 2.95370 3.56048 3.27119
# Velocity P-wave (km/s) = 4.72908 5.98225 5.39219
#
# Compressibility (1/GPa) = 0.04571134
#
# Stress axis : x y z
#
# Youngs Moduli (GPa) = 89.20291 22.61597 99.27787
#
# Poissons Ratio (x) = 0.02671 0.20579
# Poissons Ratio (y) = 0.10535 0.65924
# Poissons Ratio (z) = 0.18490 0.15018
#
# Static dielectric constant tensor:
#      x y z
#    x 3.677060 0.000000 -0.085300 
#    y 0.000000 3.486260 0.000000 
#    z -0.085300 0.000000 3.895170 
# 
# 
# High freq. dielectric constant tensor:
#      x y z
#    x 1.805990 0.000000 0.001800 
#    y 0.000000 1.785490 0.000000 
#    z 0.001800 0.000000 1.798980 
# 
# From -- ./inp_files/38181.got.cif
#   From: 2010.06.25/outbox.cif.g09.slc.cpg/sg11_20_cif.got.tgz:38181.got - 2010.06.27 23:14:04.
