data_PCOD8076078
_publ_section_title
;
Structure prediction by ZEFSAII (Michael W. Deem and Ramdas Pophale) SiO2 
 PCOD8076078
Probable space group: P 21/M
;
_chemical_formula_sum "Si O2"
_cell_formula_units_Z 32
_cell_length_a 30.584480
_cell_length_b 8.866015
_cell_length_c 12.181566
_cell_angle_alpha 90.000000
_cell_angle_beta 150.422939
_cell_angle_gamma 90.000000
_cell_volume 1630.430558
_symmetry_space_group_name_H-M "P 21/M"
_symmetry_group_IT_number 11
_symmetry_cell_setting 'monoclinic'
loop_
_space_group_symop_operation_xyz
x,y,z
-x,1/2+y,-z
-x,-y,-z
x,1/2-y,z
loop_
_atom_site_type_symbol
_atom_site_label
_atom_site_fract_x
_atom_site_fract_y
_atom_site_fract_z
Si Si1 0.513392 0.579176 0.818224
Si Si2 0.039920 0.427337 0.913311
Si Si3 0.337816 0.581245 0.544921
Si Si4 0.300283 0.424857 0.678911
Si Si5 0.933960 0.071038 0.267649
Si Si6 0.732848 0.074910 0.847423
Si Si7 0.126275 0.925544 0.304380
Si Si8 0.564653 0.925188 0.555280
O O1 0.516753 0.750000 0.776438
O O2 0.444546 0.577066 0.768816
O O3 0.478221 0.458839 0.655331
O O4 0.609347 0.524417 0.065847
O O5 0.053739 0.250000 0.926484
O O6 0.047647 0.508138 0.813416
O O7 0.944336 0.466678 0.756157
O O8 0.111533 0.487934 0.156882
O O9 0.307602 0.750000 0.514433
O O10 0.306221 0.459708 0.563223
O O11 0.291022 0.534987 0.329619
O O12 0.281043 0.250000 0.654289
O O13 0.220574 0.520601 0.558239
O O14 0.946668 0.250000 0.292178
O O15 0.834612 0.028060 0.090033
O O16 0.000000 0.000000 0.500000
O O17 0.717077 0.250000 0.835979
O O18 0.665773 0.987315 0.782289
O O19 0.125027 0.750000 0.274864
O O20 0.569131 0.750000 0.588907
O O21 0.500000 0.000000 0.500000
#
# Coordination Sequence:
#
# PCOD8076078 Si02
#       8
#     4   4   4   4   4   4   4   4
#     4   9  20  37  53  76 112 149 187 231 278 330
#     4  10  21  39  62  85 112 149 196 245 293 349
#     4   9  17  32  55  79 110 148 186 231 281 332
#     4  11  21  32  51  82 116 149 187 230 276 334
#     4  11  23  40  63  90 122 157 195 245 302 353
#     4   9  20  39  60  84 113 149 192 236 282 338
#     4  10  21  37  58  84 115 153 193 237 291 351
#     4  11  22  38  62  86 110 146 189 236 286 340
#
# _framework density 19.626719000000001
#
# number of rings (size 3 to 8) (size 9 to 14) (size 15 to 20)
#    0.000    2.000    0.000    4.500    0.000    6.500 
#    2.250    0.000    0.000    0.000    0.000    0.000 
#    0.000    0.000    0.000    0.000    0.000    0.000 
#
# Total GULP energy -396782.765892 kJ/mol
# GULP energy per Si atom -12399.461434 kJ/mol
# Density = 1.958205 g / cm^3
# Si number density = 19.626719 Si / 1000 Ang^3
#
#
#
# Elastic Constant Matrix: (Units=GPa)
#
#
# Indices 1 2 3 4 5 6 
#
# 1 102.4619 52.8383 49.3055 0.0000 15.1420 0.0000
# 2 52.8383 95.9547 49.4080 0.0000 9.6428 0.0000
# 3 49.3055 49.4080 132.2343 0.0000 29.1049 0.0000
# 4 0.0000 0.0000 0.0000 33.7390 0.0000 2.0934
# 5 15.1420 9.6428 29.1049 0.0000 25.3575 0.0000
# 6 0.0000 0.0000 0.0000 2.0934 0.0000 36.0095
#
#
#
# Elastic Compliance Matrix: (Units=1/GPa)
#
#
# Indices 1 2 3 4 5 6 
#
# 1 0.014802 -0.006634 -0.002208 0.000000 -0.003782 0.000000
# 2 -0.006634 0.015891 -0.004022 0.000000 0.002535 0.000000
# 3 -0.002208 -0.004022 0.012392 0.000000 -0.011376 0.000000
# 4 0.000000 0.000000 0.000000 0.029747 0.000000 -0.001729
# 5 -0.003782 0.002535 -0.011376 0.000000 0.053787 0.000000
# 6 0.000000 0.000000 0.000000 -0.001729 0.000000 0.027871
#
#
# Mechanical properties :
#
#
# Convention : Reuss Voigt Hill
#
# Bulk Modulus (GPa) = 57.61212 70.41718 64.01465
# Shear Modulus (GPa) = 26.88127 30.96115 28.92121
#
# Velocity S-wave (km/s) = 3.70486 3.97608 3.84287
# Velocity P-wave (km/s) = 6.90789 7.55216 7.23720
#
# Compressibility (1/GPa) = 0.01735746
#
# Stress axis : x y z
#
# Youngs Moduli (GPa) = 67.55744 62.92977 80.69645
#
# Poissons Ratio (x) = 0.41747 0.17819
# Poissons Ratio (y) = 0.44817 0.32454
# Poissons Ratio (z) = 0.14918 0.25309
#
# Static dielectric constant tensor:
#      x y z
#    x 3.629680 0.000000 0.316030 
#    y 0.000000 3.333990 0.000000 
#    z 0.316030 0.000000 3.719570 
# 
# 
# High freq. dielectric constant tensor:
#      x y z
#    x 1.758320 0.000000 0.023670 
#    y 0.000000 1.767760 0.000000 
#    z 0.023670 0.000000 1.764960 
# 
# From -- ./inp_files/45291.got.cif
#   From: 2010.06.25/outbox.cif.g09.slc.cpg/sg11_23_cif.got.tgz:45291.got - 2010.06.27 23:14:04.
