data_PCOD8076610
_publ_section_title
;
Structure prediction by ZEFSAII (Michael W. Deem and Ramdas Pophale) SiO2 
 PCOD8076610
Probable space group: P 21/M
;
_chemical_formula_sum "Si O2"
_cell_formula_units_Z 32
_cell_length_a 25.488319
_cell_length_b 8.815535
_cell_length_c 14.561339
_cell_angle_alpha 90.000000
_cell_angle_beta 30.127138
_cell_angle_gamma 90.000000
_cell_volume 1642.200114
_symmetry_space_group_name_H-M "P 21/M"
_symmetry_group_IT_number 11
_symmetry_cell_setting 'monoclinic'
loop_
_space_group_symop_operation_xyz
x,y,z
-x,1/2+y,-z
-x,-y,-z
x,1/2-y,z
loop_
_atom_site_type_symbol
_atom_site_label
_atom_site_fract_x
_atom_site_fract_y
_atom_site_fract_z
Si Si1 0.610089 0.922713 0.833266
Si Si2 0.773851 0.574699 0.433314
Si Si3 0.697626 0.072231 0.368508
Si Si4 0.507530 0.070884 0.387964
Si Si5 0.167007 0.076747 0.986557
Si Si6 0.925384 0.072293 0.347576
Si Si7 0.785706 0.570843 0.701689
Si Si8 0.715953 0.924110 0.006763
O O1 0.588244 0.750000 0.888643
O O2 0.665312 0.945830 0.651722
O O3 0.683503 0.989479 0.802271
O O4 0.500000 0.000000 0.000000
O O5 0.796631 0.750000 0.376979
O O6 0.765482 0.482787 0.351963
O O7 0.869524 0.511531 0.347942
O O8 0.677015 0.250000 0.406268
O O9 0.586321 0.988055 0.533872
O O10 0.762619 0.036118 0.178921
O O11 0.498728 0.250000 0.411577
O O12 0.500000 0.000000 0.500000
O O13 0.615711 0.028183 0.175792
O O14 0.188540 0.250000 0.922857
O O15 0.197807 0.053871 0.045624
O O16 0.046944 0.033044 0.156029
O O17 0.903393 0.250000 0.373633
O O18 0.885686 0.012440 0.506489
O O19 0.800565 0.750000 0.663975
O O20 0.773191 0.525531 0.826546
O O21 0.677669 0.750000 0.058273
#
# Coordination Sequence:
#
# PCOD8076610 Si02
#       8
#     4   4   4   4   4   4   4   4
#     4   9  19  34  53  80 112 149 191 238 293 348
#     4  10  22  41  61  85 118 157 197 247 303 356
#     4  12  25  40  62  91 120 158 202 246 300 363
#     4  12  24  40  61  88 123 161 200 247 298 353
#     4  10  22  40  62  87 120 158 201 253 302 352
#     4  10  21  39  62  89 119 157 201 249 303 357
#     4   9  20  38  58  84 118 157 199 245 299 353
#     4  10  21  39  62  88 120 161 204 248 298 354
#
# _framework density 19.486052999999998
#
# number of rings (size 3 to 8) (size 9 to 14) (size 15 to 20)
#    0.000    1.750    1.250    3.750    1.750    5.000 
#    0.000    0.000    0.000    0.000    0.000    0.000 
#    0.000    0.000    0.000    0.000    0.000    0.000 
#
# Total GULP energy -396929.078701 kJ/mol
# GULP energy per Si atom -12404.033709 kJ/mol
# Density = 1.944170 g / cm^3
# Si number density = 19.486053 Si / 1000 Ang^3
#
#
#
# Elastic Constant Matrix: (Units=GPa)
#
#
# Indices 1 2 3 4 5 6 
#
# 1 103.2211 37.7347 30.3863 0.0000 5.5925 0.0000
# 2 37.7347 108.5014 36.6291 0.0000 -4.7610 0.0000
# 3 30.3863 36.6291 66.8541 0.0000 -17.5350 0.0000
# 4 0.0000 0.0000 0.0000 35.7091 0.0000 1.7848
# 5 5.5925 -4.7610 -17.5350 0.0000 32.4804 0.0000
# 6 0.0000 0.0000 0.0000 1.7848 0.0000 27.9378
#
#
#
# Elastic Compliance Matrix: (Units=1/GPa)
#
#
# Indices 1 2 3 4 5 6 
#
# 1 0.012689 -0.002713 -0.005776 0.000000 -0.005701 0.000000
# 2 -0.002713 0.011997 -0.005541 0.000000 -0.000766 0.000000
# 3 -0.005776 -0.005541 0.024076 0.000000 0.013180 0.000000
# 4 0.000000 0.000000 0.000000 0.028094 0.000000 -0.001795
# 5 -0.005701 -0.000766 0.013180 0.000000 0.038773 0.000000
# 6 0.000000 0.000000 0.000000 -0.001795 0.000000 0.035908
#
#
# Mechanical properties :
#
#
# Convention : Reuss Voigt Hill
#
# Bulk Modulus (GPa) = 48.30440 54.23075 51.26757
# Shear Modulus (GPa) = 26.81001 30.81388 28.81195
#
# Velocity S-wave (km/s) = 3.71328 3.98091 3.84942
# Velocity P-wave (km/s) = 6.57477 7.00151 6.79149
#
# Compressibility (1/GPa) = 0.02070205
#
# Stress axis : x y z
#
# Youngs Moduli (GPa) = 78.80811 83.35438 41.53517
#
# Poissons Ratio (x) = 0.22616 0.23991
# Poissons Ratio (y) = 0.21382 0.23013
# Poissons Ratio (z) = 0.45520 0.46184
#
# Static dielectric constant tensor:
#      x y z
#    x 4.318540 0.000000 -0.306960 
#    y 0.000000 3.590580 0.000000 
#    z -0.306960 0.000000 3.667180 
# 
# 
# High freq. dielectric constant tensor:
#      x y z
#    x 1.767110 0.000000 -0.000600 
#    y 0.000000 1.759630 0.000000 
#    z -0.000600 0.000000 1.757990 
# 
# From -- ./inp_files/55574.got.cif
#   From: 2010.06.25/outbox.cif.g09.slc.cpg/sg11_28_cif.got.tgz:55574.got - 2010.06.27 23:14:04.
