data_PCOD8076086
_publ_section_title
;
Structure prediction by ZEFSAII (Michael W. Deem and Ramdas Pophale) SiO2 
 PCOD8076086
Probable space group: P 21/M
;
_chemical_formula_sum "Si O2"
_cell_formula_units_Z 28
_cell_length_a 12.661741
_cell_length_b 9.017946
_cell_length_c 15.288245
_cell_angle_alpha 90.000000
_cell_angle_beta 57.043171
_cell_angle_gamma 90.000000
_cell_volume 1464.746345
_symmetry_space_group_name_H-M "P 21/M"
_symmetry_group_IT_number 11
_symmetry_cell_setting 'monoclinic'
loop_
_space_group_symop_operation_xyz
x,y,z
-x,1/2+y,-z
-x,-y,-z
x,1/2-y,z
loop_
_atom_site_type_symbol
_atom_site_label
_atom_site_fract_x
_atom_site_fract_y
_atom_site_fract_z
Si Si1 0.571452 0.921587 0.044120
Si Si2 0.199117 0.586957 0.119253
Si Si3 0.443019 0.074281 0.438577
Si Si4 0.934086 0.077497 0.643526
Si Si5 0.187328 0.924586 0.482843
Si Si6 0.881055 0.089602 0.029404
Si Si7 0.606523 0.423384 0.197097
O O1 0.541386 0.750000 0.061105
O O2 0.529603 0.990566 0.156243
O O3 0.500000 0.000000 0.000000
O O4 0.714327 0.955115 0.954973
O O5 0.264686 0.750000 0.106247
O O6 0.132429 0.533021 0.236829
O O7 0.104766 0.606500 0.081429
O O8 0.425964 0.250000 0.461291
O O9 0.546249 0.040664 0.317573
O O10 0.500000 0.000000 0.500000
O O11 0.309138 0.007157 0.468073
O O12 0.972512 0.250000 0.622054
O O13 0.835328 0.039748 0.609974
O O14 0.060560 0.980686 0.586465
O O15 0.204889 0.750000 0.491814
O O16 0.890903 0.250000 0.069942
O O17 0.750788 0.018639 0.125257
O O18 0.000000 0.000000 0.000000
O O19 0.601135 0.250000 0.176361
#
# Coordination Sequence:
#
# PCOD8076086 Si02
#       7
#     4   4   4   4   4   4   4
#     4  11  22  35  55  84 116 150 187 229 283 348
#     4   9  19  36  55  80 112 146 189 238 285 339
#     4  11  24  42  63  86 117 157 205 253 303 360
#     4   9  19  37  60  85 115 153 196 245 302 357
#     4  10  21  37  58  86 118 152 196 248 303 359
#     4   9  18  34  55  78 110 145 184 231 284 338
#     4   9  21  41  59  81 114 152 192 241 289 340
#
# _framework density 19.115938
#
# number of rings (size 3 to 8) (size 9 to 14) (size 15 to 20)
#    0.000    2.286    0.000    3.000    2.000    5.714 
#    0.000    2.857    0.000    0.000    0.000    0.000 
#    0.000    0.000    0.000    0.000    0.000    0.000 
#
# Total GULP energy -346912.728281 kJ/mol
# GULP energy per Si atom -12389.740296 kJ/mol
# Density = 1.907243 g / cm^3
# Si number density = 19.115938 Si / 1000 Ang^3
#
#
#
# Elastic Constant Matrix: (Units=GPa)
#
#
# Indices 1 2 3 4 5 6 
#
# 1 136.2286 63.3385 59.8261 0.0000 6.3890 0.0000
# 2 63.3385 104.3032 52.9478 0.0000 9.5777 0.0000
# 3 59.8261 52.9478 141.2539 0.0000 17.2431 0.0000
# 4 0.0000 0.0000 0.0000 29.2599 0.0000 -0.2112
# 5 6.3890 9.5777 17.2431 0.0000 18.8785 0.0000
# 6 0.0000 0.0000 0.0000 -0.2112 0.0000 37.2058
#
#
#
# Elastic Compliance Matrix: (Units=1/GPa)
#
#
# Indices 1 2 3 4 5 6 
#
# 1 0.011023 -0.005399 -0.002841 0.000000 0.001603 0.000000
# 2 -0.005399 0.014567 -0.002807 0.000000 -0.002999 0.000000
# 3 -0.002841 -0.002807 0.010179 0.000000 -0.006911 0.000000
# 4 0.000000 0.000000 0.000000 0.034178 0.000000 0.000194
# 5 0.001603 -0.002999 -0.006911 0.000000 0.060262 0.000000
# 6 0.000000 0.000000 0.000000 0.000194 0.000000 0.026879
#
#
# Mechanical properties :
#
#
# Convention : Reuss Voigt Hill
#
# Bulk Modulus (GPa) = 73.13096 81.55673 77.34385
# Shear Modulus (GPa) = 27.21258 30.78038 28.99648
#
# Velocity S-wave (km/s) = 3.77710 4.01708 3.89893
# Velocity P-wave (km/s) = 7.57374 8.01703 7.79853
#
# Compressibility (1/GPa) = 0.01367410
#
# Stress axis : x y z
#
# Youngs Moduli (GPa) = 90.71811 68.65060 98.24609
#
# Poissons Ratio (x) = 0.37065 0.27908
# Poissons Ratio (y) = 0.48979 0.27581
# Poissons Ratio (z) = 0.25769 0.19273
#
# Static dielectric constant tensor:
#      x y z
#    x 3.388650 0.000000 0.054270 
#    y 0.000000 3.659930 0.000000 
#    z 0.054270 0.000000 3.528460 
# 
# 
# High freq. dielectric constant tensor:
#      x y z
#    x 1.740290 0.000000 0.007210 
#    y 0.000000 1.745120 0.000000 
#    z 0.007210 0.000000 1.745440 
# 
# From -- ./inp_files/49132.got.cif
#   From: 2010.06.25/outbox.cif.g09.slc.cpg/sg11_25_cif.got.tgz:49132.got - 2010.06.27 23:14:04.
