data_PCOD8076244
_publ_section_title
;
Structure prediction by ZEFSAII (Michael W. Deem and Ramdas Pophale) SiO2 
 PCOD8076244
Probable space group: P 21/M
;
_chemical_formula_sum "Si O2"
_cell_formula_units_Z 32
_cell_length_a 15.326370
_cell_length_b 8.788456
_cell_length_c 11.992190
_cell_angle_alpha 90.000000
_cell_angle_beta 86.467611
_cell_angle_gamma 90.000000
_cell_volume 1612.220729
_symmetry_space_group_name_H-M "P 21/M"
_symmetry_group_IT_number 11
_symmetry_cell_setting 'monoclinic'
loop_
_space_group_symop_operation_xyz
x,y,z
-x,1/2+y,-z
-x,-y,-z
x,1/2-y,z
loop_
_atom_site_type_symbol
_atom_site_label
_atom_site_fract_x
_atom_site_fract_y
_atom_site_fract_z
Si Si1 0.123242 0.072273 0.942679
Si Si2 0.027937 0.071754 0.175430
Si Si3 0.698112 0.071488 0.039098
Si Si4 0.068712 0.929753 0.409441
Si Si5 0.412540 0.423048 0.551611
Si Si6 0.266098 0.929847 0.423048
Si Si7 0.444495 0.424209 0.804776
Si Si8 0.358846 0.569787 0.196565
O O1 0.110722 0.250000 0.921200
O O2 0.222557 0.023266 0.915124
O O3 0.095165 0.028880 0.071022
O O4 0.067617 0.981668 0.855514
O O5 0.025863 0.250000 0.200441
O O6 0.055720 0.986540 0.284926
O O7 0.718589 0.250000 0.043628
O O8 0.610930 0.034578 0.113067
O O9 0.685148 0.014386 0.913811
O O10 0.057349 0.750000 0.410312
O O11 0.165108 0.977854 0.444135
O O12 0.000000 0.000000 0.500000
O O13 0.500000 0.500000 0.500000
O O14 0.414899 0.250000 0.510501
O O15 0.323757 0.500644 0.516815
O O16 0.407517 0.435190 0.684055
O O17 0.277096 0.750000 0.426895
O O18 0.301581 0.995227 0.302707
O O19 0.440308 0.250000 0.848613
O O20 0.542435 0.490815 0.801134
O O21 0.361725 0.750000 0.202045
#
# Coordination Sequence:
#
# PCOD8076244 Si02
#       8
#     4   4   4   4   4   4   4   4
#     4  10  21  38  61  88 119 155 194 242 302 365
#     4  10  21  39  64  90 118 151 198 251 299 358
#     4  11  22  35  56  86 119 154 197 242 290 354
#     4  11  24  41  63  89 125 166 203 250 306 363
#     4  11  22  38  62  87 116 153 196 248 297 351
#     4  10  21  40  64  88 116 156 201 244 296 355
#     4  10  21  38  57  79 116 158 193 240 298 351
#     4   9  18  36  59  82 114 152 192 240 295 350
#
# _framework density 19.848398
#
# number of rings (size 3 to 8) (size 9 to 14) (size 15 to 20)
#    0.000    1.750    1.250    3.000    0.000    5.500 
#    0.000    4.375    0.000    0.000    0.000    0.000 
#    0.000    0.000    0.000    0.000    0.000    0.000 
#
# Total GULP energy -396913.894801 kJ/mol
# GULP energy per Si atom -12403.559213 kJ/mol
# Density = 1.980322 g / cm^3
# Si number density = 19.848398 Si / 1000 Ang^3
#
#
#
# Elastic Constant Matrix: (Units=GPa)
#
#
# Indices 1 2 3 4 5 6 
#
# 1 147.0228 45.3116 31.8815 0.0000 8.2967 0.0000
# 2 45.3116 56.0868 26.7694 0.0000 2.1105 0.0000
# 3 31.8815 26.7694 43.7318 0.0000 9.6404 0.0000
# 4 0.0000 0.0000 0.0000 33.4519 0.0000 0.5720
# 5 8.2967 2.1105 9.6404 0.0000 31.6127 0.0000
# 6 0.0000 0.0000 0.0000 0.5720 0.0000 33.4723
#
#
#
# Elastic Compliance Matrix: (Units=1/GPa)
#
#
# Indices 1 2 3 4 5 6 
#
# 1 0.009386 -0.006214 -0.002774 0.000000 -0.001203 0.000000
# 2 -0.006214 0.029615 -0.014496 0.000000 0.004074 0.000000
# 3 -0.002774 -0.014496 0.035795 0.000000 -0.009220 0.000000
# 4 0.000000 0.000000 0.000000 0.029902 0.000000 -0.000511
# 5 -0.001203 0.004074 -0.009220 0.000000 0.034488 0.000000
# 6 0.000000 0.000000 0.000000 -0.000511 0.000000 0.029884
#
#
# Mechanical properties :
#
#
# Convention : Reuss Voigt Hill
#
# Bulk Modulus (GPa) = 35.93496 50.52961 43.23229
# Shear Modulus (GPa) = 22.19116 29.23266 25.71191
#
# Velocity S-wave (km/s) = 3.34733 3.84187 3.60309
# Velocity P-wave (km/s) = 5.75182 6.72257 6.25606
#
# Compressibility (1/GPa) = 0.02782805
#
# Stress axis : x y z
#
# Youngs Moduli (GPa) = 106.54085 33.76675 27.93675
#
# Poissons Ratio (x) = 0.20981 0.07750
# Poissons Ratio (y) = 0.66200 0.40498
# Poissons Ratio (z) = 0.29555 0.48950
#
# Static dielectric constant tensor:
#      x y z
#    x 3.720140 0.000000 0.071560 
#    y 0.000000 3.511550 0.000000 
#    z 0.071560 0.000000 3.688410 
# 
# 
# High freq. dielectric constant tensor:
#      x y z
#    x 1.785660 0.000000 0.006160 
#    y 0.000000 1.767390 0.000000 
#    z 0.006160 0.000000 1.775810 
# 
# From -- ./inp_files/38095.got.cif
#   From: 2010.06.25/outbox.cif.g09.slc.cpg/sg11_20_cif.got.tgz:38095.got - 2010.06.27 23:14:04.
