data_PCOD8076259
_publ_section_title
;
Structure prediction by ZEFSAII (Michael W. Deem and Ramdas Pophale) SiO2 
 PCOD8076259
Probable space group: P 21/M
;
_chemical_formula_sum "Si O2"
_cell_formula_units_Z 32
_cell_length_a 12.280126
_cell_length_b 8.781142
_cell_length_c 20.111985
_cell_angle_alpha 90.000000
_cell_angle_beta 125.685243
_cell_angle_gamma 90.000000
_cell_volume 1761.529073
_symmetry_space_group_name_H-M "P 21/M"
_symmetry_group_IT_number 11
_symmetry_cell_setting 'monoclinic'
loop_
_space_group_symop_operation_xyz
x,y,z
-x,1/2+y,-z
-x,-y,-z
x,1/2-y,z
loop_
_atom_site_type_symbol
_atom_site_label
_atom_site_fract_x
_atom_site_fract_y
_atom_site_fract_z
Si Si1 0.681241 0.570848 0.262564
Si Si2 0.154393 0.569779 0.791927
Si Si3 0.596290 0.926597 0.870845
Si Si4 0.641897 0.572710 0.034480
Si Si5 0.358822 0.928437 0.469351
Si Si6 0.148808 0.069095 0.296081
Si Si7 0.681050 0.928747 0.762265
Si Si8 0.383751 0.572722 0.628003
O O1 0.694934 0.750000 0.263303
O O2 0.799935 0.497009 0.262161
O O3 0.540235 0.522016 0.180056
O O4 0.698488 0.517772 0.344998
O O5 0.167414 0.750000 0.794830
O O6 0.241998 0.508609 0.883881
O O7 0.003116 0.514321 0.750345
O O8 0.554706 0.750000 0.847368
O O9 0.694285 0.977472 0.844780
O O10 0.672844 0.953167 0.967267
O O11 0.637830 0.750000 0.051835
O O12 0.500000 0.500000 0.000000
O O13 0.368805 0.750000 0.459124
O O14 0.325080 0.962096 0.534578
O O15 0.500000 0.000000 0.500000
O O16 0.236985 0.999895 0.386034
O O17 0.160542 0.250000 0.304909
O O18 0.202916 0.004163 0.244090
O O19 0.690965 0.750000 0.759027
O O20 0.537453 0.984858 0.684036
O O21 0.376074 0.750000 0.643458
#
# Coordination Sequence:
#
# PCOD8076259 Si02
#       8
#     4   4   4   4   4   4   4   4
#     4  11  21  33  54  82 111 141 183 234 278 329
#     4  11  23  38  56  78 113 154 188 227 281 340
#     4   9  18  33  55  80 109 142 179 225 282 334
#     4  11  21  34  56  83 111 145 187 234 279 328
#     4  11  21  35  58  86 116 148 185 232 278 329
#     4  10  21  38  58  81 111 150 191 230 278 335
#     4   8  14  31  55  78 106 141 180 219 271 330
#     4   9  18  34  56  80 111 146 180 223 279 333
#
# _framework density 18.166035000000001
#
# number of rings (size 3 to 8) (size 9 to 14) (size 15 to 20)
#    0.000    2.000    2.500    3.000    0.000    2.500 
#    0.000    1.250    0.000    0.000    0.000    0.000 
#    0.000    0.000    0.000    0.000    0.000    0.000 
#
# Total GULP energy -396729.338114 kJ/mol
# GULP energy per Si atom -12397.791816 kJ/mol
# Density = 1.812469 g / cm^3
# Si number density = 18.166035 Si / 1000 Ang^3
#
#
#
# Elastic Constant Matrix: (Units=GPa)
#
#
# Indices 1 2 3 4 5 6 
#
# 1 166.3360 51.3792 83.9828 0.0000 -9.1608 0.0000
# 2 51.3792 69.0217 41.8170 0.0000 2.0960 0.0000
# 3 83.9828 41.8170 119.2622 0.0000 -3.6968 0.0000
# 4 0.0000 0.0000 0.0000 30.1439 0.0000 -3.4609
# 5 -9.1608 2.0960 -3.6968 0.0000 29.1275 0.0000
# 6 0.0000 0.0000 0.0000 -3.4609 0.0000 18.3679
#
#
#
# Elastic Compliance Matrix: (Units=1/GPa)
#
#
# Indices 1 2 3 4 5 6 
#
# 1 0.010399 -0.004374 -0.005700 0.000000 0.002862 0.000000
# 2 -0.004374 0.020371 -0.004167 0.000000 -0.003370 0.000000
# 3 -0.005700 -0.004167 0.013868 0.000000 0.000267 0.000000
# 4 0.000000 0.000000 0.000000 0.033908 0.000000 0.006389
# 5 0.002862 -0.003370 0.000267 0.000000 0.035508 0.000000
# 6 0.000000 0.000000 0.000000 0.006389 0.000000 0.055647
#
#
# Mechanical properties :
#
#
# Convention : Reuss Voigt Hill
#
# Bulk Modulus (GPa) = 61.89874 78.77533 70.33703
# Shear Modulus (GPa) = 24.56172 27.35724 25.95948
#
# Velocity S-wave (km/s) = 3.68104 3.88487 3.78433
# Velocity P-wave (km/s) = 7.22596 7.97378 7.60907
#
# Compressibility (1/GPa) = 0.01615542
#
# Stress axis : x y z
#
# Youngs Moduli (GPa) = 96.16620 49.08887 72.10697
#
# Poissons Ratio (x) = 0.21472 0.41102
# Poissons Ratio (y) = 0.42064 0.30048
# Poissons Ratio (z) = 0.54817 0.20456
#
# Static dielectric constant tensor:
#      x y z
#    x 3.640880 0.000000 -0.302270 
#    y 0.000000 3.273670 0.000000 
#    z -0.302270 0.000000 3.386540 
# 
# 
# High freq. dielectric constant tensor:
#      x y z
#    x 1.704650 0.000000 -0.028130 
#    y 0.000000 1.697080 0.000000 
#    z -0.028130 0.000000 1.694390 
# 
# From -- ./inp_files/64440.got.cif
#   From: 2010.06.25/outbox.cif.g09.slc.cpg/sg11_33_cif.got.tgz:64440.got - 2010.06.27 23:14:04.
