data_PCOD8076008
_publ_section_title
;
Structure prediction by ZEFSAII (Michael W. Deem and Ramdas Pophale) SiO2 
 PCOD8076008
Probable space group: P 21/M
;
_chemical_formula_sum "Si O2"
_cell_formula_units_Z 28
_cell_length_a 14.670359
_cell_length_b 8.859926
_cell_length_c 21.666095
_cell_angle_alpha 90.000000
_cell_angle_beta 148.696577
_cell_angle_gamma 90.000000
_cell_volume 1463.173001
_symmetry_space_group_name_H-M "P 21/M"
_symmetry_group_IT_number 11
_symmetry_cell_setting 'monoclinic'
loop_
_space_group_symop_operation_xyz
x,y,z
-x,1/2+y,-z
-x,-y,-z
x,1/2-y,z
loop_
_atom_site_type_symbol
_atom_site_label
_atom_site_fract_x
_atom_site_fract_y
_atom_site_fract_z
Si Si1 0.167882 0.927120 0.362842
Si Si2 0.489870 0.423707 0.903957
Si Si3 0.929770 0.571695 0.021421
Si Si4 0.227466 0.071879 0.854827
Si Si5 0.440421 0.575734 0.191229
Si Si6 0.782282 0.572113 0.733320
Si Si7 0.453614 0.925438 0.627140
O O1 0.172683 0.750000 0.350129
O O2 0.278021 0.962330 0.487909
O O3 0.971224 0.989366 0.260038
O O4 0.259124 0.016072 0.359530
O O5 0.525149 0.250000 0.940111
O O6 0.323853 0.483026 0.847616
O O7 0.448776 0.446808 0.807729
O O8 0.667316 0.510917 0.025161
O O9 0.947840 0.750000 0.028097
O O10 0.040222 0.510141 0.142867
O O11 0.729333 0.527559 0.913439
O O12 0.000000 0.500000 0.000000
O O13 0.222444 0.250000 0.856393
O O14 0.386230 0.750000 0.168922
O O15 0.556743 0.521495 0.316107
O O16 0.811547 0.750000 0.750895
O O17 0.622971 0.524938 0.685637
O O18 0.466164 0.750000 0.651574
#
# Coordination Sequence:
#
# PCOD8076008 Si02
#       7
#     4   4   4   4   4   4   4
#     4  10  21  37  57  80 106 144 189 230 274 322
#     4   9  19  35  56  83 111 138 174 222 276 330
#     4  12  23  36  55  80 111 143 179 222 269 321
#     4   9  18  35  58  82 108 138 176 225 276 325
#     4  11  22  36  56  81 111 147 183 223 274 326
#     4  11  22  36  55  80 110 146 184 227 275 322
#     4  10  22  38  54  75 109 149 188 227 269 326
#
# _framework density 19.136495
#
# number of rings (size 3 to 8) (size 9 to 14) (size 15 to 20)
#    0.000    1.714    1.429    3.429    0.000    5.143 
#    0.000    0.714    0.000    0.000    0.000    0.000 
#    0.000    0.000    0.000    0.000    0.000    0.000 
#
# Total GULP energy -347288.254329 kJ/mol
# GULP energy per Si atom -12403.151940 kJ/mol
# Density = 1.909294 g / cm^3
# Si number density = 19.136495 Si / 1000 Ang^3
#
#
#
# Elastic Constant Matrix: (Units=GPa)
#
#
# Indices 1 2 3 4 5 6 
#
# 1 103.5239 37.0545 50.2600 0.0000 -21.7680 0.0000
# 2 37.0545 69.3031 33.7674 0.0000 -8.7412 0.0000
# 3 50.2600 33.7674 108.3730 0.0000 -12.3881 0.0000
# 4 0.0000 0.0000 0.0000 30.6858 0.0000 -6.5410
# 5 -21.7680 -8.7412 -12.3881 0.0000 25.2024 0.0000
# 6 0.0000 0.0000 0.0000 -6.5410 0.0000 25.9232
#
#
#
# Elastic Compliance Matrix: (Units=1/GPa)
#
#
# Indices 1 2 3 4 5 6 
#
# 1 0.015687 -0.004916 -0.004651 0.000000 0.009558 0.000000
# 2 -0.004916 0.018847 -0.003529 0.000000 0.000556 0.000000
# 3 -0.004651 -0.003529 0.012592 0.000000 0.000949 0.000000
# 4 0.000000 0.000000 0.000000 0.034441 0.000000 0.008690
# 5 0.009558 0.000556 0.000949 0.000000 0.048594 0.000000
# 6 0.000000 0.000000 0.000000 0.008690 0.000000 0.040768
#
#
# Mechanical properties :
#
#
# Convention : Reuss Voigt Hill
#
# Bulk Modulus (GPa) = 47.76650 58.15155 52.95903
# Shear Modulus (GPa) = 24.49790 27.03681 25.76735
#
# Velocity S-wave (km/s) = 3.58182 3.76285 3.67345
# Velocity P-wave (km/s) = 6.49008 7.02371 6.76216
#
# Compressibility (1/GPa) = 0.02093518
#
# Stress axis : x y z
#
# Youngs Moduli (GPa) = 63.74790 53.05766 79.41305
#
# Poissons Ratio (x) = 0.26081 0.36934
# Poissons Ratio (y) = 0.31336 0.28027
# Poissons Ratio (z) = 0.29648 0.18725
#
# Static dielectric constant tensor:
#      x y z
#    x 3.602220 0.000000 0.066960 
#    y 0.000000 3.483530 0.000000 
#    z 0.066960 0.000000 3.504420 
# 
# 
# High freq. dielectric constant tensor:
#      x y z
#    x 1.746640 0.000000 -0.009620 
#    y 0.000000 1.743230 0.000000 
#    z -0.009620 0.000000 1.737280 
# 
# From -- ./inp_files/37466.got.cif
#   From: 2010.06.25/outbox.cif.g09.slc.cpg/sg11_19_cif.got.tgz:37466.got - 2010.06.27 23:14:04.
