data_PCOD8076858
_publ_section_title
;
Structure prediction by ZEFSAII (Michael W. Deem and Ramdas Pophale) SiO2 
 PCOD8076858
Probable space group: P 21/M
;
_chemical_formula_sum "Si O2"
_cell_formula_units_Z 32
_cell_length_a 23.712451
_cell_length_b 8.911635
_cell_length_c 14.910517
_cell_angle_alpha 90.000000
_cell_angle_beta 149.960582
_cell_angle_gamma 90.000000
_cell_volume 1577.297593
_symmetry_space_group_name_H-M "P 21/M"
_symmetry_group_IT_number 11
_symmetry_cell_setting 'monoclinic'
loop_
_space_group_symop_operation_xyz
x,y,z
-x,1/2+y,-z
-x,-y,-z
x,1/2-y,z
loop_
_atom_site_type_symbol
_atom_site_label
_atom_site_fract_x
_atom_site_fract_y
_atom_site_fract_z
Si Si1 0.933863 0.072887 0.488813
Si Si2 0.727918 0.916385 0.132415
Si Si3 0.380758 0.927984 0.183464
Si Si4 0.636181 0.575680 0.495218
Si Si5 0.241207 0.571814 0.502986
Si Si6 0.000442 0.427346 0.775275
Si Si7 0.385240 0.083762 0.847024
Si Si8 0.751395 0.574263 0.839785
O O1 0.938140 0.250000 0.488925
O O2 0.985017 0.013915 0.652653
O O3 0.808688 0.015328 0.305112
O O4 0.000000 0.000000 0.500000
O O5 0.775731 0.750000 0.172728
O O6 0.626198 0.900419 0.061344
O O7 0.697620 0.001694 0.000414
O O8 0.369727 0.750000 0.166587
O O9 0.509559 0.979081 0.344010
O O10 0.335825 0.987812 0.216380
O O11 0.635203 0.750000 0.468246
O O12 0.687961 0.485574 0.483821
O O13 0.714597 0.542778 0.687978
O O14 0.251264 0.750000 0.521453
O O15 0.108348 0.522363 0.314846
O O16 0.289022 0.506552 0.661564
O O17 0.005931 0.250000 0.783676
O O18 0.120447 0.489699 0.976054
O O19 0.391773 0.250000 0.812841
O O20 0.500000 0.000000 0.000000
O O21 0.744725 0.750000 0.854750
#
# Coordination Sequence:
#
# PCOD8076858 Si02
#       8
#     4   4   4   4   4   4   4   4
#     4  11  21  36  58  86 122 160 200 246 297 358
#     4  11  23  38  57  85 117 156 200 240 297 363
#     4  11  23  39  60  90 125 158 201 257 313 371
#     4  10  23  41  62  90 123 161 204 257 318 369
#     4  11  22  39  62  88 122 163 207 253 306 368
#     4   9  20  38  60  87 121 160 201 250 307 360
#     4  11  23  38  59  87 120 158 202 249 299 362
#     4  10  21  41  66  89 120 161 205 256 313 374
#
# _framework density 20.287865
#
# number of rings (size 3 to 8) (size 9 to 14) (size 15 to 20)
#    0.000    1.500    1.250    3.750    0.000    6.500 
#    0.000    1.875    0.000    0.000    0.000    0.000 
#    0.000    0.000    0.000    0.000    0.000    0.000 
#
# Total GULP energy -396676.008884 kJ/mol
# GULP energy per Si atom -12396.125278 kJ/mol
# Density = 2.024169 g / cm^3
# Si number density = 20.287865 Si / 1000 Ang^3
#
#
#
# Elastic Constant Matrix: (Units=GPa)
#
#
# Indices 1 2 3 4 5 6 
#
# 1 101.6864 38.5300 23.7535 0.0000 10.8098 0.0000
# 2 38.5300 85.4012 26.1832 0.0000 1.6224 0.0000
# 3 23.7535 26.1832 99.5629 0.0000 6.7074 0.0000
# 4 0.0000 0.0000 0.0000 24.6001 0.0000 1.2453
# 5 10.8098 1.6224 6.7074 0.0000 36.1880 0.0000
# 6 0.0000 0.0000 0.0000 1.2453 0.0000 30.3342
#
#
#
# Elastic Compliance Matrix: (Units=1/GPa)
#
#
# Indices 1 2 3 4 5 6 
#
# 1 0.012447 -0.005124 -0.001405 0.000000 -0.003228 0.000000
# 2 -0.005124 0.014845 -0.002775 0.000000 0.001379 0.000000
# 3 -0.001405 -0.002775 0.011212 0.000000 -0.001534 0.000000
# 4 0.000000 0.000000 0.000000 0.040735 0.000000 -0.001672
# 5 -0.003228 0.001379 -0.001534 0.000000 0.028820 0.000000
# 6 0.000000 0.000000 0.000000 -0.001672 0.000000 0.033035
#
#
# Mechanical properties :
#
#
# Convention : Reuss Voigt Hill
#
# Bulk Modulus (GPa) = 50.25476 51.50930 50.88203
# Shear Modulus (GPa) = 30.06021 31.43671 30.74846
#
# Velocity S-wave (km/s) = 3.85344 3.94068 3.89730
# Velocity P-wave (km/s) = 6.68007 6.79335 6.73695
#
# Compressibility (1/GPa) = 0.01989861
#
# Stress axis : x y z
#
# Youngs Moduli (GPa) = 80.34197 67.36055 89.18972
#
# Poissons Ratio (x) = 0.34513 0.12528
# Poissons Ratio (y) = 0.41164 0.24747
# Poissons Ratio (z) = 0.11285 0.18690
#
# Static dielectric constant tensor:
#      x y z
#    x 3.553680 0.000000 0.156440 
#    y 0.000000 3.724410 0.000000 
#    z 0.156440 0.000000 4.078180 
# 
# 
# High freq. dielectric constant tensor:
#      x y z
#    x 1.804090 0.000000 0.006440 
#    y 0.000000 1.785990 0.000000 
#    z 0.006440 0.000000 1.799320 
# 
# From -- ./inp_files/55726.got.cif
#   From: 2010.06.25/outbox.cif.g09.slc.cpg/sg11_28_cif.got.tgz:55726.got - 2010.06.27 23:14:04.
