data_PCOD8076209
_publ_section_title
;
Structure prediction by ZEFSAII (Michael W. Deem and Ramdas Pophale) SiO2 
 PCOD8076209
Probable space group: P 21/M
;
_chemical_formula_sum "Si O2"
_cell_formula_units_Z 14
_cell_length_a 22.701799
_cell_length_b 5.208436
_cell_length_c 9.165668
_cell_angle_alpha 90.000000
_cell_angle_beta 35.780320
_cell_angle_gamma 90.000000
_cell_volume 633.649746
_symmetry_space_group_name_H-M "P 21/M"
_symmetry_group_IT_number 11
_symmetry_cell_setting 'monoclinic'
loop_
_space_group_symop_operation_xyz
x,y,z
-x,1/2+y,-z
-x,-y,-z
x,1/2-y,z
loop_
_atom_site_type_symbol
_atom_site_label
_atom_site_fract_x
_atom_site_fract_y
_atom_site_fract_z
Si Si1 0.131759 0.750000 0.220869
Si Si2 0.403767 0.250000 0.952603
Si Si3 0.078679 0.250000 0.216269
Si Si4 0.666459 0.250000 0.076863
Si Si5 0.289534 0.250000 0.489711
Si Si6 0.637568 0.250000 0.486221
Si Si7 0.053030 0.250000 0.949890
O O1 0.152541 0.494315 0.085001
O O2 0.012677 0.750000 0.486872
O O3 0.211429 0.750000 0.194822
O O4 0.345713 0.250000 0.221939
O O5 0.380275 0.499828 0.903084
O O6 0.520166 0.250000 0.758979
O O7 0.023432 0.250000 0.176419
O O8 0.651778 0.250000 0.282012
O O9 0.314520 0.499748 0.535002
O O10 0.172011 0.250000 0.683989
O O11 0.000000 0.500000 0.000000
#
# Coordination Sequence:
#
# PCOD8076209 Si02
#       7
#     2   2   2   2   2   2   2
#     4  10  21  37  63  86 121 164 205 261 308 387
#     4  12  26  42  68 104 136 170 224 281 335 383
#     4  10  21  39  58  88 120 162 215 251 311 374
#     4  12  24  41  69  98 138 169 222 277 339 380
#     4  12  26  45  71  96 135 182 221 269 338 400
#     4  12  24  47  70  97 134 181 225 269 327 411
#     4  12  26  41  65  93 132 166 216 266 322 387
#
# _framework density 22.094227
#
# number of rings (size 3 to 8) (size 9 to 14) (size 15 to 20)
#    0.000    0.571    0.000    8.571    4.000    0.000 
#    0.000    0.000    0.000    0.000    0.000    0.000 
#    0.000    0.000    0.000    0.000    0.000    0.000 
#
# Total GULP energy -173502.691390 kJ/mol
# GULP energy per Si atom -12393.049385 kJ/mol
# Density = 2.204394 g / cm^3
# Si number density = 22.094227 Si / 1000 Ang^3
#
#
#
# Elastic Constant Matrix: (Units=GPa)
#
#
# Indices 1 2 3 4 5 6 
#
# 1 126.3365 82.0161 58.1432 0.0000 -0.3609 0.0000
# 2 82.0161 230.6918 52.4486 0.0000 -5.9923 0.0000
# 3 58.1432 52.4486 112.9053 0.0000 -8.0575 0.0000
# 4 0.0000 0.0000 0.0000 49.1912 0.0000 -2.3057
# 5 -0.3609 -5.9923 -8.0575 0.0000 60.6394 0.0000
# 6 0.0000 0.0000 0.0000 -2.3057 0.0000 56.9031
#
#
#
# Elastic Compliance Matrix: (Units=1/GPa)
#
#
# Indices 1 2 3 4 5 6 
#
# 1 0.012284 -0.003285 -0.004864 0.000000 -0.000898 0.000000
# 2 -0.003285 0.005727 -0.000939 0.000000 0.000422 0.000000
# 3 -0.004864 -0.000939 0.011902 0.000000 0.001460 0.000000
# 4 0.000000 0.000000 0.000000 0.020368 0.000000 0.000825
# 5 -0.000898 0.000422 0.001460 0.000000 0.016721 0.000000
# 6 0.000000 0.000000 0.000000 0.000825 0.000000 0.017607
#
#
# Mechanical properties :
#
#
# Convention : Reuss Voigt Hill
#
# Bulk Modulus (GPa) = 85.19427 95.01660 90.10543
# Shear Modulus (GPa) = 46.86209 51.83511 49.34860
#
# Velocity S-wave (km/s) = 4.61044 4.84890 4.73117
# Velocity P-wave (km/s) = 8.18442 8.62831 8.40929
#
# Compressibility (1/GPa) = 0.01173788
#
# Stress axis : x y z
#
# Youngs Moduli (GPa) = 81.40896 174.61386 84.01877
#
# Poissons Ratio (x) = 0.57353 0.40867
# Poissons Ratio (y) = 0.26739 0.07888
# Poissons Ratio (z) = 0.39597 0.16393
#
# Static dielectric constant tensor:
#      x y z
#    x 4.144500 0.000000 -0.113710 
#    y 0.000000 4.633540 0.000000 
#    z -0.113710 0.000000 4.131630 
# 
# 
# High freq. dielectric constant tensor:
#      x y z
#    x 1.881710 0.000000 -0.012190 
#    y 0.000000 1.901360 0.000000 
#    z -0.012190 0.000000 1.880870 
# 
# From -- ./inp_files/23529.got.cif
#   From: 2010.06.25/outbox.cif.g09.slc.cpg/sg11_12_cif.got.tgz:23529.got - 2010.06.27 23:14:04.
