data_PCOD8076428
_publ_section_title
;
Structure prediction by ZEFSAII (Michael W. Deem and Ramdas Pophale) SiO2 
 PCOD8076428
Probable space group: P 21/M
;
_chemical_formula_sum "Si O2"
_cell_formula_units_Z 32
_cell_length_a 11.620898
_cell_length_b 14.663439
_cell_length_c 17.319816
_cell_angle_alpha 90.000000
_cell_angle_beta 31.320296
_cell_angle_gamma 90.000000
_cell_volume 1534.169173
_symmetry_space_group_name_H-M "P 21/M"
_symmetry_group_IT_number 11
_symmetry_cell_setting 'monoclinic'
loop_
_space_group_symop_operation_xyz
x,y,z
-x,1/2+y,-z
-x,-y,-z
x,1/2-y,z
loop_
_atom_site_type_symbol
_atom_site_label
_atom_site_fract_x
_atom_site_fract_y
_atom_site_fract_z
Si Si1 0.023809 0.534125 0.761922
Si Si2 0.654711 0.031141 0.552961
Si Si3 0.809760 0.032647 0.166053
Si Si4 0.784486 0.143151 0.895956
Si Si5 0.597631 0.149197 0.161030
Si Si6 0.711736 0.144811 0.672436
Si Si7 0.411092 0.145219 0.983529
Si Si8 0.171953 0.147734 0.484363
O O1 0.220668 0.571761 0.593583
O O2 0.085119 0.563270 0.813730
O O3 0.993902 0.424507 0.765429
O O4 0.793663 0.583280 0.873714
O O5 0.725155 0.082757 0.589806
O O6 0.386764 0.039816 0.700471
O O7 0.737240 0.926425 0.507863
O O8 0.693468 0.113399 0.186529
O O9 0.000000 0.000000 0.000000
O O10 0.858213 0.250000 0.856604
O O11 0.610718 0.127820 0.927826
O O12 0.676987 0.102481 0.036664
O O13 0.690629 0.250000 0.101178
O O14 0.330597 0.145064 0.317670
O O15 0.709588 0.250000 0.647575
O O16 0.496798 0.121570 0.847747
O O17 0.924899 0.122875 0.601870
O O18 0.334760 0.250000 0.031230
O O19 0.178043 0.250000 0.518017
#
# Coordination Sequence:
#
# PCOD8076428 Si02
#       8
#     4   4   4   4   4   4   4   4
#     4  12  24  39  63  91 121 163 200 251 307 354
#     4  11  24  38  60  90 120 156 205 251 302 354
#     4  11  22  42  62  81 119 158 206 251 296 352
#     4  10  21  38  61  93 126 156 199 248 300 362
#     4   9  19  36  61  90 114 154 204 251 299 353
#     4  10  21  39  60  87 123 163 198 240 300 366
#     4  10  23  40  62  90 125 161 198 245 303 366
#     4   9  19  35  60  88 121 158 196 244 302 360
#
# _framework density 20.858194999999998
#
# number of rings (size 3 to 8) (size 9 to 14) (size 15 to 20)
#    0.000    1.750    1.250    2.625    3.500    2.500 
#    0.000    1.250    0.000    3.000    0.000    0.000 
#    0.000    0.000    0.000    0.000    0.000    0.000 
#
# Total GULP energy -396546.528363 kJ/mol
# GULP energy per Si atom -12392.079011 kJ/mol
# Density = 2.081072 g / cm^3
# Si number density = 20.858195 Si / 1000 Ang^3
#
#
#
# Elastic Constant Matrix: (Units=GPa)
#
#
# Indices 1 2 3 4 5 6 
#
# 1 83.1693 21.8620 38.9005 0.0000 16.9415 0.0000
# 2 21.8620 60.8648 31.0328 0.0000 2.7289 0.0000
# 3 38.9005 31.0328 152.2688 0.0000 11.1617 0.0000
# 4 0.0000 0.0000 0.0000 19.5436 0.0000 -1.4963
# 5 16.9415 2.7289 11.1617 0.0000 36.1557 0.0000
# 6 0.0000 0.0000 0.0000 -1.4963 0.0000 17.7887
#
#
#
# Elastic Compliance Matrix: (Units=1/GPa)
#
#
# Indices 1 2 3 4 5 6 
#
# 1 0.015590 -0.003932 -0.002730 0.000000 -0.006165 0.000000
# 2 -0.003932 0.019329 -0.003032 0.000000 0.001319 0.000000
# 3 -0.002730 -0.003032 0.007952 0.000000 -0.000947 0.000000
# 4 0.000000 0.000000 0.000000 0.051499 0.000000 0.004332
# 5 -0.006165 0.001319 -0.000947 0.000000 0.030740 0.000000
# 6 0.000000 0.000000 0.000000 0.004332 0.000000 0.056580
#
#
# Mechanical properties :
#
#
# Convention : Reuss Voigt Hill
#
# Bulk Modulus (GPa) = 42.58043 53.32151 47.95097
# Shear Modulus (GPa) = 23.93461 28.33146 26.13303
#
# Velocity S-wave (km/s) = 3.39114 3.68950 3.54346
# Velocity P-wave (km/s) = 5.98261 6.61583 6.30717
#
# Compressibility (1/GPa) = 0.02348497
#
# Stress axis : x y z
#
# Youngs Moduli (GPa) = 64.14495 51.73700 125.75605
#
# Poissons Ratio (x) = 0.20341 0.34326
# Poissons Ratio (y) = 0.25219 0.38123
# Poissons Ratio (z) = 0.17509 0.15684
#
# Static dielectric constant tensor:
#      x y z
#    x 3.691440 0.000000 0.020460 
#    y 0.000000 3.766240 0.000000 
#    z 0.020460 0.000000 4.312630 
# 
# 
# High freq. dielectric constant tensor:
#      x y z
#    x 1.799340 0.000000 0.009800 
#    y 0.000000 1.804510 0.000000 
#    z 0.009800 0.000000 1.838600 
# 
# From -- ./inp_files/41739.got.cif
#   From: 2010.06.25/outbox.cif.g09.slc.cpg/sg11_21_cif.got.tgz:41739.got - 2010.06.27 23:14:04.
