data_PCOD8076280
_publ_section_title
;
Structure prediction by ZEFSAII (Michael W. Deem and Ramdas Pophale) SiO2 
 PCOD8076280
Probable space group: P 21/M
;
_chemical_formula_sum "Si O2"
_cell_formula_units_Z 24
_cell_length_a 14.649259
_cell_length_b 14.018987
_cell_length_c 5.321627
_cell_angle_alpha 90.000000
_cell_angle_beta 96.327820
_cell_angle_gamma 90.000000
_cell_volume 1086.232303
_symmetry_space_group_name_H-M "P 21/M"
_symmetry_group_IT_number 11
_symmetry_cell_setting 'monoclinic'
loop_
_space_group_symop_operation_xyz
x,y,z
-x,1/2+y,-z
-x,-y,-z
x,1/2-y,z
loop_
_atom_site_type_symbol
_atom_site_label
_atom_site_fract_x
_atom_site_fract_y
_atom_site_fract_z
Si Si1 0.733382 0.542400 0.109317
Si Si2 0.731096 0.426955 0.614923
Si Si3 0.930448 0.963826 0.180889
Si Si4 0.548393 0.861160 0.081087
Si Si5 0.538036 0.358220 0.445317
Si Si6 0.914633 0.141244 0.502554
O O1 0.735957 0.506620 0.398449
O O2 0.834837 0.585235 0.065130
O O3 0.657040 0.624405 0.075204
O O4 0.709329 0.465600 0.886804
O O5 0.647571 0.358407 0.513164
O O6 0.827603 0.368471 0.664791
O O7 0.985016 0.886800 0.361483
O O8 0.894772 0.063626 0.284893
O O9 0.000000 0.000000 0.000000
O O10 0.525577 0.750000 0.088962
O O11 0.513253 0.908820 0.332831
O O12 0.492467 0.907573 0.828016
O O13 0.503371 0.250000 0.419774
O O14 0.920908 0.250000 0.404068
#
# Coordination Sequence:
#
# PCOD8076280 Si02
#       6
#     4   4   4   4   4   4
#     4  11  23  38  63  86 120 159 199 253 307 362
#     4  11  22  38  61  91 119 157 199 251 309 366
#     4  10  21  42  62  88 129 161 203 266 312 367
#     4  10  22  39  57  83 119 159 201 246 298 364
#     4  10  21  38  58  84 122 157 196 250 299 357
#     4  10  22  40  64  92 123 163 208 255 316 380
#
# _framework density 22.094722000000001
#
# number of rings (size 3 to 8) (size 9 to 14) (size 15 to 20)
#    0.000    1.667    1.667    2.500    0.000    5.333 
#    0.000    1.667    0.000    0.000    0.000    0.000 
#    0.000    0.000    0.000    0.000    0.000    0.000 
#
# Total GULP energy -297315.698824 kJ/mol
# GULP energy per Si atom -12388.154118 kJ/mol
# Density = 2.204443 g / cm^3
# Si number density = 22.094722 Si / 1000 Ang^3
#
#
#
# Elastic Constant Matrix: (Units=GPa)
#
#
# Indices 1 2 3 4 5 6 
#
# 1 151.8124 10.9088 38.1595 0.0000 5.0864 0.0000
# 2 10.9088 41.2629 9.6595 0.0000 -2.2263 0.0000
# 3 38.1595 9.6595 127.5142 0.0000 -1.8512 0.0000
# 4 0.0000 0.0000 0.0000 3.1246 0.0000 1.9662
# 5 5.0864 -2.2263 -1.8512 0.0000 40.0080 0.0000
# 6 0.0000 0.0000 0.0000 1.9662 0.0000 30.8777
#
#
#
# Elastic Compliance Matrix: (Units=1/GPa)
#
#
# Indices 1 2 3 4 5 6 
#
# 1 0.007252 -0.001491 -0.002073 0.000000 -0.001101 0.000000
# 2 -0.001491 0.025045 -0.001429 0.000000 0.001517 0.000000
# 3 -0.002073 -0.001429 0.008579 0.000000 0.000581 0.000000
# 4 0.000000 0.000000 0.000000 0.333405 0.000000 -0.021231
# 5 -0.001101 0.001517 0.000581 0.000000 0.025246 0.000000
# 6 0.000000 0.000000 0.000000 -0.021231 0.000000 0.033738
#
#
# Mechanical properties :
#
#
# Convention : Reuss Voigt Hill
#
# Bulk Modulus (GPa) = 32.37293 48.67165 40.52229
# Shear Modulus (GPa) = 11.02413 32.25949 21.64181
#
# Velocity S-wave (km/s) = 2.23614 3.82521 3.13309
# Velocity P-wave (km/s) = 4.62069 6.44873 5.60967
#
# Compressibility (1/GPa) = 0.03089000
#
# Stress axis : x y z
#
# Youngs Moduli (GPa) = 137.88778 39.92734 116.55831
#
# Poissons Ratio (x) = 0.05955 0.24166
# Poissons Ratio (y) = 0.20564 0.16655
# Poissons Ratio (z) = 0.28588 0.05705
#
# Static dielectric constant tensor:
#      x y z
#    x -5.179750 0.000000 0.138220 
#    y 0.000000 3.542650 0.000000 
#    z 0.138220 0.000000 4.611970 
# 
# 
# High freq. dielectric constant tensor:
#      x y z
#    x 1.894850 0.000000 0.001350 
#    y 0.000000 1.832540 0.000000 
#    z 0.001350 0.000000 1.872890 
# 
# From -- ./inp_files/6468.got.cif
#   From: 2010.06.25/outbox.cif.g09.slc.cpg/sg11_4_cif.got.tgz:6468.got - 2010.06.27 23:14:04.
