data_PCOD8076484
_publ_section_title
;
Structure prediction by ZEFSAII (Michael W. Deem and Ramdas Pophale) SiO2 
 PCOD8076484
Probable space group: P 21/M
;
_chemical_formula_sum "Si O2"
_cell_formula_units_Z 32
_cell_length_a 12.041272
_cell_length_b 8.601124
_cell_length_c 31.193078
_cell_angle_alpha 90.000000
_cell_angle_beta 29.760635
_cell_angle_gamma 90.000000
_cell_volume 1603.607292
_symmetry_space_group_name_H-M "P 21/M"
_symmetry_group_IT_number 11
_symmetry_cell_setting 'monoclinic'
loop_
_space_group_symop_operation_xyz
x,y,z
-x,1/2+y,-z
-x,-y,-z
x,1/2-y,z
loop_
_atom_site_type_symbol
_atom_site_label
_atom_site_fract_x
_atom_site_fract_y
_atom_site_fract_z
Si Si1 0.025137 0.431337 0.374017
Si Si2 0.682089 0.429568 0.087231
Si Si3 0.860715 0.570463 0.110529
Si Si4 0.559351 0.567928 0.525838
Si Si5 0.226264 0.569951 0.222044
Si Si6 0.165648 0.430561 0.709499
Si Si7 0.201800 0.068585 0.405424
Si Si8 0.701028 0.067655 0.250662
O O1 0.034185 0.250000 0.359013
O O2 0.776300 0.480465 0.471078
O O3 0.100254 0.530143 0.308160
O O4 0.182439 0.471748 0.361544
O O5 0.685032 0.250000 0.099658
O O6 0.700199 0.529646 0.124498
O O7 0.451515 0.470926 0.140886
O O8 0.883667 0.468278 0.987485
O O9 0.827232 0.750000 0.133810
O O10 0.800377 0.463936 0.170730
O O11 0.500000 0.500000 0.500000
O O12 0.607877 0.750000 0.505888
O O13 0.358603 0.538389 0.625592
O O14 0.289928 0.750000 0.200891
O O15 0.068286 0.528186 0.234827
O O16 0.224289 0.250000 0.682804
O O17 0.150531 0.472888 0.764731
O O18 0.187054 0.250000 0.417492
O O19 0.443731 0.007382 0.339804
O O20 0.000000 0.000000 0.500000
O O21 0.716180 0.250000 0.255046
#
# Coordination Sequence:
#
# PCOD8076484 Si02
#       8
#     4   4   4   4   4   4   4   4
#     4  11  22  37  59  85 117 153 195 248 302 356
#     4  10  21  38  63  93 124 153 191 244 299 357
#     4  10  21  39  64  93 122 156 195 239 296 359
#     4  12  23  37  57  83 115 155 201 247 297 353
#     4  11  23  38  59  87 118 153 197 246 300 358
#     4  11  24  41  59  84 118 157 203 251 298 356
#     4  10  23  39  56  83 115 151 192 238 290 344
#     4  11  23  40  62  88 119 158 202 245 296 359
#
# _framework density 19.955012
#
# number of rings (size 3 to 8) (size 9 to 14) (size 15 to 20)
#    0.000    1.250    1.250    4.875    0.000    8.000 
#    0.000    0.625    0.000    0.000    0.000    0.000 
#    0.000    0.000    0.000    0.000    0.000    0.000 
#
# Total GULP energy -396983.755191 kJ/mol
# GULP energy per Si atom -12405.742350 kJ/mol
# Density = 1.990959 g / cm^3
# Si number density = 19.955012 Si / 1000 Ang^3
#
#
#
# Elastic Constant Matrix: (Units=GPa)
#
#
# Indices 1 2 3 4 5 6 
#
# 1 126.8562 39.5403 52.8148 0.0000 -10.0016 0.0000
# 2 39.5403 44.1916 19.9890 0.0000 -2.3085 0.0000
# 3 52.8148 19.9890 94.9728 0.0000 -6.6140 0.0000
# 4 0.0000 0.0000 0.0000 33.8054 0.0000 1.1335
# 5 -10.0016 -2.3085 -6.6140 0.0000 31.1905 0.0000
# 6 0.0000 0.0000 0.0000 1.1335 0.0000 31.9680
#
#
#
# Elastic Compliance Matrix: (Units=1/GPa)
#
#
# Indices 1 2 3 4 5 6 
#
# 1 0.013118 -0.009270 -0.005175 0.000000 0.002423 0.000000
# 2 -0.009270 0.031577 -0.001558 0.000000 -0.000966 0.000000
# 3 -0.005175 -0.001558 0.013816 0.000000 0.001155 0.000000
# 4 0.000000 0.000000 0.000000 0.029616 0.000000 -0.001050
# 5 0.002423 -0.000966 0.001155 0.000000 0.033011 0.000000
# 6 0.000000 0.000000 0.000000 -0.001050 0.000000 0.031318
#
#
# Mechanical properties :
#
#
# Convention : Reuss Voigt Hill
#
# Bulk Modulus (GPa) = 37.72987 54.52320 46.12653
# Shear Modulus (GPa) = 25.86674 29.63787 27.75230
#
# Velocity S-wave (km/s) = 3.60426 3.85805 3.73331
# Velocity P-wave (km/s) = 6.02241 6.87230 6.46134
#
# Compressibility (1/GPa) = 0.02650420
#
# Stress axis : x y z
#
# Youngs Moduli (GPa) = 76.23166 31.66839 72.38140
#
# Poissons Ratio (x) = 0.29356 0.37459
# Poissons Ratio (y) = 0.70665 0.11280
# Poissons Ratio (z) = 0.39451 0.04935
#
# Static dielectric constant tensor:
#      x y z
#    x 3.918710 0.000000 -0.000320 
#    y 0.000000 3.635710 0.000000 
#    z -0.000320 0.000000 3.815870 
# 
# 
# High freq. dielectric constant tensor:
#      x y z
#    x 1.785050 0.000000 -0.005830 
#    y 0.000000 1.787490 0.000000 
#    z -0.005830 0.000000 1.771880 
# 
# From -- ./inp_files/45147.got.cif
#   From: 2010.06.25/outbox.cif.g09.slc.cpg/sg11_23_cif.got.tgz:45147.got - 2010.06.27 23:14:04.
