data_PCOD8076995
_publ_section_title
;
Structure prediction by ZEFSAII (Michael W. Deem and Ramdas Pophale) SiO2 
 PCOD8076995
Probable space group: P 21/M
;
_chemical_formula_sum "Si O2"
_cell_formula_units_Z 32
_cell_length_a 24.337670
_cell_length_b 8.777104
_cell_length_c 15.972477
_cell_angle_alpha 90.000000
_cell_angle_beta 153.326629
_cell_angle_gamma 90.000000
_cell_volume 1531.636619
_symmetry_space_group_name_H-M "P 21/M"
_symmetry_group_IT_number 11
_symmetry_cell_setting 'monoclinic'
loop_
_space_group_symop_operation_xyz
x,y,z
-x,1/2+y,-z
-x,-y,-z
x,1/2-y,z
loop_
_atom_site_type_symbol
_atom_site_label
_atom_site_fract_x
_atom_site_fract_y
_atom_site_fract_z
Si Si1 0.586956 0.570658 0.548955
Si Si2 0.720235 0.570462 0.450074
Si Si3 0.276097 0.575983 0.892681
Si Si4 0.832934 0.922248 0.972239
Si Si5 0.516546 0.428716 0.276898
Si Si6 0.073301 0.924437 0.745692
Si Si7 0.057561 0.924290 0.158548
Si Si8 0.815145 0.426286 0.412835
O O1 0.500000 0.500000 0.500000
O O2 0.564466 0.750000 0.513831
O O3 0.726567 0.529568 0.763150
O O4 0.560965 0.500705 0.423700
O O5 0.708031 0.750000 0.439185
O O6 0.591754 0.496340 0.301200
O O7 0.821244 0.515492 0.653383
O O8 0.753439 0.524363 0.401274
O O9 0.317818 0.750000 0.964933
O O10 0.144355 0.547120 0.755845
O O11 0.262607 0.541326 0.776224
O O12 0.374587 0.464241 0.067628
O O13 0.809252 0.750000 0.971018
O O14 0.964288 0.936440 0.107992
O O15 0.832925 0.033470 0.051841
O O16 0.536423 0.250000 0.309168
O O17 0.031383 0.750000 0.698148
O O18 0.955633 0.031182 0.588703
O O19 0.091697 0.750000 0.185498
O O20 0.000000 0.000000 0.000000
O O21 0.811366 0.250000 0.434128
#
# Coordination Sequence:
#
# PCOD8076995 Si02
#       8
#     4   4   4   4   4   4   4   4
#     4  11  23  41  64  94 131 173 219 266 320 379
#     4  12  25  43  66  93 129 169 214 269 324 386
#     4  10  24  44  66  94 128 169 216 268 324 386
#     4  10  22  38  59  87 123 165 207 255 312 373
#     4  12  26  44  67  95 128 171 220 269 326 389
#     4  11  22  38  64  97 131 167 211 263 321 385
#     4  11  22  38  61  90 124 163 210 259 314 377
#     4  11  23  42  67  95 130 169 213 267 327 388
#
# _framework density 20.892683000000002
#
# number of rings (size 3 to 8) (size 9 to 14) (size 15 to 20)
#    0.000    1.000    1.250    5.625    0.000    7.000 
#    0.000    0.000    0.000    0.000    0.000    0.000 
#    0.000    0.000    0.000    0.000    0.000    0.000 
#
# Total GULP energy -397029.104617 kJ/mol
# GULP energy per Si atom -12407.159519 kJ/mol
# Density = 2.084513 g / cm^3
# Si number density = 20.892683 Si / 1000 Ang^3
#
#
#
# Elastic Constant Matrix: (Units=GPa)
#
#
# Indices 1 2 3 4 5 6 
#
# 1 88.6675 34.1708 19.3300 0.0000 -1.5847 0.0000
# 2 34.1708 120.5265 35.0847 0.0000 -0.9368 0.0000
# 3 19.3300 35.0847 81.7175 0.0000 -1.5594 0.0000
# 4 0.0000 0.0000 0.0000 31.9715 0.0000 0.5512
# 5 -1.5847 -0.9368 -1.5594 0.0000 33.7383 0.0000
# 6 0.0000 0.0000 0.0000 0.5512 0.0000 36.2863
#
#
#
# Elastic Compliance Matrix: (Units=1/GPa)
#
#
# Indices 1 2 3 4 5 6 
#
# 1 0.012869 -0.003156 -0.001681 0.000000 0.000439 0.000000
# 2 -0.003156 0.010256 -0.003657 0.000000 -0.000032 0.000000
# 3 -0.001681 -0.003657 0.014214 0.000000 0.000476 0.000000
# 4 0.000000 0.000000 0.000000 0.031286 0.000000 -0.000475
# 5 0.000439 -0.000032 0.000476 0.000000 0.029682 0.000000
# 6 0.000000 0.000000 0.000000 -0.000475 0.000000 0.027566
#
#
# Mechanical properties :
#
#
# Convention : Reuss Voigt Hill
#
# Bulk Modulus (GPa) = 49.13785 52.00917 50.57351
# Shear Modulus (GPa) = 33.41265 33.88760 33.65013
#
# Velocity S-wave (km/s) = 4.00340 4.03176 4.01760
# Velocity P-wave (km/s) = 6.70372 6.82795 6.76612
#
# Compressibility (1/GPa) = 0.02035091
#
# Stress axis : x y z
#
# Youngs Moduli (GPa) = 77.70907 97.50349 70.35192
#
# Poissons Ratio (x) = 0.30769 0.11824
# Poissons Ratio (y) = 0.24523 0.25731
# Poissons Ratio (z) = 0.13061 0.35662
#
# Static dielectric constant tensor:
#      x y z
#    x 3.847680 0.000000 -0.012800 
#    y 0.000000 3.902370 0.000000 
#    z -0.012800 0.000000 3.808440 
# 
# 
# High freq. dielectric constant tensor:
#      x y z
#    x 1.828560 0.000000 -0.003000 
#    y 0.000000 1.826630 0.000000 
#    z -0.003000 0.000000 1.823870 
# 
# From -- ./inp_files/55722.got.cif
#   From: 2010.06.25/outbox.cif.g09.slc.cpg/sg11_28_cif.got.tgz:55722.got - 2010.06.27 23:14:04.
