data_PCOD8076780
_publ_section_title
;
Structure prediction by ZEFSAII (Michael W. Deem and Ramdas Pophale) SiO2 
 PCOD8076780
Probable space group: P 21/M
;
_chemical_formula_sum "Si O2"
_cell_formula_units_Z 20
_cell_length_a 18.733721
_cell_length_b 10.087513
_cell_length_c 14.440406
_cell_angle_alpha 90.000000
_cell_angle_beta 160.642503
_cell_angle_gamma 90.000000
_cell_volume 904.524726
_symmetry_space_group_name_H-M "P 21/M"
_symmetry_group_IT_number 11
_symmetry_cell_setting 'monoclinic'
loop_
_space_group_symop_operation_xyz
x,y,z
-x,1/2+y,-z
-x,-y,-z
x,1/2-y,z
loop_
_atom_site_type_symbol
_atom_site_label
_atom_site_fract_x
_atom_site_fract_y
_atom_site_fract_z
Si Si1 0.898157 0.250000 0.020319
Si Si2 0.617809 0.525440 0.875805
Si Si3 0.534553 0.401264 0.126281
Si Si4 0.018956 0.526096 0.234275
Si Si5 0.415689 0.750000 0.518513
Si Si6 0.505293 0.750000 0.338859
Si Si7 0.182166 0.250000 0.123043
O O1 0.822949 0.250000 0.820108
O O2 0.677786 0.250000 0.807764
O O3 0.039063 0.377923 0.218838
O O4 0.648325 0.571060 0.019747
O O5 0.439055 0.618950 0.609143
O O6 0.520198 0.378265 0.756334
O O7 0.845324 0.536550 0.103947
O O8 0.518769 0.250000 0.071276
O O9 0.760784 0.427368 0.451977
O O10 0.500000 0.500000 0.000000
O O11 0.954338 0.619946 0.069555
O O12 0.597352 0.750000 0.663549
O O13 0.744220 0.750000 0.678774
#
# Coordination Sequence:
#
# PCOD8076780 Si02
#       7
#     2   4   4   4   2   2   2
#     4   9  18  33  61  98 129 163 198 232 288 360
#     4  10  21  40  64  91 126 161 198 245 297 358
#     4  12  28  46  65  87 114 154 207 263 313 354
#     4  10  21  40  64  91 126 161 198 245 297 358
#     4   9  16  33  61  92 129 165 196 236 288 354
#     4   9  18  33  61  98 129 163 198 232 288 360
#     4   9  16  33  61  92 129 165 196 236 288 354
#
# _framework density 22.111059000000001
#
# number of rings (size 3 to 8) (size 9 to 14) (size 15 to 20)
#    0.000    2.000    2.000    1.200    2.800    5.600 
#    0.000    6.000    0.000    0.000    0.000    0.000 
#    0.000    0.000    0.000    0.000    0.000    0.000 
#
# Total GULP energy -248033.822384 kJ/mol
# GULP energy per Si atom -12401.691119 kJ/mol
# Density = 2.206073 g / cm^3
# Si number density = 22.111059 Si / 1000 Ang^3
#
#
#
# Elastic Constant Matrix: (Units=GPa)
#
#
# Indices 1 2 3 4 5 6 
#
# 1 59.5808 23.9741 -0.5828 0.0000 -21.1152 0.0000
# 2 23.9741 198.2026 17.6838 0.0000 -18.6990 0.0000
# 3 -0.5828 17.6838 45.1797 0.0000 -5.4576 0.0000
# 4 0.0000 0.0000 0.0000 11.4494 0.0000 -4.9908
# 5 -21.1152 -18.6990 -5.4576 0.0000 28.4878 0.0000
# 6 0.0000 0.0000 0.0000 -4.9908 0.0000 21.7370
#
#
#
# Elastic Compliance Matrix: (Units=1/GPa)
#
#
# Indices 1 2 3 4 5 6 
#
# 1 0.023417 -0.001496 0.002934 0.000000 0.016937 0.000000
# 2 -0.001496 0.005608 -0.001949 0.000000 0.002198 0.000000
# 3 0.002934 -0.001949 0.023588 0.000000 0.005414 0.000000
# 4 0.000000 0.000000 0.000000 0.097054 0.000000 0.022284
# 5 0.016937 0.002198 0.005414 0.000000 0.050136 0.000000
# 6 0.000000 0.000000 0.000000 0.022284 0.000000 0.051121
#
#
# Mechanical properties :
#
#
# Convention : Reuss Voigt Hill
#
# Bulk Modulus (GPa) = 19.38345 42.79038 31.08691
# Shear Modulus (GPa) = 18.57741 29.79403 24.18572
#
# Velocity S-wave (km/s) = 2.90174 3.67477 3.31090
# Velocity P-wave (km/s) = 4.47350 6.11554 5.35780
#
# Compressibility (1/GPa) = 0.05159041
#
# Stress axis : x y z
#
# Youngs Moduli (GPa) = 42.70404 178.32962 42.39368
#
# Poissons Ratio (x) = 0.26685 -0.12437
# Poissons Ratio (y) = 0.06390 0.08261
# Poissons Ratio (z) = -0.12528 0.34750
#
# Static dielectric constant tensor:
#      x y z
#    x 4.177400 0.000000 0.005080 
#    y 0.000000 4.229480 0.000000 
#    z 0.005080 0.000000 3.783820 
# 
# 
# High freq. dielectric constant tensor:
#      x y z
#    x 1.876780 0.000000 0.014020 
#    y 0.000000 1.885940 0.000000 
#    z 0.014020 0.000000 1.850730 
# 
# From -- ./inp_files/16048.got.cif
#   From: 2010.06.25/outbox.cif.g09.slc.cpg/sg11_9_cif.got.tgz:16048.got - 2010.06.27 23:14:04.
