data_PCOD8076496
_publ_section_title
;
Structure prediction by ZEFSAII (Michael W. Deem and Ramdas Pophale) SiO2 
 PCOD8076496
Probable space group: P 21/M
;
_chemical_formula_sum "Si O2"
_cell_formula_units_Z 28
_cell_length_a 8.944870
_cell_length_b 15.210747
_cell_length_c 21.290569
_cell_angle_alpha 90.000000
_cell_angle_beta 152.764620
_cell_angle_gamma 90.000000
_cell_volume 1325.691628
_symmetry_space_group_name_H-M "P 21/M"
_symmetry_group_IT_number 11
_symmetry_cell_setting 'monoclinic'
loop_
_space_group_symop_operation_xyz
x,y,z
-x,1/2+y,-z
-x,-y,-z
x,1/2-y,z
loop_
_atom_site_type_symbol
_atom_site_label
_atom_site_fract_x
_atom_site_fract_y
_atom_site_fract_z
Si Si1 0.752064 0.015327 0.463542
Si Si2 0.650785 0.349352 0.655887
Si Si3 0.246967 0.648802 0.061687
Si Si4 0.188564 0.150312 0.218132
Si Si5 0.921840 0.851790 0.064123
Si Si6 0.307124 0.936709 0.881381
Si Si7 0.057369 0.075367 0.704199
O O1 0.464070 0.077919 0.332201
O O2 0.932141 0.064958 0.587144
O O3 0.637122 0.920218 0.445764
O O4 0.000000 0.000000 0.500000
O O5 0.511382 0.250000 0.611908
O O6 0.911422 0.371786 0.807228
O O7 0.830490 0.354051 0.655525
O O8 0.346462 0.750000 0.106158
O O9 0.563605 0.600394 0.153957
O O10 0.138433 0.608054 0.088354
O O11 0.945019 0.635781 0.901867
O O12 0.323256 0.250000 0.276610
O O13 0.886976 0.137742 0.153108
O O14 0.878774 0.750000 0.034390
O O15 0.563312 0.892954 0.929589
O O16 0.036852 0.986682 0.738074
O O17 0.500000 0.000000 0.000000
#
# Coordination Sequence:
#
# PCOD8076496 Si02
#       7
#     4   4   4   4   4   4   4
#     4  12  28  47  65  99 135 178 226 276 339 405
#     4  11  23  44  69  95 132 177 225 276 330 399
#     4  10  22  40  66  99 130 171 220 270 332 395
#     4  11  24  44  68  96 135 177 224 277 332 396
#     4  10  21  38  63  97 130 165 217 272 330 391
#     4  12  21  38  65  95 131 164 215 273 328 387
#     4  12  24  41  67  96 131 172 220 272 331 399
#
# _framework density 21.121051000000001
#
# number of rings (size 3 to 8) (size 9 to 14) (size 15 to 20)
#    0.000    0.857    4.286    2.143    2.000    4.571 
#    0.000    0.714    0.000    0.000    0.000    0.000 
#    0.000    0.000    0.000    0.000    0.000    0.000 
#
# Total GULP energy -347292.907874 kJ/mol
# GULP energy per Si atom -12403.318138 kJ/mol
# Density = 2.107298 g / cm^3
# Si number density = 21.121051 Si / 1000 Ang^3
#
#
#
# Elastic Constant Matrix: (Units=GPa)
#
#
# Indices 1 2 3 4 5 6 
#
# 1 153.3917 40.6413 34.9868 0.0000 1.4453 0.0000
# 2 40.6413 82.8975 41.1972 0.0000 0.8899 0.0000
# 3 34.9868 41.1972 76.8670 0.0000 -5.3554 0.0000
# 4 0.0000 0.0000 0.0000 24.6692 0.0000 -2.9921
# 5 1.4453 0.8899 -5.3554 0.0000 37.8541 0.0000
# 6 0.0000 0.0000 0.0000 -2.9921 0.0000 30.4491
#
#
#
# Elastic Compliance Matrix: (Units=1/GPa)
#
#
# Indices 1 2 3 4 5 6 
#
# 1 0.007727 -0.002749 -0.002080 0.000000 -0.000525 0.000000
# 2 -0.002749 0.017523 -0.008243 0.000000 -0.001473 0.000000
# 3 -0.002080 -0.008243 0.018576 0.000000 0.002901 0.000000
# 4 0.000000 0.000000 0.000000 0.041025 0.000000 0.004031
# 5 -0.000525 -0.001473 0.002901 0.000000 0.026882 0.000000
# 6 0.000000 0.000000 0.000000 0.004031 0.000000 0.033238
#
#
# Mechanical properties :
#
#
# Convention : Reuss Voigt Hill
#
# Bulk Modulus (GPa) = 56.55440 60.75632 58.65536
# Shear Modulus (GPa) = 28.24692 31.68320 29.96506
#
# Velocity S-wave (km/s) = 3.66099 3.87728 3.77069
# Velocity P-wave (km/s) = 6.68617 6.99090 6.84023
#
# Compressibility (1/GPa) = 0.01768209
#
# Stress axis : x y z
#
# Youngs Moduli (GPa) = 129.41647 57.06779 53.83160
#
# Poissons Ratio (x) = 0.15686 0.11199
# Poissons Ratio (y) = 0.35573 0.44374
# Poissons Ratio (z) = 0.26924 0.47041
#
# Static dielectric constant tensor:
#      x y z
#    x 4.114920 0.000000 -0.056990 
#    y 0.000000 3.915070 0.000000 
#    z -0.056990 0.000000 3.646590 
# 
# 
# High freq. dielectric constant tensor:
#      x y z
#    x 1.844430 0.000000 -0.003850 
#    y 0.000000 1.831540 0.000000 
#    z -0.003850 0.000000 1.813540 
# 
# From -- ./inp_files/26904.got.cif
#   From: 2010.06.25/outbox.cif.g09.slc.cpg/sg11_14_cif.got.tgz:26904.got - 2010.06.27 23:14:04.
