data_PCOD8076420
_publ_section_title
;
Structure prediction by ZEFSAII (Michael W. Deem and Ramdas Pophale) SiO2 
 PCOD8076420
Probable space group: P 21/M
;
_chemical_formula_sum "Si O2"
_cell_formula_units_Z 28
_cell_length_a 14.452188
_cell_length_b 16.724206
_cell_length_c 11.335309
_cell_angle_alpha 90.000000
_cell_angle_beta 30.369382
_cell_angle_gamma 90.000000
_cell_volume 1385.147925
_symmetry_space_group_name_H-M "P 21/M"
_symmetry_group_IT_number 11
_symmetry_cell_setting 'monoclinic'
loop_
_space_group_symop_operation_xyz
x,y,z
-x,1/2+y,-z
-x,-y,-z
x,1/2-y,z
loop_
_atom_site_type_symbol
_atom_site_label
_atom_site_fract_x
_atom_site_fract_y
_atom_site_fract_z
Si Si1 0.953614 0.339128 0.232896
Si Si2 0.193552 0.959998 0.769871
Si Si3 0.704089 0.378211 0.714762
Si Si4 0.979280 0.078677 0.597614
Si Si5 0.354973 0.160504 0.227193
Si Si6 0.207087 0.010188 0.003142
Si Si7 0.416989 0.484536 0.308876
O O1 0.032739 0.250000 0.118936
O O2 0.837142 0.370243 0.247162
O O3 0.815439 0.329068 0.494406
O O4 0.115556 0.402675 0.082847
O O5 0.284015 0.966469 0.799788
O O6 0.308173 0.010924 0.550434
O O7 0.000000 0.000000 0.000000
O O8 0.812211 0.373853 0.719973
O O9 0.682866 0.468646 0.688096
O O10 0.503173 0.341687 0.957974
O O11 0.158779 0.132815 0.394485
O O12 0.000000 0.000000 0.500000
O O13 0.935563 0.051677 0.779971
O O14 0.334667 0.250000 0.297641
O O15 0.424900 0.107193 0.259787
O O16 0.380698 0.021582 0.897475
#
# Coordination Sequence:
#
# PCOD8076420 Si02
#       7
#     4   4   4   4   4   4   4
#     4  10  21  38  61  90 124 158 202 266 308 346
#     4   9  20  39  62  87 114 162 210 245 297 372
#     4  11  22  40  63  87 126 165 205 244 305 377
#     4  12  21  41  63  88 122 165 203 243 302 378
#     4  12  25  38  59  93 125 159 203 255 308 360
#     4  11  21  39  65  90 119 165 213 243 301 378
#     4  11  21  40  65  86 122 162 204 253 299 369
#
# _framework density 20.214445999999999
#
# number of rings (size 3 to 8) (size 9 to 14) (size 15 to 20)
#    0.000    1.143    4.286    3.857    0.000    1.143 
#    0.000   10.000    0.000    0.000    0.000    0.000 
#    0.000    0.000    0.000    0.000    0.000    0.000 
#
# Total GULP energy -347073.508221 kJ/mol
# GULP energy per Si atom -12395.482436 kJ/mol
# Density = 2.016844 g / cm^3
# Si number density = 20.214446 Si / 1000 Ang^3
#
#
#
# Elastic Constant Matrix: (Units=GPa)
#
#
# Indices 1 2 3 4 5 6 
#
# 1 107.4574 52.3804 42.7271 0.0000 1.1064 0.0000
# 2 52.3804 141.8789 44.7354 0.0000 0.8732 0.0000
# 3 42.7271 44.7354 117.1883 0.0000 -1.1957 0.0000
# 4 0.0000 0.0000 0.0000 15.3129 0.0000 -3.1264
# 5 1.1064 0.8732 -1.1957 0.0000 37.8537 0.0000
# 6 0.0000 0.0000 0.0000 -3.1264 0.0000 15.0789
#
#
#
# Elastic Compliance Matrix: (Units=1/GPa)
#
#
# Indices 1 2 3 4 5 6 
#
# 1 0.012282 -0.003546 -0.003128 0.000000 -0.000376 0.000000
# 2 -0.003546 0.009039 -0.002160 0.000000 -0.000173 0.000000
# 3 -0.003128 -0.002160 0.010503 0.000000 0.000473 0.000000
# 4 0.000000 0.000000 0.000000 0.068191 0.000000 0.014138
# 5 -0.000376 -0.000173 0.000473 0.000000 0.026447 0.000000
# 6 0.000000 0.000000 0.000000 0.014138 0.000000 0.069249
#
#
# Mechanical properties :
#
#
# Convention : Reuss Voigt Hill
#
# Bulk Modulus (GPa) = 70.63605 71.80115 71.21860
# Shear Modulus (GPa) = 22.92539 28.76121 25.84330
#
# Velocity S-wave (km/s) = 3.37131 3.77610 3.57943
# Velocity P-wave (km/s) = 7.08332 7.38977 7.23817
#
# Compressibility (1/GPa) = 0.01415708
#
# Stress axis : x y z
#
# Youngs Moduli (GPa) = 81.41883 110.62749 95.20960
#
# Poissons Ratio (x) = 0.39226 0.29785
# Poissons Ratio (y) = 0.28869 0.20562
# Poissons Ratio (z) = 0.25471 0.23892
#
# Static dielectric constant tensor:
#      x y z
#    x 5.228370 0.000000 0.652710 
#    y 0.000000 3.338730 0.000000 
#    z 0.652710 0.000000 4.488920 
# 
# 
# High freq. dielectric constant tensor:
#      x y z
#    x 1.788930 0.000000 -0.003770 
#    y 0.000000 1.761260 0.000000 
#    z -0.003770 0.000000 1.802860 
# 
# From -- ./inp_files/39834.got.cif
#   From: 2010.06.25/outbox.cif.g09.slc.cpg/sg11_20_cif.got.tgz:39834.got - 2010.06.27 23:14:04.
