data_PCOD8076796
_publ_section_title
;
Structure prediction by ZEFSAII (Michael W. Deem and Ramdas Pophale) SiO2 
 PCOD8076796
Probable space group: P 21/M
;
_chemical_formula_sum "Si O2"
_cell_formula_units_Z 28
_cell_length_a 12.456363
_cell_length_b 8.981273
_cell_length_c 14.500837
_cell_angle_alpha 90.000000
_cell_angle_beta 60.224016
_cell_angle_gamma 90.000000
_cell_volume 1408.084715
_symmetry_space_group_name_H-M "P 21/M"
_symmetry_group_IT_number 11
_symmetry_cell_setting 'monoclinic'
loop_
_space_group_symop_operation_xyz
x,y,z
-x,1/2+y,-z
-x,-y,-z
x,1/2-y,z
loop_
_atom_site_type_symbol
_atom_site_label
_atom_site_fract_x
_atom_site_fract_y
_atom_site_fract_z
Si Si1 0.082708 0.078357 0.888706
Si Si2 0.969220 0.425753 0.282822
Si Si3 0.472546 0.075293 0.416133
Si Si4 0.221944 0.577828 0.477096
Si Si5 0.535109 0.076757 0.891387
Si Si6 0.632888 0.580278 0.205107
Si Si7 0.192373 0.922379 0.281956
O O1 0.043167 0.250000 0.896037
O O2 0.221258 0.062566 0.866595
O O3 0.070020 0.002075 0.795115
O O4 0.000000 0.000000 0.000000
O O5 0.972018 0.250000 0.266625
O O6 0.872431 0.473103 0.403337
O O7 0.104202 0.479057 0.255874
O O8 0.467984 0.250000 0.431847
O O9 0.500000 0.000000 0.500000
O O10 0.343890 0.020763 0.429396
O O11 0.585620 0.032401 0.302335
O O12 0.260050 0.750000 0.472771
O O13 0.160492 0.551346 0.403301
O O14 0.538368 0.250000 0.909078
O O15 0.429116 0.033311 0.864291
O O16 0.667960 0.023553 0.796933
O O17 0.500000 0.000000 0.000000
O O18 0.595792 0.750000 0.247148
O O19 0.173699 0.750000 0.263628
#
# Coordination Sequence:
#
# PCOD8076796 Si02
#       7
#     4   4   4   4   4   4   4
#     4  11  25  44  67  92 123 165 210 260 313 371
#     4  11  24  40  63  93 127 167 211 260 308 370
#     4  12  24  37  61  93 126 165 206 255 307 369
#     4  10  21  41  64  90 127 166 207 256 310 368
#     4  10  22  40  64  93 126 163 204 255 313 370
#     4  10  22  44  67  90 124 163 205 258 313 367
#     4  10  21  40  65  92 127 168 204 254 315 369
#
# _framework density 19.885168
#
# number of rings (size 3 to 8) (size 9 to 14) (size 15 to 20)
#    0.000    1.429    1.429    3.429    2.000    6.286 
#    0.000    0.000    0.000    0.000    0.000    0.000 
#    0.000    0.000    0.000    0.000    0.000    0.000 
#
# Total GULP energy -347339.996658 kJ/mol
# GULP energy per Si atom -12404.999881 kJ/mol
# Density = 1.983991 g / cm^3
# Si number density = 19.885168 Si / 1000 Ang^3
#
#
#
# Elastic Constant Matrix: (Units=GPa)
#
#
# Indices 1 2 3 4 5 6 
#
# 1 107.2887 39.7118 50.9619 0.0000 -1.6116 0.0000
# 2 39.7118 89.5851 51.6325 0.0000 -1.6524 0.0000
# 3 50.9619 51.6325 148.8841 0.0000 6.2841 0.0000
# 4 0.0000 0.0000 0.0000 38.0442 0.0000 2.3386
# 5 -1.6116 -1.6524 6.2841 0.0000 31.0170 0.0000
# 6 0.0000 0.0000 0.0000 2.3386 0.0000 34.0775
#
#
#
# Elastic Compliance Matrix: (Units=1/GPa)
#
#
# Indices 1 2 3 4 5 6 
#
# 1 0.012070 -0.003656 -0.002907 0.000000 0.001021 0.000000
# 2 -0.003656 0.015152 -0.004064 0.000000 0.001441 0.000000
# 3 -0.002907 -0.004064 0.009215 0.000000 -0.002235 0.000000
# 4 0.000000 0.000000 0.000000 0.026397 0.000000 -0.001812
# 5 0.001021 0.001441 -0.002235 0.000000 0.032823 0.000000
# 6 0.000000 0.000000 0.000000 -0.001812 0.000000 0.029469
#
#
# Mechanical properties :
#
#
# Convention : Reuss Voigt Hill
#
# Bulk Modulus (GPa) = 65.86073 70.04115 67.95094
# Shear Modulus (GPa) = 33.01612 34.19119 33.60366
#
# Velocity S-wave (km/s) = 4.07915 4.15110 4.11528
# Velocity P-wave (km/s) = 7.44166 7.63379 7.53834
#
# Compressibility (1/GPa) = 0.01518356
#
# Stress axis : x y z
#
# Youngs Moduli (GPa) = 82.85030 65.99671 108.51620
#
# Poissons Ratio (x) = 0.24131 0.31541
# Poissons Ratio (y) = 0.30294 0.44101
# Poissons Ratio (z) = 0.24081 0.26821
#
# Static dielectric constant tensor:
#      x y z
#    x 3.884180 0.000000 0.140710 
#    y 0.000000 3.731140 0.000000 
#    z 0.140710 0.000000 3.844300 
# 
# 
# High freq. dielectric constant tensor:
#      x y z
#    x 1.788560 0.000000 0.002850 
#    y 0.000000 1.774550 0.000000 
#    z 0.002850 0.000000 1.785450 
# 
# From -- ./inp_files/38398.got.cif
#   From: 2010.06.25/outbox.cif.g09.slc.cpg/sg11_20_cif.got.tgz:38398.got - 2010.06.27 23:14:04.
