data_PCOD8076622
_publ_section_title
;
Structure prediction by ZEFSAII (Michael W. Deem and Ramdas Pophale) SiO2 
 PCOD8076622
Probable space group: P 21/M
;
_chemical_formula_sum "Si O2"
_cell_formula_units_Z 20
_cell_length_a 13.220032
_cell_length_b 14.323092
_cell_length_c 5.122965
_cell_angle_alpha 90.000000
_cell_angle_beta 87.679352
_cell_angle_gamma 90.000000
_cell_volume 969.246746
_symmetry_space_group_name_H-M "P 21/M"
_symmetry_group_IT_number 11
_symmetry_cell_setting 'monoclinic'
loop_
_space_group_symop_operation_xyz
x,y,z
-x,1/2+y,-z
-x,-y,-z
x,1/2-y,z
loop_
_atom_site_type_symbol
_atom_site_label
_atom_site_fract_x
_atom_site_fract_y
_atom_site_fract_z
Si Si1 0.666326 0.354232 0.522803
Si Si2 0.817311 0.540390 0.932222
Si Si3 0.122247 0.854689 0.288400
Si Si4 0.390097 0.540677 0.974005
Si Si5 0.103428 0.142426 0.575314
O O1 0.632776 0.250000 0.457224
O O2 0.788393 0.365100 0.507166
O O3 0.616796 0.421971 0.318597
O O4 0.626285 0.377152 0.816090
O O5 0.861987 0.434222 0.935041
O O6 0.838811 0.584222 0.648203
O O7 0.695829 0.538689 0.979427
O O8 0.868850 0.603377 0.144155
O O9 0.125995 0.750000 0.159942
O O10 0.016947 0.868898 0.451078
O O11 0.500000 0.500000 0.000000
O O12 0.136982 0.250000 0.555258
#
# Coordination Sequence:
#
# PCOD8076622 Si02
#       5
#     4   4   4   4   4
#     4  10  21  39  62  90 117 148 194 248 298 353
#     4  11  22  40  60  85 119 159 199 245 296 353
#     4   9  20  37  62  92 122 154 194 244 300 356
#     4  11  23  41  61  85 116 155 198 249 301 348
#     4  11  23  39  59  88 124 162 198 236 288 360
#
# _framework density 20.634578999999999
#
# number of rings (size 3 to 8) (size 9 to 14) (size 15 to 20)
#    0.000    1.600    0.000    5.400    0.000    4.000 
#    0.000   19.000    0.000    0.000    0.000    0.000 
#    0.000    0.000    0.000    0.000    0.000    0.000 
#
# Total GULP energy -248026.174213 kJ/mol
# GULP energy per Si atom -12401.308711 kJ/mol
# Density = 2.058761 g / cm^3
# Si number density = 20.634579 Si / 1000 Ang^3
#
#
#
# Elastic Constant Matrix: (Units=GPa)
#
#
# Indices 1 2 3 4 5 6 
#
# 1 120.4472 46.7802 12.6445 0.0000 2.9380 0.0000
# 2 46.7802 114.8060 23.4208 0.0000 1.8480 0.0000
# 3 12.6445 23.4208 77.2156 0.0000 5.4193 0.0000
# 4 0.0000 0.0000 0.0000 28.1024 0.0000 5.1255
# 5 2.9380 1.8480 5.4193 0.0000 23.9563 0.0000
# 6 0.0000 0.0000 0.0000 5.1255 0.0000 22.3633
#
#
#
# Elastic Compliance Matrix: (Units=1/GPa)
#
#
# Indices 1 2 3 4 5 6 
#
# 1 0.009892 -0.003943 -0.000366 0.000000 -0.000826 0.000000
# 2 -0.003943 0.010857 -0.002665 0.000000 0.000249 0.000000
# 3 -0.000366 -0.002665 0.014024 0.000000 -0.002922 0.000000
# 4 0.000000 0.000000 0.000000 0.037137 0.000000 -0.008511
# 5 -0.000826 0.000249 -0.002922 0.000000 0.042486 0.000000
# 6 0.000000 0.000000 0.000000 -0.008511 0.000000 0.046667
#
#
# Mechanical properties :
#
#
# Convention : Reuss Voigt Hill
#
# Bulk Modulus (GPa) = 48.01773 53.12886 50.57330
# Shear Modulus (GPa) = 27.47987 30.19262 28.83625
#
# Velocity S-wave (km/s) = 3.65326 3.82934 3.74233
# Velocity P-wave (km/s) = 6.41218 6.73462 6.57538
#
# Compressibility (1/GPa) = 0.02082564
#
# Stress axis : x y z
#
# Youngs Moduli (GPa) = 101.08838 92.11012 71.30612
#
# Poissons Ratio (x) = 0.36318 0.02610
# Poissons Ratio (y) = 0.39858 0.19002
# Poissons Ratio (z) = 0.03700 0.24545
#
# Static dielectric constant tensor:
#      x y z
#    x 3.807270 0.000000 -0.034140 
#    y 0.000000 3.976160 0.000000 
#    z -0.034140 0.000000 3.528800 
# 
# 
# High freq. dielectric constant tensor:
#      x y z
#    x 1.802580 0.000000 0.000460 
#    y 0.000000 1.813800 0.000000 
#    z 0.000460 0.000000 1.803190 
# 
# From -- ./inp_files/4300.got.cif
#   From: 2010.06.25/outbox.cif.g09.slc.cpg/sg11_3_cif.got.tgz:4300.got - 2010.06.27 23:14:04.
