data_PCOD8076665
_publ_section_title
;
Structure prediction by ZEFSAII (Michael W. Deem and Ramdas Pophale) SiO2 
 PCOD8076665
Probable space group: P 21/M
;
_chemical_formula_sum "Si O2"
_cell_formula_units_Z 28
_cell_length_a 11.710473
_cell_length_b 14.507563
_cell_length_c 9.011854
_cell_angle_alpha 90.000000
_cell_angle_beta 60.445182
_cell_angle_gamma 90.000000
_cell_volume 1331.816763
_symmetry_space_group_name_H-M "P 21/M"
_symmetry_group_IT_number 11
_symmetry_cell_setting 'monoclinic'
loop_
_space_group_symop_operation_xyz
x,y,z
-x,1/2+y,-z
-x,-y,-z
x,1/2-y,z
loop_
_atom_site_type_symbol
_atom_site_label
_atom_site_fract_x
_atom_site_fract_y
_atom_site_fract_z
Si Si1 0.237253 0.348355 0.885352
Si Si2 0.102068 0.645043 0.596559
Si Si3 0.439406 0.003114 0.699734
Si Si4 0.803236 0.645666 0.744990
Si Si5 0.701955 0.142300 0.025560
Si Si6 0.685838 0.461853 0.725433
Si Si7 0.955767 0.104258 0.034898
O O1 0.305984 0.250000 0.806097
O O2 0.313345 0.431509 0.760794
O O3 0.235468 0.366874 0.060597
O O4 0.088211 0.338517 0.922707
O O5 0.140343 0.750000 0.538338
O O6 0.205223 0.581236 0.449284
O O7 0.111533 0.627784 0.765747
O O8 0.957203 0.623489 0.626976
O O9 0.391577 0.903431 0.789364
O O10 0.500000 0.000000 0.500000
O O11 0.542273 0.048904 0.746923
O O12 0.771569 0.750000 0.709880
O O13 0.717929 0.571013 0.711310
O O14 0.665337 0.250000 0.032844
O O15 0.854286 0.130275 0.970781
O O16 0.680672 0.088989 0.885702
O O17 0.000000 0.000000 0.000000
#
# Coordination Sequence:
#
# PCOD8076665 Si02
#       7
#     4   4   4   4   4   4   4
#     4  10  21  41  68  95 123 168 218 264 325 392
#     4  10  21  39  63  97 132 171 214 260 326 402
#     4  12  27  46  65  91 131 180 227 272 324 397
#     4   9  19  38  66  96 128 164 212 270 329 389
#     4  12  25  43  67 101 134 171 222 280 336 395
#     4  12  24  42  66  95 134 177 216 266 336 396
#     4  11  20  40  72  97 131 168 214 277 335 384
#
# _framework density 21.023914000000001
#
# number of rings (size 3 to 8) (size 9 to 14) (size 15 to 20)
#    0.000    1.143    2.857    5.143    0.000    2.286 
#    0.000    0.000    0.000    0.000    0.000    0.000 
#    0.000    0.000    0.000    0.000    0.000    0.000 
#
# Total GULP energy -347217.812916 kJ/mol
# GULP energy per Si atom -12400.636176 kJ/mol
# Density = 2.097606 g / cm^3
# Si number density = 21.023914 Si / 1000 Ang^3
#
#
#
# Elastic Constant Matrix: (Units=GPa)
#
#
# Indices 1 2 3 4 5 6 
#
# 1 90.7177 35.9923 59.1148 0.0000 12.8673 0.0000
# 2 35.9923 150.8883 54.1098 0.0000 -7.1327 0.0000
# 3 59.1148 54.1098 101.9190 0.0000 -13.9701 0.0000
# 4 0.0000 0.0000 0.0000 19.2661 0.0000 -0.7881
# 5 12.8673 -7.1327 -13.9701 0.0000 25.4776 0.0000
# 6 0.0000 0.0000 0.0000 -0.7881 0.0000 20.5889
#
#
#
# Elastic Compliance Matrix: (Units=1/GPa)
#
#
# Indices 1 2 3 4 5 6 
#
# 1 0.026587 -0.000948 -0.018160 0.000000 -0.023651 0.000000
# 2 -0.000948 0.008220 -0.003712 0.000000 0.000744 0.000000
# 3 -0.018160 -0.003712 0.025334 0.000000 0.022024 0.000000
# 4 0.000000 0.000000 0.000000 0.051986 0.000000 0.001990
# 5 -0.023651 0.000744 0.022024 0.000000 0.063480 0.000000
# 6 0.000000 0.000000 0.000000 0.001990 0.000000 0.048646
#
#
# Mechanical properties :
#
#
# Convention : Reuss Voigt Hill
#
# Bulk Modulus (GPa) = 68.95584 71.32875 70.14229
# Shear Modulus (GPa) = 18.19989 26.02039 22.11014
#
# Velocity S-wave (km/s) = 2.94543 3.52185 3.24646
# Velocity P-wave (km/s) = 6.66614 7.10908 6.89117
#
# Compressibility (1/GPa) = 0.01450204
#
# Stress axis : x y z
#
# Youngs Moduli (GPa) = 37.61185 121.65525 39.47203
#
# Poissons Ratio (x) = 0.11530 0.71680
# Poissons Ratio (y) = 0.03565 0.14653
# Poissons Ratio (z) = 0.68302 0.45162
#
# Static dielectric constant tensor:
#      x y z
#    x 4.065180 0.000000 -0.113170 
#    y 0.000000 4.023500 0.000000 
#    z -0.113170 0.000000 3.651760 
# 
# 
# High freq. dielectric constant tensor:
#      x y z
#    x 1.824440 0.000000 -0.008480 
#    y 0.000000 1.840560 0.000000 
#    z -0.008480 0.000000 1.811730 
# 
# From -- ./inp_files/17959.got.cif
#   From: 2010.06.25/outbox.cif.g09.slc.cpg/sg11_9_cif.got.tgz:17959.got - 2010.06.27 23:14:04.
