data_PCOD8076228
_publ_section_title
;
Structure prediction by ZEFSAII (Michael W. Deem and Ramdas Pophale) SiO2 
 PCOD8076228
Probable space group: P 21/M
;
_chemical_formula_sum "Si O2"
_cell_formula_units_Z 32
_cell_length_a 16.530425
_cell_length_b 10.528764
_cell_length_c 14.959087
_cell_angle_alpha 90.000000
_cell_angle_beta 41.337079
_cell_angle_gamma 90.000000
_cell_volume 1719.615061
_symmetry_space_group_name_H-M "P 21/M"
_symmetry_group_IT_number 11
_symmetry_cell_setting 'monoclinic'
loop_
_space_group_symop_operation_xyz
x,y,z
-x,1/2+y,-z
-x,-y,-z
x,1/2-y,z
loop_
_atom_site_type_symbol
_atom_site_label
_atom_site_fract_x
_atom_site_fract_y
_atom_site_fract_z
Si Si1 0.606013 0.106348 0.292991
Si Si2 0.053385 0.388961 0.071342
Si Si3 0.101998 0.397837 0.389675
Si Si4 0.819800 0.959226 0.206635
Si Si5 0.398389 0.604036 0.912459
Si Si6 0.656426 0.607740 0.497879
Si Si7 0.322125 0.101590 0.327186
Si Si8 0.210188 0.103351 0.108966
O O1 0.605344 0.250000 0.324571
O O2 0.631884 0.089233 0.166831
O O3 0.472337 0.042779 0.426662
O O4 0.715254 0.052033 0.260282
O O5 0.005683 0.250000 0.136638
O O6 0.133278 0.442858 0.086538
O O7 0.936214 0.474136 0.153177
O O8 0.136014 0.375703 0.913321
O O9 0.068479 0.250000 0.443206
O O10 0.223830 0.450885 0.338273
O O11 0.122771 0.405130 0.266715
O O12 0.000000 0.500000 0.500000
O O13 0.759958 0.880639 0.336799
O O14 0.368469 0.750000 0.967513
O O15 0.539316 0.569574 0.817133
O O16 0.320077 0.497805 0.030065
O O17 0.616410 0.750000 0.559374
O O18 0.704103 0.544058 0.551012
O O19 0.301266 0.250000 0.345198
O O20 0.258083 0.250000 0.057276
#
# Coordination Sequence:
#
# PCOD8076228 Si02
#       8
#     4   4   4   4   4   4   4   4
#     4   9  17  31  50  75 104 134 173 222 266 305
#     4  10  22  35  47  70 107 143 175 216 265 313
#     4  10  22  39  61  82 109 144 178 216 267 322
#     4  11  19  31  52  72  99 139 184 215 256 312
#     4   9  17  34  59  82 106 138 180 223 261 314
#     4   9  18  31  51  77 104 132 171 223 268 310
#     4   8  17  35  56  81 108 136 173 224 273 309
#     4  10  21  38  55  78 112 146 172 215 278 321
#
# _framework density 18.608816999999998
#
# number of rings (size 3 to 8) (size 9 to 14) (size 15 to 20)
#    0.000    2.500    1.250    2.625    1.750    1.000 
#    0.000    1.250    0.000    3.000    0.000    0.000 
#    0.000    0.000    0.000    0.000    0.000    0.000 
#
# Total GULP energy -396424.588008 kJ/mol
# GULP energy per Si atom -12388.268375 kJ/mol
# Density = 1.856646 g / cm^3
# Si number density = 18.608817 Si / 1000 Ang^3
#
#
#
# Elastic Constant Matrix: (Units=GPa)
#
#
# Indices 1 2 3 4 5 6 
#
# 1 112.2023 38.7779 40.8628 0.0000 -15.4325 0.0000
# 2 38.7779 72.9909 42.4557 0.0000 -10.4484 0.0000
# 3 40.8628 42.4557 96.6101 0.0000 -8.1811 0.0000
# 4 0.0000 0.0000 0.0000 34.7989 0.0000 -2.6894
# 5 -15.4325 -10.4484 -8.1811 0.0000 21.9713 0.0000
# 6 0.0000 0.0000 0.0000 -2.6894 0.0000 20.1896
#
#
#
# Elastic Compliance Matrix: (Units=1/GPa)
#
#
# Indices 1 2 3 4 5 6 
#
# 1 0.012098 -0.003937 -0.002918 0.000000 0.005539 0.000000
# 2 -0.003937 0.020466 -0.006958 0.000000 0.004376 0.000000
# 3 -0.002918 -0.006958 0.014651 0.000000 0.000097 0.000000
# 4 0.000000 0.000000 0.000000 0.029035 0.000000 0.003868
# 5 0.005539 0.004376 0.000097 0.000000 0.051521 0.000000
# 6 0.000000 0.000000 0.000000 0.003868 0.000000 0.050046
#
#
# Mechanical properties :
#
#
# Convention : Reuss Voigt Hill
#
# Bulk Modulus (GPa) = 51.04997 58.44402 54.74699
# Shear Modulus (GPa) = 23.58814 26.03910 24.81362
#
# Velocity S-wave (km/s) = 3.56417 3.74476 3.65558
# Velocity P-wave (km/s) = 6.66562 7.08325 6.87761
#
# Compressibility (1/GPa) = 0.01958865
#
# Stress axis : x y z
#
# Youngs Moduli (GPa) = 82.66146 48.86268 68.25557
#
# Poissons Ratio (x) = 0.19238 0.19914
# Poissons Ratio (y) = 0.32545 0.47491
# Poissons Ratio (z) = 0.24118 0.33998
#
# Static dielectric constant tensor:
#      x y z
#    x 3.652830 0.000000 -0.039420 
#    y 0.000000 3.152540 0.000000 
#    z -0.039420 0.000000 3.340530 
# 
# 
# High freq. dielectric constant tensor:
#      x y z
#    x 1.733570 0.000000 -0.002660 
#    y 0.000000 1.694850 0.000000 
#    z -0.002660 0.000000 1.715710 
# 
# From -- ./inp_files/52275.got.cif
#   From: 2010.06.25/outbox.cif.g09.slc.cpg/sg11_27_cif.got.tgz:52275.got - 2010.06.27 23:14:04.
