data_PCOD8076949
_publ_section_title
;
Structure prediction by ZEFSAII (Michael W. Deem and Ramdas Pophale) SiO2 
 PCOD8076949
Probable space group: P 21/M
;
_chemical_formula_sum "Si O2"
_cell_formula_units_Z 20
_cell_length_a 9.466023
_cell_length_b 16.643843
_cell_length_c 12.799835
_cell_angle_alpha 90.000000
_cell_angle_beta 150.657468
_cell_angle_gamma 90.000000
_cell_volume 988.206980
_symmetry_space_group_name_H-M "P 21/M"
_symmetry_group_IT_number 11
_symmetry_cell_setting 'monoclinic'
loop_
_space_group_symop_operation_xyz
x,y,z
-x,1/2+y,-z
-x,-y,-z
x,1/2-y,z
loop_
_atom_site_type_symbol
_atom_site_label
_atom_site_fract_x
_atom_site_fract_y
_atom_site_fract_z
Si Si1 0.601906 0.564255 0.154012
Si Si2 0.803905 0.970747 0.728532
Si Si3 0.922125 0.340091 0.232409
Si Si4 0.866818 0.157455 0.438287
Si Si5 0.657648 0.946856 0.868690
O O1 0.547027 0.522947 0.232258
O O2 0.931707 0.597290 0.362171
O O3 0.500000 0.500000 0.000000
O O4 0.406520 0.642783 0.013349
O O5 0.777112 0.942231 0.829615
O O6 0.863803 0.896061 0.692894
O O7 0.500000 0.000000 0.500000
O O8 0.050632 0.040016 0.873418
O O9 0.996633 0.250000 0.248147
O O10 0.968290 0.353312 0.385085
O O11 0.895746 0.250000 0.493602
O O12 0.528539 0.133116 0.229058
#
# Coordination Sequence:
#
# PCOD8076949 Si02
#       5
#     4   4   4   4   4
#     4  11  21  36  64  90 118 157 203 252 300 362
#     4  10  22  38  60  84 121 158 204 242 292 355
#     4  10  22  39  59  88 121 156 199 250 307 359
#     4  11  23  38  60  91 123 153 198 255 310 360
#     4  10  22  37  59  91 113 157 203 243 289 358
#
# _framework density 20.238674
#
# number of rings (size 3 to 8) (size 9 to 14) (size 15 to 20)
#    0.000    1.600    2.000    2.400    5.600    0.800 
#    0.000    1.000    0.000    0.000    0.000    0.000 
#    0.000    0.000    0.000    0.000    0.000    0.000 
#
# Total GULP energy -247779.171175 kJ/mol
# GULP energy per Si atom -12388.958559 kJ/mol
# Density = 2.019261 g / cm^3
# Si number density = 20.238674 Si / 1000 Ang^3
#
#
#
# Elastic Constant Matrix: (Units=GPa)
#
#
# Indices 1 2 3 4 5 6 
#
# 1 93.4764 55.5025 37.9553 0.0000 10.7377 0.0000
# 2 55.5025 123.0888 79.8890 0.0000 11.4761 0.0000
# 3 37.9553 79.8890 117.7981 0.0000 27.7087 0.0000
# 4 0.0000 0.0000 0.0000 29.6074 0.0000 -0.4289
# 5 10.7377 11.4761 27.7087 0.0000 34.4775 0.0000
# 6 0.0000 0.0000 0.0000 -0.4289 0.0000 32.7442
#
#
#
# Elastic Compliance Matrix: (Units=1/GPa)
#
#
# Indices 1 2 3 4 5 6 
#
# 1 0.014818 -0.006688 0.000398 0.000000 -0.002709 0.000000
# 2 -0.006688 0.017945 -0.011221 0.000000 0.005128 0.000000
# 3 0.000398 -0.011221 0.018646 0.000000 -0.011375 0.000000
# 4 0.000000 0.000000 0.000000 0.033782 0.000000 0.000443
# 5 -0.002709 0.005128 -0.011375 0.000000 0.037283 0.000000
# 6 0.000000 0.000000 0.000000 0.000443 0.000000 0.030546
#
#
# Mechanical properties :
#
#
# Convention : Reuss Voigt Hill
#
# Bulk Modulus (GPa) = 61.02062 75.67299 68.34680
# Shear Modulus (GPa) = 25.83935 30.10024 27.96979
#
# Velocity S-wave (km/s) = 3.57701 3.86069 3.72156
# Velocity P-wave (km/s) = 6.87575 7.57263 7.23259
#
# Compressibility (1/GPa) = 0.01638790
#
# Stress axis : x y z
#
# Youngs Moduli (GPa) = 67.48446 55.72712 53.62951
#
# Poissons Ratio (x) = 0.37268 -0.02135
# Poissons Ratio (y) = 0.45131 0.60179
# Poissons Ratio (z) = -0.02686 0.62533
#
# Static dielectric constant tensor:
#      x y z
#    x 3.627360 0.000000 0.151610 
#    y 0.000000 3.638500 0.000000 
#    z 0.151610 0.000000 3.807300 
# 
# 
# High freq. dielectric constant tensor:
#      x y z
#    x 1.793660 0.000000 0.003520 
#    y 0.000000 1.774000 0.000000 
#    z 0.003520 0.000000 1.796920 
# 
# From -- ./inp_files/1982.got.cif
#   From: 2010.06.25/outbox.cif.g09.slc.cpg/sg11_1_cif.got.tgz:1982.got - 2010.06.27 23:14:04.
