data_PCOD8076728
_publ_section_title
;
Structure prediction by ZEFSAII (Michael W. Deem and Ramdas Pophale) SiO2 
 PCOD8076728
Probable space group: P 21/M
;
_chemical_formula_sum "Si O2"
_cell_formula_units_Z 24
_cell_length_a 26.673744
_cell_length_b 8.688845
_cell_length_c 18.509635
_cell_angle_alpha 90.000000
_cell_angle_beta 16.156630
_cell_angle_gamma 90.000000
_cell_volume 1193.716272
_symmetry_space_group_name_H-M "P 21/M"
_symmetry_group_IT_number 11
_symmetry_cell_setting 'monoclinic'
loop_
_space_group_symop_operation_xyz
x,y,z
-x,1/2+y,-z
-x,-y,-z
x,1/2-y,z
loop_
_atom_site_type_symbol
_atom_site_label
_atom_site_fract_x
_atom_site_fract_y
_atom_site_fract_z
Si Si1 0.949902 0.932025 0.266746
Si Si2 0.309549 0.430778 0.245341
Si Si3 0.457119 0.567555 0.766819
Si Si4 0.159070 0.932294 0.732280
Si Si5 0.807152 0.567517 0.749778
Si Si6 0.654138 0.430948 0.237741
O O1 0.938724 0.750000 0.267023
O O2 0.836144 0.981408 0.493871
O O3 0.153634 0.987409 0.998661
O O4 0.868231 0.023774 0.312964
O O5 0.330704 0.250000 0.214325
O O6 0.245244 0.492561 0.257006
O O7 0.500000 0.500000 0.000000
O O8 0.458641 0.750000 0.774735
O O9 0.658246 0.504207 0.490643
O O10 0.369120 0.516691 0.812809
O O11 0.341975 0.492776 0.989250
O O12 0.166082 0.750000 0.731469
O O13 0.000000 0.000000 0.000000
O O14 0.816155 0.750000 0.741138
O O15 0.000000 0.500000 0.500000
O O16 0.500000 0.500000 0.500000
O O17 0.639514 0.250000 0.263348
#
# Coordination Sequence:
#
# PCOD8076728 Si02
#       6
#     4   4   4   4   4   4
#     4  10  21  40  62  85 116 156 195 241 297 351
#     4  10  22  39  60  86 118 154 197 244 294 349
#     4  11  23  41  63  90 122 158 198 246 299 354
#     4  12  25  41  61  89 121 157 200 246 295 355
#     4  11  23  40  62  91 123 159 201 246 294 353
#     4  10  22  39  61  87 117 152 195 243 295 352
#
# _framework density 20.105281000000002
#
# number of rings (size 3 to 8) (size 9 to 14) (size 15 to 20)
#    0.000    1.333    0.000    5.500    0.000   12.000 
#    0.000    1.667    0.000    0.000    0.000    0.000 
#    0.000    0.000    0.000    0.000    0.000    0.000 
#
# Total GULP energy -297729.872802 kJ/mol
# GULP energy per Si atom -12405.411367 kJ/mol
# Density = 2.005952 g / cm^3
# Si number density = 20.105281 Si / 1000 Ang^3
#
#
#
# Elastic Constant Matrix: (Units=GPa)
#
#
# Indices 1 2 3 4 5 6 
#
# 1 106.0971 40.7590 15.2249 0.0000 0.0890 0.0000
# 2 40.7590 42.3238 21.2455 0.0000 -4.1802 0.0000
# 3 15.2249 21.2455 112.9865 0.0000 -1.4902 0.0000
# 4 0.0000 0.0000 0.0000 40.7886 0.0000 2.8819
# 5 0.0890 -4.1802 -1.4902 0.0000 46.7005 0.0000
# 6 0.0000 0.0000 0.0000 2.8819 0.0000 31.0778
#
#
#
# Elastic Compliance Matrix: (Units=1/GPa)
#
#
# Indices 1 2 3 4 5 6 
#
# 1 0.015104 -0.015072 0.000781 0.000000 -0.001353 0.000000
# 2 -0.015072 0.041352 -0.005698 0.000000 0.003548 0.000000
# 3 0.000781 -0.005698 0.009814 0.000000 -0.000198 0.000000
# 4 0.000000 0.000000 0.000000 0.024678 0.000000 -0.002288
# 5 -0.001353 0.003548 -0.000198 0.000000 0.021727 0.000000
# 6 0.000000 0.000000 0.000000 -0.002288 0.000000 0.032389
#
#
# Mechanical properties :
#
#
# Convention : Reuss Voigt Hill
#
# Bulk Modulus (GPa) = 38.03219 46.20738 42.11978
# Shear Modulus (GPa) = 25.79875 35.99192 30.89533
#
# Velocity S-wave (km/s) = 3.58604 4.23563 3.92430
# Velocity P-wave (km/s) = 6.00865 6.85225 6.44427
#
# Compressibility (1/GPa) = 0.02629352
#
# Stress axis : x y z
#
# Youngs Moduli (GPa) = 66.20586 24.18237 101.89297
#
# Poissons Ratio (x) = 0.36447 -0.07956
# Poissons Ratio (y) = 0.99782 0.58059
# Poissons Ratio (z) = -0.05170 0.13779
#
# Static dielectric constant tensor:
#      x y z
#    x 4.064840 0.000000 -0.067130 
#    y 0.000000 3.983680 0.000000 
#    z -0.067130 0.000000 3.806230 
# 
# 
# High freq. dielectric constant tensor:
#      x y z
#    x 1.806930 0.000000 -0.000150 
#    y 0.000000 1.783490 0.000000 
#    z -0.000150 0.000000 1.806270 
# 
# From -- ./inp_files/61713.got.cif
#   From: 2010.06.25/outbox.cif.g09.slc.cpg/sg11_31_cif.got.tgz:61713.got - 2010.06.27 23:14:04.
