data_PCOD8076888
_publ_section_title
;
Structure prediction by ZEFSAII (Michael W. Deem and Ramdas Pophale) SiO2 
 PCOD8076888
Probable space group: P 21/M
;
_chemical_formula_sum "Si O2"
_cell_formula_units_Z 32
_cell_length_a 8.673939
_cell_length_b 23.626741
_cell_length_c 14.076273
_cell_angle_alpha 90.000000
_cell_angle_beta 150.079053
_cell_angle_gamma 90.000000
_cell_volume 1438.925632
_symmetry_space_group_name_H-M "P 21/M"
_symmetry_group_IT_number 11
_symmetry_cell_setting 'monoclinic'
loop_
_space_group_symop_operation_xyz
x,y,z
-x,1/2+y,-z
-x,-y,-z
x,1/2-y,z
loop_
_atom_site_type_symbol
_atom_site_label
_atom_site_fract_x
_atom_site_fract_y
_atom_site_fract_z
Si Si1 0.558163 0.918075 0.280175
Si Si2 0.864959 0.314545 0.950960
Si Si3 0.582365 0.587050 0.982908
Si Si4 0.972037 0.313771 0.786274
Si Si5 0.489013 0.814225 0.619098
Si Si6 0.745455 0.090892 0.385290
Si Si7 0.784941 0.466974 0.064847
Si Si8 0.425399 0.007067 0.350934
O O1 0.415275 0.857081 0.177351
O O2 0.923600 0.915157 0.486680
O O3 0.406238 0.944217 0.294868
O O4 0.491791 0.961277 0.158638
O O5 0.758737 0.250000 0.914631
O O6 0.949742 0.322141 0.886359
O O7 0.151535 0.331584 0.173406
O O8 0.786265 0.530351 0.109319
O O9 0.777243 0.641697 0.120738
O O10 0.507577 0.591280 0.832320
O O11 0.272914 0.579528 0.882580
O O12 0.088325 0.250000 0.825085
O O13 0.635921 0.323314 0.555841
O O14 0.452717 0.750000 0.633069
O O15 0.266306 0.849109 0.568971
O O16 0.678827 0.042017 0.427067
O O17 0.103740 0.458017 0.177322
O O18 0.500000 0.000000 0.500000
#
# Coordination Sequence:
#
# PCOD8076888 Si02
#       8
#     4   4   4   4   4   4   4   4
#     4  12  25  44  65  97 137 181 227 282 338 406
#     4  10  22  43  70 100 135 175 226 285 337 400
#     4  11  23  42  67  99 138 174 224 284 337 404
#     4  10  21  41  71 103 135 179 225 277 344 411
#     4  10  22  41  70 100 132 176 223 275 342 408
#     4  12  25  42  68  97 137 179 226 279 340 403
#     4  11  25  41  64  93 136 178 224 279 338 398
#     4  12  27  42  66  96 132 182 231 277 340 410
#
# _framework density 22.238817000000001
#
# number of rings (size 3 to 8) (size 9 to 14) (size 15 to 20)
#    0.000    1.000    2.500    3.750    7.000    0.500 
#    2.250    0.625    0.000    0.750    0.000    0.000 
#    0.000    0.000    0.000    0.000    0.000    0.000 
#
# Total GULP energy -396742.726541 kJ/mol
# GULP energy per Si atom -12398.210204 kJ/mol
# Density = 2.218820 g / cm^3
# Si number density = 22.238817 Si / 1000 Ang^3
#
#
#
# Elastic Constant Matrix: (Units=GPa)
#
#
# Indices 1 2 3 4 5 6 
#
# 1 86.1828 37.2229 43.7608 0.0000 0.1269 0.0000
# 2 37.2229 126.7580 51.4732 0.0000 7.5105 0.0000
# 3 43.7608 51.4732 123.0253 0.0000 -7.7882 0.0000
# 4 0.0000 0.0000 0.0000 29.4188 0.0000 1.9374
# 5 0.1269 7.5105 -7.7882 0.0000 40.7342 0.0000
# 6 0.0000 0.0000 0.0000 1.9374 0.0000 30.0722
#
#
#
# Elastic Compliance Matrix: (Units=1/GPa)
#
#
# Indices 1 2 3 4 5 6 
#
# 1 0.014882 -0.002638 -0.004213 0.000000 -0.000366 0.000000
# 2 -0.002638 0.010239 -0.003507 0.000000 -0.002550 0.000000
# 3 -0.004213 -0.003507 0.011273 0.000000 0.002815 0.000000
# 4 0.000000 0.000000 0.000000 0.034137 0.000000 -0.002199
# 5 -0.000366 -0.002550 0.002815 0.000000 0.025559 0.000000
# 6 0.000000 0.000000 0.000000 -0.002199 0.000000 0.033395
#
#
# Mechanical properties :
#
#
# Convention : Reuss Voigt Hill
#
# Bulk Modulus (GPa) = 63.78463 66.76443 65.27453
# Shear Modulus (GPa) = 32.16951 33.61230 32.89090
#
# Velocity S-wave (km/s) = 3.80748 3.89192 3.84993
# Velocity P-wave (km/s) = 6.93348 7.09104 7.01270
#
# Compressibility (1/GPa) = 0.01567776
#
# Stress axis : x y z
#
# Youngs Moduli (GPa) = 67.19354 97.66728 88.71021
#
# Poissons Ratio (x) = 0.25762 0.37376
# Poissons Ratio (y) = 0.17724 0.31111
# Poissons Ratio (z) = 0.28311 0.34253
#
# Static dielectric constant tensor:
#      x y z
#    x 3.910170 0.000000 -0.064620 
#    y 0.000000 4.242400 0.000000 
#    z -0.064620 0.000000 4.156450 
# 
# 
# High freq. dielectric constant tensor:
#      x y z
#    x 1.860430 0.000000 -0.017490 
#    y 0.000000 1.883830 0.000000 
#    z -0.017490 0.000000 1.879040 
# 
# From -- ./inp_files/48459.got.cif
#   From: 2010.06.25/outbox.cif.g09.slc.cpg/sg11_25_cif.got.tgz:48459.got - 2010.06.27 23:14:04.
