data_PCOD8076371
_publ_section_title
;
Structure prediction by ZEFSAII (Michael W. Deem and Ramdas Pophale) SiO2 
 PCOD8076371
Probable space group: P 21/M
;
_chemical_formula_sum "Si O2"
_cell_formula_units_Z 28
_cell_length_a 13.875311
_cell_length_b 8.591425
_cell_length_c 11.919084
_cell_angle_alpha 90.000000
_cell_angle_beta 70.502054
_cell_angle_gamma 90.000000
_cell_volume 1339.377116
_symmetry_space_group_name_H-M "P 21/M"
_symmetry_group_IT_number 11
_symmetry_cell_setting 'monoclinic'
loop_
_space_group_symop_operation_xyz
x,y,z
-x,1/2+y,-z
-x,-y,-z
x,1/2-y,z
loop_
_atom_site_type_symbol
_atom_site_label
_atom_site_fract_x
_atom_site_fract_y
_atom_site_fract_z
Si Si1 0.688411 0.927710 0.562676
Si Si2 0.513653 0.569045 0.372841
Si Si3 0.999639 0.929559 0.376490
Si Si4 0.183704 0.070624 0.700532
Si Si5 0.614720 0.932867 0.964741
Si Si6 0.310286 0.569597 0.836547
Si Si7 0.774543 0.429866 0.729629
O O1 0.657319 0.750000 0.597966
O O2 0.718754 0.947507 0.420417
O O3 0.597401 0.042477 0.638205
O O4 0.780245 0.982295 0.607052
O O5 0.500000 0.500000 0.500000
O O6 0.546370 0.750000 0.358205
O O7 0.592695 0.462611 0.277651
O O8 0.970027 0.750000 0.404248
O O9 0.915012 0.002976 0.324553
O O10 0.109202 0.949671 0.271270
O O11 0.000000 0.000000 0.500000
O O12 0.164432 0.250000 0.738458
O O13 0.208624 0.982208 0.807292
O O14 0.602635 0.750000 0.960785
O O15 0.673587 0.975204 0.055870
O O16 0.500000 0.000000 0.000000
O O17 0.688311 0.991598 0.838441
O O18 0.301135 0.750000 0.870560
O O19 0.746749 0.250000 0.726138
#
# Coordination Sequence:
#
# PCOD8076371 Si02
#       7
#     4   4   4   4   4   4   4
#     4  11  21  35  58  88 126 165 206 255 312 375
#     4  12  23  36  55  84 121 160 203 251 310 376
#     4  10  21  38  63  94 131 170 212 263 316 376
#     4  10  21  38  60  90 128 167 208 256 313 373
#     4  12  26  47  71  94 126 167 215 265 316 380
#     4  12  25  42  64  91 125 165 211 263 322 380
#     4  11  23  40  64  95 129 166 214 265 316 375
#
# _framework density 20.905239999999999
#
# number of rings (size 3 to 8) (size 9 to 14) (size 15 to 20)
#    0.000    0.857    2.857    5.571    0.000    1.714 
#    0.000    0.714    0.000    0.000    0.000    0.000 
#    0.000    0.000    0.000    0.000    0.000    0.000 
#
# Total GULP energy -347111.188472 kJ/mol
# GULP energy per Si atom -12396.828160 kJ/mol
# Density = 2.085766 g / cm^3
# Si number density = 20.905240 Si / 1000 Ang^3
#
#
#
# Elastic Constant Matrix: (Units=GPa)
#
#
# Indices 1 2 3 4 5 6 
#
# 1 118.9072 29.0702 29.0330 0.0000 10.9197 0.0000
# 2 29.0702 83.2107 32.3159 0.0000 -6.3678 0.0000
# 3 29.0330 32.3159 74.5129 0.0000 13.1481 0.0000
# 4 0.0000 0.0000 0.0000 32.6480 0.0000 5.3506
# 5 10.9197 -6.3678 13.1481 0.0000 33.8627 0.0000
# 6 0.0000 0.0000 0.0000 5.3506 0.0000 32.4222
#
#
#
# Elastic Compliance Matrix: (Units=1/GPa)
#
#
# Indices 1 2 3 4 5 6 
#
# 1 0.009890 -0.002863 -0.002098 0.000000 -0.002913 0.000000
# 2 -0.002863 0.016314 -0.007154 0.000000 0.006769 0.000000
# 3 -0.002098 -0.007154 0.018743 0.000000 -0.007946 0.000000
# 4 0.000000 0.000000 0.000000 0.031481 0.000000 -0.005195
# 5 -0.002913 0.006769 -0.007946 0.000000 0.034829 0.000000
# 6 0.000000 0.000000 0.000000 -0.005195 0.000000 0.031700
#
#
# Mechanical properties :
#
#
# Convention : Reuss Voigt Hill
#
# Bulk Modulus (GPa) = 48.27062 50.82988 49.55025
# Shear Modulus (GPa) = 28.72030 32.20070 30.46050
#
# Velocity S-wave (km/s) = 3.71055 3.92895 3.82131
# Velocity P-wave (km/s) = 6.44188 6.70443 6.57447
#
# Compressibility (1/GPa) = 0.02071653
#
# Stress axis : x y z
#
# Youngs Moduli (GPa) = 101.11624 61.29525 53.35409
#
# Poissons Ratio (x) = 0.17551 0.11191
# Poissons Ratio (y) = 0.28953 0.38171
# Poissons Ratio (z) = 0.21209 0.43852
#
# Static dielectric constant tensor:
#      x y z
#    x 4.554090 0.000000 0.030300 
#    y 0.000000 3.679870 0.000000 
#    z 0.030300 0.000000 3.878420 
# 
# 
# High freq. dielectric constant tensor:
#      x y z
#    x 1.839570 0.000000 0.011610 
#    y 0.000000 1.819230 0.000000 
#    z 0.011610 0.000000 1.799180 
# 
# From -- ./inp_files/37441.got.cif
#   From: 2010.06.25/outbox.cif.g09.slc.cpg/sg11_19_cif.got.tgz:37441.got - 2010.06.27 23:14:04.
