data_PCOD8076595
_publ_section_title
;
Structure prediction by ZEFSAII (Michael W. Deem and Ramdas Pophale) SiO2 
 PCOD8076595
Probable space group: P 21/M
;
_chemical_formula_sum "Si O2"
_cell_formula_units_Z 32
_cell_length_a 12.616122
_cell_length_b 8.458244
_cell_length_c 29.337500
_cell_angle_alpha 90.000000
_cell_angle_beta 29.878038
_cell_angle_gamma 90.000000
_cell_volume 1559.531123
_symmetry_space_group_name_H-M "P 21/M"
_symmetry_group_IT_number 11
_symmetry_cell_setting 'monoclinic'
loop_
_space_group_symop_operation_xyz
x,y,z
-x,1/2+y,-z
-x,-y,-z
x,1/2-y,z
loop_
_atom_site_type_symbol
_atom_site_label
_atom_site_fract_x
_atom_site_fract_y
_atom_site_fract_z
Si Si1 0.767959 0.062866 0.777649
Si Si2 0.531587 0.066758 0.537789
Si Si3 0.254385 0.562091 0.316842
Si Si4 0.987457 0.937085 0.156842
Si Si5 0.205410 0.432965 0.485721
Si Si6 0.535100 0.935289 0.291883
Si Si7 0.898487 0.066368 0.282301
Si Si8 0.420318 0.436749 0.981230
O O1 0.804306 0.250000 0.764509
O O2 0.724612 0.997603 0.742640
O O3 0.576397 0.012050 0.882144
O O4 0.981961 0.979470 0.715803
O O5 0.593598 0.250000 0.514449
O O6 0.500000 0.000000 0.500000
O O7 0.717311 0.965128 0.491668
O O8 0.312454 0.038581 0.646483
O O9 0.250257 0.750000 0.315997
O O10 0.452722 0.500087 0.273447
O O11 0.038929 0.507155 0.423425
O O12 0.977029 0.750000 0.167012
O O13 0.767942 0.006916 0.216894
O O14 0.037980 0.021053 0.186415
O O15 0.193354 0.987352 0.050866
O O16 0.225488 0.250000 0.465405
O O17 0.354205 0.531564 0.396573
O O18 0.564407 0.750000 0.277830
O O19 0.838287 0.250000 0.306094
O O20 0.400130 0.250000 0.991834
O O21 0.500000 0.500000 0.000000
#
# Coordination Sequence:
#
# PCOD8076595 Si02
#       8
#     4   4   4   4   4   4   4   4
#     4  10  21  39  62  86 118 157 198 246 301 361
#     4  12  24  38  55  81 120 160 200 243 297 360
#     4   9  20  39  61  86 115 154 202 247 296 351
#     4  11  22  37  59  86 118 155 195 242 297 353
#     4  11  21  35  59  88 118 154 198 250 298 349
#     4  10  21  39  62  85 116 159 203 246 292 350
#     4  12  23  36  58  86 119 155 195 243 297 355
#     4  11  22  36  60  89 119 154 195 246 304 361
#
# _framework density 20.518988
#
# number of rings (size 3 to 8) (size 9 to 14) (size 15 to 20)
#    0.000    1.250    2.500    4.500    0.000    2.000 
#    0.000    2.500    0.000    0.000    0.000    0.000 
#    0.000    0.000    0.000    0.000    0.000    0.000 
#
# Total GULP energy -396778.314159 kJ/mol
# GULP energy per Si atom -12399.322317 kJ/mol
# Density = 2.047229 g / cm^3
# Si number density = 20.518988 Si / 1000 Ang^3
#
#
#
# Elastic Constant Matrix: (Units=GPa)
#
#
# Indices 1 2 3 4 5 6 
#
# 1 123.4183 14.6630 36.2306 0.0000 -14.8711 0.0000
# 2 14.6630 41.4231 15.0318 0.0000 -4.2588 0.0000
# 3 36.2306 15.0318 91.6256 0.0000 -15.7916 0.0000
# 4 0.0000 0.0000 0.0000 29.1518 0.0000 -0.4065
# 5 -14.8711 -4.2588 -15.7916 0.0000 28.0824 0.0000
# 6 0.0000 0.0000 0.0000 -0.4065 0.0000 19.6258
#
#
#
# Elastic Compliance Matrix: (Units=1/GPa)
#
#
# Indices 1 2 3 4 5 6 
#
# 1 0.009574 -0.002009 -0.002918 0.000000 0.003125 0.000000
# 2 -0.002009 0.026163 -0.003319 0.000000 0.001037 0.000000
# 3 -0.002918 -0.003319 0.013575 0.000000 0.005585 0.000000
# 4 0.000000 0.000000 0.000000 0.034313 0.000000 0.000711
# 5 0.003125 0.001037 0.005585 0.000000 0.040562 0.000000
# 6 0.000000 0.000000 0.000000 0.000711 0.000000 0.050968
#
#
# Mechanical properties :
#
#
# Convention : Reuss Voigt Hill
#
# Bulk Modulus (GPa) = 30.46850 43.14642 36.80746
# Shear Modulus (GPa) = 24.68066 28.07477 26.37772
#
# Velocity S-wave (km/s) = 3.47193 3.70298 3.58931
# Velocity P-wave (km/s) = 5.56360 6.27343 5.92914
#
# Compressibility (1/GPa) = 0.03282078
#
# Stress axis : x y z
#
# Youngs Moduli (GPa) = 104.44698 38.22138 73.66592
#
# Poissons Ratio (x) = 0.07679 0.21494
# Poissons Ratio (y) = 0.20984 0.24450
# Poissons Ratio (z) = 0.30475 0.12686
#
# Static dielectric constant tensor:
#      x y z
#    x 4.037670 0.000000 -0.154860 
#    y 0.000000 3.493400 0.000000 
#    z -0.154860 0.000000 4.026820 
# 
# 
# High freq. dielectric constant tensor:
#      x y z
#    x 1.803440 0.000000 -0.008530 
#    y 0.000000 1.786730 0.000000 
#    z -0.008530 0.000000 1.804530 
# 
# From -- ./inp_files/38120.got.cif
#   From: 2010.06.25/outbox.cif.g09.slc.cpg/sg11_20_cif.got.tgz:38120.got - 2010.06.27 23:14:04.
