data_PCOD8076265
_publ_section_title
;
Structure prediction by ZEFSAII (Michael W. Deem and Ramdas Pophale) SiO2 
 PCOD8076265
Probable space group: P 21/M
;
_chemical_formula_sum "Si O2"
_cell_formula_units_Z 24
_cell_length_a 11.547582
_cell_length_b 8.782236
_cell_length_c 12.686472
_cell_angle_alpha 90.000000
_cell_angle_beta 89.177777
_cell_angle_gamma 90.000000
_cell_volume 1286.448200
_symmetry_space_group_name_H-M "P 21/M"
_symmetry_group_IT_number 11
_symmetry_cell_setting 'monoclinic'
loop_
_space_group_symop_operation_xyz
x,y,z
-x,1/2+y,-z
-x,-y,-z
x,1/2-y,z
loop_
_atom_site_type_symbol
_atom_site_label
_atom_site_fract_x
_atom_site_fract_y
_atom_site_fract_z
Si Si1 0.123141 0.570072 0.381497
Si Si2 0.277903 0.076142 0.796985
Si Si3 0.124243 0.424467 0.998951
Si Si4 0.268642 0.569308 0.180040
Si Si5 0.499841 0.429042 0.115493
Si Si6 0.861650 0.929674 0.403053
O O1 0.129269 0.750000 0.387524
O O2 0.195104 0.510018 0.280593
O O3 0.179942 0.503128 0.486847
O O4 0.990805 0.512406 0.371773
O O5 0.323406 0.250000 0.790555
O O6 0.227551 0.019513 0.686109
O O7 0.381981 0.965376 0.825724
O O8 0.173727 0.064636 0.881019
O O9 0.114950 0.250000 0.036603
O O10 0.208729 0.515895 0.073944
O O11 0.000000 0.500000 0.000000
O O12 0.279050 0.750000 0.178200
O O13 0.395650 0.496937 0.185929
O O14 0.483735 0.250000 0.103588
O O15 0.500000 0.500000 0.000000
O O16 0.862500 0.750000 0.415682
#
# Coordination Sequence:
#
# PCOD8076265 Si02
#       6
#     4   4   4   4   4   4
#     4   9  19  36  58  85 116 150 186 232 286 339
#     4  10  21  38  58  82 114 151 191 236 285 337
#     4  11  22  35  55  83 117 150 185 232 287 344
#     4  11  22  38  59  83 114 150 192 237 286 341
#     4  12  24  39  59  83 112 151 194 236 287 343
#     4   9  18  35  59  85 115 150 187 231 283 339
#
# _framework density 18.656016999999999
#
# number of rings (size 3 to 8) (size 9 to 14) (size 15 to 20)
#    0.000    1.667    1.667    3.500    0.000    5.333 
#    0.000    4.167    0.000    0.000    0.000    0.000 
#    0.000    0.000    0.000    0.000    0.000    0.000 
#
# Total GULP energy -297701.406968 kJ/mol
# GULP energy per Si atom -12404.225290 kJ/mol
# Density = 1.861356 g / cm^3
# Si number density = 18.656017 Si / 1000 Ang^3
#
#
#
# Elastic Constant Matrix: (Units=GPa)
#
#
# Indices 1 2 3 4 5 6 
#
# 1 87.7890 32.2369 25.1488 0.0000 7.6695 0.0000
# 2 32.2369 77.4490 28.3124 0.0000 -0.0630 0.0000
# 3 25.1488 28.3124 102.0361 0.0000 11.5913 0.0000
# 4 0.0000 0.0000 0.0000 31.1147 0.0000 2.3364
# 5 7.6695 -0.0630 11.5913 0.0000 30.4818 0.0000
# 6 0.0000 0.0000 0.0000 2.3364 0.0000 32.6427
#
#
#
# Elastic Compliance Matrix: (Units=1/GPa)
#
#
# Indices 1 2 3 4 5 6 
#
# 1 0.014049 -0.005236 -0.001680 0.000000 -0.002907 0.000000
# 2 -0.005236 0.016397 -0.003567 0.000000 0.002708 0.000000
# 3 -0.001680 -0.003567 0.011661 0.000000 -0.004019 0.000000
# 4 0.000000 0.000000 0.000000 0.032313 0.000000 -0.002313
# 5 -0.002907 0.002708 -0.004019 0.000000 0.035072 0.000000
# 6 0.000000 0.000000 0.000000 -0.002313 0.000000 0.030800
#
#
# Mechanical properties :
#
#
# Convention : Reuss Voigt Hill
#
# Bulk Modulus (GPa) = 47.29942 48.74114 48.02028
# Shear Modulus (GPa) = 29.70825 30.95291 30.33058
#
# Velocity S-wave (km/s) = 3.99485 4.07767 4.03647
# Velocity P-wave (km/s) = 6.83278 6.95362 6.89346
#
# Compressibility (1/GPa) = 0.02114191
#
# Stress axis : x y z
#
# Youngs Moduli (GPa) = 71.18086 60.98597 85.75828
#
# Poissons Ratio (x) = 0.31932 0.14403
# Poissons Ratio (y) = 0.37270 0.30589
# Poissons Ratio (z) = 0.11955 0.21753
#
# Static dielectric constant tensor:
#      x y z
#    x 3.544230 0.000000 -0.033420 
#    y 0.000000 3.417780 0.000000 
#    z -0.033420 0.000000 3.534040 
# 
# 
# High freq. dielectric constant tensor:
#      x y z
#    x 1.724160 0.000000 0.000670 
#    y 0.000000 1.726140 0.000000 
#    z 0.000670 0.000000 1.725560 
# 
# From -- ./inp_files/33772.got.cif
#   From: 2010.06.25/outbox.cif.g09.slc.cpg/sg11_17_cif.got.tgz:33772.got - 2010.06.27 23:14:04.
