data_PCOD8076794
_publ_section_title
;
Structure prediction by ZEFSAII (Michael W. Deem and Ramdas Pophale) SiO2 
 PCOD8076794
Probable space group: P 21/M
;
_chemical_formula_sum "Si O2"
_cell_formula_units_Z 28
_cell_length_a 12.645511
_cell_length_b 13.852573
_cell_length_c 8.896131
_cell_angle_alpha 90.000000
_cell_angle_beta 117.580574
_cell_angle_gamma 90.000000
_cell_volume 1381.269580
_symmetry_space_group_name_H-M "P 21/M"
_symmetry_group_IT_number 11
_symmetry_cell_setting 'monoclinic'
loop_
_space_group_symop_operation_xyz
x,y,z
-x,1/2+y,-z
-x,-y,-z
x,1/2-y,z
loop_
_atom_site_type_symbol
_atom_site_label
_atom_site_fract_x
_atom_site_fract_y
_atom_site_fract_z
Si Si1 0.967851 0.939617 0.124300
Si Si2 0.192849 0.970214 0.746253
Si Si3 0.731103 0.643337 0.862624
Si Si4 0.354457 0.360430 0.872063
Si Si5 0.186548 0.637116 0.442107
Si Si6 0.386468 0.636896 0.072783
Si Si7 0.631193 0.030902 0.630840
O O1 0.082140 0.879712 0.253195
O O2 0.922530 0.011513 0.225623
O O3 0.865085 0.863966 0.013917
O O4 0.000000 0.000000 0.000000
O O5 0.148655 0.908255 0.576302
O O6 0.252033 0.071840 0.732359
O O7 0.291790 0.913207 0.904089
O O8 0.712384 0.750000 0.781529
O O9 0.706048 0.565528 0.717397
O O10 0.641882 0.625948 0.944363
O O11 0.323887 0.250000 0.808772
O O12 0.481951 0.392586 0.893705
O O13 0.211099 0.750000 0.478349
O O14 0.307834 0.585475 0.468071
O O15 0.365171 0.750000 0.048296
O O16 0.368064 0.604155 0.230635
O O17 0.500000 0.000000 0.500000
#
# Coordination Sequence:
#
# PCOD8076794 Si02
#       7
#     4   4   4   4   4   4   4
#     4  11  21  44  71  91 124 168 214 269 327 378
#     4  11  22  40  65  94 128 166 215 263 323 387
#     4  10  21  40  65  92 121 164 213 263 321 385
#     4   9  19  35  63  92 122 165 210 259 317 379
#     4  12  26  43  65  97 133 172 215 270 328 386
#     4  11  21  38  61  91 128 172 216 259 317 390
#     4  12  25  41  63  94 132 172 212 270 324 381
#
# _framework density 20.271207
#
# number of rings (size 3 to 8) (size 9 to 14) (size 15 to 20)
#    0.000    1.143    4.286    3.000    2.000    1.714 
#    0.000    2.857    0.000    0.000    0.000    0.000 
#    0.000    0.000    0.000    0.000    0.000    0.000 
#
# Total GULP energy -347323.147924 kJ/mol
# GULP energy per Si atom -12404.398140 kJ/mol
# Density = 2.022507 g / cm^3
# Si number density = 20.271207 Si / 1000 Ang^3
#
#
#
# Elastic Constant Matrix: (Units=GPa)
#
#
# Indices 1 2 3 4 5 6 
#
# 1 104.7132 38.8472 19.8503 0.0000 -6.3996 0.0000
# 2 38.8472 118.6697 26.9533 0.0000 -6.9032 0.0000
# 3 19.8503 26.9533 73.8920 0.0000 2.8333 0.0000
# 4 0.0000 0.0000 0.0000 22.3348 0.0000 4.5003
# 5 -6.3996 -6.9032 2.8333 0.0000 35.1605 0.0000
# 6 0.0000 0.0000 0.0000 4.5003 0.0000 23.5465
#
#
#
# Elastic Compliance Matrix: (Units=1/GPa)
#
#
# Indices 1 2 3 4 5 6 
#
# 1 0.011171 -0.003129 -0.001920 0.000000 0.001574 0.000000
# 2 -0.003129 0.010219 -0.002951 0.000000 0.001675 0.000000
# 3 -0.001920 -0.002951 0.015208 0.000000 -0.002154 0.000000
# 4 0.000000 0.000000 0.000000 0.046566 0.000000 -0.008900
# 5 0.001574 0.001675 -0.002154 0.000000 0.029230 0.000000
# 6 0.000000 0.000000 0.000000 -0.008900 0.000000 0.044170
#
#
# Mechanical properties :
#
#
# Convention : Reuss Voigt Hill
#
# Bulk Modulus (GPa) = 48.54959 52.06404 50.30682
# Shear Modulus (GPa) = 27.86598 30.31664 29.09131
#
# Velocity S-wave (km/s) = 3.71166 3.87143 3.79239
# Velocity P-wave (km/s) = 6.50927 6.76191 6.63679
#
# Compressibility (1/GPa) = 0.02059750
#
# Stress axis : x y z
#
# Youngs Moduli (GPa) = 89.51808 97.85870 65.75464
#
# Poissons Ratio (x) = 0.30623 0.12624
# Poissons Ratio (y) = 0.28013 0.19404
# Poissons Ratio (z) = 0.17186 0.28878
#
# Static dielectric constant tensor:
#      x y z
#    x 3.856320 0.000000 -0.263410 
#    y 0.000000 3.816540 0.000000 
#    z -0.263410 0.000000 1.410240 
# 
# 
# High freq. dielectric constant tensor:
#      x y z
#    x 1.801060 0.000000 -0.001580 
#    y 0.000000 1.803780 0.000000 
#    z -0.001580 0.000000 1.777180 
# 
# From -- ./inp_files/17782.got.cif
#   From: 2010.06.25/outbox.cif.g09.slc.cpg/sg11_9_cif.got.tgz:17782.got - 2010.06.27 23:14:04.
