data_PCOD8076342
_publ_section_title
;
Structure prediction by ZEFSAII (Michael W. Deem and Ramdas Pophale) SiO2 
 PCOD8076342
Probable space group: P 21/M
;
_chemical_formula_sum "Si O2"
_cell_formula_units_Z 20
_cell_length_a 7.020067
_cell_length_b 9.026605
_cell_length_c 15.765726
_cell_angle_alpha 90.000000
_cell_angle_beta 63.652564
_cell_angle_gamma 90.000000
_cell_volume 895.252412
_symmetry_space_group_name_H-M "P 21/M"
_symmetry_group_IT_number 11
_symmetry_cell_setting 'monoclinic'
loop_
_space_group_symop_operation_xyz
x,y,z
-x,1/2+y,-z
-x,-y,-z
x,1/2-y,z
loop_
_atom_site_type_symbol
_atom_site_label
_atom_site_fract_x
_atom_site_fract_y
_atom_site_fract_z
Si Si1 0.728537 0.926407 0.190124
Si Si2 0.831636 0.584398 0.432003
Si Si3 0.053067 0.080634 0.244926
Si Si4 0.423717 0.914260 0.393736
Si Si5 0.519387 0.080680 0.084823
O O1 0.754574 0.750000 0.178970
O O2 0.519696 0.971734 0.286029
O O3 0.937941 0.991997 0.192320
O O4 0.701744 0.997625 0.102733
O O5 0.917905 0.750000 0.428993
O O6 0.008711 0.492126 0.345638
O O7 0.775576 0.512746 0.534914
O O8 0.615364 0.585373 0.422149
O O9 0.970937 0.250000 0.261950
O O10 0.301577 0.071294 0.179291
O O11 0.331488 0.750000 0.401383
O O12 0.589274 0.250000 0.056016
O O13 0.500000 0.000000 0.000000
#
# Coordination Sequence:
#
# PCOD8076342 Si02
#       5
#     4   4   4   4   4
#     4  10  21  38  62  89 117 152 192 236 286 338
#     4   9  16  27  49  81 114 151 191 231 277 328
#     4  10  21  38  60  86 117 153 192 234 284 342
#     4   8  15  28  48  78 114 150 187 228 276 331
#     4  11  25  43  63  86 113 148 190 240 294 345
#
# _framework density 22.340067999999999
#
# number of rings (size 3 to 8) (size 9 to 14) (size 15 to 20)
#    0.000    2.400    0.000    3.600    0.000    9.600 
#    0.000    1.000    0.000    0.000    0.000    0.000 
#    0.000    0.000    0.000    0.000    0.000    0.000 
#
# Total GULP energy -248009.532369 kJ/mol
# GULP energy per Si atom -12400.476618 kJ/mol
# Density = 2.228922 g / cm^3
# Si number density = 22.340068 Si / 1000 Ang^3
#
#
#
# Elastic Constant Matrix: (Units=GPa)
#
#
# Indices 1 2 3 4 5 6 
#
# 1 27.1723 13.2251 -4.6270 0.0000 5.9114 0.0000
# 2 13.2251 143.6714 24.3381 0.0000 7.1758 0.0000
# 3 -4.6270 24.3381 40.5208 0.0000 10.9738 0.0000
# 4 0.0000 0.0000 0.0000 42.6310 0.0000 4.8109
# 5 5.9114 7.1758 10.9738 0.0000 35.7135 0.0000
# 6 0.0000 0.0000 0.0000 4.8109 0.0000 14.6604
#
#
#
# Elastic Compliance Matrix: (Units=1/GPa)
#
#
# Indices 1 2 3 4 5 6 
#
# 1 0.043247 -0.005321 0.010671 0.000000 -0.009368 0.000000
# 2 -0.005321 0.008404 -0.005930 0.000000 0.001014 0.000000
# 3 0.010671 -0.005930 0.032303 0.000000 -0.010501 0.000000
# 4 0.000000 0.000000 0.000000 0.024359 0.000000 -0.007994
# 5 -0.009368 0.001014 -0.010501 0.000000 0.032574 0.000000
# 6 0.000000 0.000000 0.000000 -0.007994 0.000000 0.070834
#
#
# Mechanical properties :
#
#
# Convention : Reuss Voigt Hill
#
# Bulk Modulus (GPa) = 12.07808 30.80414 21.44111
# Shear Modulus (GPa) = 20.79188 30.49618 25.64403
#
# Velocity S-wave (km/s) = 3.05405 3.69872 3.39173
# Velocity P-wave (km/s) = 4.22545 5.66210 4.99569
#
# Compressibility (1/GPa) = 0.08279462
#
# Stress axis : x y z
#
# Youngs Moduli (GPa) = 23.12298 118.99103 30.95720
#
# Poissons Ratio (x) = 0.63312 -0.33035
# Poissons Ratio (y) = 0.12303 0.18357
# Poissons Ratio (z) = -0.24675 0.70561
#
# Static dielectric constant tensor:
#      x y z
#    x 3.673230 0.000000 0.061910 
#    y 0.000000 4.254310 0.000000 
#    z 0.061910 0.000000 4.106200 
# 
# 
# High freq. dielectric constant tensor:
#      x y z
#    x 1.875590 0.000000 0.004920 
#    y 0.000000 1.885980 0.000000 
#    z 0.004920 0.000000 1.877140 
# 
# From -- ./inp_files/20188.got.cif
#   From: 2010.06.25/outbox.cif.g09.slc.cpg/sg11_11_cif.got.tgz:20188.got - 2010.06.27 23:14:04.
