data_PCOD8076451
_publ_section_title
;
Structure prediction by ZEFSAII (Michael W. Deem and Ramdas Pophale) SiO2 
 PCOD8076451
Probable space group: P 21/M
;
_chemical_formula_sum "Si O2"
_cell_formula_units_Z 24
_cell_length_a 29.484762
_cell_length_b 8.906415
_cell_length_c 9.294679
_cell_angle_alpha 90.000000
_cell_angle_beta 29.797472
_cell_angle_gamma 90.000000
_cell_volume 1212.928285
_symmetry_space_group_name_H-M "P 21/M"
_symmetry_group_IT_number 11
_symmetry_cell_setting 'monoclinic'
loop_
_space_group_symop_operation_xyz
x,y,z
-x,1/2+y,-z
-x,-y,-z
x,1/2-y,z
loop_
_atom_site_type_symbol
_atom_site_label
_atom_site_fract_x
_atom_site_fract_y
_atom_site_fract_z
Si Si1 0.737061 0.073591 0.767534
Si Si2 0.945140 0.583230 0.771796
Si Si3 0.759027 0.424275 0.375109
Si Si4 0.420590 0.428494 0.625478
Si Si5 0.935238 0.414528 0.281573
Si Si6 0.581133 0.428966 0.684899
O O1 0.716697 0.250000 0.853472
O O2 0.729856 0.036186 0.618107
O O3 0.834110 0.017535 0.562073
O O4 0.670756 0.967292 0.038501
O O5 0.919296 0.750000 0.791541
O O6 0.000000 0.500000 0.500000
O O7 0.020747 0.588642 0.685489
O O8 0.851597 0.506770 0.076983
O O9 0.780657 0.250000 0.300354
O O10 0.676856 0.472345 0.496540
O O11 0.500000 0.500000 0.500000
O O12 0.433741 0.250000 0.575374
O O13 0.419693 0.501043 0.470681
O O14 0.924082 0.250000 0.244511
O O15 0.000000 0.500000 0.000000
O O16 0.568354 0.250000 0.711964
O O17 0.500000 0.500000 0.000000
#
# Coordination Sequence:
#
# PCOD8076451 Si02
#       6
#     4   4   4   4   4   4
#     4  10  21  40  65  93 126 164 207 261 316 372
#     4  11  24  39  59  90 126 167 212 259 309 368
#     4  10  22  41  65  91 123 165 206 254 316 373
#     4  12  26  44  67  96 127 164 209 260 316 376
#     4  10  21  38  62  90 123 164 210 258 309 366
#     4  11  24  43  68  97 129 165 209 259 315 380
#
# _framework density 19.786825
#
# number of rings (size 3 to 8) (size 9 to 14) (size 15 to 20)
#    0.000    1.333    1.667    3.500    2.333    4.667 
#    0.000    0.000    0.000    0.000    0.000    0.000 
#    0.000    0.000    0.000    0.000    0.000    0.000 
#
# Total GULP energy -297570.308984 kJ/mol
# GULP energy per Si atom -12398.762874 kJ/mol
# Density = 1.974179 g / cm^3
# Si number density = 19.786825 Si / 1000 Ang^3
#
#
#
# Elastic Constant Matrix: (Units=GPa)
#
#
# Indices 1 2 3 4 5 6 
#
# 1 143.3133 62.3886 75.4451 0.0000 -9.6416 0.0000
# 2 62.3886 108.9861 68.9454 0.0000 1.0772 0.0000
# 3 75.4451 68.9454 155.0030 0.0000 -1.7804 0.0000
# 4 0.0000 0.0000 0.0000 43.6905 0.0000 1.5964
# 5 -9.6416 1.0772 -1.7804 0.0000 40.5969 0.0000
# 6 0.0000 0.0000 0.0000 1.5964 0.0000 30.0277
#
#
#
# Elastic Compliance Matrix: (Units=1/GPa)
#
#
# Indices 1 2 3 4 5 6 
#
# 1 0.010664 -0.003985 -0.003390 0.000000 0.002490 0.000000
# 2 -0.003985 0.014272 -0.004426 0.000000 -0.001519 0.000000
# 3 -0.003390 -0.004426 0.010067 0.000000 -0.000246 0.000000
# 4 0.000000 0.000000 0.000000 0.022933 0.000000 -0.001219
# 5 0.002490 -0.001519 -0.000246 0.000000 0.025253 0.000000
# 6 0.000000 0.000000 0.000000 -0.001219 0.000000 0.033367
#
#
# Mechanical properties :
#
#
# Convention : Reuss Voigt Hill
#
# Bulk Modulus (GPa) = 87.70278 91.20673 89.45475
# Shear Modulus (GPa) = 34.73232 36.23124 35.48178
#
# Velocity S-wave (km/s) = 4.19421 4.28375 4.23922
# Velocity P-wave (km/s) = 8.23864 8.40608 8.32278
#
# Compressibility (1/GPa) = 0.01140215
#
# Stress axis : x y z
#
# Youngs Moduli (GPa) = 93.76930 70.06955 99.33436
#
# Poissons Ratio (x) = 0.27924 0.33670
# Poissons Ratio (y) = 0.37369 0.43962
# Poissons Ratio (z) = 0.31783 0.31011
#
# Static dielectric constant tensor:
#      x y z
#    x 4.129430 0.000000 0.002000 
#    y 0.000000 3.813040 0.000000 
#    z 0.002000 0.000000 3.671410 
# 
# 
# High freq. dielectric constant tensor:
#      x y z
#    x 1.789890 0.000000 -0.005570 
#    y 0.000000 1.774810 0.000000 
#    z -0.005570 0.000000 1.787180 
# 
# From -- ./inp_files/28947.got.cif
#   From: 2010.06.25/outbox.cif.g09.slc.cpg/sg11_15_cif.got.tgz:28947.got - 2010.06.27 23:14:04.
