data_PCOD8076411
_publ_section_title
;
Structure prediction by ZEFSAII (Michael W. Deem and Ramdas Pophale) SiO2 
 PCOD8076411
Probable space group: P 21/M
;
_chemical_formula_sum "Si O2"
_cell_formula_units_Z 28
_cell_length_a 25.465366
_cell_length_b 8.503180
_cell_length_c 9.117673
_cell_angle_alpha 90.000000
_cell_angle_beta 136.218182
_cell_angle_gamma 90.000000
_cell_volume 1366.052805
_symmetry_space_group_name_H-M "P 21/M"
_symmetry_group_IT_number 11
_symmetry_cell_setting 'monoclinic'
loop_
_space_group_symop_operation_xyz
x,y,z
-x,1/2+y,-z
-x,-y,-z
x,1/2-y,z
loop_
_atom_site_type_symbol
_atom_site_label
_atom_site_fract_x
_atom_site_fract_y
_atom_site_fract_z
Si Si1 0.353598 0.934482 0.535162
Si Si2 0.494050 0.065457 0.649585
Si Si3 0.637489 0.436718 0.116294
Si Si4 0.787205 0.566427 0.909540
Si Si5 0.907838 0.932809 0.661639
Si Si6 0.220836 0.566050 0.788959
Si Si7 0.916908 0.065664 0.993278
O O1 0.369995 0.750000 0.561885
O O2 0.360102 0.001589 0.713238
O O3 0.413638 0.022374 0.555116
O O4 0.270214 0.969535 0.307628
O O5 0.502887 0.250000 0.658300
O O6 0.500000 0.000000 0.500000
O O7 0.562179 0.995344 0.886162
O O8 0.636895 0.250000 0.118660
O O9 0.711548 0.495388 0.178743
O O10 0.776984 0.750000 0.859304
O O11 0.871587 0.509611 0.037265
O O12 0.772653 0.531448 0.049469
O O13 0.888817 0.750000 0.604148
O O14 0.858978 0.033640 0.449813
O O15 0.888035 0.984577 0.786275
O O16 0.995062 0.970662 0.801092
O O17 0.228318 0.750000 0.840104
O O18 0.901002 0.250000 0.948970
#
# Coordination Sequence:
#
# PCOD8076411 Si02
#       7
#     4   4   4   4   4   4   4
#     4  11  22  40  63  88 118 154 196 243 298 359
#     4  11  22  39  61  89 122 157 197 242 294 349
#     4   9  21  39  61  86 115 153 197 241 288 348
#     4  12  25  40  59  87 120 155 199 251 303 355
#     4  10  21  38  61  90 121 154 197 248 298 353
#     4  11  22  39  62  87 118 159 202 245 298 358
#     4  10  21  39  62  87 118 158 200 244 299 359
#
# _framework density 20.497012000000002
#
# number of rings (size 3 to 8) (size 9 to 14) (size 15 to 20)
#    0.000    1.429    0.000    5.571    0.000    4.571 
#    0.000    6.429    0.000    0.000    0.000    0.000 
#    0.000    0.000    0.000    0.000    0.000    0.000 
#
# Total GULP energy -347391.527497 kJ/mol
# GULP energy per Si atom -12406.840268 kJ/mol
# Density = 2.045036 g / cm^3
# Si number density = 20.497012 Si / 1000 Ang^3
#
#
#
# Elastic Constant Matrix: (Units=GPa)
#
#
# Indices 1 2 3 4 5 6 
#
# 1 146.8002 25.9988 45.5807 0.0000 -12.8324 0.0000
# 2 25.9988 47.2659 17.2870 0.0000 3.1023 0.0000
# 3 45.5807 17.2870 93.4525 0.0000 1.6966 0.0000
# 4 0.0000 0.0000 0.0000 33.9646 0.0000 -1.2048
# 5 -12.8324 3.1023 1.6966 0.0000 26.7361 0.0000
# 6 0.0000 0.0000 0.0000 -1.2048 0.0000 33.8820
#
#
#
# Elastic Compliance Matrix: (Units=1/GPa)
#
#
# Indices 1 2 3 4 5 6 
#
# 1 0.009146 -0.003968 -0.003819 0.000000 0.005092 0.000000
# 2 -0.003968 0.024565 -0.002525 0.000000 -0.004595 0.000000
# 3 -0.003819 -0.002525 0.013074 0.000000 -0.002370 0.000000
# 4 0.000000 0.000000 0.000000 0.029480 0.000000 0.001048
# 5 0.005092 -0.004595 -0.002370 0.000000 0.040530 0.000000
# 6 0.000000 0.000000 0.000000 0.001048 0.000000 0.029551
#
#
# Mechanical properties :
#
#
# Convention : Reuss Voigt Hill
#
# Bulk Modulus (GPa) = 38.22771 51.69462 44.96117
# Shear Modulus (GPa) = 28.45924 32.16002 30.30963
#
# Velocity S-wave (km/s) = 3.73024 3.96537 3.84960
# Velocity P-wave (km/s) = 6.10277 6.80006 6.46083
#
# Compressibility (1/GPa) = 0.02615903
#
# Stress axis : x y z
#
# Youngs Moduli (GPa) = 109.34071 40.70884 76.49042
#
# Poissons Ratio (x) = 0.16154 0.29213
# Poissons Ratio (y) = 0.43387 0.19315
# Poissons Ratio (z) = 0.41759 0.10280
#
# Static dielectric constant tensor:
#      x y z
#    x 3.825950 0.000000 0.002890 
#    y 0.000000 3.600930 0.000000 
#    z 0.002890 0.000000 3.802400 
# 
# 
# High freq. dielectric constant tensor:
#      x y z
#    x 1.814750 0.000000 0.001970 
#    y 0.000000 1.797710 0.000000 
#    z 0.001970 0.000000 1.810160 
# 
# From -- ./inp_files/28538.got.cif
#   From: 2010.06.25/outbox.cif.g09.slc.cpg/sg11_15_cif.got.tgz:28538.got - 2010.06.27 23:14:04.
