data_PCOD8076349
_publ_section_title
;
Structure prediction by ZEFSAII (Michael W. Deem and Ramdas Pophale) SiO2 
 PCOD8076349
Probable space group: P 21/M
;
_chemical_formula_sum "Si O2"
_cell_formula_units_Z 28
_cell_length_a 11.881870
_cell_length_b 8.835369
_cell_length_c 15.678592
_cell_angle_alpha 90.000000
_cell_angle_beta 60.079194
_cell_angle_gamma 90.000000
_cell_volume 1426.570365
_symmetry_space_group_name_H-M "P 21/M"
_symmetry_group_IT_number 11
_symmetry_cell_setting 'monoclinic'
loop_
_space_group_symop_operation_xyz
x,y,z
-x,1/2+y,-z
-x,-y,-z
x,1/2-y,z
loop_
_atom_site_type_symbol
_atom_site_label
_atom_site_fract_x
_atom_site_fract_y
_atom_site_fract_z
Si Si1 0.601590 0.929094 0.026480
Si Si2 0.133797 0.072718 0.148497
Si Si3 0.455730 0.928035 0.428558
Si Si4 0.937708 0.574797 0.641670
Si Si5 0.190403 0.424126 0.485273
Si Si6 0.916659 0.071557 0.105946
Si Si7 0.635878 0.571244 0.204914
O O1 0.594010 0.750000 0.018330
O O2 0.576113 0.975183 0.135069
O O3 0.743372 0.997186 0.948144
O O4 0.500000 0.000000 0.000000
O O5 0.151224 0.250000 0.134026
O O6 0.136779 0.021109 0.245515
O O7 0.994956 0.026487 0.161863
O O8 0.468875 0.750000 0.432503
O O9 0.541398 0.986562 0.316034
O O10 0.500000 0.000000 0.500000
O O11 0.307700 0.970623 0.468438
O O12 0.982035 0.750000 0.629149
O O13 0.836422 0.547819 0.604192
O O14 0.063938 0.470994 0.585815
O O15 0.223820 0.250000 0.492256
O O16 0.906725 0.250000 0.095717
O O17 0.774302 0.004336 0.167053
O O18 0.000000 0.000000 0.000000
O O19 0.656427 0.750000 0.200841
#
# Coordination Sequence:
#
# PCOD8076349 Si02
#       7
#     4   4   4   4   4   4   4
#     4  10  21  39  60  86 122 157 193 237 289 351
#     4   9  19  36  59  85 115 152 190 238 293 344
#     4  11  25  43  63  86 118 158 201 249 303 361
#     4   9  19  37  61  87 116 153 196 245 297 350
#     4  10  21  38  60  87 118 153 196 245 299 356
#     4  11  21  37  61  87 118 155 197 240 290 347
#     4  10  23  43  62  85 120 158 197 248 302 351
#
# _framework density 19.627493000000001
#
# number of rings (size 3 to 8) (size 9 to 14) (size 15 to 20)
#    0.000    2.000    1.429    1.286    4.000    2.286 
#    0.000    1.429    0.000    0.000    0.000    0.000 
#    0.000    0.000    0.000    0.000    0.000    0.000 
#
# Total GULP energy -347173.897430 kJ/mol
# GULP energy per Si atom -12399.067765 kJ/mol
# Density = 1.958282 g / cm^3
# Si number density = 19.627493 Si / 1000 Ang^3
#
#
#
# Elastic Constant Matrix: (Units=GPa)
#
#
# Indices 1 2 3 4 5 6 
#
# 1 131.1653 33.4088 62.5527 0.0000 11.8210 0.0000
# 2 33.4088 40.5698 33.9782 0.0000 4.3465 0.0000
# 3 62.5527 33.9782 139.8695 0.0000 21.7284 0.0000
# 4 0.0000 0.0000 0.0000 26.6962 0.0000 -1.0492
# 5 11.8210 4.3465 21.7284 0.0000 24.4071 0.0000
# 6 0.0000 0.0000 0.0000 -1.0492 0.0000 37.3236
#
#
#
# Elastic Compliance Matrix: (Units=1/GPa)
#
#
# Indices 1 2 3 4 5 6 
#
# 1 0.010800 -0.006126 -0.003132 0.000000 -0.001352 0.000000
# 2 -0.006126 0.034459 -0.005964 0.000000 0.002139 0.000000
# 3 -0.003132 -0.005964 0.011139 0.000000 -0.007337 0.000000
# 4 0.000000 0.000000 0.000000 0.037500 0.000000 0.001054
# 5 -0.001352 0.002139 -0.007337 0.000000 0.047777 0.000000
# 6 0.000000 0.000000 0.000000 0.001054 0.000000 0.026822
#
#
# Mechanical properties :
#
#
# Convention : Reuss Voigt Hill
#
# Bulk Modulus (GPa) = 38.52861 63.49822 51.01341
# Shear Modulus (GPa) = 24.08584 29.79637 26.94111
#
# Velocity S-wave (km/s) = 3.50687 3.90050 3.70891
# Velocity P-wave (km/s) = 6.00583 7.25997 6.66247
#
# Compressibility (1/GPa) = 0.02595474
#
# Stress axis : x y z
#
# Youngs Moduli (GPa) = 92.59642 29.02005 89.77677
#
# Poissons Ratio (x) = 0.17777 0.28116
# Poissons Ratio (y) = 0.56721 0.53542
# Poissons Ratio (z) = 0.28999 0.17307
#
# Static dielectric constant tensor:
#      x y z
#    x 8.598190 0.000000 -0.821230 
#    y 0.000000 3.455530 0.000000 
#    z -0.821230 0.000000 4.060970 
# 
# 
# High freq. dielectric constant tensor:
#      x y z
#    x 1.773360 0.000000 0.006330 
#    y 0.000000 1.750390 0.000000 
#    z 0.006330 0.000000 1.775860 
# 
# From -- ./inp_files/49133.got.cif
#   From: 2010.06.25/outbox.cif.g09.slc.cpg/sg11_25_cif.got.tgz:49133.got - 2010.06.27 23:14:04.
