data_PCOD8076708
_publ_section_title
;
Structure prediction by ZEFSAII (Michael W. Deem and Ramdas Pophale) SiO2 
 PCOD8076708
Probable space group: P 21/M
;
_chemical_formula_sum "Si O2"
_cell_formula_units_Z 20
_cell_length_a 5.024205
_cell_length_b 17.215500
_cell_length_c 11.402465
_cell_angle_alpha 90.000000
_cell_angle_beta 121.733495
_cell_angle_gamma 90.000000
_cell_volume 838.806882
_symmetry_space_group_name_H-M "P 21/M"
_symmetry_group_IT_number 11
_symmetry_cell_setting 'monoclinic'
loop_
_space_group_symop_operation_xyz
x,y,z
-x,1/2+y,-z
-x,-y,-z
x,1/2-y,z
loop_
_atom_site_type_symbol
_atom_site_label
_atom_site_fract_x
_atom_site_fract_y
_atom_site_fract_z
Si Si1 0.821118 0.337349 0.423593
Si Si2 0.841322 0.343141 0.948744
Si Si3 0.289171 0.062576 0.884234
Si Si4 0.151039 0.969774 0.418297
Si Si5 0.102067 0.161818 0.254413
O O1 0.935776 0.250000 0.469279
O O2 0.858096 0.376790 0.559222
O O3 0.461220 0.344516 0.301794
O O4 0.015785 0.379279 0.360141
O O5 0.834116 0.250000 0.928199
O O6 0.505077 0.383841 0.848253
O O7 0.107519 0.380353 0.929865
O O8 0.907738 0.368540 0.098703
O O9 0.035485 0.015508 0.745991
O O10 0.500000 0.000000 0.000000
O O11 0.500000 0.000000 0.500000
O O12 0.000000 0.000000 0.500000
O O13 0.997379 0.250000 0.253059
#
# Coordination Sequence:
#
# PCOD8076708 Si02
#       5
#     4   4   4   4   4
#     4  10  21  39  66  97 131 175 233 286 345 414
#     4  11  24  45  75 107 143 187 243 302 363 427
#     4  12  28  47  72 108 147 194 240 299 368 434
#     4  12  28  47  70 100 143 190 234 289 362 426
#     4   9  19  36  65 103 132 170 218 284 353 408
#
# _framework density 23.843388999999998
#
# number of rings (size 3 to 8) (size 9 to 14) (size 15 to 20)
#    0.000    1.200    0.000    4.800    8.400    4.800 
#    0.000    2.000    0.000    0.000    0.000    0.000 
#    0.000    0.000    0.000    0.000    0.000    0.000 
#
# Total GULP energy -247894.758941 kJ/mol
# GULP energy per Si atom -12394.737947 kJ/mol
# Density = 2.378912 g / cm^3
# Si number density = 23.843389 Si / 1000 Ang^3
#
#
#
# Elastic Constant Matrix: (Units=GPa)
#
#
# Indices 1 2 3 4 5 6 
#
# 1 173.8697 58.4209 38.5571 0.0000 2.5234 0.0000
# 2 58.4209 103.5927 52.5625 0.0000 -1.5752 0.0000
# 3 38.5571 52.5625 143.9300 0.0000 7.6281 0.0000
# 4 0.0000 0.0000 0.0000 33.7713 0.0000 -6.4541
# 5 2.5234 -1.5752 7.6281 0.0000 35.9628 0.0000
# 6 0.0000 0.0000 0.0000 -6.4541 0.0000 47.9338
#
#
#
# Elastic Compliance Matrix: (Units=1/GPa)
#
#
# Indices 1 2 3 4 5 6 
#
# 1 0.007141 -0.003781 -0.000503 0.000000 -0.000560 0.000000
# 2 -0.003781 0.013926 -0.004166 0.000000 0.001759 0.000000
# 3 -0.000503 -0.004166 0.008710 0.000000 -0.001995 0.000000
# 4 0.000000 0.000000 0.000000 0.030393 0.000000 0.004092
# 5 -0.000560 0.001759 -0.001995 0.000000 0.028346 0.000000
# 6 0.000000 0.000000 0.000000 0.004092 0.000000 0.021413
#
#
# Mechanical properties :
#
#
# Convention : Reuss Voigt Hill
#
# Bulk Modulus (GPa) = 77.65281 80.05260 78.85271
# Shear Modulus (GPa) = 38.13276 41.65705 39.89491
#
# Velocity S-wave (km/s) = 4.00346 4.18438 4.09492
# Velocity P-wave (km/s) = 7.34907 7.54935 7.44988
#
# Compressibility (1/GPa) = 0.01287783
#
# Stress axis : x y z
#
# Youngs Moduli (GPa) = 140.02825 71.80815 114.81553
#
# Poissons Ratio (x) = 0.27150 0.05771
# Poissons Ratio (y) = 0.52943 0.47833
# Poissons Ratio (z) = 0.07039 0.29916
#
# Static dielectric constant tensor:
#      x y z
#    x 4.265060 0.000000 0.303160 
#    y 0.000000 3.826680 0.000000 
#    z 0.303160 0.000000 3.066910 
# 
# 
# High freq. dielectric constant tensor:
#      x y z
#    x 1.961710 0.000000 -0.001800 
#    y 0.000000 1.970060 0.000000 
#    z -0.001800 0.000000 1.929310 
# 
# From -- ./inp_files/29810.got.cif
#   From: 2010.06.25/outbox.cif.g09.slc.cpg/sg11_15_cif.got.tgz:29810.got - 2010.06.27 23:14:04.
