data_PCOD8076468
_publ_section_title
;
Structure prediction by ZEFSAII (Michael W. Deem and Ramdas Pophale) SiO2 
 PCOD8076468
Probable space group: P 21/M
;
_chemical_formula_sum "Si O2"
_cell_formula_units_Z 28
_cell_length_a 14.311436
_cell_length_b 8.718215
_cell_length_c 21.278027
_cell_angle_alpha 90.000000
_cell_angle_beta 30.699868
_cell_angle_gamma 90.000000
_cell_volume 1355.416332
_symmetry_space_group_name_H-M "P 21/M"
_symmetry_group_IT_number 11
_symmetry_cell_setting 'monoclinic'
loop_
_space_group_symop_operation_xyz
x,y,z
-x,1/2+y,-z
-x,-y,-z
x,1/2-y,z
loop_
_atom_site_type_symbol
_atom_site_label
_atom_site_fract_x
_atom_site_fract_y
_atom_site_fract_z
Si Si1 0.590293 0.070084 0.386672
Si Si2 0.764635 0.573226 0.885778
Si Si3 0.800630 0.070835 0.618415
Si Si4 0.983368 0.570216 0.169441
Si Si5 0.594526 0.571553 0.853815
Si Si6 0.153246 0.430947 0.955655
Si Si7 0.522212 0.426263 0.672487
O O1 0.594144 0.250000 0.392524
O O2 0.500000 0.000000 0.500000
O O3 0.794517 0.008928 0.260195
O O4 0.471422 0.027110 0.394185
O O5 0.802204 0.750000 0.878764
O O6 0.738457 0.543214 0.826994
O O7 0.943549 0.477364 0.803872
O O8 0.587494 0.523323 0.027497
O O9 0.810346 0.250000 0.629544
O O10 0.706500 0.044443 0.605243
O O11 0.683894 0.984828 0.738295
O O12 0.000000 0.000000 0.500000
O O13 0.953229 0.750000 0.182480
O O14 0.138462 0.512150 0.031635
O O15 0.542190 0.750000 0.879274
O O16 0.124980 0.250000 0.978936
O O17 0.351185 0.473750 0.814510
O O18 0.000000 0.500000 0.000000
O O19 0.504425 0.250000 0.662034
#
# Coordination Sequence:
#
# PCOD8076468 Si02
#       7
#     4   4   4   4   4   4   4
#     4  12  26  44  66  89 121 162 206 255 310 373
#     4  10  21  38  62  92 127 165 205 254 313 371
#     4  11  24  42  65  91 124 166 211 261 312 370
#     4  12  24  39  61  92 128 165 210 256 305 371
#     4  10  21  39  63  92 125 161 206 260 315 373
#     4  11  21  36  62  94 128 163 203 255 313 371
#     4  10  23  43  65  91 126 164 206 256 313 372
#
# _framework density 20.657857
#
# number of rings (size 3 to 8) (size 9 to 14) (size 15 to 20)
#    0.000    1.143    1.429    5.143    0.000    5.714 
#    0.000    1.429    0.000    0.000    0.000    0.000 
#    0.000    0.000    0.000    0.000    0.000    0.000 
#
# Total GULP energy -347360.244014 kJ/mol
# GULP energy per Si atom -12405.723000 kJ/mol
# Density = 2.061084 g / cm^3
# Si number density = 20.657857 Si / 1000 Ang^3
#
#
#
# Elastic Constant Matrix: (Units=GPa)
#
#
# Indices 1 2 3 4 5 6 
#
# 1 115.3834 50.5876 31.3703 0.0000 -1.5749 0.0000
# 2 50.5876 123.3873 38.9190 0.0000 7.0786 0.0000
# 3 31.3703 38.9190 73.3729 0.0000 7.9790 0.0000
# 4 0.0000 0.0000 0.0000 35.1009 0.0000 0.9063
# 5 -1.5749 7.0786 7.9790 0.0000 35.3277 0.0000
# 6 0.0000 0.0000 0.0000 0.9063 0.0000 41.0109
#
#
#
# Elastic Compliance Matrix: (Units=1/GPa)
#
#
# Indices 1 2 3 4 5 6 
#
# 1 0.011144 -0.003735 -0.002992 0.000000 0.001921 0.000000
# 2 -0.003735 0.011007 -0.004084 0.000000 -0.001450 0.000000
# 3 -0.002992 -0.004084 0.017428 0.000000 -0.003251 0.000000
# 4 0.000000 0.000000 0.000000 0.028506 0.000000 -0.000630
# 5 0.001921 -0.001450 -0.003251 0.000000 0.029417 0.000000
# 6 0.000000 0.000000 0.000000 -0.000630 0.000000 0.024398
#
#
# Mechanical properties :
#
#
# Convention : Reuss Voigt Hill
#
# Bulk Modulus (GPa) = 55.68970 61.54415 58.61692
# Shear Modulus (GPa) = 33.44292 35.03900 34.24096
#
# Velocity S-wave (km/s) = 4.02792 4.12291 4.07569
# Velocity P-wave (km/s) = 6.97487 7.24716 7.11232
#
# Compressibility (1/GPa) = 0.01795664
#
# Stress axis : x y z
#
# Youngs Moduli (GPa) = 89.73257 90.84818 57.37856
#
# Poissons Ratio (x) = 0.33936 0.17169
# Poissons Ratio (y) = 0.33519 0.23433
# Poissons Ratio (z) = 0.26850 0.37101
#
# Static dielectric constant tensor:
#      x y z
#    x 3.728410 0.000000 0.439350 
#    y 0.000000 3.911130 0.000000 
#    z 0.439350 0.000000 3.014260 
# 
# 
# High freq. dielectric constant tensor:
#      x y z
#    x 1.827570 0.000000 0.000500 
#    y 0.000000 1.819850 0.000000 
#    z 0.000500 0.000000 1.796900 
# 
# From -- ./inp_files/65342.got.cif
#   From: 2010.06.25/outbox.cif.g09.slc.cpg/sg11_33_cif.got.tgz:65342.got - 2010.06.27 23:14:04.
