data_PCOD8076088
_publ_section_title
;
Structure prediction by ZEFSAII (Michael W. Deem and Ramdas Pophale) SiO2 
 PCOD8076088
Probable space group: P 21/M
;
_chemical_formula_sum "Si O2"
_cell_formula_units_Z 32
_cell_length_a 22.254364
_cell_length_b 8.939077
_cell_length_c 14.759853
_cell_angle_alpha 90.000000
_cell_angle_beta 147.663324
_cell_angle_gamma 90.000000
_cell_volume 1570.569144
_symmetry_space_group_name_H-M "P 21/M"
_symmetry_group_IT_number 11
_symmetry_cell_setting 'monoclinic'
loop_
_space_group_symop_operation_xyz
x,y,z
-x,1/2+y,-z
-x,-y,-z
x,1/2-y,z
loop_
_atom_site_type_symbol
_atom_site_label
_atom_site_fract_x
_atom_site_fract_y
_atom_site_fract_z
Si Si1 0.392464 0.076334 0.198777
Si Si2 0.796101 0.078843 0.383288
Si Si3 0.251229 0.925772 0.881980
Si Si4 0.761015 0.923389 0.516884
Si Si5 0.036826 0.079057 0.637281
Si Si6 0.225273 0.427116 0.143614
Si Si7 0.350747 0.575628 0.465172
Si Si8 0.003806 0.574949 0.906943
O O1 0.374591 0.250000 0.154711
O O2 0.311083 0.020412 0.175236
O O3 0.519199 0.042861 0.390340
O O4 0.366088 0.984453 0.073187
O O5 0.757892 0.250000 0.349338
O O6 0.757077 0.024094 0.233689
O O7 0.931234 0.065747 0.570195
O O8 0.739957 0.972651 0.386281
O O9 0.240955 0.750000 0.876638
O O10 0.150574 0.997796 0.814976
O O11 0.729979 0.750000 0.487989
O O12 0.888562 0.956675 0.708008
O O13 0.676479 0.023067 0.468139
O O14 0.066916 0.250000 0.655725
O O15 0.000000 0.000000 0.500000
O O16 0.208920 0.250000 0.123236
O O17 0.274314 0.477500 0.302155
O O18 0.104035 0.503298 0.974862
O O19 0.321940 0.750000 0.416451
O O20 0.026299 0.750000 0.948211
O O21 0.000000 0.500000 0.000000
#
# Coordination Sequence:
#
# PCOD8076088 Si02
#       8
#     4   4   4   4   4   4   4   4
#     4  10  24  42  62  90 120 157 201 249 302 354
#     4   9  20  37  57  84 118 158 200 242 297 355
#     4  10  21  37  58  86 119 157 201 249 298 353
#     4  11  24  39  60  90 122 158 203 248 295 357
#     4   9  17  31  52  79 113 152 191 237 291 348
#     4  11  23  40  63  91 124 157 197 245 300 361
#     4  11  23  42  65  87 118 158 201 248 301 358
#     4  11  23  39  60  90 125 160 198 243 299 356
#
# _framework density 20.374779
#
# number of rings (size 3 to 8) (size 9 to 14) (size 15 to 20)
#    0.000    1.750    1.250    3.375    1.750    6.500 
#    0.000    0.625    0.000    0.000    0.000    0.000 
#    0.000    0.000    0.000    0.000    0.000    0.000 
#
# Total GULP energy -396826.746787 kJ/mol
# GULP energy per Si atom -12400.835837 kJ/mol
# Density = 2.032841 g / cm^3
# Si number density = 20.374779 Si / 1000 Ang^3
#
#
#
# Elastic Constant Matrix: (Units=GPa)
#
#
# Indices 1 2 3 4 5 6 
#
# 1 101.6165 38.2274 21.1539 0.0000 5.5839 0.0000
# 2 38.2274 82.6834 22.5922 0.0000 5.0546 0.0000
# 3 21.1539 22.5922 46.6295 0.0000 1.2922 0.0000
# 4 0.0000 0.0000 0.0000 32.8028 0.0000 0.7658
# 5 5.5839 5.0546 1.2922 0.0000 29.8331 0.0000
# 6 0.0000 0.0000 0.0000 0.7658 0.0000 30.8688
#
#
#
# Elastic Compliance Matrix: (Units=1/GPa)
#
#
# Indices 1 2 3 4 5 6 
#
# 1 0.012385 -0.004745 -0.003281 0.000000 -0.001372 0.000000
# 2 -0.004745 0.015887 -0.005501 0.000000 -0.001565 0.000000
# 3 -0.003281 -0.005501 0.025587 0.000000 0.000438 0.000000
# 4 0.000000 0.000000 0.000000 0.030503 0.000000 -0.000757
# 5 -0.001372 -0.001565 0.000438 0.000000 0.034023 0.000000
# 6 0.000000 0.000000 0.000000 -0.000757 0.000000 0.032414
#
#
# Mechanical properties :
#
#
# Convention : Reuss Voigt Hill
#
# Bulk Modulus (GPa) = 37.30853 43.87514 40.59183
# Shear Modulus (GPa) = 26.76822 28.63135 27.69979
#
# Velocity S-wave (km/s) = 3.62856 3.75271 3.69116
# Velocity P-wave (km/s) = 5.99217 6.35279 6.17511
#
# Compressibility (1/GPa) = 0.02680352
#
# Stress axis : x y z
#
# Youngs Moduli (GPa) = 80.74576 62.94412 39.08171
#
# Poissons Ratio (x) = 0.29869 0.12823
# Poissons Ratio (y) = 0.38317 0.21500
# Poissons Ratio (z) = 0.26494 0.34627
#
# Static dielectric constant tensor:
#      x y z
#    x 3.752870 0.000000 0.155650 
#    y 0.000000 3.781440 0.000000 
#    z 0.155650 0.000000 3.745980 
# 
# 
# High freq. dielectric constant tensor:
#      x y z
#    x 1.791460 0.000000 -0.001240 
#    y 0.000000 1.802600 0.000000 
#    z -0.001240 0.000000 1.789380 
# 
# From -- ./inp_files/55744.got.cif
#   From: 2010.06.25/outbox.cif.g09.slc.cpg/sg11_28_cif.got.tgz:55744.got - 2010.06.27 23:14:04.
