data_PCOD8076297
_publ_section_title
;
Structure prediction by ZEFSAII (Michael W. Deem and Ramdas Pophale) SiO2 
 PCOD8076297
Probable space group: P 21/M
;
_chemical_formula_sum "Si O2"
_cell_formula_units_Z 28
_cell_length_a 16.436200
_cell_length_b 9.227426
_cell_length_c 22.419080
_cell_angle_alpha 90.000000
_cell_angle_beta 24.651190
_cell_angle_gamma 90.000000
_cell_volume 1418.184203
_symmetry_space_group_name_H-M "P 21/M"
_symmetry_group_IT_number 11
_symmetry_cell_setting 'monoclinic'
loop_
_space_group_symop_operation_xyz
x,y,z
-x,1/2+y,-z
-x,-y,-z
x,1/2-y,z
loop_
_atom_site_type_symbol
_atom_site_label
_atom_site_fract_x
_atom_site_fract_y
_atom_site_fract_z
Si Si1 0.224616 0.582854 0.704102
Si Si2 0.778771 0.417178 0.791376
Si Si3 0.383723 0.081009 0.493632
Si Si4 0.228128 0.080633 0.471608
Si Si5 0.543753 0.418911 0.063806
Si Si6 0.906066 0.916541 0.008263
Si Si7 0.478942 0.078803 0.799923
O O1 0.247852 0.750000 0.671990
O O2 0.398301 0.534719 0.633132
O O3 0.228215 0.494581 0.640565
O O4 0.022096 0.546963 0.870593
O O5 0.737109 0.250000 0.801996
O O6 0.656854 0.521296 0.829884
O O7 0.003065 0.458163 0.631750
O O8 0.720225 0.444102 0.899417
O O9 0.344801 0.250000 0.525667
O O10 0.346708 0.030827 0.451026
O O11 0.256809 0.250000 0.438736
O O12 0.315436 0.989217 0.358305
O O13 0.516538 0.250000 0.096863
O O14 0.591851 0.506210 0.091641
O O15 0.930632 0.750000 0.008852
O O16 0.682001 0.956373 0.143877
O O17 0.000000 0.000000 0.000000
O O18 0.502183 0.250000 0.794583
#
# Coordination Sequence:
#
# PCOD8076297 Si02
#       7
#     4   4   4   4   4   4   4
#     4   9  18  33  51  75 107 145 185 229 281 333
#     4   9  20  39  63  89 117 149 190 240 291 346
#     4   9  18  32  53  79 108 141 184 232 279 333
#     4  10  21  38  59  84 114 152 193 238 288 342
#     4  10  21  39  63  90 117 150 191 235 291 351
#     4  10  22  38  56  80 112 153 196 238 286 338
#     4  11  24  39  57  86 121 155 195 240 288 344
#
# _framework density 19.743558
#
# number of rings (size 3 to 8) (size 9 to 14) (size 15 to 20)
#    0.000    2.286    0.000    1.714    2.000    5.143 
#    0.000    2.857    0.000    0.000    0.000    0.000 
#    0.000    0.000    0.000    0.000    0.000    0.000 
#
# Total GULP energy -347244.367271 kJ/mol
# GULP energy per Si atom -12401.584545 kJ/mol
# Density = 1.969862 g / cm^3
# Si number density = 19.743558 Si / 1000 Ang^3
#
#
#
# Elastic Constant Matrix: (Units=GPa)
#
#
# Indices 1 2 3 4 5 6 
#
# 1 77.6886 50.9892 38.4453 0.0000 12.7584 0.0000
# 2 50.9892 83.1119 52.3290 0.0000 4.2377 0.0000
# 3 38.4453 52.3290 115.5978 0.0000 -3.7820 0.0000
# 4 0.0000 0.0000 0.0000 32.7997 0.0000 5.8735
# 5 12.7584 4.2377 -3.7820 0.0000 18.5247 0.0000
# 6 0.0000 0.0000 0.0000 5.8735 0.0000 36.8250
#
#
#
# Elastic Compliance Matrix: (Units=1/GPa)
#
#
# Indices 1 2 3 4 5 6 
#
# 1 0.025287 -0.012777 -0.003121 0.000000 -0.015130 0.000000
# 2 -0.012777 0.023848 -0.006480 0.000000 0.002022 0.000000
# 3 -0.003121 -0.006480 0.012826 0.000000 0.006250 0.000000
# 4 0.000000 0.000000 0.000000 0.031384 0.000000 -0.005006
# 5 -0.015130 0.002022 0.006250 0.000000 0.065216 0.000000
# 6 0.000000 0.000000 0.000000 -0.005006 0.000000 0.027954
#
#
# Mechanical properties :
#
#
# Convention : Reuss Voigt Hill
#
# Bulk Modulus (GPa) = 58.12191 62.21391 60.16791
# Shear Modulus (GPa) = 21.09648 26.60554 23.85101
#
# Velocity S-wave (km/s) = 3.27238 3.67489 3.47946
# Velocity P-wave (km/s) = 6.61666 7.04172 6.83250
#
# Compressibility (1/GPa) = 0.01720521
#
# Stress axis : x y z
#
# Youngs Moduli (GPa) = 39.54574 41.93309 77.96407
#
# Poissons Ratio (x) = 0.53579 0.24332
# Poissons Ratio (y) = 0.50528 0.50519
# Poissons Ratio (z) = 0.12342 0.27172
#
# Static dielectric constant tensor:
#      x y z
#    x 3.452200 0.000000 0.012920 
#    y 0.000000 3.718200 0.000000 
#    z 0.012920 0.000000 3.680810 
# 
# 
# High freq. dielectric constant tensor:
#      x y z
#    x 1.764300 0.000000 0.004050 
#    y 0.000000 1.766270 0.000000 
#    z 0.004050 0.000000 1.775790 
# 
# From -- ./inp_files/65350.got.cif
#   From: 2010.06.25/outbox.cif.g09.slc.cpg/sg11_33_cif.got.tgz:65350.got - 2010.06.27 23:14:04.
