data_PCOD8076502
_publ_section_title
;
Structure prediction by ZEFSAII (Michael W. Deem and Ramdas Pophale) SiO2 
 PCOD8076502
Probable space group: P 21/M
;
_chemical_formula_sum "Si O2"
_cell_formula_units_Z 28
_cell_length_a 14.645517
_cell_length_b 8.443627
_cell_length_c 11.660434
_cell_angle_alpha 90.000000
_cell_angle_beta 70.238424
_cell_angle_gamma 90.000000
_cell_volume 1357.024848
_symmetry_space_group_name_H-M "P 21/M"
_symmetry_group_IT_number 11
_symmetry_cell_setting 'monoclinic'
loop_
_space_group_symop_operation_xyz
x,y,z
-x,1/2+y,-z
-x,-y,-z
x,1/2-y,z
loop_
_atom_site_type_symbol
_atom_site_label
_atom_site_fract_x
_atom_site_fract_y
_atom_site_fract_z
Si Si1 0.763910 0.432812 0.790349
Si Si2 0.409287 0.563618 0.969440
Si Si3 0.880723 0.934358 0.147131
Si Si4 0.297485 0.933836 0.645060
Si Si5 0.922845 0.566172 0.873391
Si Si6 0.536202 0.564312 0.287526
Si Si7 0.323445 0.433462 0.393952
O O1 0.754368 0.250000 0.760179
O O2 0.869981 0.469448 0.795181
O O3 0.745668 0.535548 0.684828
O O4 0.686866 0.479805 0.920294
O O5 0.419919 0.750000 0.942800
O O6 0.401608 0.472061 0.852543
O O7 0.500000 0.500000 0.000000
O O8 0.905695 0.750000 0.144289
O O9 0.777027 0.968479 0.245931
O O10 0.881306 0.989887 0.014401
O O11 0.962727 0.029557 0.182386
O O12 0.283993 0.750000 0.677277
O O13 0.406488 0.990332 0.629183
O O14 0.281005 0.967667 0.518337
O O15 0.903871 0.750000 0.860119
O O16 0.522498 0.750000 0.312450
O O17 0.431976 0.485069 0.317003
O O18 0.321408 0.250000 0.427325
#
# Coordination Sequence:
#
# PCOD8076502 Si02
#       7
#     4   4   4   4   4   4   4
#     4  11  23  39  60  89 124 162 202 247 302 360
#     4  11  22  36  58  87 122 159 199 246 299 354
#     4  10  21  40  65  94 125 156 198 248 300 356
#     4  12  25  42  63  88 120 158 204 251 303 359
#     4  10  21  38  64  95 125 159 197 244 301 358
#     4  12  24  40  61  88 122 160 206 252 302 358
#     4  12  25  42  62  85 119 161 206 251 302 360
#
# _framework density 20.633374
#
# number of rings (size 3 to 8) (size 9 to 14) (size 15 to 20)
#    0.000    0.857    1.429    6.857    0.000    5.714 
#    0.000    0.714    0.000    0.000    0.000    0.000 
#    0.000    0.000    0.000    0.000    0.000    0.000 
#
# Total GULP energy -347446.102090 kJ/mol
# GULP energy per Si atom -12408.789360 kJ/mol
# Density = 2.058641 g / cm^3
# Si number density = 20.633374 Si / 1000 Ang^3
#
#
#
# Elastic Constant Matrix: (Units=GPa)
#
#
# Indices 1 2 3 4 5 6 
#
# 1 104.3122 16.5811 27.3431 0.0000 18.2678 0.0000
# 2 16.5811 68.6294 12.9367 0.0000 7.1204 0.0000
# 3 27.3431 12.9367 71.2589 0.0000 12.0175 0.0000
# 4 0.0000 0.0000 0.0000 33.8494 0.0000 3.5676
# 5 18.2678 7.1204 12.0175 0.0000 26.8470 0.0000
# 6 0.0000 0.0000 0.0000 3.5676 0.0000 33.6873
#
#
#
# Elastic Compliance Matrix: (Units=1/GPa)
#
#
# Indices 1 2 3 4 5 6 
#
# 1 0.011752 -0.001602 -0.003182 0.000000 -0.006147 0.000000
# 2 -0.001602 0.015533 -0.001833 0.000000 -0.002209 0.000000
# 3 -0.003182 -0.001833 0.016376 0.000000 -0.004679 0.000000
# 4 0.000000 0.000000 0.000000 0.029876 0.000000 -0.003164
# 5 -0.006147 -0.002209 -0.004679 0.000000 0.044112 0.000000
# 6 0.000000 0.000000 0.000000 -0.003164 0.000000 0.030020
#
#
# Mechanical properties :
#
#
# Convention : Reuss Voigt Hill
#
# Bulk Modulus (GPa) = 32.86428 39.76913 36.31671
# Shear Modulus (GPa) = 29.23237 31.36605 30.29921
#
# Velocity S-wave (km/s) = 3.76806 3.90315 3.83620
# Velocity P-wave (km/s) = 5.90706 6.29514 6.10419
#
# Compressibility (1/GPa) = 0.03042817
#
# Stress axis : x y z
#
# Youngs Moduli (GPa) = 85.09333 64.38043 61.06450
#
# Poissons Ratio (x) = 0.10312 0.19430
# Poissons Ratio (y) = 0.13629 0.11191
# Poissons Ratio (z) = 0.27075 0.11799
#
# Static dielectric constant tensor:
#      x y z
#    x 3.663610 0.000000 0.064110 
#    y 0.000000 3.750960 0.000000 
#    z 0.064110 0.000000 3.752360 
# 
# 
# High freq. dielectric constant tensor:
#      x y z
#    x 1.807540 0.000000 0.010570 
#    y 0.000000 1.819580 0.000000 
#    z 0.010570 0.000000 1.800280 
# 
# From -- ./inp_files/37419.got.cif
#   From: 2010.06.25/outbox.cif.g09.slc.cpg/sg11_19_cif.got.tgz:37419.got - 2010.06.27 23:14:04.
