data_PCOD8076281
_publ_section_title
;
Structure prediction by ZEFSAII (Michael W. Deem and Ramdas Pophale) SiO2 
 PCOD8076281
Probable space group: P 21/M
;
_chemical_formula_sum "Si O2"
_cell_formula_units_Z 20
_cell_length_a 27.070930
_cell_length_b 8.542595
_cell_length_c 9.583381
_cell_angle_alpha 90.000000
_cell_angle_beta 27.679593
_cell_angle_gamma 90.000000
_cell_volume 1029.490628
_symmetry_space_group_name_H-M "P 21/M"
_symmetry_group_IT_number 11
_symmetry_cell_setting 'monoclinic'
loop_
_space_group_symop_operation_xyz
x,y,z
-x,1/2+y,-z
-x,-y,-z
x,1/2-y,z
loop_
_atom_site_type_symbol
_atom_site_label
_atom_site_fract_x
_atom_site_fract_y
_atom_site_fract_z
Si Si1 0.406188 0.429365 0.323669
Si Si2 0.590362 0.573767 0.365780
Si Si3 0.822577 0.066708 0.101467
Si Si4 0.825360 0.564051 0.795803
Si Si5 0.000700 0.565633 0.843274
O O1 0.383778 0.250000 0.337833
O O2 0.443622 0.442252 0.389096
O O3 0.300247 0.528840 0.563144
O O4 0.500000 0.500000 0.000000
O O5 0.500000 0.500000 0.500000
O O6 0.597959 0.750000 0.296423
O O7 0.707722 0.499390 0.049788
O O8 0.843904 0.250000 0.066012
O O9 0.860945 0.014609 0.851972
O O10 0.889320 0.973044 0.049308
O O11 0.822627 0.750000 0.827370
O O12 0.904615 0.519098 0.475530
O O13 0.020784 0.750000 0.794526
O O14 0.000000 0.500000 0.000000
#
# Coordination Sequence:
#
# PCOD8076281 Si02
#       5
#     4   4   4   4   4
#     4  10  21  38  58  85 117 152 193 239 288 344
#     4   9  20  36  57  83 114 148 187 231 279 333
#     4  11  22  39  62  87 114 152 196 239 287 346
#     4  10  21  40  61  85 116 153 194 238 286 344
#     4  12  25  41  60  86 117 151 190 239 293 347
#
# _framework density 19.427084000000001
#
# number of rings (size 3 to 8) (size 9 to 14) (size 15 to 20)
#    0.000    1.600    0.000    6.600    0.000    6.400 
#    0.000    4.000    0.000    0.000    0.000    0.000 
#    0.000    0.000    0.000    0.000    0.000    0.000 
#
# Total GULP energy -248045.785112 kJ/mol
# GULP energy per Si atom -12402.289256 kJ/mol
# Density = 1.938287 g / cm^3
# Si number density = 19.427084 Si / 1000 Ang^3
#
#
#
# Elastic Constant Matrix: (Units=GPa)
#
#
# Indices 1 2 3 4 5 6 
#
# 1 118.5693 17.9469 43.7715 0.0000 -10.6233 0.0000
# 2 17.9469 73.7579 13.5573 0.0000 -1.6171 0.0000
# 3 43.7715 13.5573 116.8139 0.0000 11.9804 0.0000
# 4 0.0000 0.0000 0.0000 36.2452 0.0000 -0.3946
# 5 -10.6233 -1.6171 11.9804 0.0000 29.0783 0.0000
# 6 0.0000 0.0000 0.0000 -0.3946 0.0000 37.1105
#
#
#
# Elastic Compliance Matrix: (Units=1/GPa)
#
#
# Indices 1 2 3 4 5 6 
#
# 1 0.010845 -0.001696 -0.004452 0.000000 0.005702 0.000000
# 2 -0.001696 0.014181 -0.001073 0.000000 0.000611 0.000000
# 3 -0.004452 -0.001073 0.010991 0.000000 -0.006214 0.000000
# 4 0.000000 0.000000 0.000000 0.027593 0.000000 0.000293
# 5 0.005702 0.000611 -0.006214 0.000000 0.039067 0.000000
# 6 0.000000 0.000000 0.000000 0.000293 0.000000 0.026950
#
#
# Mechanical properties :
#
#
# Convention : Reuss Voigt Hill
#
# Bulk Modulus (GPa) = 46.34846 51.07695 48.71271
# Shear Modulus (GPa) = 33.05588 36.07784 34.56686
#
# Velocity S-wave (km/s) = 4.12944 4.31407 4.22277
# Velocity P-wave (km/s) = 6.82978 7.15288 6.99319
#
# Compressibility (1/GPa) = 0.02157569
#
# Stress axis : x y z
#
# Youngs Moduli (GPa) = 92.21038 70.51646 90.98695
#
# Poissons Ratio (x) = 0.11956 0.40504
# Poissons Ratio (y) = 0.15634 0.09765
# Poissons Ratio (z) = 0.41049 0.07568
#
# Static dielectric constant tensor:
#      x y z
#    x 3.611190 0.000000 -0.046990 
#    y 0.000000 3.659570 0.000000 
#    z -0.046990 0.000000 3.440780 
# 
# 
# High freq. dielectric constant tensor:
#      x y z
#    x 1.757530 0.000000 -0.005780 
#    y 0.000000 1.767600 0.000000 
#    z -0.005780 0.000000 1.766870 
# 
# From -- ./inp_files/15942.got.cif
#   From: 2010.06.25/outbox.cif.g09.slc.cpg/sg11_8_cif.got.tgz:15942.got - 2010.06.27 23:14:04.
