data_PCOD8076197
_publ_section_title
;
Structure prediction by ZEFSAII (Michael W. Deem and Ramdas Pophale) SiO2 
 PCOD8076197
Probable space group: P 21/M
;
_chemical_formula_sum "Si O2"
_cell_formula_units_Z 20
_cell_length_a 5.460939
_cell_length_b 17.781153
_cell_length_c 9.502427
_cell_angle_alpha 90.000000
_cell_angle_beta 74.570497
_cell_angle_gamma 90.000000
_cell_volume 889.447132
_symmetry_space_group_name_H-M "P 21/M"
_symmetry_group_IT_number 11
_symmetry_cell_setting 'monoclinic'
loop_
_space_group_symop_operation_xyz
x,y,z
-x,1/2+y,-z
-x,-y,-z
x,1/2-y,z
loop_
_atom_site_type_symbol
_atom_site_label
_atom_site_fract_x
_atom_site_fract_y
_atom_site_fract_z
Si Si1 0.727574 0.947948 0.920316
Si Si2 0.238363 0.662147 0.602397
Si Si3 0.994744 0.406382 0.854709
Si Si4 0.370424 0.663463 0.882738
Si Si5 0.806625 0.660605 0.460861
O O1 0.630209 0.885211 0.823522
O O2 0.938134 0.005632 0.825060
O O3 0.809927 0.903914 0.047278
O O4 0.500000 0.000000 0.000000
O O5 0.247787 0.750000 0.569015
O O6 0.184570 0.646074 0.777319
O O7 0.520891 0.628688 0.527104
O O8 0.013528 0.626625 0.541188
O O9 0.107422 0.363423 0.706285
O O10 0.752153 0.359537 0.949685
O O11 0.453195 0.750000 0.868751
O O12 0.803302 0.750000 0.474362
#
# Coordination Sequence:
#
# PCOD8076197 Si02
#       5
#     4   4   4   4   4
#     4   9  21  39  59  84 123 154 198 252 308 346
#     4   9  21  38  57  87 129 159 194 254 316 356
#     4  10  21  38  62  85 117 160 206 251 297 360
#     4  10  21  37  62  90 116 157 203 248 301 366
#     4  10  21  38  60  90 123 160 202 255 306 358
#
# _framework density 22.485879000000001
#
# number of rings (size 3 to 8) (size 9 to 14) (size 15 to 20)
#    0.000    2.400    0.000    0.600    8.400    1.600 
#    0.000    2.000    0.000    0.000    0.000    0.000 
#    0.000    0.000    0.000    0.000    0.000    0.000 
#
# Total GULP energy -247817.384506 kJ/mol
# GULP energy per Si atom -12390.869225 kJ/mol
# Density = 2.243470 g / cm^3
# Si number density = 22.485879 Si / 1000 Ang^3
#
#
#
# Elastic Constant Matrix: (Units=GPa)
#
#
# Indices 1 2 3 4 5 6 
#
# 1 101.3937 21.7946 15.2702 0.0000 17.1846 0.0000
# 2 21.7946 50.8826 15.2565 0.0000 6.7317 0.0000
# 3 15.2702 15.2565 82.6813 0.0000 -5.5277 0.0000
# 4 0.0000 0.0000 0.0000 18.3709 0.0000 15.8301
# 5 17.1846 6.7317 -5.5277 0.0000 31.3465 0.0000
# 6 0.0000 0.0000 0.0000 15.8301 0.0000 20.8564
#
#
#
# Elastic Compliance Matrix: (Units=1/GPa)
#
#
# Indices 1 2 3 4 5 6 
#
# 1 0.011995 -0.003750 -0.001932 0.000000 -0.006111 0.000000
# 2 -0.003750 0.022851 -0.003759 0.000000 -0.003514 0.000000
# 3 -0.001932 -0.003759 0.013428 0.000000 0.004234 0.000000
# 4 0.000000 0.000000 0.000000 0.157336 0.000000 -0.119419
# 5 -0.006111 -0.003514 0.004234 0.000000 0.036753 0.000000
# 6 0.000000 0.000000 0.000000 -0.119419 0.000000 0.138586
#
#
# Mechanical properties :
#
#
# Convention : Reuss Voigt Hill
#
# Bulk Modulus (GPa) = 34.02200 37.73336 35.87768
# Shear Modulus (GPa) = 12.20612 26.29052 19.24832
#
# Velocity S-wave (km/s) = 2.33241 3.42307 2.92895
# Velocity P-wave (km/s) = 4.73463 5.69566 5.23724
#
# Compressibility (1/GPa) = 0.02939275
#
# Stress axis : x y z
#
# Youngs Moduli (GPa) = 83.36528 43.76092 74.47048
#
# Poissons Ratio (x) = 0.16411 0.14388
# Poissons Ratio (y) = 0.31264 0.27993
# Poissons Ratio (z) = 0.16106 0.16449
#
# Static dielectric constant tensor:
#      x y z
#    x 3.643860 0.000000 0.833670 
#    y 0.000000 4.069630 0.000000 
#    z 0.833670 0.000000 3.436500 
# 
# 
# High freq. dielectric constant tensor:
#      x y z
#    x 1.903750 0.000000 0.008110 
#    y 0.000000 1.868370 0.000000 
#    z 0.008110 0.000000 1.870790 
# 
# From -- ./inp_files/1895.got.cif
#   From: 2010.06.25/outbox.cif.g09.slc.cpg/sg11_1_cif.got.tgz:1895.got - 2010.06.27 23:14:04.
