data_PCOD8076271
_publ_section_title
;
Structure prediction by ZEFSAII (Michael W. Deem and Ramdas Pophale) SiO2 
 PCOD8076271
Probable space group: P 21/M
;
_chemical_formula_sum "Si O2"
_cell_formula_units_Z 28
_cell_length_a 9.282737
_cell_length_b 8.684010
_cell_length_c 29.331379
_cell_angle_alpha 90.000000
_cell_angle_beta 37.528678
_cell_angle_gamma 90.000000
_cell_volume 1440.320404
_symmetry_space_group_name_H-M "P 21/M"
_symmetry_group_IT_number 11
_symmetry_cell_setting 'monoclinic'
loop_
_space_group_symop_operation_xyz
x,y,z
-x,1/2+y,-z
-x,-y,-z
x,1/2-y,z
loop_
_atom_site_type_symbol
_atom_site_label
_atom_site_fract_x
_atom_site_fract_y
_atom_site_fract_z
Si Si1 0.581052 0.421769 0.434007
Si Si2 0.653205 0.568223 0.273399
Si Si3 0.252487 0.425226 0.432012
Si Si4 0.507307 0.067580 0.133442
Si Si5 0.188757 0.932679 0.857622
Si Si6 0.028054 0.934028 0.730831
Si Si7 0.674705 0.432663 0.993421
O O1 0.500000 0.500000 0.500000
O O2 0.646739 0.250000 0.431372
O O3 0.365206 0.429996 0.453473
O O4 0.815489 0.494452 0.351357
O O5 0.671192 0.750000 0.262328
O O6 0.405252 0.524606 0.358533
O O7 0.655653 0.484008 0.224240
O O8 0.875024 0.509475 0.247282
O O9 0.235138 0.250000 0.418468
O O10 0.000000 0.500000 0.500000
O O11 0.508402 0.250000 0.132770
O O12 0.677887 0.006516 0.130527
O O13 0.239770 0.010311 0.209412
O O14 0.599420 0.003657 0.062017
O O15 0.156411 0.750000 0.866378
O O16 0.937071 0.013211 0.916900
O O17 0.054553 0.750000 0.729544
O O18 0.660637 0.250000 0.995090
O O19 0.500000 0.500000 0.000000
#
# Coordination Sequence:
#
# PCOD8076271 Si02
#       7
#     4   4   4   4   4   4   4
#     4   9  19  33  53  80 111 144 184 230 279 331
#     4  11  22  37  57  84 113 147 190 235 279 333
#     4  10  21  38  58  83 113 149 189 233 281 335
#     4   9  20  37  59  83 110 144 187 233 281 332
#     4  11  22  38  58  83 115 152 187 229 281 333
#     4   9  18  37  59  80 107 145 189 234 280 334
#     4  11  22  38  60  87 114 147 188 232 278 334
#
# _framework density 19.44012
#
# number of rings (size 3 to 8) (size 9 to 14) (size 15 to 20)
#    0.000    2.000    0.000    4.714    0.000    5.143 
#    0.000    5.714    0.000    0.000    0.000    0.000 
#    0.000    0.000    0.000    0.000    0.000    0.000 
#
# Total GULP energy -347233.510210 kJ/mol
# GULP energy per Si atom -12401.196793 kJ/mol
# Density = 1.939587 g / cm^3
# Si number density = 19.440120 Si / 1000 Ang^3
#
#
#
# Elastic Constant Matrix: (Units=GPa)
#
#
# Indices 1 2 3 4 5 6 
#
# 1 127.9847 34.2405 70.6291 0.0000 2.8133 0.0000
# 2 34.2405 64.7202 24.2111 0.0000 4.1811 0.0000
# 3 70.6291 24.2111 117.6559 0.0000 5.4188 0.0000
# 4 0.0000 0.0000 0.0000 33.8287 0.0000 0.4902
# 5 2.8133 4.1811 5.4188 0.0000 45.9909 0.0000
# 6 0.0000 0.0000 0.0000 0.4902 0.0000 29.0313
#
#
#
# Elastic Compliance Matrix: (Units=1/GPa)
#
#
# Indices 1 2 3 4 5 6 
#
# 1 0.012652 -0.004194 -0.006750 0.000000 0.000403 0.000000
# 2 -0.004194 0.018188 -0.001167 0.000000 -0.001259 0.000000
# 3 -0.006750 -0.001167 0.012838 0.000000 -0.000994 0.000000
# 4 0.000000 0.000000 0.000000 0.029568 0.000000 -0.000499
# 5 0.000403 -0.001259 -0.000994 0.000000 0.021950 0.000000
# 6 0.000000 0.000000 0.000000 -0.000499 0.000000 0.034454
#
#
# Mechanical properties :
#
#
# Convention : Reuss Voigt Hill
#
# Bulk Modulus (GPa) = 51.40255 63.16914 57.28585
# Shear Modulus (GPa) = 31.18025 33.85552 32.51789
#
# Velocity S-wave (km/s) = 4.00923 4.17769 4.09433
# Velocity P-wave (km/s) = 6.92321 7.47232 7.20300
#
# Compressibility (1/GPa) = 0.01945429
#
# Stress axis : x y z
#
# Youngs Moduli (GPa) = 79.03893 54.98127 77.89650
#
# Poissons Ratio (x) = 0.23061 0.52584
# Poissons Ratio (y) = 0.33151 0.09089
# Poissons Ratio (z) = 0.53355 0.06415
#
# Static dielectric constant tensor:
#      x y z
#    x 3.622580 0.000000 0.068360 
#    y 0.000000 3.485700 0.000000 
#    z 0.068360 0.000000 3.639240 
# 
# 
# High freq. dielectric constant tensor:
#      x y z
#    x 1.758210 0.000000 0.000070 
#    y 0.000000 1.746290 0.000000 
#    z 0.000070 0.000000 1.773840 
# 
# From -- ./inp_files/70791.got.cif
#   From: 2010.06.25/outbox.cif.g09.slc.cpg/sg11_36_cif.got.tgz:70791.got - 2010.06.27 23:14:04.
