data_PCOD8076510
_publ_section_title
;
Structure prediction by ZEFSAII (Michael W. Deem and Ramdas Pophale) SiO2 
 PCOD8076510
Probable space group: P 21/M
;
_chemical_formula_sum "Si O2"
_cell_formula_units_Z 28
_cell_length_a 23.816622
_cell_length_b 10.619854
_cell_length_c 5.164341
_cell_angle_alpha 90.000000
_cell_angle_beta 81.906516
_cell_angle_gamma 90.000000
_cell_volume 1293.201561
_symmetry_space_group_name_H-M "P 21/M"
_symmetry_group_IT_number 11
_symmetry_cell_setting 'monoclinic'
loop_
_space_group_symop_operation_xyz
x,y,z
-x,1/2+y,-z
-x,-y,-z
x,1/2-y,z
loop_
_atom_site_type_symbol
_atom_site_label
_atom_site_fract_x
_atom_site_fract_y
_atom_site_fract_z
Si Si1 0.758692 0.497132 0.611383
Si Si2 0.480587 0.608480 0.198314
Si Si3 0.617134 0.250000 0.073201
Si Si4 0.415057 0.997622 0.672375
Si Si5 0.693126 0.250000 0.529862
Si Si6 0.121066 0.892978 0.454471
Si Si7 0.047678 0.604881 0.005692
Si Si8 0.292134 0.106854 0.837194
O O1 0.733500 0.369459 0.514274
O O2 0.825907 0.486123 0.609176
O O3 0.747122 0.599388 0.393427
O O4 0.731214 0.528793 0.905208
O O5 0.472071 0.750000 0.089639
O O6 0.537047 0.606766 0.345544
O O7 0.423696 0.573226 0.393135
O O8 0.500000 0.500000 0.000000
O O9 0.580476 0.382485 0.114199
O O10 0.662374 0.250000 0.273673
O O11 0.647946 0.250000 0.783955
O O12 0.353821 0.058219 0.717557
O O13 0.142369 0.750000 0.405512
O O14 0.093853 0.913330 0.752365
O O15 0.075642 0.925434 0.263335
O O16 0.024054 0.750000 0.014471
O O17 0.000000 0.500000 0.000000
O O18 0.295957 0.250000 0.926521
#
# Coordination Sequence:
#
# PCOD8076510 Si02
#       8
#     4   4   2   4   2   4   4   4
#     4  12  23  43  68 100 131 169 218 277 325 391
#     4  11  27  44  67  95 125 164 215 272 333 397
#     4  12  24  40  70 100 130 160 216 272 324 390
#     4  11  25  44  65  90 126 165 213 266 328 395
#     4  12  22  40  68 106 124 160 212 276 330 368
#     4  10  21  38  65  96 131 168 221 280 327 375
#     4  10  21  39  63  96 134 178 226 274 327 385
#     4  12  27  45  66  93 135 179 214 260 331 410
#
# _framework density 21.651693000000002
#
# number of rings (size 3 to 8) (size 9 to 14) (size 15 to 20)
#    0.000    0.857    4.286    2.143    5.000    1.143 
#    0.000    4.286    0.000    0.000    0.000    0.000 
#    0.000    0.000    0.000    0.000    0.000    0.000 
#
# Total GULP energy -347192.904367 kJ/mol
# GULP energy per Si atom -12399.746585 kJ/mol
# Density = 2.160241 g / cm^3
# Si number density = 21.651693 Si / 1000 Ang^3
#
#
#
# Elastic Constant Matrix: (Units=GPa)
#
#
# Indices 1 2 3 4 5 6 
#
# 1 100.3277 51.6610 30.3340 0.0000 -5.9753 0.0000
# 2 51.6610 121.3533 24.0873 0.0000 -5.0390 0.0000
# 3 30.3340 24.0873 95.0786 0.0000 6.4053 0.0000
# 4 0.0000 0.0000 0.0000 27.7853 0.0000 6.9164
# 5 -5.9753 -5.0390 6.4053 0.0000 31.0825 0.0000
# 6 0.0000 0.0000 0.0000 6.9164 0.0000 34.4508
#
#
#
# Elastic Compliance Matrix: (Units=1/GPa)
#
#
# Indices 1 2 3 4 5 6 
#
# 1 0.013721 -0.005092 -0.003255 0.000000 0.002483 0.000000
# 2 -0.005092 0.010677 -0.001147 0.000000 0.000988 0.000000
# 3 -0.003255 -0.001147 0.012069 0.000000 -0.003299 0.000000
# 4 0.000000 0.000000 0.000000 0.037883 0.000000 -0.007606
# 5 0.002483 0.000988 -0.003299 0.000000 0.033490 0.000000
# 6 0.000000 0.000000 0.000000 -0.007606 0.000000 0.030554
#
#
# Mechanical properties :
#
#
# Convention : Reuss Voigt Hill
#
# Bulk Modulus (GPa) = 57.21069 58.76935 57.99002
# Shear Modulus (GPa) = 30.63569 32.70887 31.67228
#
# Velocity S-wave (km/s) = 3.76564 3.89097 3.82882
# Velocity P-wave (km/s) = 6.73701 6.88391 6.81085
#
# Compressibility (1/GPa) = 0.01747925
#
# Stress axis : x y z
#
# Youngs Moduli (GPa) = 72.87893 93.66070 82.85793
#
# Poissons Ratio (x) = 0.47693 0.26970
# Poissons Ratio (y) = 0.37111 0.09503
# Poissons Ratio (z) = 0.23722 0.10742
#
# Static dielectric constant tensor:
#      x y z
#    x 3.106110 0.000000 0.493630 
#    y 0.000000 3.742650 0.000000 
#    z 0.493630 0.000000 4.030520 
# 
# 
# High freq. dielectric constant tensor:
#      x y z
#    x 1.855190 0.000000 0.016260 
#    y 0.000000 1.853150 0.000000 
#    z 0.016260 0.000000 1.870200 
# 
# From -- ./inp_files/8777.got.cif
#   From: 2010.06.25/outbox.cif.g09.slc.cpg/sg11_5_cif.got.tgz:8777.got - 2010.06.27 23:14:04.
