data_PCOD8076223
_publ_section_title
;
Structure prediction by ZEFSAII (Michael W. Deem and Ramdas Pophale) SiO2 
 PCOD8076223
Probable space group: P 21/M
;
_chemical_formula_sum "Si O2"
_cell_formula_units_Z 28
_cell_length_a 16.473176
_cell_length_b 14.257155
_cell_length_c 6.503318
_cell_angle_alpha 90.000000
_cell_angle_beta 121.906571
_cell_angle_gamma 90.000000
_cell_volume 1296.604132
_symmetry_space_group_name_H-M "P 21/M"
_symmetry_group_IT_number 11
_symmetry_cell_setting 'monoclinic'
loop_
_space_group_symop_operation_xyz
x,y,z
-x,1/2+y,-z
-x,-y,-z
x,1/2-y,z
loop_
_atom_site_type_symbol
_atom_site_label
_atom_site_fract_x
_atom_site_fract_y
_atom_site_fract_z
Si Si1 0.738043 0.146190 0.901859
Si Si2 0.226436 0.469745 0.283728
Si Si3 0.773230 0.646108 0.115030
Si Si4 0.541553 0.443331 0.749943
Si Si5 0.922835 0.951010 0.600673
Si Si6 0.083135 0.643022 0.602009
Si Si7 0.621840 0.581621 0.194601
O O1 0.741961 0.250000 0.811418
O O2 0.627948 0.123451 0.801973
O O3 0.784069 0.076603 0.799478
O O4 0.804141 0.140884 0.193802
O O5 0.126068 0.432761 0.243847
O O6 0.305364 0.475643 0.565780
O O7 0.259296 0.402965 0.140829
O O8 0.812085 0.750000 0.119700
O O9 0.855764 0.582628 0.322574
O O10 0.682943 0.658570 0.150302
O O11 0.500000 0.500000 0.500000
O O12 0.460334 0.380310 0.758860
O O13 0.577168 0.516779 0.962709
O O14 0.020066 0.890280 0.716883
O O15 0.939593 0.063891 0.601024
O O16 0.054632 0.750000 0.497377
#
# Coordination Sequence:
#
# PCOD8076223 Si02
#       7
#     4   4   4   4   4   4   4
#     4  11  22  39  63  92 128 169 211 258 317 381
#     4  11  21  41  64  92 128 166 209 266 323 376
#     4  11  22  39  62  93 126 163 214 264 321 378
#     4  11  20  40  67  90 123 169 211 266 320 385
#     4  10  22  40  67  92 128 170 212 262 317 372
#     4  10  21  41  65  94 131 168 213 263 315 383
#     4  10  21  37  67  88 122 167 209 263 329 376
#
# _framework density 21.594871000000001
#
# number of rings (size 3 to 8) (size 9 to 14) (size 15 to 20)
#    0.000    1.429    4.286    1.286    0.000    4.571 
#    0.000    2.857    0.000    0.000    0.000    0.000 
#    0.000    0.000    0.000    0.000    0.000    0.000 
#
# Total GULP energy -346913.705010 kJ/mol
# GULP energy per Si atom -12389.775179 kJ/mol
# Density = 2.154572 g / cm^3
# Si number density = 21.594871 Si / 1000 Ang^3
#
#
#
# Elastic Constant Matrix: (Units=GPa)
#
#
# Indices 1 2 3 4 5 6 
#
# 1 129.6702 21.4210 27.1399 0.0000 -4.1356 0.0000
# 2 21.4210 136.7776 36.6521 0.0000 -1.0612 0.0000
# 3 27.1399 36.6521 80.4143 0.0000 -11.2935 0.0000
# 4 0.0000 0.0000 0.0000 14.9341 0.0000 5.3788
# 5 -4.1356 -1.0612 -11.2935 0.0000 30.7668 0.0000
# 6 0.0000 0.0000 0.0000 5.3788 0.0000 22.0105
#
#
#
# Elastic Compliance Matrix: (Units=1/GPa)
#
#
# Indices 1 2 3 4 5 6 
#
# 1 0.008346 -0.000635 -0.002502 0.000000 0.000182 0.000000
# 2 -0.000635 0.008417 -0.003788 0.000000 -0.001186 0.000000
# 3 -0.002502 -0.003788 0.015753 0.000000 0.005316 0.000000
# 4 0.000000 0.000000 0.000000 0.073424 0.000000 -0.017943
# 5 0.000182 -0.001186 0.005316 0.000000 0.034437 0.000000
# 6 0.000000 0.000000 0.000000 -0.017943 0.000000 0.049818
#
#
# Mechanical properties :
#
#
# Convention : Reuss Voigt Hill
#
# Bulk Modulus (GPa) = 53.57570 57.47645 55.52608
# Shear Modulus (GPa) = 23.77929 30.98554 27.38242
#
# Velocity S-wave (km/s) = 3.32197 3.79206 3.56477
# Velocity P-wave (km/s) = 6.29105 6.77101 6.53543
#
# Compressibility (1/GPa) = 0.01866518
#
# Stress axis : x y z
#
# Youngs Moduli (GPa) = 119.81444 118.81306 63.47940
#
# Poissons Ratio (x) = 0.07548 0.15881
# Poissons Ratio (y) = 0.07612 0.24048
# Poissons Ratio (z) = 0.29975 0.45010
#
# Static dielectric constant tensor:
#      x y z
#    x 4.680180 0.000000 0.044180 
#    y 0.000000 3.778720 0.000000 
#    z 0.044180 0.000000 3.729610 
# 
# 
# High freq. dielectric constant tensor:
#      x y z
#    x 1.868640 0.000000 0.006820 
#    y 0.000000 1.827750 0.000000 
#    z 0.006820 0.000000 1.834390 
# 
# From -- ./inp_files/8150.got.cif
#   From: 2010.06.25/outbox.cif.g09.slc.cpg/sg11_5_cif.got.tgz:8150.got - 2010.06.27 23:14:04.
