data_PCOD8076968
_publ_section_title
;
Structure prediction by ZEFSAII (Michael W. Deem and Ramdas Pophale) SiO2 
 PCOD8076968
Probable space group: P 21/M
;
_chemical_formula_sum "Si O2"
_cell_formula_units_Z 24
_cell_length_a 7.363611
_cell_length_b 9.267569
_cell_length_c 17.340220
_cell_angle_alpha 90.000000
_cell_angle_beta 86.940387
_cell_angle_gamma 90.000000
_cell_volume 1181.657889
_symmetry_space_group_name_H-M "P 21/M"
_symmetry_group_IT_number 11
_symmetry_cell_setting 'monoclinic'
loop_
_space_group_symop_operation_xyz
x,y,z
-x,1/2+y,-z
-x,-y,-z
x,1/2-y,z
loop_
_atom_site_type_symbol
_atom_site_label
_atom_site_fract_x
_atom_site_fract_y
_atom_site_fract_z
Si Si1 0.809977 0.586290 0.662285
Si Si2 0.810654 0.420944 0.516980
Si Si3 0.756858 0.410021 0.352471
Si Si4 0.849315 0.084433 0.807444
Si Si5 0.526826 0.416157 0.921168
Si Si6 0.735935 0.918948 0.206328
O O1 0.736464 0.750000 0.661527
O O2 0.718193 0.496131 0.593852
O O3 0.754224 0.512029 0.743874
O O4 0.026095 0.579874 0.651289
O O5 0.841377 0.250000 0.530480
O O6 0.691042 0.446548 0.441577
O O7 0.000000 0.500000 0.500000
O O8 0.693588 0.250000 0.330859
O O9 0.673699 0.515260 0.290006
O O10 0.842504 0.250000 0.779408
O O11 0.734432 0.063461 0.888177
O O12 0.056858 0.037475 0.818916
O O13 0.481123 0.250000 0.938214
O O14 0.390065 0.478781 0.859386
O O15 0.500000 0.500000 0.000000
O O16 0.708249 0.750000 0.215796
#
# Coordination Sequence:
#
# PCOD8076968 Si02
#       6
#     4   4   4   4   4   4
#     4   9  16  26  43  70 101 133 172 212 250 296
#     4   9  15  23  38  65 101 137 174 214 252 293
#     4   8  15  26  42  68 100 133 169 207 247 290
#     4   9  18  34  54  74 101 135 166 203 252 298
#     4  10  22  38  55  78 103 128 163 204 250 306
#     4   9  18  33  53  75 100 132 168 204 246 298
#
# _framework density 20.310448000000001
#
# number of rings (size 3 to 8) (size 9 to 14) (size 15 to 20)
#    0.000    3.000    0.000    2.000    0.000    6.667 
#    0.000    0.000    0.000    1.000    0.000    0.000 
#    0.000    0.000    0.000    0.000    0.000    0.000 
#
# Total GULP energy -297457.028625 kJ/mol
# GULP energy per Si atom -12394.042859 kJ/mol
# Density = 2.026422 g / cm^3
# Si number density = 20.310448 Si / 1000 Ang^3
#
#
#
# Elastic Constant Matrix: (Units=GPa)
#
#
# Indices 1 2 3 4 5 6 
#
# 1 35.9708 7.9717 17.6873 0.0000 17.0095 0.0000
# 2 7.9717 91.2589 60.8154 0.0000 11.5866 0.0000
# 3 17.6873 60.8154 140.3788 0.0000 21.9045 0.0000
# 4 0.0000 0.0000 0.0000 46.4187 0.0000 1.5938
# 5 17.0095 11.5866 21.9045 0.0000 23.1428 0.0000
# 6 0.0000 0.0000 0.0000 1.5938 0.0000 7.8351
#
#
#
# Elastic Compliance Matrix: (Units=1/GPa)
#
#
# Indices 1 2 3 4 5 6 
#
# 1 0.042688 0.000796 -0.000898 0.000000 -0.030923 0.000000
# 2 0.000796 0.015473 -0.006457 0.000000 -0.002220 0.000000
# 3 -0.000898 -0.006457 0.011060 0.000000 -0.006575 0.000000
# 4 0.000000 0.000000 0.000000 0.021695 0.000000 -0.004413
# 5 -0.030923 -0.002220 -0.006575 0.000000 0.073273 0.000000
# 6 0.000000 0.000000 0.000000 -0.004413 0.000000 0.128529
#
#
# Mechanical properties :
#
#
# Convention : Reuss Voigt Hill
#
# Bulk Modulus (GPa) = 17.82451 48.95082 33.38767
# Shear Modulus (GPa) = 15.40651 27.55493 21.48072
#
# Velocity S-wave (km/s) = 2.75717 3.68732 3.25563
# Velocity P-wave (km/s) = 4.35098 6.50247 5.53232
#
# Compressibility (1/GPa) = 0.05610253
#
# Stress axis : x y z
#
# Youngs Moduli (GPa) = 23.42561 64.62723 90.41412
#
# Poissons Ratio (x) = -0.05142 0.08120
# Poissons Ratio (y) = -0.01864 0.58383
# Poissons Ratio (z) = 0.02104 0.41732
#
# Static dielectric constant tensor:
#      x y z
#    x 3.437390 0.000000 0.103870 
#    y 0.000000 3.706110 0.000000 
#    z 0.103870 0.000000 3.991630 
# 
# 
# High freq. dielectric constant tensor:
#      x y z
#    x 1.768750 0.000000 0.002220 
#    y 0.000000 1.788130 0.000000 
#    z 0.002220 0.000000 1.794690 
# 
# From -- ./inp_files/25514.got.cif
#   From: 2010.06.25/outbox.cif.g09.slc.cpg/sg11_13_cif.got.tgz:25514.got - 2010.06.27 23:14:04.
