data_PCOD8076054
_publ_section_title
;
Structure prediction by ZEFSAII (Michael W. Deem and Ramdas Pophale) SiO2 
 PCOD8076054
Probable space group: P 21/M
;
_chemical_formula_sum "Si O2"
_cell_formula_units_Z 32
_cell_length_a 23.734498
_cell_length_b 9.284218
_cell_length_c 13.994497
_cell_angle_alpha 90.000000
_cell_angle_beta 146.941922
_cell_angle_gamma 90.000000
_cell_volume 1682.164918
_symmetry_space_group_name_H-M "P 21/M"
_symmetry_group_IT_number 11
_symmetry_cell_setting 'monoclinic'
loop_
_space_group_symop_operation_xyz
x,y,z
-x,1/2+y,-z
-x,-y,-z
x,1/2-y,z
loop_
_atom_site_type_symbol
_atom_site_label
_atom_site_fract_x
_atom_site_fract_y
_atom_site_fract_z
Si Si1 0.199610 0.582870 0.475295
Si Si2 0.535958 0.418089 0.344811
Si Si3 0.291311 0.414563 0.298561
Si Si4 0.562889 0.417056 0.168932
Si Si5 0.137295 0.582749 0.770489
Si Si6 0.894790 0.916411 0.833515
Si Si7 0.945399 0.084689 0.555090
Si Si8 0.682721 0.918765 0.880695
O O1 0.187414 0.750000 0.428340
O O2 0.316340 0.547478 0.670563
O O3 0.168038 0.483304 0.342972
O O4 0.128295 0.542457 0.463070
O O5 0.560754 0.250000 0.384063
O O6 0.633522 0.494930 0.528726
O O7 0.523466 0.467180 0.217211
O O8 0.434284 0.458750 0.259311
O O9 0.328919 0.250000 0.356512
O O10 0.174283 0.430909 0.169340
O O11 0.295620 0.470583 0.196228
O O12 0.540860 0.250000 0.121583
O O13 0.500000 0.500000 0.000000
O O14 0.144119 0.750000 0.805696
O O15 0.116747 0.554642 0.630062
O O16 0.046835 0.513537 0.705878
O O17 0.245069 0.507259 0.945808
O O18 0.919321 0.750000 0.846152
O O19 0.000000 0.000000 0.000000
O O20 0.981629 0.250000 0.612288
O O21 0.704893 0.750000 0.926143
#
# Coordination Sequence:
#
# PCOD8076054 Si02
#       8
#     4   4   4   4   4   4   4   4
#     4  10  21  40  63  86 117 157 195 239 293 348
#     4  10  21  39  61  85 114 148 190 237 285 334
#     4  10  22  40  60  83 113 150 190 232 288 345
#     4  10  22  38  59  88 119 154 193 236 288 345
#     4  10  21  37  57  86 114 146 191 237 280 336
#     4  11  24  40  60  88 119 155 196 242 293 350
#     4   9  20  38  59  80 113 153 187 230 289 341
#     4  10  22  38  58  84 115 150 187 232 286 342
#
# _framework density 19.023105000000001
#
# number of rings (size 3 to 8) (size 9 to 14) (size 15 to 20)
#    0.000    2.000    1.250    1.125    3.500    3.500 
#    0.000    0.000    0.000    0.000    0.000    0.000 
#    0.000    0.000    0.000    0.000    0.000    0.000 
#
# Total GULP energy -396949.115369 kJ/mol
# GULP energy per Si atom -12404.659855 kJ/mol
# Density = 1.897981 g / cm^3
# Si number density = 19.023105 Si / 1000 Ang^3
#
#
#
# Elastic Constant Matrix: (Units=GPa)
#
#
# Indices 1 2 3 4 5 6 
#
# 1 97.2148 23.9706 8.1709 0.0000 9.8458 0.0000
# 2 23.9706 68.1369 39.2141 0.0000 4.2219 0.0000
# 3 8.1709 39.2141 73.6999 0.0000 5.9877 0.0000
# 4 0.0000 0.0000 0.0000 41.6685 0.0000 -1.7734
# 5 9.8458 4.2219 5.9877 0.0000 25.6647 0.0000
# 6 0.0000 0.0000 0.0000 -1.7734 0.0000 24.7666
#
#
#
# Elastic Compliance Matrix: (Units=1/GPa)
#
#
# Indices 1 2 3 4 5 6 
#
# 1 0.011748 -0.004787 0.001577 0.000000 -0.004087 0.000000
# 2 -0.004787 0.023124 -0.011838 0.000000 0.000794 0.000000
# 3 0.001577 -0.011838 0.019962 0.000000 -0.003315 0.000000
# 4 0.000000 0.000000 0.000000 0.024072 0.000000 0.001724
# 5 -0.004087 0.000794 -0.003315 0.000000 0.041175 0.000000
# 6 0.000000 0.000000 0.000000 0.001724 0.000000 0.040500
#
#
# Mechanical properties :
#
#
# Convention : Reuss Voigt Hill
#
# Bulk Modulus (GPa) = 40.42402 42.41808 41.42105
# Shear Modulus (GPa) = 25.13531 29.59969 27.36750
#
# Velocity S-wave (km/s) = 3.63892 3.94888 3.79706
# Velocity P-wave (km/s) = 6.24113 6.56796 6.40663
#
# Compressibility (1/GPa) = 0.02473777
#
# Stress axis : x y z
#
# Youngs Moduli (GPa) = 85.11836 43.24507 50.09637
#
# Poissons Ratio (x) = 0.20703 -0.07899
# Poissons Ratio (y) = 0.40748 0.59302
# Poissons Ratio (z) = -0.13421 0.51192
#
# Static dielectric constant tensor:
#      x y z
#    x 3.797170 0.000000 0.115430 
#    y 0.000000 3.532100 0.000000 
#    z 0.115430 0.000000 3.481360 
# 
# 
# High freq. dielectric constant tensor:
#      x y z
#    x 1.753950 0.000000 0.004160 
#    y 0.000000 1.737330 0.000000 
#    z 0.004160 0.000000 1.741980 
# 
# From -- ./inp_files/51694.got.cif
#   From: 2010.06.25/outbox.cif.g09.slc.cpg/sg11_26_cif.got.tgz:51694.got - 2010.06.27 23:14:04.
