data_PCOD8076099
_publ_section_title
;
Structure prediction by ZEFSAII (Michael W. Deem and Ramdas Pophale) SiO2 
 PCOD8076099
Probable space group: P 21/M
;
_chemical_formula_sum "Si O2"
_cell_formula_units_Z 28
_cell_length_a 20.466089
_cell_length_b 11.261414
_cell_length_c 17.574155
_cell_angle_alpha 90.000000
_cell_angle_beta 160.420779
_cell_angle_gamma 90.000000
_cell_volume 1357.342641
_symmetry_space_group_name_H-M "P 21/M"
_symmetry_group_IT_number 11
_symmetry_cell_setting 'monoclinic'
loop_
_space_group_symop_operation_xyz
x,y,z
-x,1/2+y,-z
-x,-y,-z
x,1/2-y,z
loop_
_atom_site_type_symbol
_atom_site_label
_atom_site_fract_x
_atom_site_fract_y
_atom_site_fract_z
Si Si1 0.062739 0.618470 0.759414
Si Si2 0.438525 0.536134 0.555662
Si Si3 0.119614 0.115082 0.279336
Si Si4 0.171084 0.449560 0.635131
Si Si5 0.337281 0.114378 0.060826
Si Si6 0.268688 0.615870 0.220845
Si Si7 0.536075 0.379644 0.127432
O O1 0.170918 0.750000 0.884606
O O2 0.927622 0.601030 0.684051
O O3 0.928534 0.631941 0.537772
O O4 0.192790 0.499094 0.896224
O O5 0.310587 0.459426 0.472459
O O6 0.569487 0.619784 0.752741
O O7 0.304017 0.611210 0.350369
O O8 0.569648 0.452456 0.648355
O O9 0.164748 0.250000 0.306294
O O10 0.943531 0.064693 0.033646
O O11 0.296066 0.546788 0.727856
O O12 0.000000 0.500000 0.500000
O O13 0.324088 0.379467 0.854648
O O14 0.248720 0.250000 0.950397
O O15 0.501693 0.086681 0.177932
O O16 0.278847 0.750000 0.202874
O O17 0.624953 0.250000 0.219346
#
# Coordination Sequence:
#
# PCOD8076099 Si02
#       7
#     4   4   4   4   4   4   4
#     4  11  23  41  65  94 126 166 215 261 310 370
#     4  11  21  37  63  85 122 165 208 249 316 373
#     4  10  21  38  61  89 122 159 209 262 312 369
#     4  11  22  41  64  93 127 164 212 261 312 374
#     4  11  23  42  63  92 130 167 211 258 316 376
#     4  10  21  37  58  89 123 157 206 262 310 368
#     4  10  23  41  63  92 127 167 210 259 317 377
#
# _framework density 20.628543000000001
#
# number of rings (size 3 to 8) (size 9 to 14) (size 15 to 20)
#    0.000    1.429    2.857    2.571    0.000    2.286 
#    0.000    2.143    0.000    0.000    0.000    0.000 
#    0.000    0.000    0.000    0.000    0.000    0.000 
#
# Total GULP energy -346924.976340 kJ/mol
# GULP energy per Si atom -12390.177726 kJ/mol
# Density = 2.058159 g / cm^3
# Si number density = 20.628543 Si / 1000 Ang^3
#
#
#
# Elastic Constant Matrix: (Units=GPa)
#
#
# Indices 1 2 3 4 5 6 
#
# 1 111.9613 42.3474 29.0369 0.0000 -7.5285 0.0000
# 2 42.3474 113.9371 27.9644 0.0000 16.8463 0.0000
# 3 29.0369 27.9644 64.2689 0.0000 -8.1577 0.0000
# 4 0.0000 0.0000 0.0000 19.0846 0.0000 -1.3809
# 5 -7.5285 16.8463 -8.1577 0.0000 44.7769 0.0000
# 6 0.0000 0.0000 0.0000 -1.3809 0.0000 26.7387
#
#
#
# Elastic Compliance Matrix: (Units=1/GPa)
#
#
# Indices 1 2 3 4 5 6 
#
# 1 0.011396 -0.003892 -0.003098 0.000000 0.002816 0.000000
# 2 -0.003892 0.012168 -0.004300 0.000000 -0.006016 0.000000
# 3 -0.003098 -0.004300 0.019419 0.000000 0.004635 0.000000
# 4 0.000000 0.000000 0.000000 0.052595 0.000000 0.002716
# 5 0.002816 -0.006016 0.004635 0.000000 0.025914 0.000000
# 6 0.000000 0.000000 0.000000 0.002716 0.000000 0.037539
#
#
# Mechanical properties :
#
#
# Convention : Reuss Voigt Hill
#
# Bulk Modulus (GPa) = 49.01074 54.31829 51.66452
# Shear Modulus (GPa) = 26.53766 30.84129 28.68947
#
# Velocity S-wave (km/s) = 3.59061 3.87082 3.73334
# Velocity P-wave (km/s) = 6.40314 6.80929 6.60934
#
# Compressibility (1/GPa) = 0.02040369
#
# Stress axis : x y z
#
# Youngs Moduli (GPa) = 87.74633 82.18293 51.49708
#
# Poissons Ratio (x) = 0.31983 0.15955
# Poissons Ratio (y) = 0.34148 0.22142
# Poissons Ratio (z) = 0.27186 0.35337
#
# Static dielectric constant tensor:
#      x y z
#    x 3.919480 0.000000 -0.355480 
#    y 0.000000 3.750700 0.000000 
#    z -0.355480 0.000000 3.854600 
# 
# 
# High freq. dielectric constant tensor:
#      x y z
#    x 1.822390 0.000000 -0.016240 
#    y 0.000000 1.807970 0.000000 
#    z -0.016240 0.000000 1.799990 
# 
# From -- ./inp_files/61465.got.cif
#   From: 2010.06.25/outbox.cif.g09.slc.cpg/sg11_31_cif.got.tgz:61465.got - 2010.06.27 23:14:04.
