data_PCOD8076458
_publ_section_title
;
Structure prediction by ZEFSAII (Michael W. Deem and Ramdas Pophale) SiO2 
 PCOD8076458
Probable space group: P 21/M
;
_chemical_formula_sum "Si O2"
_cell_formula_units_Z 28
_cell_length_a 22.626958
_cell_length_b 10.305497
_cell_length_c 19.368849
_cell_angle_alpha 90.000000
_cell_angle_beta 18.174819
_cell_angle_gamma 90.000000
_cell_volume 1408.764843
_symmetry_space_group_name_H-M "P 21/M"
_symmetry_group_IT_number 11
_symmetry_cell_setting 'monoclinic'
loop_
_space_group_symop_operation_xyz
x,y,z
-x,1/2+y,-z
-x,-y,-z
x,1/2-y,z
loop_
_atom_site_type_symbol
_atom_site_label
_atom_site_fract_x
_atom_site_fract_y
_atom_site_fract_z
Si Si1 0.449730 0.602910 0.766323
Si Si2 0.882851 0.100007 0.430190
Si Si3 0.189988 0.103704 0.709271
Si Si4 0.543547 0.897060 0.125570
Si Si5 0.932083 0.601768 0.631609
Si Si6 0.122559 0.515251 0.041541
Si Si7 0.665282 0.603724 0.309126
O O1 0.479442 0.750000 0.762302
O O2 0.635336 0.536077 0.525374
O O3 0.393039 0.502356 0.888726
O O4 0.277373 0.609843 0.903145
O O5 0.922258 0.250000 0.375057
O O6 0.659613 0.066876 0.681428
O O7 0.977481 0.055029 0.396379
O O8 0.974875 0.030022 0.262792
O O9 0.256409 0.250000 0.630324
O O10 0.184427 0.067070 0.796647
O O11 0.989643 0.087437 0.894844
O O12 0.540219 0.750000 0.160700
O O13 0.703586 0.903646 0.888690
O O14 0.996978 0.750000 0.541803
O O15 0.000000 0.500000 0.500000
O O16 0.231631 0.400518 0.879793
O O17 0.500000 0.500000 0.500000
O O18 0.584802 0.750000 0.407244
#
# Coordination Sequence:
#
# PCOD8076458 Si02
#       7
#     4   4   4   4   4   4   4
#     4  11  22  37  60  90 123 159 200 252 304 358
#     4  10  21  38  62  91 122 156 201 250 298 352
#     4  10  22  40  57  85 125 161 199 254 311 359
#     4  10  21  40  64  91 124 161 198 246 299 354
#     4  10  22  41  63  91 126 161 197 243 296 357
#     4  12  21  38  64  89 116 162 206 252 303 362
#     4  11  24  41  61  87 122 162 208 256 310 365
#
# _framework density 19.875567
#
# number of rings (size 3 to 8) (size 9 to 14) (size 15 to 20)
#    0.000    1.429    4.286    1.286    0.000    2.286 
#    0.000    2.143    0.000    0.000    0.000    0.000 
#    0.000    0.000    0.000    0.000    0.000    0.000 
#
# Total GULP energy -347009.078175 kJ/mol
# GULP energy per Si atom -12393.181363 kJ/mol
# Density = 1.983033 g / cm^3
# Si number density = 19.875567 Si / 1000 Ang^3
#
#
#
# Elastic Constant Matrix: (Units=GPa)
#
#
# Indices 1 2 3 4 5 6 
#
# 1 94.5937 40.4798 42.3461 0.0000 1.6979 0.0000
# 2 40.4798 87.1373 34.3821 0.0000 12.0157 0.0000
# 3 42.3461 34.3821 105.9091 0.0000 -3.9831 0.0000
# 4 0.0000 0.0000 0.0000 22.2482 0.0000 0.4794
# 5 1.6979 12.0157 -3.9831 0.0000 39.2711 0.0000
# 6 0.0000 0.0000 0.0000 0.4794 0.0000 26.5605
#
#
#
# Elastic Compliance Matrix: (Units=1/GPa)
#
#
# Indices 1 2 3 4 5 6 
#
# 1 0.014662 -0.005256 -0.004135 0.000000 0.000555 0.000000
# 2 -0.005256 0.015880 -0.003240 0.000000 -0.004960 0.000000
# 3 -0.004135 -0.003240 0.012238 0.000000 0.002411 0.000000
# 4 0.000000 0.000000 0.000000 0.044965 0.000000 -0.000812
# 5 0.000555 -0.004960 0.002411 0.000000 0.027202 0.000000
# 6 0.000000 0.000000 0.000000 -0.000812 0.000000 0.037665
#
#
# Mechanical properties :
#
#
# Convention : Reuss Voigt Hill
#
# Bulk Modulus (GPa) = 57.08676 58.00623 57.54649
# Shear Modulus (GPa) = 27.21608 28.97808 28.09708
#
# Velocity S-wave (km/s) = 3.70445 3.82249 3.76393
# Velocity P-wave (km/s) = 6.86161 6.98068 6.92140
#
# Compressibility (1/GPa) = 0.01751720
#
# Stress axis : x y z
#
# Youngs Moduli (GPa) = 68.20345 62.97041 81.71222
#
# Poissons Ratio (x) = 0.33098 0.33789
# Poissons Ratio (y) = 0.35849 0.26478
# Poissons Ratio (z) = 0.28203 0.20405
#
# Static dielectric constant tensor:
#      x y z
#    x 3.693380 0.000000 -0.112000 
#    y 0.000000 3.448970 0.000000 
#    z -0.112000 0.000000 3.650660 
# 
# 
# High freq. dielectric constant tensor:
#      x y z
#    x 1.769010 0.000000 -0.010250 
#    y 0.000000 1.762130 0.000000 
#    z -0.010250 0.000000 1.783890 
# 
# From -- ./inp_files/61453.got.cif
#   From: 2010.06.25/outbox.cif.g09.slc.cpg/sg11_31_cif.got.tgz:61453.got - 2010.06.27 23:14:04.
