data_PCOD8076553
_publ_section_title
;
Structure prediction by ZEFSAII (Michael W. Deem and Ramdas Pophale) SiO2 
 PCOD8076553
Probable space group: P 21/M
;
_chemical_formula_sum "Si O2"
_cell_formula_units_Z 32
_cell_length_a 21.200664
_cell_length_b 9.122749
_cell_length_c 26.693545
_cell_angle_alpha 90.000000
_cell_angle_beta 19.454472
_cell_angle_gamma 90.000000
_cell_volume 1719.495110
_symmetry_space_group_name_H-M "P 21/M"
_symmetry_group_IT_number 11
_symmetry_cell_setting 'monoclinic'
loop_
_space_group_symop_operation_xyz
x,y,z
-x,1/2+y,-z
-x,-y,-z
x,1/2-y,z
loop_
_atom_site_type_symbol
_atom_site_label
_atom_site_fract_x
_atom_site_fract_y
_atom_site_fract_z
Si Si1 0.350159 0.581360 0.839988
Si Si2 0.028013 0.075386 0.255621
Si Si3 0.604133 0.911710 0.851850
Si Si4 0.637777 0.579299 0.539342
Si Si5 0.783739 0.412948 0.797703
Si Si6 0.350492 0.578924 0.954726
Si Si7 0.010200 0.420293 0.044783
Si Si8 0.407655 0.582092 0.614638
O O1 0.289694 0.750000 0.877053
O O2 0.535184 0.544892 0.668785
O O3 0.399895 0.547744 0.860253
O O4 0.175831 0.480717 0.955323
O O5 0.038243 0.250000 0.248951
O O6 0.819478 0.022754 0.397287
O O7 0.077126 0.013634 0.273855
O O8 0.170598 0.015732 0.106568
O O9 0.695589 0.750000 0.779948
O O10 0.759068 0.019631 0.760358
O O11 0.418925 0.905070 0.024828
O O12 0.536905 0.966691 0.847263
O O13 0.696517 0.750000 0.491910
O O14 0.493027 0.532542 0.603982
O O15 0.871597 0.250000 0.726835
O O16 0.302797 0.750000 0.000580
O O17 0.043936 0.250000 0.009047
O O18 0.815349 0.448891 0.219830
O O19 0.000000 0.500000 0.000000
O O20 0.500000 0.500000 0.500000
O O21 0.454902 0.750000 0.570741
#
# Coordination Sequence:
#
# PCOD8076553 Si02
#       8
#     4   4   4   4   4   4   4   4
#     4  10  21  39  61  82 107 144 183 222 272 325
#     4  11  22  34  52  80 112 144 181 226 271 317
#     4   8  14  26  46  75 108 137 172 218 266 319
#     4  10  21  40  58  76 107 145 182 221 268 327
#     4   9  16  28  48  74 105 143 180 218 268 320
#     4   9  19  35  56  82 110 143 180 220 272 326
#     4  11  22  39  60  84 110 140 182 226 269 322
#     4  10  23  40  58  82 111 142 179 223 271 321
#
# _framework density 18.610113999999999
#
# number of rings (size 3 to 8) (size 9 to 14) (size 15 to 20)
#    0.000    2.250    1.250    2.625    1.750    5.500 
#    0.000    0.000    0.000    0.750    0.000    0.000 
#    0.000    0.000    0.000    0.000    0.000    0.000 
#
# Total GULP energy -396798.420425 kJ/mol
# GULP energy per Si atom -12399.950638 kJ/mol
# Density = 1.856776 g / cm^3
# Si number density = 18.610114 Si / 1000 Ang^3
#
#
#
# Elastic Constant Matrix: (Units=GPa)
#
#
# Indices 1 2 3 4 5 6 
#
# 1 115.5169 41.0634 27.9167 0.0000 19.5075 0.0000
# 2 41.0634 95.6887 34.5098 0.0000 8.1699 0.0000
# 3 27.9167 34.5098 48.8613 0.0000 11.2394 0.0000
# 4 0.0000 0.0000 0.0000 24.3368 0.0000 -4.5064
# 5 19.5075 8.1699 11.2394 0.0000 20.4839 0.0000
# 6 0.0000 0.0000 0.0000 -4.5064 0.0000 33.8453
#
#
#
# Elastic Compliance Matrix: (Units=1/GPa)
#
#
# Indices 1 2 3 4 5 6 
#
# 1 0.011946 -0.003547 -0.002321 0.000000 -0.008688 0.000000
# 2 -0.003547 0.015076 -0.009173 0.000000 0.002398 0.000000
# 3 -0.002321 -0.009173 0.030810 0.000000 -0.011036 0.000000
# 4 0.000000 0.000000 0.000000 0.042129 0.000000 0.005609
# 5 -0.008688 0.002398 -0.011036 0.000000 0.062191 0.000000
# 6 0.000000 0.000000 0.000000 0.005609 0.000000 0.030293
#
#
# Mechanical properties :
#
#
# Convention : Reuss Voigt Hill
#
# Bulk Modulus (GPa) = 36.03819 51.89410 43.96615
# Shear Modulus (GPa) = 21.57236 26.17166 23.87201
#
# Velocity S-wave (km/s) = 3.40836 3.75415 3.58543
# Velocity P-wave (km/s) = 5.90729 6.83645 6.38878
#
# Compressibility (1/GPa) = 0.02774834
#
# Stress axis : x y z
#
# Youngs Moduli (GPa) = 83.71075 66.32911 32.45741
#
# Poissons Ratio (x) = 0.23530 0.07534
# Poissons Ratio (y) = 0.29696 0.29773
# Poissons Ratio (z) = 0.19432 0.60844
#
# Static dielectric constant tensor:
#      x y z
#    x 3.799760 0.000000 -0.161420 
#    y 0.000000 3.304250 0.000000 
#    z -0.161420 0.000000 3.209620 
# 
# 
# High freq. dielectric constant tensor:
#      x y z
#    x 1.733960 0.000000 -0.008560 
#    y 0.000000 1.722250 0.000000 
#    z -0.008560 0.000000 1.691160 
# 
# From -- ./inp_files/71999.got.cif
#   From: 2010.06.25/outbox.cif.g09.slc.cpg/sg11_36_cif.got.tgz:71999.got - 2010.06.27 23:14:04.
