data_PCOD8076462
_publ_section_title
;
Structure prediction by ZEFSAII (Michael W. Deem and Ramdas Pophale) SiO2 
 PCOD8076462
Probable space group: P 21/M
;
_chemical_formula_sum "Si O2"
_cell_formula_units_Z 24
_cell_length_a 12.403477
_cell_length_b 8.519939
_cell_length_c 11.491546
_cell_angle_alpha 90.000000
_cell_angle_beta 89.068427
_cell_angle_gamma 90.000000
_cell_volume 1214.230071
_symmetry_space_group_name_H-M "P 21/M"
_symmetry_group_IT_number 11
_symmetry_cell_setting 'monoclinic'
loop_
_space_group_symop_operation_xyz
x,y,z
-x,1/2+y,-z
-x,-y,-z
x,1/2-y,z
loop_
_atom_site_type_symbol
_atom_site_label
_atom_site_fract_x
_atom_site_fract_y
_atom_site_fract_z
Si Si1 0.901438 0.432234 0.848722
Si Si2 0.122894 0.932136 0.886400
Si Si3 0.288652 0.431400 0.279163
Si Si4 0.380396 0.566601 0.507463
Si Si5 0.531363 0.068393 0.876250
Si Si6 0.314707 0.069960 0.743256
O O1 0.879874 0.250000 0.826361
O O2 0.833073 0.531797 0.757388
O O3 0.027218 0.470609 0.826942
O O4 0.866074 0.483103 0.979317
O O5 0.093501 0.750000 0.878246
O O6 0.234424 0.965549 0.820377
O O7 0.300270 0.250000 0.312781
O O8 0.318602 0.537350 0.388656
O O9 0.366165 0.472720 0.170382
O O10 0.500000 0.500000 0.500000
O O11 0.387224 0.750000 0.532921
O O12 0.311746 0.483990 0.609928
O O13 0.563255 0.250000 0.888404
O O14 0.435071 0.044326 0.787289
O O15 0.500000 0.000000 0.000000
O O16 0.278586 0.250000 0.753644
#
# Coordination Sequence:
#
# PCOD8076462 Si02
#       6
#     4   4   4   4   4   4
#     4  10  21  39  63  90 123 160 202 248 300 359
#     4  10  21  38  62  91 123 160 202 247 301 358
#     4  12  24  39  61  88 121 158 201 248 301 359
#     4  12  24  41  63  87 118 159 204 248 301 359
#     4  11  23  37  57  86 122 157 197 246 300 359
#     4  11  23  39  60  87 120 159 202 247 299 357
#
# _framework density 19.765612000000001
#
# number of rings (size 3 to 8) (size 9 to 14) (size 15 to 20)
#    0.000    1.000    1.667    6.000    0.000    6.667 
#    0.000    0.833    0.000    0.000    0.000    0.000 
#    0.000    0.000    0.000    0.000    0.000    0.000 
#
# Total GULP energy -297802.684005 kJ/mol
# GULP energy per Si atom -12408.445167 kJ/mol
# Density = 1.972062 g / cm^3
# Si number density = 19.765612 Si / 1000 Ang^3
#
#
#
# Elastic Constant Matrix: (Units=GPa)
#
#
# Indices 1 2 3 4 5 6 
#
# 1 65.6691 27.6893 6.7296 0.0000 13.2833 0.0000
# 2 27.6893 68.2620 23.7411 0.0000 2.6433 0.0000
# 3 6.7296 23.7411 69.6773 0.0000 12.5839 0.0000
# 4 0.0000 0.0000 0.0000 33.8822 0.0000 -0.5049
# 5 13.2833 2.6433 12.5839 0.0000 30.7928 0.0000
# 6 0.0000 0.0000 0.0000 -0.5049 0.0000 36.8121
#
#
#
# Elastic Compliance Matrix: (Units=1/GPa)
#
#
# Indices 1 2 3 4 5 6 
#
# 1 0.020584 -0.008940 0.002724 0.000000 -0.009225 0.000000
# 2 -0.008940 0.020528 -0.007028 0.000000 0.004966 0.000000
# 3 0.002724 -0.007028 0.017908 0.000000 -0.007890 0.000000
# 4 0.000000 0.000000 0.000000 0.029520 0.000000 0.000405
# 5 -0.009225 0.004966 -0.007890 0.000000 0.039253 0.000000
# 6 0.000000 0.000000 0.000000 0.000405 0.000000 0.027171
#
#
# Mechanical properties :
#
#
# Convention : Reuss Voigt Hill
#
# Bulk Modulus (GPa) = 30.73790 35.54761 33.14275
# Shear Modulus (GPa) = 26.00164 29.99396 27.99780
#
# Velocity S-wave (km/s) = 3.63092 3.89971 3.76771
# Velocity P-wave (km/s) = 5.75873 6.18875 5.97761
#
# Compressibility (1/GPa) = 0.03253313
#
# Stress axis : x y z
#
# Youngs Moduli (GPa) = 48.58077 48.71471 55.83971
#
# Poissons Ratio (x) = 0.43550 -0.15211
# Poissons Ratio (y) = 0.43431 0.39243
# Poissons Ratio (z) = -0.13234 0.34236
#
# Static dielectric constant tensor:
#      x y z
#    x 3.519420 0.000000 0.101040 
#    y 0.000000 3.738820 0.000000 
#    z 0.101040 0.000000 3.621190 
# 
# 
# High freq. dielectric constant tensor:
#      x y z
#    x 1.768210 0.000000 0.004540 
#    y 0.000000 1.785660 0.000000 
#    z 0.004540 0.000000 1.768220 
# 
# From -- ./inp_files/33815.got.cif
#   From: 2010.06.25/outbox.cif.g09.slc.cpg/sg11_17_cif.got.tgz:33815.got - 2010.06.27 23:14:04.
