data_PCOD8076031
_publ_section_title
;
Structure prediction by ZEFSAII (Michael W. Deem and Ramdas Pophale) SiO2 
 PCOD8076031
Probable space group: P 21/M
;
_chemical_formula_sum "Si O2"
_cell_formula_units_Z 28
_cell_length_a 14.485883
_cell_length_b 9.088206
_cell_length_c 21.397481
_cell_angle_alpha 90.000000
_cell_angle_beta 31.618948
_cell_angle_gamma 90.000000
_cell_volume 1476.858071
_symmetry_space_group_name_H-M "P 21/M"
_symmetry_group_IT_number 11
_symmetry_cell_setting 'monoclinic'
loop_
_space_group_symop_operation_xyz
x,y,z
-x,1/2+y,-z
-x,-y,-z
x,1/2-y,z
loop_
_atom_site_type_symbol
_atom_site_label
_atom_site_fract_x
_atom_site_fract_y
_atom_site_fract_z
Si Si1 0.226032 0.920347 0.144966
Si Si2 0.435234 0.423181 0.392353
Si Si3 0.856334 0.419837 0.365073
Si Si4 0.050113 0.919963 0.034170
Si Si5 0.223615 0.918932 0.728723
Si Si6 0.502821 0.080402 0.903137
Si Si7 0.539668 0.418883 0.193108
O O1 0.196119 0.750000 0.145914
O O2 0.326816 0.941540 0.152115
O O3 0.041815 0.000196 0.256986
O O4 0.337277 0.990218 0.024738
O O5 0.404117 0.250000 0.418303
O O6 0.261719 0.508439 0.513239
O O7 0.599857 0.475643 0.339433
O O8 0.470998 0.467873 0.300386
O O9 0.888283 0.250000 0.362801
O O10 0.755673 0.438487 0.357298
O O11 0.003448 0.750000 0.053127
O O12 0.253238 0.945433 0.930964
O O13 0.941959 0.985174 0.154305
O O14 0.000000 0.000000 0.000000
O O15 0.187640 0.750000 0.768379
O O16 0.446950 0.250000 0.931242
O O17 0.553421 0.019028 0.805621
O O18 0.490563 0.250000 0.208653
#
# Coordination Sequence:
#
# PCOD8076031 Si02
#       7
#     4   4   4   4   4   4   4
#     4  10  21  39  61  85 115 148 182 225 284 342
#     4  10  21  39  57  76 113 156 191 228 276 336
#     4  11  23  37  58  86 112 144 191 240 280 324
#     4  11  21  34  54  81 113 147 185 227 276 329
#     4  10  21  38  56  80 114 149 189 234 280 331
#     4  10  21  37  61  90 115 142 181 233 283 331
#     4  10  21  37  57  82 114 154 190 225 280 338
#
# _framework density 18.959167999999998
#
# number of rings (size 3 to 8) (size 9 to 14) (size 15 to 20)
#    0.000    1.714    1.429    3.000    0.000    7.429 
#    0.000    0.714    0.000    0.000    0.000    0.000 
#    0.000    0.000    0.000    0.000    0.000    0.000 
#
# Total GULP energy -347355.193232 kJ/mol
# GULP energy per Si atom -12405.542615 kJ/mol
# Density = 1.891602 g / cm^3
# Si number density = 18.959168 Si / 1000 Ang^3
#
#
#
# Elastic Constant Matrix: (Units=GPa)
#
#
# Indices 1 2 3 4 5 6 
#
# 1 96.9358 56.0802 50.4794 0.0000 12.6311 0.0000
# 2 56.0802 103.5174 56.1135 0.0000 6.2977 0.0000
# 3 50.4794 56.1135 112.6149 0.0000 5.2555 0.0000
# 4 0.0000 0.0000 0.0000 35.3798 0.0000 0.8519
# 5 12.6311 6.2977 5.2555 0.0000 22.5256 0.0000
# 6 0.0000 0.0000 0.0000 0.8519 0.0000 32.2615
#
#
#
# Elastic Compliance Matrix: (Units=1/GPa)
#
#
# Indices 1 2 3 4 5 6 
#
# 1 0.017191 -0.006705 -0.004047 0.000000 -0.006821 0.000000
# 2 -0.006705 0.015957 -0.004967 0.000000 0.000457 0.000000
# 3 -0.004047 -0.004967 0.013141 0.000000 0.000592 0.000000
# 4 0.000000 0.000000 0.000000 0.028283 0.000000 -0.000747
# 5 -0.006821 0.000457 0.000592 0.000000 0.047953 0.000000
# 6 0.000000 0.000000 0.000000 -0.000747 0.000000 0.031016
#
#
# Mechanical properties :
#
#
# Convention : Reuss Voigt Hill
#
# Bulk Modulus (GPa) = 67.32917 70.93490 69.13203
# Shear Modulus (GPa) = 26.32561 28.05972 27.19267
#
# Velocity S-wave (km/s) = 3.73036 3.85126 3.79129
# Velocity P-wave (km/s) = 7.35825 7.56783 7.46378
#
# Compressibility (1/GPa) = 0.01485240
#
# Stress axis : x y z
#
# Youngs Moduli (GPa) = 58.16958 62.66805 76.09688
#
# Poissons Ratio (x) = 0.42017 0.30795
# Poissons Ratio (y) = 0.39000 0.37798
# Poissons Ratio (z) = 0.23540 0.31128
#
# Static dielectric constant tensor:
#      x y z
#    x 3.450170 0.000000 0.161780 
#    y 0.000000 3.695640 0.000000 
#    z 0.161780 0.000000 3.321020 
# 
# 
# High freq. dielectric constant tensor:
#      x y z
#    x 1.740320 0.000000 0.008120 
#    y 0.000000 1.744080 0.000000 
#    z 0.008120 0.000000 1.730850 
# 
# From -- ./inp_files/37863.got.cif
#   From: 2010.06.25/outbox.cif.g09.slc.cpg/sg11_19_cif.got.tgz:37863.got - 2010.06.27 23:14:04.
