data_PCOD8076867
_publ_section_title
;
Structure prediction by ZEFSAII (Michael W. Deem and Ramdas Pophale) SiO2 
 PCOD8076867
Probable space group: P 21/M
;
_chemical_formula_sum "Si O2"
_cell_formula_units_Z 20
_cell_length_a 19.617756
_cell_length_b 9.639402
_cell_length_c 5.241433
_cell_angle_alpha 90.000000
_cell_angle_beta 121.657382
_cell_angle_gamma 90.000000
_cell_volume 843.688168
_symmetry_space_group_name_H-M "P 21/M"
_symmetry_group_IT_number 11
_symmetry_cell_setting 'monoclinic'
loop_
_space_group_symop_operation_xyz
x,y,z
-x,1/2+y,-z
-x,-y,-z
x,1/2-y,z
loop_
_atom_site_type_symbol
_atom_site_label
_atom_site_fract_x
_atom_site_fract_y
_atom_site_fract_z
Si Si1 0.258511 0.094923 0.283074
Si Si2 0.083890 0.750000 0.420979
Si Si3 0.458159 0.096849 0.116901
Si Si4 0.380008 0.596667 0.302115
Si Si5 0.020751 0.250000 0.284386
Si Si6 0.841113 0.962271 0.416773
O O1 0.293481 0.250000 0.311579
O O2 0.330417 0.980898 0.429215
O O3 0.213120 0.094048 0.461597
O O4 0.199487 0.058736 0.936091
O O5 0.143419 0.622458 0.504642
O O6 0.045789 0.750000 0.627099
O O7 0.017123 0.750000 0.070695
O O8 0.431165 0.250000 0.960667
O O9 0.526693 0.122117 0.461147
O O10 0.379606 0.014090 0.066355
O O11 0.500000 0.000000 0.000000
O O12 0.342593 0.750000 0.166277
O O13 0.073770 0.386650 0.418949
#
# Coordination Sequence:
#
# PCOD8076867 Si02
#       6
#     4   2   4   4   2   4
#     4  12  25  46  67  96 141 186 227 274 344 407
#     4  12  26  42  76 104 134 173 226 281 350 390
#     4  10  21  41  66  98 134 169 231 279 336 396
#     4  10  24  41  66  95 129 178 225 286 333 395
#     4  12  22  48  70 104 136 175 226 279 338 412
#     4  12  26  45  70 102 140 177 227 280 337 415
#
# _framework density 23.705439999999999
#
# number of rings (size 3 to 8) (size 9 to 14) (size 15 to 20)
#    0.000    0.800    2.000    4.800    5.600    2.400 
#    0.000    0.000    0.000    0.000    0.000    0.000 
#    0.000    0.000    0.000    0.000    0.000    0.000 
#
# Total GULP energy -247905.465048 kJ/mol
# GULP energy per Si atom -12395.273252 kJ/mol
# Density = 2.365149 g / cm^3
# Si number density = 23.705440 Si / 1000 Ang^3
#
#
#
# Elastic Constant Matrix: (Units=GPa)
#
#
# Indices 1 2 3 4 5 6 
#
# 1 73.4842 30.8239 -0.7636 0.0000 -10.4013 0.0000
# 2 30.8239 221.7353 -5.3062 0.0000 2.4210 0.0000
# 3 -0.7636 -5.3062 70.6365 0.0000 -3.0712 0.0000
# 4 0.0000 0.0000 0.0000 22.4512 0.0000 0.2294
# 5 -10.4013 2.4210 -3.0712 0.0000 33.5927 0.0000
# 6 0.0000 0.0000 0.0000 0.2294 0.0000 43.7760
#
#
#
# Elastic Compliance Matrix: (Units=1/GPa)
#
#
# Indices 1 2 3 4 5 6 
#
# 1 0.015209 -0.002162 0.000214 0.000000 0.004885 0.000000
# 2 -0.002162 0.004828 0.000296 0.000000 -0.000990 0.000000
# 3 0.000214 0.000296 0.014240 0.000000 0.001347 0.000000
# 4 0.000000 0.000000 0.000000 0.044543 0.000000 -0.000233
# 5 0.004885 -0.000990 0.001347 0.000000 0.031475 0.000000
# 6 0.000000 0.000000 0.000000 -0.000233 0.000000 0.022845
#
#
# Mechanical properties :
#
#
# Convention : Reuss Voigt Hill
#
# Bulk Modulus (GPa) = 32.28523 46.15156 39.21840
# Shear Modulus (GPa) = 34.06703 42.70410 38.38557
#
# Velocity S-wave (km/s) = 3.79502 4.24895 4.02838
# Velocity P-wave (km/s) = 5.73165 6.60170 6.18200
#
# Compressibility (1/GPa) = 0.03097392
#
# Stress axis : x y z
#
# Youngs Moduli (GPa) = 65.75031 207.10829 70.22411
#
# Poissons Ratio (x) = 0.44786 -0.01505
# Poissons Ratio (y) = 0.14218 -0.02081
# Poissons Ratio (z) = -0.01409 -0.06136
#
# Static dielectric constant tensor:
#      x y z
#    x 4.390320 0.000000 0.193570 
#    y 0.000000 4.914440 0.000000 
#    z 0.193570 0.000000 4.413420 
# 
# 
# High freq. dielectric constant tensor:
#      x y z
#    x 1.939770 0.000000 -0.005800 
#    y 0.000000 1.968700 0.000000 
#    z -0.005800 0.000000 1.929320 
# 
# From -- ./inp_files/8533.got.cif
#   From: 2010.06.25/outbox.cif.g09.slc.cpg/sg11_5_cif.got.tgz:8533.got - 2010.06.27 23:14:04.
