data_PCOD8076017
_publ_section_title
;
Structure prediction by ZEFSAII (Michael W. Deem and Ramdas Pophale) SiO2 
 PCOD8076017
Probable space group: P 21/M
;
_chemical_formula_sum "Si O2"
_cell_formula_units_Z 32
_cell_length_a 21.988225
_cell_length_b 8.728668
_cell_length_c 28.055277
_cell_angle_alpha 90.000000
_cell_angle_beta 161.317958
_cell_angle_gamma 90.000000
_cell_volume 1724.771109
_symmetry_space_group_name_H-M "P 21/M"
_symmetry_group_IT_number 11
_symmetry_cell_setting 'monoclinic'
loop_
_space_group_symop_operation_xyz
x,y,z
-x,1/2+y,-z
-x,-y,-z
x,1/2-y,z
loop_
_atom_site_type_symbol
_atom_site_label
_atom_site_fract_x
_atom_site_fract_y
_atom_site_fract_z
Si Si1 0.692981 0.430188 0.399374
Si Si2 0.296675 0.928212 0.342406
Si Si3 0.291742 0.067450 0.847021
Si Si4 0.713901 0.428898 0.916561
Si Si5 0.979004 0.571562 0.933217
Si Si6 0.997003 0.927546 0.446374
Si Si7 0.012372 0.428305 0.808182
Si Si8 0.010772 0.069054 0.310860
O O1 0.656118 0.250000 0.377909
O O2 0.498513 0.520720 0.251665
O O3 0.810425 0.467520 0.438710
O O4 0.808024 0.488808 0.530549
O O5 0.317525 0.750000 0.348695
O O6 0.168560 0.963867 0.293244
O O7 0.500000 0.000000 0.500000
O O8 0.206637 0.001500 0.228696
O O9 0.294839 0.250000 0.854619
O O10 0.182760 0.014976 0.718036
O O11 0.184252 0.997111 0.812517
O O12 0.500000 0.000000 0.000000
O O13 0.721876 0.250000 0.934989
O O14 0.834831 0.467595 0.959350
O O15 0.795562 0.522640 0.022037
O O16 0.946180 0.750000 0.914187
O O17 0.000000 0.500000 0.000000
O O18 0.976764 0.750000 0.439600
O O19 0.000000 0.000000 0.500000
O O20 0.027108 0.250000 0.805435
O O21 0.986392 0.531477 0.742607
O O22 0.021272 0.250000 0.326882
#
# Coordination Sequence:
#
# PCOD8076017 Si02
#       8
#     4   4   4   4   4   4   4   4
#     4  10  21  38  57  80 111 146 183 225 273 328
#     4  10  21  37  58  82 110 144 183 225 274 328
#     4  10  21  38  57  81 112 145 183 226 273 329
#     4  10  21  37  57  83 111 142 182 228 273 323
#     4  10  21  37  57  81 111 144 182 226 272 323
#     4   9  20  36  55  79 107 139 177 219 264 315
#     4  10  21  38  58  81 110 146 183 224 275 331
#     4  11  22  37  58  83 110 144 185 231 278 325
#
# _framework density 18.553187000000001
#
# number of rings (size 3 to 8) (size 9 to 14) (size 15 to 20)
#    0.000    2.000    0.000    4.125    0.000    8.000 
#    0.000    2.500    0.000    0.000    0.000    0.000 
#    0.000    0.000    0.000    0.000    0.000    0.000 
#
# Total GULP energy -396914.646041 kJ/mol
# GULP energy per Si atom -12403.582689 kJ/mol
# Density = 1.851096 g / cm^3
# Si number density = 18.553187 Si / 1000 Ang^3
#
#
#
# Elastic Constant Matrix: (Units=GPa)
#
#
# Indices 1 2 3 4 5 6 
#
# 1 107.4551 44.2101 51.7176 0.0000 -19.7033 0.0000
# 2 44.2101 70.8357 32.5712 0.0000 -1.8744 0.0000
# 3 51.7176 32.5712 123.2977 0.0000 8.1790 0.0000
# 4 0.0000 0.0000 0.0000 39.2210 0.0000 -2.5366
# 5 -19.7033 -1.8744 8.1790 0.0000 23.9268 0.0000
# 6 0.0000 0.0000 0.0000 -2.5366 0.0000 36.3797
#
#
#
# Elastic Compliance Matrix: (Units=1/GPa)
#
#
# Indices 1 2 3 4 5 6 
#
# 1 0.019450 -0.008394 -0.007121 0.000000 0.017793 0.000000
# 2 -0.008394 0.019873 -0.001406 0.000000 -0.004875 0.000000
# 3 -0.007121 -0.001406 0.012140 0.000000 -0.010124 0.000000
# 4 0.000000 0.000000 0.000000 0.025612 0.000000 0.001786
# 5 0.017793 -0.004875 -0.010124 0.000000 0.059525 0.000000
# 6 0.000000 0.000000 0.000000 0.001786 0.000000 0.027612
#
#
# Mechanical properties :
#
#
# Convention : Reuss Voigt Hill
#
# Bulk Modulus (GPa) = 56.74707 62.06515 59.40611
# Shear Modulus (GPa) = 24.51846 31.44482 27.98164
#
# Velocity S-wave (km/s) = 3.63922 4.12132 3.88775
# Velocity P-wave (km/s) = 6.95062 7.49481 7.22784
#
# Compressibility (1/GPa) = 0.01762205
#
# Stress axis : x y z
#
# Youngs Moduli (GPa) = 51.41507 50.31900 82.36965
#
# Poissons Ratio (x) = 0.42236 0.58657
# Poissons Ratio (y) = 0.43156 0.11579
# Poissons Ratio (z) = 0.36614 0.07074
#
# Static dielectric constant tensor:
#      x y z
#    x 3.301550 0.000000 0.087350 
#    y 0.000000 3.566910 0.000000 
#    z 0.087350 0.000000 3.401470 
# 
# 
# High freq. dielectric constant tensor:
#      x y z
#    x 1.720660 0.000000 -0.003060 
#    y 0.000000 1.736240 0.000000 
#    z -0.003060 0.000000 1.727060 
# 
# From -- ./inp_files/72208.got.cif
#   From: 2010.06.25/outbox.cif.g09.slc.cpg/sg11_37_cif.got.tgz:72208.got - 2010.06.27 23:14:04.
