data_PCOD8076842
_publ_section_title
;
Structure prediction by ZEFSAII (Michael W. Deem and Ramdas Pophale) SiO2 
 PCOD8076842
Probable space group: P 21/M
;
_chemical_formula_sum "Si O2"
_cell_formula_units_Z 16
_cell_length_a 10.949511
_cell_length_b 14.189351
_cell_length_c 5.170773
_cell_angle_alpha 90.000000
_cell_angle_beta 110.798097
_cell_angle_gamma 90.000000
_cell_volume 751.015396
_symmetry_space_group_name_H-M "P 21/M"
_symmetry_group_IT_number 11
_symmetry_cell_setting 'monoclinic'
loop_
_space_group_symop_operation_xyz
x,y,z
-x,1/2+y,-z
-x,-y,-z
x,1/2-y,z
loop_
_atom_site_type_symbol
_atom_site_label
_atom_site_fract_x
_atom_site_fract_y
_atom_site_fract_z
Si Si1 0.528868 0.250000 0.973620
Si Si2 0.245268 0.891347 0.915522
Si Si3 0.642937 0.750000 0.654791
Si Si4 0.177832 0.077024 0.080835
Si Si5 0.902602 0.097864 0.707098
O O1 0.416488 0.250000 0.675386
O O2 0.613662 0.344530 0.006286
O O3 0.468566 0.250000 0.213270
O O4 0.156985 0.865019 0.603355
O O5 0.260728 0.005017 0.959274
O O6 0.171821 0.849466 0.112780
O O7 0.729707 0.657269 0.742967
O O8 0.056903 0.121497 0.829206
O O9 0.117328 0.016100 0.275354
#
# Coordination Sequence:
#
# PCOD8076842 Si02
#       5
#     2   4   2   4   4
#     4  12  28  42  56  92 124 172 214 232 286 366
#     4  10  21  41  64  87 125 156 203 248 297 364
#     4  12  28  40  60  90 126 162 212 244 292 356
#     4   9  23  40  66  93 123 152 199 258 312 357
#     4   9  20  40  67  93 115 151 201 251 327 350
#
# _framework density 21.304492
#
# number of rings (size 3 to 8) (size 9 to 14) (size 15 to 20)
#    1.500    0.500    0.000    2.250    3.500    4.000 
#    0.000    0.000    0.000    0.000    0.000    0.000 
#    0.000    0.000    0.000    0.000    0.000    0.000 
#
# Total GULP energy -198296.817637 kJ/mol
# GULP energy per Si atom -12393.551102 kJ/mol
# Density = 2.125600 g / cm^3
# Si number density = 21.304492 Si / 1000 Ang^3
#
#
#
# Elastic Constant Matrix: (Units=GPa)
#
#
# Indices 1 2 3 4 5 6 
#
# 1 56.4890 18.3632 8.4358 0.0000 13.7436 0.0000
# 2 18.3632 62.1994 18.6485 0.0000 19.4889 0.0000
# 3 8.4358 18.6485 130.6268 0.0000 8.5837 0.0000
# 4 0.0000 0.0000 0.0000 10.7095 0.0000 23.6938
# 5 13.7436 19.4889 8.5837 0.0000 44.0147 0.0000
# 6 0.0000 0.0000 0.0000 23.6938 0.0000 50.3810
#
#
#
# Elastic Compliance Matrix: (Units=1/GPa)
#
#
# Indices 1 2 3 4 5 6 
#
# 1 0.020268 -0.004539 -0.000382 0.000000 -0.004244 0.000000
# 2 -0.004539 0.020299 -0.002135 0.000000 -0.007154 0.000000
# 3 -0.000382 -0.002135 0.008018 0.000000 -0.000499 0.000000
# 4 0.000000 0.000000 0.000000 -2.306615 0.000000 1.084784
# 5 -0.004244 -0.007154 -0.000499 0.000000 0.027310 0.000000
# 6 0.000000 0.000000 0.000000 1.084784 0.000000 -0.490317
#
#
# Mechanical properties :
#
#
# Convention : Reuss Voigt Hill
#
# Bulk Modulus (GPa) = 29.00848 37.80114 33.40481
# Shear Modulus (GPa) = -1.85499 34.61220 16.37861
#
# Velocity S-wave (km/s) = -0.93413 4.03506 2.77571
# Velocity P-wave (km/s) = 3.53302 6.28417 5.09769
#
# Compressibility (1/GPa) = 0.03447268
#
# Stress axis : x y z
#
# Youngs Moduli (GPa) = 49.33924 49.26311 124.72541
#
# Poissons Ratio (x) = 0.22362 0.04764
# Poissons Ratio (y) = 0.22397 0.26625
# Poissons Ratio (z) = 0.01885 0.10516
#
# Static dielectric constant tensor:
#      x y z
#    x 3.677500 0.000000 -0.008040 
#    y 0.000000 3.629150 0.000000 
#    z -0.008040 0.000000 3.728430 
# 
# 
# High freq. dielectric constant tensor:
#      x y z
#    x 1.823480 0.000000 0.001760 
#    y 0.000000 1.822500 0.000000 
#    z 0.001760 0.000000 1.841030 
# 
# From -- ./inp_files/2035.got.cif
#   From: 2010.06.25/outbox.cif.g09.slc.cpg/sg11_2_cif.got.tgz:2035.got - 2010.06.27 23:14:04.
