data_PCOD8076574
_publ_section_title
;
Structure prediction by ZEFSAII (Michael W. Deem and Ramdas Pophale) SiO2 
 PCOD8076574
Probable space group: P 21/M
;
_chemical_formula_sum "Si O2"
_cell_formula_units_Z 28
_cell_length_a 26.714776
_cell_length_b 8.952785
_cell_length_c 9.137488
_cell_angle_alpha 90.000000
_cell_angle_beta 141.002486
_cell_angle_gamma 90.000000
_cell_volume 1375.260738
_symmetry_space_group_name_H-M "P 21/M"
_symmetry_group_IT_number 11
_symmetry_cell_setting 'monoclinic'
loop_
_space_group_symop_operation_xyz
x,y,z
-x,1/2+y,-z
-x,-y,-z
x,1/2-y,z
loop_
_atom_site_type_symbol
_atom_site_label
_atom_site_fract_x
_atom_site_fract_y
_atom_site_fract_z
Si Si1 0.022207 0.426576 0.704417
Si Si2 0.435237 0.415911 0.261941
Si Si3 0.700207 0.923570 0.643748
Si Si4 0.462333 0.581907 0.779980
Si Si5 0.160801 0.928012 0.196129
Si Si6 0.735296 0.922003 0.054158
Si Si7 0.869968 0.076034 0.544363
O O1 0.033108 0.250000 0.706102
O O2 0.000000 0.500000 0.500000
O O3 0.956284 0.463983 0.677023
O O4 0.103401 0.497133 0.946927
O O5 0.500000 0.500000 0.500000
O O6 0.427876 0.250000 0.312749
O O7 0.463573 0.412888 0.160922
O O8 0.348268 0.490916 0.077432
O O9 0.695046 0.750000 0.587543
O O10 0.611879 0.990719 0.452660
O O11 0.750529 0.013119 0.636534
O O12 0.742078 0.944479 0.895668
O O13 0.434468 0.750000 0.755636
O O14 0.500000 0.500000 0.000000
O O15 0.156751 0.750000 0.171759
O O16 0.137297 0.983281 0.305825
O O17 0.742501 0.750000 0.115534
O O18 0.806096 0.006461 0.291856
O O19 0.853580 0.250000 0.506072
#
# Coordination Sequence:
#
# PCOD8076574 Si02
#       7
#     4   4   4   4   4   4   4
#     4  11  23  42  67  95 125 162 204 247 300 361
#     4  10  21  39  61  88 118 158 205 254 306 361
#     4  11  23  41  63  89 122 162 206 254 308 364
#     4  11  24  40  61  89 123 162 206 255 310 367
#     4  11  24  42  63  92 127 162 203 251 302 359
#     4  10  22  39  61  89 121 157 203 252 303 361
#     4  10  24  42  62  91 125 161 201 247 301 359
#
# _framework density 20.359776
#
# number of rings (size 3 to 8) (size 9 to 14) (size 15 to 20)
#    0.000    1.429    1.429    3.000    2.000    6.857 
#    0.000    0.000    0.000    0.000    0.000    0.000 
#    0.000    0.000    0.000    0.000    0.000    0.000 
#
# Total GULP energy -347276.334460 kJ/mol
# GULP energy per Si atom -12402.726231 kJ/mol
# Density = 2.031344 g / cm^3
# Si number density = 20.359776 Si / 1000 Ang^3
#
#
#
# Elastic Constant Matrix: (Units=GPa)
#
#
# Indices 1 2 3 4 5 6 
#
# 1 104.3027 39.7904 9.8119 0.0000 -0.4411 0.0000
# 2 39.7904 77.4687 30.3883 0.0000 -1.6036 0.0000
# 3 9.8119 30.3883 76.3127 0.0000 -4.1931 0.0000
# 4 0.0000 0.0000 0.0000 41.2823 0.0000 2.3910
# 5 -0.4411 -1.6036 -4.1931 0.0000 36.5987 0.0000
# 6 0.0000 0.0000 0.0000 2.3910 0.0000 32.2756
#
#
#
# Elastic Compliance Matrix: (Units=1/GPa)
#
#
# Indices 1 2 3 4 5 6 
#
# 1 0.011999 -0.006587 0.001079 0.000000 -0.000020 0.000000
# 2 -0.006587 0.018914 -0.006686 0.000000 -0.000017 0.000000
# 3 0.001079 -0.006686 0.015711 0.000000 0.001520 0.000000
# 4 0.000000 0.000000 0.000000 0.024328 0.000000 -0.001802
# 5 -0.000020 -0.000017 0.001520 0.000000 0.027497 0.000000
# 6 0.000000 0.000000 0.000000 -0.001802 0.000000 0.031117
#
#
# Mechanical properties :
#
#
# Convention : Reuss Voigt Hill
#
# Bulk Modulus (GPa) = 44.97019 46.45169 45.71094
# Shear Modulus (GPa) = 30.98605 33.90423 32.44514
#
# Velocity S-wave (km/s) = 3.90542 4.08518 3.99631
# Velocity P-wave (km/s) = 6.51706 6.71689 6.61773
#
# Compressibility (1/GPa) = 0.02223695
#
# Stress axis : x y z
#
# Youngs Moduli (GPa) = 83.34321 52.87186 63.64953
#
# Poissons Ratio (x) = 0.34824 -0.06868
# Poissons Ratio (y) = 0.54894 0.42554
# Poissons Ratio (z) = -0.08992 0.35348
#
# Static dielectric constant tensor:
#      x y z
#    x 4.221220 0.000000 -0.057830 
#    y 0.000000 3.684990 0.000000 
#    z -0.057830 0.000000 3.464640 
# 
# 
# High freq. dielectric constant tensor:
#      x y z
#    x 1.813630 0.000000 0.003930 
#    y 0.000000 1.797820 0.000000 
#    z 0.003930 0.000000 1.798620 
# 
# From -- ./inp_files/28625.got.cif
#   From: 2010.06.25/outbox.cif.g09.slc.cpg/sg11_15_cif.got.tgz:28625.got - 2010.06.27 23:14:04.
