data_PCOD8076527
_publ_section_title
;
Structure prediction by ZEFSAII (Michael W. Deem and Ramdas Pophale) SiO2 
 PCOD8076527
Probable space group: P 21/M
;
_chemical_formula_sum "Si O2"
_cell_formula_units_Z 32
_cell_length_a 19.973132
_cell_length_b 8.795994
_cell_length_c 11.972140
_cell_angle_alpha 90.000000
_cell_angle_beta 125.392410
_cell_angle_gamma 90.000000
_cell_volume 1714.626240
_symmetry_space_group_name_H-M "P 21/M"
_symmetry_group_IT_number 11
_symmetry_cell_setting 'monoclinic'
loop_
_space_group_symop_operation_xyz
x,y,z
-x,1/2+y,-z
-x,-y,-z
x,1/2-y,z
loop_
_atom_site_type_symbol
_atom_site_label
_atom_site_fract_x
_atom_site_fract_y
_atom_site_fract_z
Si Si1 0.557091 0.572396 0.405956
Si Si2 0.123096 0.070433 0.811960
Si Si3 0.796432 0.071781 0.900484
Si Si4 0.170036 0.422813 0.294413
Si Si5 0.811536 0.071026 0.335504
Si Si6 0.302016 0.074408 0.609003
Si Si7 0.052938 0.426845 0.376790
Si Si8 0.615207 0.071433 0.685686
O O1 0.563534 0.750000 0.436464
O O2 0.603967 0.533506 0.335111
O O3 0.461305 0.520824 0.308617
O O4 0.604367 0.493990 0.552447
O O5 0.116761 0.250000 0.797832
O O6 0.188726 0.006768 0.786288
O O7 0.035906 0.998319 0.698477
O O8 0.150238 0.022794 0.961271
O O9 0.806605 0.250000 0.934671
O O10 0.701557 0.016530 0.820563
O O11 0.830185 0.037149 0.809556
O O12 0.176364 0.250000 0.256541
O O13 0.246218 0.461552 0.447827
O O14 0.086102 0.447565 0.282681
O O15 0.817069 0.250000 0.326189
O O16 0.725913 0.027786 0.313669
O O17 0.888306 0.011372 0.480029
O O18 0.291986 0.250000 0.634302
O O19 0.050357 0.250000 0.407664
O O20 0.617946 0.250000 0.674044
#
# Coordination Sequence:
#
# PCOD8076527 Si02
#       8
#     4   4   4   4   4   4   4   4
#     4   9  16  29  51  78 110 143 176 214 260 310
#     4  12  25  40  57  76 101 139 184 222 265 319
#     4  11  22  35  52  76 111 146 179 219 263 316
#     4   9  18  33  53  78 107 142 176 211 259 316
#     4  11  22  37  58  82 108 136 173 222 270 313
#     4   9  17  31  53  80 110 142 177 218 263 312
#     4  10  21  39  60  82 108 136 173 221 267 313
#     4   9  18  30  48  78 111 143 176 216 261 309
#
# _framework density 18.662959000000001
#
# number of rings (size 3 to 8) (size 9 to 14) (size 15 to 20)
#    0.000    2.000    1.250    4.125    0.000    4.000 
#    0.000    0.000    0.000    0.750    0.000    0.000 
#    0.000    0.000    0.000    0.000    0.000    0.000 
#
# Total GULP energy -396779.159324 kJ/mol
# GULP energy per Si atom -12399.348729 kJ/mol
# Density = 1.862048 g / cm^3
# Si number density = 18.662959 Si / 1000 Ang^3
#
#
#
# Elastic Constant Matrix: (Units=GPa)
#
#
# Indices 1 2 3 4 5 6 
#
# 1 87.6695 25.8659 11.1521 0.0000 -13.1859 0.0000
# 2 25.8659 122.1687 26.8333 0.0000 -17.4304 0.0000
# 3 11.1521 26.8333 27.7469 0.0000 -13.7242 0.0000
# 4 0.0000 0.0000 0.0000 23.9264 0.0000 -4.7197
# 5 -13.1859 -17.4304 -13.7242 0.0000 23.1066 0.0000
# 6 0.0000 0.0000 0.0000 -4.7197 0.0000 31.2959
#
#
#
# Elastic Compliance Matrix: (Units=1/GPa)
#
#
# Indices 1 2 3 4 5 6 
#
# 1 0.012858 -0.001774 -0.000687 0.000000 0.005592 0.000000
# 2 -0.001774 0.010753 -0.008743 0.000000 0.001906 0.000000
# 3 -0.000687 -0.008743 0.058502 0.000000 0.027760 0.000000
# 4 0.000000 0.000000 0.000000 0.043076 0.000000 0.006496
# 5 0.005592 0.001906 0.027760 0.000000 0.064395 0.000000
# 6 0.000000 0.000000 0.000000 0.006496 0.000000 0.032933
#
#
# Mechanical properties :
#
#
# Convention : Reuss Voigt Hill
#
# Bulk Modulus (GPa) = 16.74883 40.58751 28.66817
# Shear Modulus (GPa) = 18.88018 27.24803 23.06411
#
# Velocity S-wave (km/s) = 3.18408 3.82515 3.51924
# Velocity P-wave (km/s) = 4.74465 6.42681 5.64869
#
# Compressibility (1/GPa) = 0.05970567
#
# Stress axis : x y z
#
# Youngs Moduli (GPa) = 77.77155 92.99434 17.09332
#
# Poissons Ratio (x) = 0.16494 0.01174
# Poissons Ratio (y) = 0.13794 0.14945
# Poissons Ratio (z) = 0.05343 0.81309
#
# Static dielectric constant tensor:
#      x y z
#    x 3.886610 0.000000 0.098870 
#    y 0.000000 3.421460 0.000000 
#    z 0.098870 0.000000 3.128150 
# 
# 
# High freq. dielectric constant tensor:
#      x y z
#    x 1.743450 0.000000 -0.000130 
#    y 0.000000 1.727560 0.000000 
#    z -0.000130 0.000000 1.683480 
# 
# From -- ./inp_files/42955.got.cif
#   From: 2010.06.25/outbox.cif.g09.slc.cpg/sg11_22_cif.got.tgz:42955.got - 2010.06.27 23:14:04.
