data_PCOD8076319
_publ_section_title
;
Structure prediction by ZEFSAII (Michael W. Deem and Ramdas Pophale) SiO2 
 PCOD8076319
Probable space group: P 21/M
;
_chemical_formula_sum "Si O2"
_cell_formula_units_Z 32
_cell_length_a 11.821396
_cell_length_b 13.588935
_cell_length_c 17.591603
_cell_angle_alpha 90.000000
_cell_angle_beta 148.485449
_cell_angle_gamma 90.000000
_cell_volume 1477.150132
_symmetry_space_group_name_H-M "P 21/M"
_symmetry_group_IT_number 11
_symmetry_cell_setting 'monoclinic'
loop_
_space_group_symop_operation_xyz
x,y,z
-x,1/2+y,-z
-x,-y,-z
x,1/2-y,z
loop_
_atom_site_type_symbol
_atom_site_label
_atom_site_fract_x
_atom_site_fract_y
_atom_site_fract_z
Si Si1 0.650840 0.137197 0.818926
Si Si2 0.477862 0.141270 0.138457
Si Si3 0.759861 0.635466 0.516863
Si Si4 0.949173 0.362756 0.452342
Si Si5 0.001977 0.638847 0.101171
Si Si6 0.024467 0.999992 0.252323
Si Si7 0.404498 0.940373 0.048472
Si Si8 0.853183 0.636912 0.281898
O O1 0.628134 0.250000 0.832950
O O2 0.467458 0.111438 0.652464
O O3 0.882452 0.116230 0.912709
O O4 0.628143 0.069887 0.879638
O O5 0.492180 0.250000 0.107896
O O6 0.690772 0.123790 0.311828
O O7 0.471302 0.055442 0.071204
O O8 0.257020 0.133502 0.061115
O O9 0.777267 0.750000 0.549395
O O10 0.781569 0.568949 0.605633
O O11 0.954548 0.599352 0.572505
O O12 0.021435 0.250000 0.498065
O O13 0.066787 0.413450 0.592352
O O14 0.066624 0.750000 0.165094
O O15 0.083214 0.557582 0.208572
O O16 0.970305 0.914882 0.280279
O O17 0.821957 0.075664 0.124318
O O18 0.592859 0.870389 0.125978
O O19 0.922763 0.750000 0.317344
#
# Coordination Sequence:
#
# PCOD8076319 Si02
#       8
#     4   4   4   4   4   4   4   4
#     4  10  21  40  67  87 110 158 207 246 290 345
#     4   9  19  34  55  84 117 153 191 240 291 340
#     4  10  21  38  59  88 120 156 198 246 298 347
#     4   9  18  34  57  84 115 151 198 241 285 345
#     4   9  20  41  63  84 118 159 201 242 290 354
#     4  11  24  36  56  91 124 158 191 238 303 357
#     4  11  22  37  61  90 117 154 199 247 292 351
#     4  11  22  37  59  89 124 157 195 242 294 358
#
# _framework density 21.663335
#
# number of rings (size 3 to 8) (size 9 to 14) (size 15 to 20)
#    0.000    2.000    1.250    1.875    1.750    6.000 
#    0.000    2.500    2.750    0.750    0.000    0.000 
#    0.000    0.000    0.000    0.000    0.000    0.000 
#
# Total GULP energy -396654.348660 kJ/mol
# GULP energy per Si atom -12395.448396 kJ/mol
# Density = 2.161403 g / cm^3
# Si number density = 21.663335 Si / 1000 Ang^3
#
#
#
# Elastic Constant Matrix: (Units=GPa)
#
#
# Indices 1 2 3 4 5 6 
#
# 1 48.6620 11.2319 1.5609 0.0000 7.8211 0.0000
# 2 11.2319 61.6378 18.2078 0.0000 -3.0712 0.0000
# 3 1.5609 18.2078 75.0717 0.0000 4.7385 0.0000
# 4 0.0000 0.0000 0.0000 32.2584 0.0000 -3.2965
# 5 7.8211 -3.0712 4.7385 0.0000 29.0673 0.0000
# 6 0.0000 0.0000 0.0000 -3.2965 0.0000 18.4015
#
#
#
# Elastic Compliance Matrix: (Units=1/GPa)
#
#
# Indices 1 2 3 4 5 6 
#
# 1 0.022718 -0.004811 0.001124 0.000000 -0.006804 0.000000
# 2 -0.004811 0.018686 -0.004687 0.000000 0.004033 0.000000
# 3 0.001124 -0.004687 0.014635 0.000000 -0.003183 0.000000
# 4 0.000000 0.000000 0.000000 0.031578 0.000000 0.005657
# 5 -0.006804 0.004033 -0.003183 0.000000 0.037179 0.000000
# 6 0.000000 0.000000 0.000000 0.005657 0.000000 0.055357
#
#
# Mechanical properties :
#
#
# Convention : Reuss Voigt Hill
#
# Bulk Modulus (GPa) = 25.45067 27.48583 26.46825
# Shear Modulus (GPa) = 23.80999 26.23683 25.02341
#
# Velocity S-wave (km/s) = 3.31885 3.48389 3.40237
# Velocity P-wave (km/s) = 5.14394 5.37574 5.26112
#
# Compressibility (1/GPa) = 0.03929170
#
# Stress axis : x y z
#
# Youngs Moduli (GPa) = 44.01821 53.51656 68.33016
#
# Poissons Ratio (x) = 0.25746 -0.07680
# Poissons Ratio (y) = 0.21176 0.32023
# Poissons Ratio (z) = -0.04947 0.25081
#
# Static dielectric constant tensor:
#      x y z
#    x 3.648240 0.000000 0.010890 
#    y 0.000000 4.024540 0.000000 
#    z 0.010890 0.000000 3.955940 
# 
# 
# High freq. dielectric constant tensor:
#      x y z
#    x 1.821290 0.000000 0.003770 
#    y 0.000000 1.862520 0.000000 
#    z 0.003770 0.000000 1.846910 
# 
# From -- ./inp_files/59518.got.cif
#   From: 2010.06.25/outbox.cif.g09.slc.cpg/sg11_30_cif.got.tgz:59518.got - 2010.06.27 23:14:04.
