data_PCOD8076743
_publ_section_title
;
Structure prediction by ZEFSAII (Michael W. Deem and Ramdas Pophale) SiO2 
 PCOD8076743
Probable space group: P 21/M
;
_chemical_formula_sum "Si O2"
_cell_formula_units_Z 32
_cell_length_a 16.055746
_cell_length_b 18.300790
_cell_length_c 12.026204
_cell_angle_alpha 90.000000
_cell_angle_beta 26.838240
_cell_angle_gamma 90.000000
_cell_volume 1595.367843
_symmetry_space_group_name_H-M "P 21/M"
_symmetry_group_IT_number 11
_symmetry_cell_setting 'monoclinic'
loop_
_space_group_symop_operation_xyz
x,y,z
-x,1/2+y,-z
-x,-y,-z
x,1/2-y,z
loop_
_atom_site_type_symbol
_atom_site_label
_atom_site_fract_x
_atom_site_fract_y
_atom_site_fract_z
Si Si1 0.058493 0.165772 0.643979
Si Si2 0.916115 0.560982 0.738800
Si Si3 0.475648 0.333889 0.088474
Si Si4 0.816534 0.412466 0.767125
Si Si5 0.876461 0.093654 0.068050
Si Si6 0.396619 0.166788 0.939630
Si Si7 0.498897 0.835015 0.428359
Si Si8 0.146978 0.074096 0.937634
O O1 0.038794 0.250000 0.702452
O O2 0.268310 0.144688 0.367114
O O3 0.938046 0.151505 0.677273
O O4 0.992329 0.113405 0.821231
O O5 0.818372 0.482035 0.846544
O O6 0.108550 0.563369 0.443361
O O7 0.786722 0.619820 0.835106
O O8 0.950512 0.579534 0.826251
O O9 0.517041 0.250000 0.069342
O O10 0.607966 0.385278 0.002737
O O11 0.514437 0.347844 0.910885
O O12 0.695185 0.143551 0.287054
O O13 0.812995 0.009459 0.143461
O O14 0.005942 0.110738 0.019386
O O15 0.328005 0.250000 0.019946
O O16 0.512647 0.148398 0.690333
O O17 0.538291 0.750000 0.405245
O O18 0.661313 0.881660 0.291921
#
# Coordination Sequence:
#
# PCOD8076743 Si02
#       8
#     4   4   4   4   4   4   4   4
#     4  11  23  42  63  90 131 164 206 260 305 368
#     4  10  21  40  62  93 124 160 205 256 312 370
#     4  10  22  39  61  92 124 164 205 249 313 372
#     4  11  22  38  62  93 125 160 209 250 314 373
#     4  11  23  42  66  90 124 172 214 252 312 378
#     4   9  19  38  59  88 125 156 198 256 311 362
#     4  10  22  40  64  93 124 162 208 261 315 370
#     4  10  23  43  63  93 126 164 210 264 312 367
#
# _framework density 20.058069
#
# number of rings (size 3 to 8) (size 9 to 14) (size 15 to 20)
#    0.000    1.750    2.500    1.125    1.750    3.000 
#    9.000    1.250    0.000    0.000    0.000    0.000 
#    0.000    0.000    0.000    0.000    0.000    0.000 
#
# Total GULP energy -396883.182366 kJ/mol
# GULP energy per Si atom -12402.599449 kJ/mol
# Density = 2.001242 g / cm^3
# Si number density = 20.058069 Si / 1000 Ang^3
#
#
#
# Elastic Constant Matrix: (Units=GPa)
#
#
# Indices 1 2 3 4 5 6 
#
# 1 114.7987 41.9130 55.9845 0.0000 -13.4174 0.0000
# 2 41.9130 82.7742 38.6191 0.0000 -15.2255 0.0000
# 3 55.9845 38.6191 95.6460 0.0000 -13.8412 0.0000
# 4 0.0000 0.0000 0.0000 27.1968 0.0000 -1.3714
# 5 -13.4174 -15.2255 -13.8412 0.0000 29.8717 0.0000
# 6 0.0000 0.0000 0.0000 -1.3714 0.0000 28.9430
#
#
#
# Elastic Compliance Matrix: (Units=1/GPa)
#
#
# Indices 1 2 3 4 5 6 
#
# 1 0.013117 -0.003589 -0.006046 0.000000 0.001261 0.000000
# 2 -0.003589 0.016644 -0.003886 0.000000 0.005071 0.000000
# 3 -0.006046 -0.003886 0.015953 0.000000 0.002696 0.000000
# 4 0.000000 0.000000 0.000000 0.036857 0.000000 0.001746
# 5 0.001261 0.005071 0.002696 0.000000 0.037877 0.000000
# 6 0.000000 0.000000 0.000000 0.001746 0.000000 0.034633
#
#
# Mechanical properties :
#
#
# Convention : Reuss Voigt Hill
#
# Bulk Modulus (GPa) = 53.55501 62.91689 58.23595
# Shear Modulus (GPa) = 26.54656 27.64911 27.09784
#
# Velocity S-wave (km/s) = 3.64192 3.71678 3.67954
# Velocity P-wave (km/s) = 6.66654 7.06079 6.86649
#
# Compressibility (1/GPa) = 0.01867239
#
# Stress axis : x y z
#
# Youngs Moduli (GPa) = 76.23535 60.08144 62.68268
#
# Poissons Ratio (x) = 0.21564 0.37900
# Poissons Ratio (y) = 0.27361 0.24357
# Poissons Ratio (z) = 0.46094 0.23346
#
# Static dielectric constant tensor:
#      x y z
#    x 3.676250 0.000000 0.125240 
#    y 0.000000 3.676400 0.000000 
#    z 0.125240 0.000000 3.423570 
# 
# 
# High freq. dielectric constant tensor:
#      x y z
#    x 1.785950 0.000000 0.008840 
#    y 0.000000 1.789430 0.000000 
#    z 0.008840 0.000000 1.772730 
# 
# From -- ./inp_files/39957.got.cif
#   From: 2010.06.25/outbox.cif.g09.slc.cpg/sg11_20_cif.got.tgz:39957.got - 2010.06.27 23:14:04.
