data_PCOD8076477
_publ_section_title
;
Structure prediction by ZEFSAII (Michael W. Deem and Ramdas Pophale) SiO2 
 PCOD8076477
Probable space group: P 21/M
;
_chemical_formula_sum "Si O2"
_cell_formula_units_Z 32
_cell_length_a 15.269866
_cell_length_b 19.122804
_cell_length_c 14.292752
_cell_angle_alpha 90.000000
_cell_angle_beta 160.259080
_cell_angle_gamma 90.000000
_cell_volume 1409.680183
_symmetry_space_group_name_H-M "P 21/M"
_symmetry_group_IT_number 11
_symmetry_cell_setting 'monoclinic'
loop_
_space_group_symop_operation_xyz
x,y,z
-x,1/2+y,-z
-x,-y,-z
x,1/2-y,z
loop_
_atom_site_type_symbol
_atom_site_label
_atom_site_fract_x
_atom_site_fract_y
_atom_site_fract_z
Si Si1 0.345096 0.978474 0.596874
Si Si2 0.256717 0.527360 0.306276
Si Si3 0.030803 0.170673 0.179066
Si Si4 0.123103 0.170038 0.672821
Si Si5 0.147042 0.111357 0.892203
Si Si6 0.945874 0.329897 0.882158
Si Si7 0.456448 0.876270 0.202375
Si Si8 0.380896 0.669915 0.924380
O O1 0.269381 0.008630 0.419154
O O2 0.075433 0.944982 0.361381
O O3 0.460633 0.048508 0.759620
O O4 0.568398 0.920894 0.819561
O O5 0.500000 0.500000 0.500000
O O6 0.280791 0.611868 0.341666
O O7 0.000000 0.500000 0.000000
O O8 0.938198 0.250000 0.104082
O O9 0.298853 0.158627 0.501596
O O10 0.090582 0.160754 0.127742
O O11 0.793267 0.121540 0.978093
O O12 0.117530 0.250000 0.635147
O O13 0.139101 0.167442 0.801274
O O14 0.869201 0.132611 0.373853
O O15 0.368573 0.132526 0.870101
O O16 0.113932 0.148967 0.959755
O O17 0.841842 0.250000 0.765960
O O18 0.372877 0.832128 0.028307
O O19 0.382861 0.750000 0.893458
#
# Coordination Sequence:
#
# PCOD8076477 Si02
#       8
#     4   4   4   4   4   4   4   4
#     4  11  24  39  60  88 121 166 213 248 301 378
#     4  11  21  39  61  85 121 169 213 256 304 367
#     4  11  23  38  61  92 125 160 201 250 312 373
#     4  10  21  40  65  91 118 155 202 255 316 375
#     4  11  23  43  62  88 125 162 205 262 310 362
#     4  10  23  41  64  96 128 165 214 265 315 372
#     4  12  23  42  62  89 127 165 200 254 306 364
#     4  10  21  38  63  91 117 152 202 252 310 375
#
# _framework density 22.700182999999999
#
# number of rings (size 3 to 8) (size 9 to 14) (size 15 to 20)
#    0.000    1.250    0.000    6.750    0.000    3.000 
#    0.000   16.250    0.000    0.000    0.000    0.000 
#    0.000    0.000    0.000    0.000    0.000    0.000 
#
# Total GULP energy -396483.578559 kJ/mol
# GULP energy per Si atom -12390.111830 kJ/mol
# Density = 2.264852 g / cm^3
# Si number density = 22.700183 Si / 1000 Ang^3
#
#
#
# Elastic Constant Matrix: (Units=GPa)
#
#
# Indices 1 2 3 4 5 6 
#
# 1 119.5781 0.9471 47.9935 0.0000 -11.8228 0.0000
# 2 0.9471 56.0570 7.0990 0.0000 -1.9791 0.0000
# 3 47.9935 7.0990 163.5089 0.0000 0.2043 0.0000
# 4 0.0000 0.0000 0.0000 23.0443 0.0000 -0.8967
# 5 -11.8228 -1.9791 0.2043 0.0000 31.1305 0.0000
# 6 0.0000 0.0000 0.0000 -0.8967 0.0000 25.7361
#
#
#
# Elastic Compliance Matrix: (Units=1/GPa)
#
#
# Indices 1 2 3 4 5 6 
#
# 1 0.009912 0.000338 -0.002929 0.000000 0.003805 0.000000
# 2 0.000338 0.017990 -0.000882 0.000000 0.001278 0.000000
# 3 -0.002929 -0.000882 0.007015 0.000000 -0.001214 0.000000
# 4 0.000000 0.000000 0.000000 0.043454 0.000000 0.001514
# 5 0.003805 0.001278 -0.001214 0.000000 0.033657 0.000000
# 6 0.000000 0.000000 0.000000 0.001514 0.000000 0.038909
#
#
# Mechanical properties :
#
#
# Convention : Reuss Voigt Hill
#
# Bulk Modulus (GPa) = 35.75060 50.13592 42.94326
# Shear Modulus (GPa) = 29.90326 34.85581 32.37954
#
# Velocity S-wave (km/s) = 3.63342 3.92278 3.78087
# Velocity P-wave (km/s) = 5.77802 6.53082 6.16592
#
# Compressibility (1/GPa) = 0.02797156
#
# Stress axis : x y z
#
# Youngs Moduli (GPa) = 100.89055 55.58629 142.54512
#
# Poissons Ratio (x) = -0.01877 0.41748
# Poissons Ratio (y) = -0.03408 0.12570
# Poissons Ratio (z) = 0.29548 0.04902
#
# Static dielectric constant tensor:
#      x y z
#    x 4.046170 0.000000 -0.013600 
#    y 0.000000 4.163170 0.000000 
#    z -0.013600 0.000000 4.217350 
# 
# 
# High freq. dielectric constant tensor:
#      x y z
#    x 1.894300 0.000000 -0.004250 
#    y 0.000000 1.882950 0.000000 
#    z -0.004250 0.000000 1.904290 
# 
# From -- ./inp_files/52711.got.cif
#   From: 2010.06.25/outbox.cif.g09.slc.cpg/sg11_27_cif.got.tgz:52711.got - 2010.06.27 23:14:04.
