data_PCOD8076159
_publ_section_title
;
Structure prediction by ZEFSAII (Michael W. Deem and Ramdas Pophale) SiO2 
 PCOD8076159
Probable space group: P 21/M
;
_chemical_formula_sum "Si O2"
_cell_formula_units_Z 32
_cell_length_a 23.760550
_cell_length_b 8.836737
_cell_length_c 14.135567
_cell_angle_alpha 90.000000
_cell_angle_beta 33.261726
_cell_angle_gamma 90.000000
_cell_volume 1627.833839
_symmetry_space_group_name_H-M "P 21/M"
_symmetry_group_IT_number 11
_symmetry_cell_setting 'monoclinic'
loop_
_space_group_symop_operation_xyz
x,y,z
-x,1/2+y,-z
-x,-y,-z
x,1/2-y,z
loop_
_atom_site_type_symbol
_atom_site_label
_atom_site_fract_x
_atom_site_fract_y
_atom_site_fract_z
Si Si1 0.005870 0.073847 0.215276
Si Si2 0.796140 0.575312 0.185534
Si Si3 0.058466 0.928822 0.330387
Si Si4 0.608200 0.928198 0.324658
Si Si5 0.280872 0.428516 0.021187
Si Si6 0.818480 0.071487 0.353591
Si Si7 0.383878 0.574255 0.257227
Si Si8 0.594162 0.075288 0.991536
O O1 0.988529 0.250000 0.263860
O O2 0.918654 0.010912 0.267266
O O3 0.997461 0.977664 0.322397
O O4 0.116426 0.046501 0.014320
O O5 0.790793 0.750000 0.221925
O O6 0.689590 0.518995 0.289641
O O7 0.821652 0.481362 0.242029
O O8 0.058131 0.750000 0.341291
O O9 0.000000 0.000000 0.500000
O O10 0.173958 0.986969 0.162865
O O11 0.595664 0.750000 0.344568
O O12 0.646607 0.980276 0.167386
O O13 0.500000 0.000000 0.500000
O O14 0.259748 0.250000 0.047771
O O15 0.334660 0.472992 0.043094
O O16 0.819747 0.250000 0.352407
O O17 0.716884 0.012222 0.548936
O O18 0.406172 0.750000 0.247758
O O19 0.476810 0.475962 0.167377
O O20 0.367808 0.548343 0.168520
O O21 0.603537 0.250000 0.008378
#
# Coordination Sequence:
#
# PCOD8076159 Si02
#       8
#     4   4   4   4   4   4   4   4
#     4  10  21  42  65  87 122 161 200 255 312 362
#     4  10  21  40  61  86 122 159 200 253 311 364
#     4  12  26  43  66  96 127 164 208 254 307 373
#     4  10  23  41  62  89 124 165 205 254 311 368
#     4  11  23  43  66  92 126 164 204 255 316 371
#     4  10  22  37  61  90 117 156 203 251 307 365
#     4   9  20  39  57  84 121 158 199 249 305 362
#     4  10  21  37  60  88 119 159 204 248 302 363
#
# _framework density 19.658027000000001
#
# number of rings (size 3 to 8) (size 9 to 14) (size 15 to 20)
#    0.000    1.750    1.250    2.250    3.500    3.500 
#    0.000    0.000    0.000    0.000    0.000    0.000 
#    0.000    0.000    0.000    0.000    0.000    0.000 
#
# Total GULP energy -396949.630859 kJ/mol
# GULP energy per Si atom -12404.675964 kJ/mol
# Density = 1.961328 g / cm^3
# Si number density = 19.658027 Si / 1000 Ang^3
#
#
#
# Elastic Constant Matrix: (Units=GPa)
#
#
# Indices 1 2 3 4 5 6 
#
# 1 124.0444 40.1793 33.0291 0.0000 0.1033 0.0000
# 2 40.1793 70.4137 43.3636 0.0000 4.1113 0.0000
# 3 33.0291 43.3636 84.3930 0.0000 2.2764 0.0000
# 4 0.0000 0.0000 0.0000 24.1217 0.0000 0.7128
# 5 0.1033 4.1113 2.2764 0.0000 26.6221 0.0000
# 6 0.0000 0.0000 0.0000 0.7128 0.0000 38.4780
#
#
#
# Elastic Compliance Matrix: (Units=1/GPa)
#
#
# Indices 1 2 3 4 5 6 
#
# 1 0.010026 -0.004885 -0.001436 0.000000 0.000838 0.000000
# 2 -0.004885 0.023298 -0.009986 0.000000 -0.002725 0.000000
# 3 -0.001436 -0.009986 0.017541 0.000000 0.000048 0.000000
# 4 0.000000 0.000000 0.000000 0.041479 0.000000 -0.000768
# 5 0.000838 -0.002725 0.000048 0.000000 0.037976 0.000000
# 6 0.000000 0.000000 0.000000 -0.000768 0.000000 0.026003
#
#
# Mechanical properties :
#
#
# Convention : Reuss Voigt Hill
#
# Bulk Modulus (GPa) = 54.79328 56.88832 55.84080
# Shear Modulus (GPa) = 25.63814 28.66296 27.15055
#
# Velocity S-wave (km/s) = 3.61530 3.82262 3.72041
# Velocity P-wave (km/s) = 6.73505 6.96312 6.85004
#
# Compressibility (1/GPa) = 0.01825041
#
# Stress axis : x y z
#
# Youngs Moduli (GPa) = 99.74302 42.92167 57.00889
#
# Poissons Ratio (x) = 0.20969 0.08187
# Poissons Ratio (y) = 0.48728 0.56928
# Poissons Ratio (z) = 0.14325 0.42861
#
# Static dielectric constant tensor:
#      x y z
#    x 3.837600 0.000000 -0.156340 
#    y 0.000000 3.549540 0.000000 
#    z -0.156340 0.000000 3.644460 
# 
# 
# High freq. dielectric constant tensor:
#      x y z
#    x 1.780260 0.000000 -0.001780 
#    y 0.000000 1.759330 0.000000 
#    z -0.001780 0.000000 1.775880 
# 
# From -- ./inp_files/55617.got.cif
#   From: 2010.06.25/outbox.cif.g09.slc.cpg/sg11_28_cif.got.tgz:55617.got - 2010.06.27 23:14:04.
