data_PCOD8076606
_publ_section_title
;
Structure prediction by ZEFSAII (Michael W. Deem and Ramdas Pophale) SiO2 
 PCOD8076606
Probable space group: P 21/M
;
_chemical_formula_sum "Si O2"
_cell_formula_units_Z 32
_cell_length_a 11.962408
_cell_length_b 8.660457
_cell_length_c 15.149814
_cell_angle_alpha 90.000000
_cell_angle_beta 92.143468
_cell_angle_gamma 90.000000
_cell_volume 1568.421337
_symmetry_space_group_name_H-M "P 21/M"
_symmetry_group_IT_number 11
_symmetry_cell_setting 'monoclinic'
loop_
_space_group_symop_operation_xyz
x,y,z
-x,1/2+y,-z
-x,-y,-z
x,1/2-y,z
loop_
_atom_site_type_symbol
_atom_site_label
_atom_site_fract_x
_atom_site_fract_y
_atom_site_fract_z
Si Si1 0.328106 0.433285 0.884152
Si Si2 0.826795 0.570302 0.537388
Si Si3 0.903822 0.571064 0.196678
Si Si4 0.475651 0.567832 0.229597
Si Si5 0.319774 0.067637 0.080598
Si Si6 0.939546 0.073808 0.374166
Si Si7 0.414823 0.934929 0.424242
Si Si8 0.931052 0.570346 0.919588
O O1 0.326689 0.250000 0.877605
O O2 0.204238 0.494224 0.858422
O O3 0.412123 0.501510 0.812584
O O4 0.365303 0.482349 0.984540
O O5 0.811257 0.750000 0.510887
O O6 0.867671 0.469062 0.457087
O O7 0.709547 0.503458 0.568675
O O8 0.926212 0.552457 0.611963
O O9 0.921680 0.750000 0.176766
O O10 0.891583 0.541878 0.299757
O O11 0.012357 0.475524 0.170647
O O12 0.482095 0.750000 0.232597
O O13 0.376389 0.519214 0.162727
O O14 0.459041 0.508078 0.329295
O O15 0.332213 0.250000 0.095271
O O16 0.193748 0.007204 0.082186
O O17 0.912536 0.250000 0.348482
O O18 0.410268 0.750000 0.430859
O O19 0.500000 0.000000 0.500000
O O20 0.928227 0.750000 0.933540
O O21 0.000000 0.500000 0.000000
#
# Coordination Sequence:
#
# PCOD8076606 Si02
#       8
#     4   4   4   4   4   4   4   4
#     4   9  19  39  61  86 122 161 202 250 303 359
#     4  10  22  42  66  89 122 164 201 250 316 373
#     4  11  22  37  61  89 123 166 204 246 306 370
#     4  10  23  41  63  90 119 157 206 253 305 366
#     4  10  21  39  62  87 121 161 202 253 309 362
#     4  10  22  40  63  95 126 156 202 256 306 370
#     4  11  25  43  64  92 125 162 208 262 314 375
#     4  11  22  38  58  86 123 161 203 251 305 365
#
# _framework density 20.402678999999999
#
# number of rings (size 3 to 8) (size 9 to 14) (size 15 to 20)
#    0.000    1.750    1.250    2.250    3.500    3.500 
#    0.000    1.250    0.000    0.000    0.000    0.000 
#    0.000    0.000    0.000    0.000    0.000    0.000 
#
# Total GULP energy -396710.080158 kJ/mol
# GULP energy per Si atom -12397.190005 kJ/mol
# Density = 2.035624 g / cm^3
# Si number density = 20.402679 Si / 1000 Ang^3
#
#
#
# Elastic Constant Matrix: (Units=GPa)
#
#
# Indices 1 2 3 4 5 6 
#
# 1 124.6654 31.5276 61.1447 0.0000 -16.9159 0.0000
# 2 31.5276 35.3243 17.4542 0.0000 -1.3710 0.0000
# 3 61.1447 17.4542 138.2264 0.0000 -1.8564 0.0000
# 4 0.0000 0.0000 0.0000 33.4381 0.0000 1.0309
# 5 -16.9159 -1.3710 -1.8564 0.0000 32.1026 0.0000
# 6 0.0000 0.0000 0.0000 1.0309 0.0000 31.2736
#
#
#
# Elastic Compliance Matrix: (Units=1/GPa)
#
#
# Indices 1 2 3 4 5 6 
#
# 1 0.013657 -0.009593 -0.004743 0.000000 0.006513 0.000000
# 2 -0.009593 0.036968 -0.000472 0.000000 -0.003504 0.000000
# 3 -0.004743 -0.000472 0.009365 0.000000 -0.001978 0.000000
# 4 0.000000 0.000000 0.000000 0.029936 0.000000 -0.000987
# 5 0.006513 -0.003504 -0.001978 0.000000 0.034318 0.000000
# 6 0.000000 0.000000 0.000000 -0.000987 0.000000 0.032008
#
#
# Mechanical properties :
#
#
# Convention : Reuss Voigt Hill
#
# Bulk Modulus (GPa) = 32.92036 57.60768 45.26402
# Shear Modulus (GPa) = 25.51099 31.90216 28.70657
#
# Velocity S-wave (km/s) = 3.53990 3.95856 3.75507
# Velocity P-wave (km/s) = 5.73395 7.01358 6.40580
#
# Compressibility (1/GPa) = 0.03037634
#
# Stress axis : x y z
#
# Youngs Moduli (GPa) = 73.22061 27.05015 106.77658
#
# Poissons Ratio (x) = 0.25950 0.50639
# Poissons Ratio (y) = 0.70243 0.05035
# Poissons Ratio (z) = 0.34725 0.01275
#
# Static dielectric constant tensor:
#      x y z
#    x 3.994610 0.000000 -0.189880 
#    y 0.000000 3.572560 0.000000 
#    z -0.189880 0.000000 3.915380 
# 
# 
# High freq. dielectric constant tensor:
#      x y z
#    x 1.807240 0.000000 -0.004630 
#    y 0.000000 1.785060 0.000000 
#    z -0.004630 0.000000 1.807300 
# 
# From -- ./inp_files/49331.got.cif
#   From: 2010.06.25/outbox.cif.g09.slc.cpg/sg11_25_cif.got.tgz:49331.got - 2010.06.27 23:14:04.
