data_PCOD8076206
_publ_section_title
;
Structure prediction by ZEFSAII (Michael W. Deem and Ramdas Pophale) SiO2 
 PCOD8076206
Probable space group: P 21/M
;
_chemical_formula_sum "Si O2"
_cell_formula_units_Z 28
_cell_length_a 20.470499
_cell_length_b 14.044985
_cell_length_c 9.096545
_cell_angle_alpha 90.000000
_cell_angle_beta 147.714095
_cell_angle_gamma 90.000000
_cell_volume 1396.962851
_symmetry_space_group_name_H-M "P 21/M"
_symmetry_group_IT_number 11
_symmetry_cell_setting 'monoclinic'
loop_
_space_group_symop_operation_xyz
x,y,z
-x,1/2+y,-z
-x,-y,-z
x,1/2-y,z
loop_
_atom_site_type_symbol
_atom_site_label
_atom_site_fract_x
_atom_site_fract_y
_atom_site_fract_z
Si Si1 0.603979 0.546380 0.102029
Si Si2 0.029439 0.360343 0.956909
Si Si3 0.690479 0.858184 0.539155
Si Si4 0.437607 0.973161 0.532421
Si Si5 0.171272 0.532940 0.610863
Si Si6 0.027365 0.141580 0.286640
Si Si7 0.218258 0.641035 0.999350
O O1 0.662732 0.630911 0.311106
O O2 0.708718 0.468376 0.263703
O O3 0.500000 0.500000 0.000000
O O4 0.539663 0.579273 0.828030
O O5 0.996478 0.250000 0.885657
O O6 0.939018 0.412731 0.675536
O O7 0.166817 0.380326 0.163406
O O8 0.010268 0.396081 0.087352
O O9 0.658812 0.750000 0.524543
O O10 0.610893 0.929482 0.485891
O O11 0.500000 0.000000 0.500000
O O12 0.330167 0.897730 0.307665
O O13 0.128714 0.423812 0.559476
O O14 0.204402 0.580162 0.826881
O O15 0.075741 0.250000 0.381256
O O16 0.900213 0.131036 0.126601
O O17 0.243139 0.750000 0.002782
#
# Coordination Sequence:
#
# PCOD8076206 Si02
#       7
#     4   4   4   4   4   4   4
#     4  10  23  39  62  91 121 161 215 257 305 373
#     4  10  21  37  62  96 124 157 210 259 316 381
#     4  10  22  42  66  94 126 160 208 265 318 376
#     4  11  23  44  63  90 126 169 216 259 309 375
#     4  12  21  39  65  90 126 169 199 260 322 371
#     4  10  22  38  61  93 124 160 208 260 316 376
#     4  11  25  42  61  90 128 166 211 260 312 376
#
# _framework density 20.043483999999999
#
# number of rings (size 3 to 8) (size 9 to 14) (size 15 to 20)
#    0.000    1.429    2.857    2.143    4.000    1.143 
#    0.000    2.857    0.000    0.000    0.000    0.000 
#    0.000    0.000    0.000    0.000    0.000    0.000 
#
# Total GULP energy -347210.917302 kJ/mol
# GULP energy per Si atom -12400.389904 kJ/mol
# Density = 1.999786 g / cm^3
# Si number density = 20.043484 Si / 1000 Ang^3
#
#
#
# Elastic Constant Matrix: (Units=GPa)
#
#
# Indices 1 2 3 4 5 6 
#
# 1 100.5995 34.5093 35.6248 0.0000 0.9268 0.0000
# 2 34.5093 80.8293 53.2130 0.0000 -1.1421 0.0000
# 3 35.6248 53.2130 136.9728 0.0000 -2.3808 0.0000
# 4 0.0000 0.0000 0.0000 18.1236 0.0000 -3.3296
# 5 0.9268 -1.1421 -2.3808 0.0000 31.8182 0.0000
# 6 0.0000 0.0000 0.0000 -3.3296 0.0000 32.0168
#
#
#
# Elastic Compliance Matrix: (Units=1/GPa)
#
#
# Indices 1 2 3 4 5 6 
#
# 1 0.011884 -0.004085 -0.001514 0.000000 -0.000606 0.000000
# 2 -0.004085 0.018028 -0.005936 0.000000 0.000322 0.000000
# 3 -0.001514 -0.005936 0.010011 0.000000 0.000580 0.000000
# 4 0.000000 0.000000 0.000000 0.056251 0.000000 0.005850
# 5 -0.000606 0.000322 0.000580 0.000000 0.031501 0.000000
# 6 0.000000 0.000000 0.000000 0.005850 0.000000 0.031842
#
#
# Mechanical properties :
#
#
# Convention : Reuss Voigt Hill
#
# Bulk Modulus (GPa) = 59.34013 62.78842 61.06427
# Shear Modulus (GPa) = 26.56683 29.39535 27.98109
#
# Velocity S-wave (km/s) = 3.64464 3.83375 3.74039
# Velocity P-wave (km/s) = 6.88340 7.14079 7.01328
#
# Compressibility (1/GPa) = 0.01685200
#
# Stress axis : x y z
#
# Youngs Moduli (GPa) = 84.14943 55.46873 99.89414
#
# Poissons Ratio (x) = 0.22661 0.15126
# Poissons Ratio (y) = 0.34378 0.59294
# Poissons Ratio (z) = 0.12742 0.32925
#
# Static dielectric constant tensor:
#      x y z
#    x 3.762550 0.000000 -0.264950 
#    y 0.000000 3.797400 0.000000 
#    z -0.264950 0.000000 5.203350 
# 
# 
# High freq. dielectric constant tensor:
#      x y z
#    x 1.792280 0.000000 0.005900 
#    y 0.000000 1.776200 0.000000 
#    z 0.005900 0.000000 1.792880 
# 
# From -- ./inp_files/22092.got.cif
#   From: 2010.06.25/outbox.cif.g09.slc.cpg/sg11_12_cif.got.tgz:22092.got - 2010.06.27 23:14:04.
