data_PCOD8076004
_publ_section_title
;
Structure prediction by ZEFSAII (Michael W. Deem and Ramdas Pophale) SiO2 
 PCOD8076004
Probable space group: P 21/M
;
_chemical_formula_sum "Si O2"
_cell_formula_units_Z 28
_cell_length_a 15.339726
_cell_length_b 16.745705
_cell_length_c 5.111208
_cell_angle_alpha 90.000000
_cell_angle_beta 80.395954
_cell_angle_gamma 90.000000
_cell_volume 1294.537318
_symmetry_space_group_name_H-M "P 21/M"
_symmetry_group_IT_number 11
_symmetry_cell_setting 'monoclinic'
loop_
_space_group_symop_operation_xyz
x,y,z
-x,1/2+y,-z
-x,-y,-z
x,1/2-y,z
loop_
_atom_site_type_symbol
_atom_site_label
_atom_site_fract_x
_atom_site_fract_y
_atom_site_fract_z
Si Si1 0.502934 0.663483 0.279862
Si Si2 0.350751 0.958225 0.369523
Si Si3 0.977514 0.603614 0.723484
Si Si4 0.785628 0.841299 0.879127
Si Si5 0.063486 0.921975 0.179251
Si Si6 0.606612 0.626485 0.713875
Si Si7 0.754405 0.487287 0.085058
O O1 0.472184 0.750000 0.196941
O O2 0.414045 0.615838 0.383157
O O3 0.558763 0.678693 0.517803
O O4 0.561880 0.626259 0.021137
O O5 0.269199 0.955206 0.614537
O O6 0.404100 0.038726 0.405229
O O7 0.321904 0.965988 0.082609
O O8 0.979659 0.508286 0.757274
O O9 0.045910 0.626401 0.457405
O O10 0.882130 0.642696 0.705013
O O11 0.015692 0.632902 0.982429
O O12 0.782228 0.750000 0.000662
O O13 0.771096 0.915857 0.089419
O O14 0.709313 0.846993 0.695519
O O15 0.164736 0.934335 0.055018
#
# Coordination Sequence:
#
# PCOD8076004 Si02
#       7
#     4   4   4   4   4   4   4
#     4  12  24  40  61  85 114 151 194 240 292 341
#     4  11  22  39  61  87 115 149 196 240 284 342
#     4   9  18  31  53  78 108 142 177 223 268 323
#     4  10  21  37  56  85 121 153 190 236 290 347
#     4   9  17  33  54  80 104 137 186 225 266 324
#     4  11  23  39  59  84 118 155 189 233 287 351
#     4  10  21  37  62  86 113 154 194 238 287 340
#
# _framework density 21.629346999999999
#
# number of rings (size 3 to 8) (size 9 to 14) (size 15 to 20)
#    0.000    1.714    0.000    5.571    0.000    8.000 
#    0.000    8.571    0.000    5.143    0.000    0.000 
#    0.000    0.000    0.000    0.000    0.000    0.000 
#
# Total GULP energy -346903.649109 kJ/mol
# GULP energy per Si atom -12389.416040 kJ/mol
# Density = 2.158012 g / cm^3
# Si number density = 21.629347 Si / 1000 Ang^3
#
#
#
# Elastic Constant Matrix: (Units=GPa)
#
#
# Indices 1 2 3 4 5 6 
#
# 1 94.4238 53.0855 43.1415 0.0000 -14.2017 0.0000
# 2 53.0855 67.2116 22.8397 0.0000 -16.8018 0.0000
# 3 43.1415 22.8397 137.0718 0.0000 -9.9178 0.0000
# 4 0.0000 0.0000 0.0000 3.5528 0.0000 13.9778
# 5 -14.2017 -16.8018 -9.9178 0.0000 32.1583 0.0000
# 6 0.0000 0.0000 0.0000 13.9778 0.0000 -19.1834
#
#
#
# Elastic Compliance Matrix: (Units=1/GPa)
#
#
# Indices 1 2 3 4 5 6 
#
# 1 0.020999 -0.015179 -0.004074 0.000000 0.000086 0.000000
# 2 -0.015179 0.028796 0.000596 0.000000 0.008526 0.000000
# 3 -0.004074 0.000596 0.008562 0.000000 0.001153 0.000000
# 4 0.000000 0.000000 0.000000 0.072793 0.000000 0.053040
# 5 0.000086 0.008526 0.001153 0.000000 0.035944 0.000000
# 6 0.000000 0.000000 0.000000 0.053040 0.000000 -0.013481
#
#
# Mechanical properties :
#
#
# Convention : Reuss Voigt Hill
#
# Bulk Modulus (GPa) = 47.52199 59.64898 53.58549
# Shear Modulus (GPa) = 25.26011 15.28155 20.27083
#
# Velocity S-wave (km/s) = 3.42111 2.66093 3.06468
# Velocity P-wave (km/s) = 6.13385 6.08920 6.11156
#
# Compressibility (1/GPa) = 0.02104289
#
# Stress axis : x y z
#
# Youngs Moduli (GPa) = 47.62209 34.72680 116.80039
#
# Poissons Ratio (x) = 0.52714 0.47579
# Poissons Ratio (y) = 0.72288 -0.06964
# Poissons Ratio (z) = 0.19399 -0.02070
#
# Static dielectric constant tensor:
#      x y z
#    x 3.795100 0.000000 0.069250 
#    y 0.000000 3.844340 0.000000 
#    z 0.069250 0.000000 4.035870 
# 
# 
# High freq. dielectric constant tensor:
#      x y z
#    x 1.844160 0.000000 -0.000330 
#    y 0.000000 1.816120 0.000000 
#    z -0.000330 0.000000 1.854700 
# 
# From -- ./inp_files/6651.got.cif
#   From: 2010.06.25/outbox.cif.g09.slc.cpg/sg11_4_cif.got.tgz:6651.got - 2010.06.27 23:14:04.
