data_PCOD8076210
_publ_section_title
;
Structure prediction by ZEFSAII (Michael W. Deem and Ramdas Pophale) SiO2 
 PCOD8076210
Probable space group: P 21/M
;
_chemical_formula_sum "Si O2"
_cell_formula_units_Z 32
_cell_length_a 12.045863
_cell_length_b 14.501477
_cell_length_c 18.729464
_cell_angle_alpha 90.000000
_cell_angle_beta 26.619604
_cell_angle_gamma 90.000000
_cell_volume 1465.941123
_symmetry_space_group_name_H-M "P 21/M"
_symmetry_group_IT_number 11
_symmetry_cell_setting 'monoclinic'
loop_
_space_group_symop_operation_xyz
x,y,z
-x,1/2+y,-z
-x,-y,-z
x,1/2-y,z
loop_
_atom_site_type_symbol
_atom_site_label
_atom_site_fract_x
_atom_site_fract_y
_atom_site_fract_z
Si Si1 0.052747 0.102916 0.948312
Si Si2 0.023089 0.957817 0.159568
Si Si3 0.321632 0.354812 0.543452
Si Si4 0.486567 0.851379 0.719816
Si Si5 0.556588 0.146884 0.736418
Si Si6 0.569766 0.967105 0.809013
Si Si7 0.002608 0.854729 0.623999
Si Si8 0.155257 0.646715 0.698190
O O1 0.292627 0.142014 0.848884
O O2 0.088399 0.101750 0.841910
O O3 0.811080 0.160233 0.110338
O O4 0.000000 0.000000 0.000000
O O5 0.899649 0.920659 0.303208
O O6 0.316961 0.941742 0.994911
O O7 0.974251 0.068075 0.178762
O O8 0.224724 0.250000 0.596077
O O9 0.412807 0.388802 0.413486
O O10 0.549330 0.364283 0.467274
O O11 0.597737 0.750000 0.671522
O O12 0.581515 0.921715 0.724206
O O13 0.590042 0.250000 0.747974
O O14 0.764543 0.123159 0.559182
O O15 0.584213 0.077181 0.787319
O O16 0.790281 0.929351 0.730371
O O17 0.906480 0.750000 0.666490
O O18 0.080120 0.868918 0.660383
O O19 0.077786 0.750000 0.769608
#
# Coordination Sequence:
#
# PCOD8076210 Si02
#       8
#     4   4   4   4   4   4   4   4
#     4  11  20  38  60  96 131 159 206 258 324 382
#     4  11  23  37  64  94 129 166 207 259 324 382
#     4  10  22  38  61  95 129 166 211 257 319 385
#     4  10  21  37  63  93 130 170 204 259 324 380
#     4  11  23  40  65  95 127 164 213 266 314 375
#     4  11  24  41  65  94 129 167 216 265 321 372
#     4  10  23  43  65  90 121 169 224 268 315 372
#     4  10  22  39  63  91 125 170 214 259 313 378
#
# _framework density 21.828980000000001
#
# number of rings (size 3 to 8) (size 9 to 14) (size 15 to 20)
#    0.000    1.500    2.500    3.000    1.750    5.000 
#    0.000    0.000    0.000    0.000    0.000    0.000 
#    0.000    0.000    0.000    0.000    0.000    0.000 
#
# Total GULP energy -396824.725411 kJ/mol
# GULP energy per Si atom -12400.772669 kJ/mol
# Density = 2.177930 g / cm^3
# Si number density = 21.828980 Si / 1000 Ang^3
#
#
#
# Elastic Constant Matrix: (Units=GPa)
#
#
# Indices 1 2 3 4 5 6 
#
# 1 73.1862 35.9477 42.8298 0.0000 -0.4049 0.0000
# 2 35.9477 110.8516 44.2232 0.0000 5.0205 0.0000
# 3 42.8298 44.2232 115.9814 0.0000 13.2295 0.0000
# 4 0.0000 0.0000 0.0000 20.1937 0.0000 -8.1298
# 5 -0.4049 5.0205 13.2295 0.0000 26.2086 0.0000
# 6 0.0000 0.0000 0.0000 -8.1298 0.0000 23.5265
#
#
#
# Elastic Compliance Matrix: (Units=1/GPa)
#
#
# Indices 1 2 3 4 5 6 
#
# 1 0.019177 -0.004002 -0.006024 0.000000 0.004104 0.000000
# 2 -0.004002 0.011474 -0.002801 0.000000 -0.000846 0.000000
# 3 -0.006024 -0.002801 0.012589 0.000000 -0.005911 0.000000
# 4 0.000000 0.000000 0.000000 0.057523 0.000000 0.019878
# 5 0.004104 -0.000846 -0.005911 0.000000 0.041365 0.000000
# 6 0.000000 0.000000 0.000000 0.019878 0.000000 0.049374
#
#
# Mechanical properties :
#
#
# Convention : Reuss Voigt Hill
#
# Bulk Modulus (GPa) = 56.85877 60.66894 58.76386
# Shear Modulus (GPa) = 22.41966 25.78698 24.10332
#
# Velocity S-wave (km/s) = 3.20825 3.44076 3.32654
# Velocity P-wave (km/s) = 6.31093 6.60593 6.46011
#
# Compressibility (1/GPa) = 0.01758744
#
# Stress axis : x y z
#
# Youngs Moduli (GPa) = 52.14466 87.15008 79.43480
#
# Poissons Ratio (x) = 0.34874 0.47853
# Poissons Ratio (y) = 0.20866 0.22249
# Poissons Ratio (z) = 0.31413 0.24410
#
# Static dielectric constant tensor:
#      x y z
#    x 3.404600 0.000000 0.279010 
#    y 0.000000 4.502370 0.000000 
#    z 0.279010 0.000000 3.772080 
# 
# 
# High freq. dielectric constant tensor:
#      x y z
#    x 1.837960 0.000000 0.004740 
#    y 0.000000 1.871020 0.000000 
#    z 0.004740 0.000000 1.856470 
# 
# From -- ./inp_files/59448.got.cif
#   From: 2010.06.25/outbox.cif.g09.slc.cpg/sg11_30_cif.got.tgz:59448.got - 2010.06.27 23:14:04.
