data_PCOD8076295
_publ_section_title
;
Structure prediction by ZEFSAII (Michael W. Deem and Ramdas Pophale) SiO2 
 PCOD8076295
Probable space group: P 21/M
;
_chemical_formula_sum "Si O2"
_cell_formula_units_Z 26
_cell_length_a 11.567925
_cell_length_b 16.567247
_cell_length_c 11.567966
_cell_angle_alpha 90.000000
_cell_angle_beta 39.352888
_cell_angle_gamma 90.000000
_cell_volume 1405.779101
_symmetry_space_group_name_H-M "P 21/M"
_symmetry_group_IT_number 11
_symmetry_cell_setting 'monoclinic'
loop_
_space_group_symop_operation_xyz
x,y,z
-x,1/2+y,-z
-x,-y,-z
x,1/2-y,z
loop_
_atom_site_type_symbol
_atom_site_label
_atom_site_fract_x
_atom_site_fract_y
_atom_site_fract_z
Si Si1 0.144535 0.405895 0.751961
Si Si2 0.805739 0.750000 0.426584
Si Si3 0.266045 0.250000 0.266113
Si Si4 0.751934 0.405897 0.144537
Si Si5 0.148532 0.160476 0.148549
Si Si6 0.573384 0.250000 0.194276
Si Si7 0.389722 0.078035 0.774734
Si Si8 0.774712 0.078029 0.389715
O O1 0.112800 0.329070 0.695755
O O2 0.287366 0.385220 0.742513
O O3 0.214725 0.480925 0.622444
O O4 0.956463 0.431815 0.956481
O O5 0.860119 0.750000 0.520771
O O6 0.585285 0.750000 0.585272
O O7 0.222733 0.170256 0.222818
O O8 0.479170 0.250000 0.139926
O O9 0.695728 0.329070 0.112803
O O10 0.622444 0.480931 0.214685
O O11 0.742442 0.385225 0.287402
O O12 0.117518 0.250000 0.117549
O O13 0.958323 0.113462 0.302026
O O14 0.302077 0.113480 0.958318
O O15 0.602924 0.102187 0.602915
#
# Coordination Sequence:
#
# PCOD8076295 Si02
#       8
#     4   2   2   4   4   2   4   4
#     4  11  20  36  60  94 132 153 193 247 310 366
#     4  10  21  38  59  83 118 165 203 237 301 354
#     4   8  24  44  60  76 128 160 206 266 282 340
#     4  11  20  36  60  94 132 153 193 247 310 366
#     4  10  22  43  63  83 125 156 203 255 299 351
#     4  10  21  38  59  83 118 165 203 237 301 354
#     4  11  21  37  62  97 125 155 193 250 310 363
#     4  11  21  37  62  97 125 155 193 250 310 363
#
# _framework density 18.495082
#
# number of rings (size 3 to 8) (size 9 to 14) (size 15 to 20)
#    0.923    0.615    3.077    5.077    2.154    0.615 
#    0.000    4.615    0.000    0.000    0.000    0.000 
#    0.000    0.000    0.000    0.000    0.000    0.000 
#
# Total GULP energy -322340.146824 kJ/mol
# GULP energy per Si atom -12397.697955 kJ/mol
# Density = 1.845299 g / cm^3
# Si number density = 18.495082 Si / 1000 Ang^3
#
#
#
# Elastic Constant Matrix: (Units=GPa)
#
#
# Indices 1 2 3 4 5 6 
#
# 1 108.1006 58.7594 46.2023 0.0000 7.8009 0.0000
# 2 58.7594 78.8350 28.0735 0.0000 12.8795 0.0000
# 3 46.2023 28.0735 127.8534 0.0000 -16.0674 0.0000
# 4 0.0000 0.0000 0.0000 23.2854 0.0000 -5.3146
# 5 7.8009 12.8795 -16.0674 0.0000 31.6763 0.0000
# 6 0.0000 0.0000 0.0000 -5.3146 0.0000 10.6200
#
#
#
# Elastic Compliance Matrix: (Units=1/GPa)
#
#
# Indices 1 2 3 4 5 6 
#
# 1 0.017060 -0.011022 -0.003962 0.000000 -0.001729 0.000000
# 2 -0.011022 0.022846 -0.001986 0.000000 -0.007582 0.000000
# 3 -0.003962 -0.001986 0.010588 0.000000 0.007154 0.000000
# 4 0.000000 0.000000 0.000000 0.048483 0.000000 0.024262
# 5 -0.001729 -0.007582 0.007154 0.000000 0.038707 0.000000
# 6 0.000000 0.000000 0.000000 0.024262 0.000000 0.106303
#
#
# Mechanical properties :
#
#
# Convention : Reuss Voigt Hill
#
# Bulk Modulus (GPa) = 60.41004 64.53993 62.47498
# Shear Modulus (GPa) = 17.63998 25.23327 21.43662
#
# Velocity S-wave (km/s) = 3.09166 3.69768 3.40817
# Velocity P-wave (km/s) = 6.74375 7.29397 7.02425
#
# Compressibility (1/GPa) = 0.01655354
#
# Stress axis : x y z
#
# Youngs Moduli (GPa) = 58.61621 43.77106 94.44249
#
# Poissons Ratio (x) = 0.48245 0.37419
# Poissons Ratio (y) = 0.64608 0.18759
# Poissons Ratio (z) = 0.23225 0.08694
#
# Static dielectric constant tensor:
#      x y z
#    x 3.122040 0.000000 -0.108000 
#    y 0.000000 3.277570 0.000000 
#    z -0.108000 0.000000 3.379660 
# 
# 
# High freq. dielectric constant tensor:
#      x y z
#    x 1.688630 0.000000 -0.014230 
#    y 0.000000 1.717340 0.000000 
#    z -0.014230 0.000000 1.722560 
# 
# From -- ./inp_files/35999.got.cif
#   From: 2010.06.25/outbox.cif.g09.slc.cpg/sg11_18_cif.got.tgz:35999.got - 2010.06.27 23:14:04.
