data_PCOD8076897
_publ_section_title
;
Structure prediction by ZEFSAII (Michael W. Deem and Ramdas Pophale) SiO2 
 PCOD8076897
Probable space group: P 21/M
;
_chemical_formula_sum "Si O2"
_cell_formula_units_Z 20
_cell_length_a 24.408550
_cell_length_b 9.222244
_cell_length_c 9.446019
_cell_angle_alpha 90.000000
_cell_angle_beta 151.304126
_cell_angle_gamma 90.000000
_cell_volume 1020.971646
_symmetry_space_group_name_H-M "P 21/M"
_symmetry_group_IT_number 11
_symmetry_cell_setting 'monoclinic'
loop_
_space_group_symop_operation_xyz
x,y,z
-x,1/2+y,-z
-x,-y,-z
x,1/2-y,z
loop_
_atom_site_type_symbol
_atom_site_label
_atom_site_fract_x
_atom_site_fract_y
_atom_site_fract_z
Si Si1 0.958363 0.587309 0.273525
Si Si2 0.704500 0.580837 0.633867
Si Si3 0.315554 0.083035 0.732017
Si Si4 0.907780 0.084649 0.701654
Si Si5 0.526104 0.079785 0.413009
O O1 0.942110 0.750000 0.289593
O O2 0.000000 0.500000 0.500000
O O3 0.056576 0.574786 0.380145
O O4 0.837129 0.533222 0.937437
O O5 0.686763 0.750000 0.629851
O O6 0.657775 0.545158 0.370972
O O7 0.640831 0.485199 0.606440
O O8 0.276384 0.250000 0.655742
O O9 0.216120 0.983744 0.566890
O O10 0.426236 0.049481 0.075011
O O11 0.904093 0.250000 0.746653
O O12 0.000000 0.000000 0.000000
O O13 0.542729 0.250000 0.479810
O O14 0.500000 0.000000 0.500000
#
# Coordination Sequence:
#
# PCOD8076897 Si02
#       5
#     4   4   4   4   4
#     4  10  23  40  60  89 125 162 199 248 302 354
#     4  10  21  42  65  87 121 159 201 252 303 356
#     4  10  22  42  65  89 121 160 203 252 303 355
#     4  11  22  39  63  93 125 159 201 247 299 361
#     4  11  25  42  63  91 122 159 202 251 307 362
#
# _framework density 19.589182999999998
#
# number of rings (size 3 to 8) (size 9 to 14) (size 15 to 20)
#    0.000    1.600    2.000    1.800    2.800    4.800 
#    0.000    0.000    0.000    0.000    0.000    0.000 
#    0.000    0.000    0.000    0.000    0.000    0.000 
#
# Total GULP energy -248073.656144 kJ/mol
# GULP energy per Si atom -12403.682807 kJ/mol
# Density = 1.954460 g / cm^3
# Si number density = 19.589183 Si / 1000 Ang^3
#
#
#
# Elastic Constant Matrix: (Units=GPa)
#
#
# Indices 1 2 3 4 5 6 
#
# 1 124.1892 63.3692 40.1256 0.0000 0.9735 0.0000
# 2 63.3692 99.9132 43.3251 0.0000 0.6638 0.0000
# 3 40.1256 43.3251 76.2438 0.0000 -12.7618 0.0000
# 4 0.0000 0.0000 0.0000 37.0167 0.0000 1.7325
# 5 0.9735 0.6638 -12.7618 0.0000 39.9847 0.0000
# 6 0.0000 0.0000 0.0000 1.7325 0.0000 41.2639
#
#
#
# Elastic Compliance Matrix: (Units=1/GPa)
#
#
# Indices 1 2 3 4 5 6 
#
# 1 0.012361 -0.006540 -0.002981 0.000000 -0.001144 0.000000
# 2 -0.006540 0.017040 -0.006615 0.000000 -0.002235 0.000000
# 3 -0.002981 -0.006615 0.019517 0.000000 0.006411 0.000000
# 4 0.000000 0.000000 0.000000 0.027068 0.000000 -0.001136
# 5 -0.001144 -0.002235 0.006411 0.000000 0.027121 0.000000
# 6 0.000000 0.000000 0.000000 -0.001136 0.000000 0.024282
#
#
# Mechanical properties :
#
#
# Convention : Reuss Voigt Hill
#
# Bulk Modulus (GPa) = 60.07281 65.99844 63.03562
# Shear Modulus (GPa) = 30.26467 33.88814 32.07641
#
# Velocity S-wave (km/s) = 3.93487 4.16377 4.05094
# Velocity P-wave (km/s) = 7.16779 7.54191 7.35723
#
# Compressibility (1/GPa) = 0.01664647
#
# Stress axis : x y z
#
# Youngs Moduli (GPa) = 80.89710 58.68559 51.23840
#
# Poissons Ratio (x) = 0.38380 0.15272
# Poissons Ratio (y) = 0.52907 0.33895
# Poissons Ratio (z) = 0.24113 0.38821
#
# Static dielectric constant tensor:
#      x y z
#    x 4.252970 0.000000 0.905000 
#    y 0.000000 3.646370 0.000000 
#    z 0.905000 0.000000 5.522460 
# 
# 
# High freq. dielectric constant tensor:
#      x y z
#    x 1.772550 0.000000 -0.000230 
#    y 0.000000 1.766900 0.000000 
#    z -0.000230 0.000000 1.769910 
# 
# From -- ./inp_files/15893.got.cif
#   From: 2010.06.25/outbox.cif.g09.slc.cpg/sg11_8_cif.got.tgz:15893.got - 2010.06.27 23:14:04.
