data_PCOD8076952
_publ_section_title
;
Structure prediction by ZEFSAII (Michael W. Deem and Ramdas Pophale) SiO2 
 PCOD8076952
Probable space group: P 21/M
;
_chemical_formula_sum "Si O2"
_cell_formula_units_Z 28
_cell_length_a 12.559370
_cell_length_b 8.471361
_cell_length_c 14.494546
_cell_angle_alpha 90.000000
_cell_angle_beta 59.347742
_cell_angle_gamma 90.000000
_cell_volume 1326.673846
_symmetry_space_group_name_H-M "P 21/M"
_symmetry_group_IT_number 11
_symmetry_cell_setting 'monoclinic'
loop_
_space_group_symop_operation_xyz
x,y,z
-x,1/2+y,-z
-x,-y,-z
x,1/2-y,z
loop_
_atom_site_type_symbol
_atom_site_label
_atom_site_fract_x
_atom_site_fract_y
_atom_site_fract_z
Si Si1 0.917200 0.065495 0.118361
Si Si2 0.653633 0.935757 0.187915
Si Si3 0.005343 0.565926 0.273420
Si Si4 0.509099 0.936848 0.893974
Si Si5 0.218495 0.065511 0.287525
Si Si6 0.456204 0.936080 0.423251
Si Si7 0.816214 0.064506 0.502830
O O1 0.939901 0.250000 0.118726
O O2 0.775895 0.032259 0.156276
O O3 0.951473 0.984915 0.199264
O O4 0.000000 0.000000 0.000000
O O5 0.680938 0.750000 0.183356
O O6 0.550220 0.997083 0.304559
O O7 0.603425 0.979085 0.109334
O O8 0.032447 0.750000 0.258844
O O9 0.909818 0.528183 0.396847
O O10 0.134926 0.477233 0.235688
O O11 0.492308 0.750000 0.898594
O O12 0.640871 0.988747 0.792845
O O13 0.500000 0.000000 0.000000
O O14 0.211093 0.250000 0.310854
O O15 0.160456 0.973155 0.400203
O O16 0.454489 0.750000 0.425717
O O17 0.319958 0.000205 0.461724
O O18 0.500000 0.000000 0.500000
O O19 0.832259 0.250000 0.477775
#
# Coordination Sequence:
#
# PCOD8076952 Si02
#       7
#     4   4   4   4   4   4   4
#     4  12  27  48  71  98 131 173 222 273 329 391
#     4  11  23  44  69  98 134 172 218 270 326 390
#     4  12  26  44  67  97 133 177 222 273 330 392
#     4  11  25  43  68  99 133 174 222 274 332 394
#     4  11  24  43  67  98 133 176 222 272 329 394
#     4  10  22  37  61  93 129 171 212 261 319 380
#     4  11  22  41  65  96 133 174 219 271 329 391
#
# _framework density 21.105412999999999
#
# number of rings (size 3 to 8) (size 9 to 14) (size 15 to 20)
#    0.000    0.857    1.429    5.571    2.000    6.286 
#    0.000    0.000    0.000    0.000    0.000    0.000 
#    0.000    0.000    0.000    0.000    0.000    0.000 
#
# Total GULP energy -347390.590639 kJ/mol
# GULP energy per Si atom -12406.806809 kJ/mol
# Density = 2.105738 g / cm^3
# Si number density = 21.105413 Si / 1000 Ang^3
#
#
#
# Elastic Constant Matrix: (Units=GPa)
#
#
# Indices 1 2 3 4 5 6 
#
# 1 133.7311 10.4290 31.9942 0.0000 7.0930 0.0000
# 2 10.4290 60.2132 24.2065 0.0000 -8.2912 0.0000
# 3 31.9942 24.2065 93.5946 0.0000 15.5679 0.0000
# 4 0.0000 0.0000 0.0000 32.8040 0.0000 6.3636
# 5 7.0930 -8.2912 15.5679 0.0000 39.9106 0.0000
# 6 0.0000 0.0000 0.0000 6.3636 0.0000 39.3918
#
#
#
# Elastic Compliance Matrix: (Units=1/GPa)
#
#
# Indices 1 2 3 4 5 6 
#
# 1 0.008159 -0.000448 -0.002584 0.000000 -0.000535 0.000000
# 2 -0.000448 0.020070 -0.006143 0.000000 0.006645 0.000000
# 3 -0.002584 -0.006143 0.014215 0.000000 -0.006362 0.000000
# 4 0.000000 0.000000 0.000000 0.031470 0.000000 -0.005084
# 5 -0.000535 0.006645 -0.006362 0.000000 0.029013 0.000000
# 6 0.000000 0.000000 0.000000 -0.005084 0.000000 0.026207
#
#
# Mechanical properties :
#
#
# Convention : Reuss Voigt Hill
#
# Bulk Modulus (GPa) = 41.50495 46.75536 44.13016
# Shear Modulus (GPa) = 32.15112 37.14858 34.64985
#
# Velocity S-wave (km/s) = 3.90726 4.19996 4.05625
# Velocity P-wave (km/s) = 6.32960 6.76172 6.54922
#
# Compressibility (1/GPa) = 0.02409351
#
# Stress axis : x y z
#
# Youngs Moduli (GPa) = 122.55983 49.82624 70.34993
#
# Poissons Ratio (x) = 0.02232 0.18180
# Poissons Ratio (y) = 0.05490 0.43215
# Poissons Ratio (z) = 0.31673 0.30607
#
# Static dielectric constant tensor:
#      x y z
#    x 4.052210 0.000000 -0.131400 
#    y 0.000000 3.931280 0.000000 
#    z -0.131400 0.000000 3.887640 
# 
# 
# High freq. dielectric constant tensor:
#      x y z
#    x 1.848200 0.000000 0.001490 
#    y 0.000000 1.833600 0.000000 
#    z 0.001490 0.000000 1.835420 
# 
# From -- ./inp_files/49111.got.cif
#   From: 2010.06.25/outbox.cif.g09.slc.cpg/sg11_25_cif.got.tgz:49111.got - 2010.06.27 23:14:04.
