data_PCOD8076326
_publ_section_title
;
Structure prediction by ZEFSAII (Michael W. Deem and Ramdas Pophale) SiO2 
 PCOD8076326
Probable space group: P 21/M
;
_chemical_formula_sum "Si O2"
_cell_formula_units_Z 32
_cell_length_a 15.501535
_cell_length_b 9.127880
_cell_length_c 23.072247
_cell_angle_alpha 90.000000
_cell_angle_beta 149.880482
_cell_angle_gamma 90.000000
_cell_volume 1638.211128
_symmetry_space_group_name_H-M "P 21/M"
_symmetry_group_IT_number 11
_symmetry_cell_setting 'monoclinic'
loop_
_space_group_symop_operation_xyz
x,y,z
-x,1/2+y,-z
-x,-y,-z
x,1/2-y,z
loop_
_atom_site_type_symbol
_atom_site_label
_atom_site_fract_x
_atom_site_fract_y
_atom_site_fract_z
Si Si1 0.806653 0.082144 0.827239
Si Si2 0.792160 0.080842 0.548078
Si Si3 0.872049 0.919872 0.183386
Si Si4 0.688172 0.076707 0.983109
Si Si5 0.488458 0.578511 0.431558
Si Si6 0.795906 0.580432 0.936823
Si Si7 0.016063 0.077702 0.569954
Si Si8 0.669189 0.576460 0.174119
O O1 0.778095 0.250000 0.830085
O O2 0.696590 0.046604 0.705647
O O3 0.748182 0.977571 0.845472
O O4 0.006354 0.052334 0.930641
O O5 0.734578 0.250000 0.517087
O O6 0.940879 0.052436 0.681514
O O7 0.859408 0.039957 0.522830
O O8 0.632517 0.978741 0.470984
O O9 0.847676 0.750000 0.153235
O O10 0.725017 0.976102 0.142629
O O11 0.851933 0.014869 0.113467
O O12 0.699434 0.250000 0.984864
O O13 0.518604 0.020250 0.918077
O O14 0.680586 0.009274 0.914841
O O15 0.500000 0.500000 0.500000
O O16 0.515465 0.750000 0.457769
O O17 0.746490 0.750000 0.910838
O O18 0.023496 0.250000 0.563947
O O19 0.192751 0.016621 0.699640
O O20 0.000000 0.000000 0.500000
O O21 0.680744 0.750000 0.181765
#
# Coordination Sequence:
#
# PCOD8076326 Si02
#       8
#     4   4   4   4   4   4   4   4
#     4   9  21  42  61  79 109 145 183 231 281 330
#     4   9  20  38  57  80 112 149 190 235 284 337
#     4   9  18  35  56  75 106 149 187 225 274 327
#     4  11  21  32  52  83 113 141 181 227 274 330
#     4  11  24  40  61  88 117 151 192 237 289 345
#     4  10  21  38  60  83 108 145 187 226 279 338
#     4   9  18  35  57  79 107 147 187 226 278 335
#     4   8  17  34  52  73 106 146 181 219 271 327
#
# _framework density 19.533501999999999
#
# number of rings (size 3 to 8) (size 9 to 14) (size 15 to 20)
#    0.000    2.500    0.000    3.000    1.750    3.500 
#    0.000    7.500    0.000    0.000    0.000    0.000 
#    0.000    0.000    0.000    0.000    0.000    0.000 
#
# Total GULP energy -396777.549123 kJ/mol
# GULP energy per Si atom -12399.298410 kJ/mol
# Density = 1.948904 g / cm^3
# Si number density = 19.533502 Si / 1000 Ang^3
#
#
#
# Elastic Constant Matrix: (Units=GPa)
#
#
# Indices 1 2 3 4 5 6 
#
# 1 84.4482 44.2225 33.8129 0.0000 -14.4159 0.0000
# 2 44.2225 80.1438 37.1906 0.0000 -6.0492 0.0000
# 3 33.8129 37.1906 75.3637 0.0000 -12.2254 0.0000
# 4 0.0000 0.0000 0.0000 29.9274 0.0000 -5.2026
# 5 -14.4159 -6.0492 -12.2254 0.0000 28.7310 0.0000
# 6 0.0000 0.0000 0.0000 -5.2026 0.0000 39.4869
#
#
#
# Elastic Compliance Matrix: (Units=1/GPa)
#
#
# Indices 1 2 3 4 5 6 
#
# 1 0.018509 -0.008246 -0.003233 0.000000 0.006175 0.000000
# 2 -0.008246 0.019858 -0.006544 0.000000 -0.002741 0.000000
# 3 -0.003233 -0.006544 0.018757 0.000000 0.004981 0.000000
# 4 0.000000 0.000000 0.000000 0.034197 0.000000 0.004506
# 5 0.006175 -0.002741 0.004981 0.000000 0.039446 0.000000
# 6 0.000000 0.000000 0.000000 0.004506 0.000000 0.025919
#
#
# Mechanical properties :
#
#
# Convention : Reuss Voigt Hill
#
# Bulk Modulus (GPa) = 47.44741 52.26754 49.85747
# Shear Modulus (GPa) = 25.03024 27.94438 26.48731
#
# Velocity S-wave (km/s) = 3.58355 3.78641 3.68638
# Velocity P-wave (km/s) = 6.43937 6.77731 6.61050
#
# Compressibility (1/GPa) = 0.02107597
#
# Stress axis : x y z
#
# Youngs Moduli (GPa) = 54.02919 50.35789 53.31328
#
# Poissons Ratio (x) = 0.41528 0.17236
# Poissons Ratio (y) = 0.44555 0.34890
# Poissons Ratio (z) = 0.17467 0.32956
#
# Static dielectric constant tensor:
#      x y z
#    x 3.617900 0.000000 0.081080 
#    y 0.000000 3.549670 0.000000 
#    z 0.081080 0.000000 3.649430 
# 
# 
# High freq. dielectric constant tensor:
#      x y z
#    x 1.766630 0.000000 -0.004570 
#    y 0.000000 1.748400 0.000000 
#    z -0.004570 0.000000 1.758350 
# 
# From -- ./inp_files/69163.got.cif
#   From: 2010.06.25/outbox.cif.g09.slc.cpg/sg11_35_cif.got.tgz:69163.got - 2010.06.27 23:14:04.
