data_PCOD8076390
_publ_section_title
;
Structure prediction by ZEFSAII (Michael W. Deem and Ramdas Pophale) SiO2 
 PCOD8076390
Probable space group: P 21/M
;
_chemical_formula_sum "Si O2"
_cell_formula_units_Z 28
_cell_length_a 30.900980
_cell_length_b 8.693070
_cell_length_c 30.900912
_cell_angle_alpha 90.000000
_cell_angle_beta 9.616556
_cell_angle_gamma 90.000000
_cell_volume 1386.668646
_symmetry_space_group_name_H-M "P 21/M"
_symmetry_group_IT_number 11
_symmetry_cell_setting 'monoclinic'
loop_
_space_group_symop_operation_xyz
x,y,z
-x,1/2+y,-z
-x,-y,-z
x,1/2-y,z
loop_
_atom_site_type_symbol
_atom_site_label
_atom_site_fract_x
_atom_site_fract_y
_atom_site_fract_z
Si Si1 0.192662 0.572219 0.192704
Si Si2 0.761022 0.569710 0.761025
Si Si3 0.476137 0.567383 0.476062
Si Si4 0.381648 0.570136 0.381615
Si Si5 0.097032 0.927269 0.097058
Si Si6 0.954196 0.071246 0.954102
Si Si7 0.664732 0.927641 0.664725
O O1 0.199967 0.750000 0.200112
O O2 0.213544 0.464600 0.213529
O O3 0.928738 0.531514 0.428655
O O4 0.428634 0.531571 0.928759
O O5 0.757013 0.750000 0.757014
O O6 0.000000 0.500000 0.500000
O O7 0.500000 0.500000 0.000000
O O8 0.500000 0.500000 0.500000
O O9 0.477323 0.750000 0.477176
O O10 0.213848 0.510089 0.713195
O O11 0.713303 0.510065 0.213751
O O12 0.385131 0.750000 0.385119
O O13 0.356296 0.533482 0.356238
O O14 0.143659 0.502589 0.642308
O O15 0.642331 0.502591 0.143640
O O16 0.103632 0.750000 0.103643
O O17 0.071439 0.951043 0.071472
O O18 0.960896 0.250000 0.960727
O O19 0.657503 0.750000 0.657375
#
# Coordination Sequence:
#
# PCOD8076390 Si02
#       7
#     4   4   4   4   4   4   4
#     4  10  21  38  61  89 120 158 204 253 304 363
#     4  12  25  42  65  93 127 165 206 255 308 367
#     4  12  25  42  65  93 127 165 205 254 309 368
#     4  12  25  40  63  95 129 161 205 262 309 358
#     4  11  24  43  66  90 124 168 209 250 307 376
#     4  11  24  43  66  93 124 162 209 258 307 366
#     4  10  21  38  61  87 121 163 203 246 305 372
#
# _framework density 20.192278999999999
#
# number of rings (size 3 to 8) (size 9 to 14) (size 15 to 20)
#    0.000    0.857    0.000    7.714    0.000    9.143 
#    0.000    0.000    0.000    0.000    0.000    0.000 
#    0.000    0.000    0.000    0.000    0.000    0.000 
#
# Total GULP energy -347405.333751 kJ/mol
# GULP energy per Si atom -12407.333348 kJ/mol
# Density = 2.014632 g / cm^3
# Si number density = 20.192279 Si / 1000 Ang^3
#
#
#
# Elastic Constant Matrix: (Units=GPa)
#
#
# Indices 1 2 3 4 5 6 
#
# 1 116.9826 93.6990 79.8370 0.0000 -3.0651 0.0000
# 2 93.6990 184.5200 98.4762 0.0000 -0.4517 0.0000
# 3 79.8370 98.4762 219.8544 0.0000 -6.0775 0.0000
# 4 0.0000 0.0000 0.0000 40.1019 0.0000 0.0062
# 5 -3.0651 -0.4517 -6.0775 0.0000 36.0828 0.0000
# 6 0.0000 0.0000 0.0000 0.0062 0.0000 40.1601
#
#
#
# Elastic Compliance Matrix: (Units=1/GPa)
#
#
# Indices 1 2 3 4 5 6 
#
# 1 0.015627 -0.006461 -0.002759 0.000000 0.000782 0.000000
# 2 -0.006461 0.009800 -0.002065 0.000000 -0.000774 0.000000
# 3 -0.002759 -0.002065 0.006498 0.000000 0.000834 0.000000
# 4 0.000000 0.000000 0.000000 0.024937 0.000000 -0.000004
# 5 0.000782 -0.000774 0.000834 0.000000 0.027911 0.000000
# 6 0.000000 0.000000 0.000000 -0.000004 0.000000 0.024900
#
#
# Mechanical properties :
#
#
# Convention : Reuss Voigt Hill
#
# Bulk Modulus (GPa) = 106.88689 118.37570 112.63130
# Shear Modulus (GPa) = 36.93803 39.89194 38.41499
#
# Velocity S-wave (km/s) = 4.28169 4.44960 4.36645
# Velocity P-wave (km/s) = 8.80303 9.22768 9.01785
#
# Compressibility (1/GPa) = 0.00935568
#
# Stress axis : x y z
#
# Youngs Moduli (GPa) = 63.99346 102.03654 153.88388
#
# Poissons Ratio (x) = 0.65923 0.42458
# Poissons Ratio (y) = 0.41345 0.31777
# Poissons Ratio (z) = 0.17656 0.21071
#
# Static dielectric constant tensor:
#      x y z
#    x 3.846830 0.000000 -0.007440 
#    y 0.000000 3.851880 0.000000 
#    z -0.007440 0.000000 3.930050 
# 
# 
# High freq. dielectric constant tensor:
#      x y z
#    x 1.807720 0.000000 -0.000740 
#    y 0.000000 1.798610 0.000000 
#    z -0.000740 0.000000 1.816110 
# 
# From -- ./inp_files/73852.got.cif
#   From: 2010.06.25/outbox.cif.g09.slc.cpg/sg11_37_cif.got.tgz:73852.got - 2010.06.27 23:14:04.
