data_PCOD8076833
_publ_section_title
;
Structure prediction by ZEFSAII (Michael W. Deem and Ramdas Pophale) SiO2 
 PCOD8076833
Probable space group: P 21/M
;
_chemical_formula_sum "Si O2"
_cell_formula_units_Z 24
_cell_length_a 17.619899
_cell_length_b 12.345305
_cell_length_c 5.166536
_cell_angle_alpha 90.000000
_cell_angle_beta 81.900703
_cell_angle_gamma 90.000000
_cell_volume 1112.630676
_symmetry_space_group_name_H-M "P 21/M"
_symmetry_group_IT_number 11
_symmetry_cell_setting 'monoclinic'
loop_
_space_group_symop_operation_xyz
x,y,z
-x,1/2+y,-z
-x,-y,-z
x,1/2-y,z
loop_
_atom_site_type_symbol
_atom_site_label
_atom_site_fract_x
_atom_site_fract_y
_atom_site_fract_z
Si Si1 0.152007 0.978152 0.991322
Si Si2 0.399792 0.496954 0.304863
Si Si3 0.557902 0.121359 0.218574
Si Si4 0.024138 0.750000 0.433458
Si Si5 0.899089 0.572369 0.491942
Si Si6 0.122736 0.750000 0.887231
Si Si7 0.253478 0.129296 0.217733
O O1 0.175984 0.855077 0.912324
O O2 0.102516 0.979391 0.282872
O O3 0.227928 0.053314 0.986121
O O4 0.096253 0.021089 0.793581
O O5 0.396766 0.568368 0.564804
O O6 0.469151 0.411895 0.274409
O O7 0.323521 0.425682 0.332094
O O8 0.404629 0.578838 0.062866
O O9 0.564824 0.250000 0.228647
O O10 0.972371 0.645139 0.508697
O O11 0.052527 0.750000 0.123864
O O12 0.092611 0.750000 0.608161
O O13 0.819115 0.639062 0.553251
O O14 0.276181 0.250000 0.110226
#
# Coordination Sequence:
#
# PCOD8076833 Si02
#       7
#     4   4   4   2   4   2   4
#     4  10  24  42  62  90 126 159 202 259 306 384
#     4  10  22  38  65  97 124 167 223 253 317 358
#     4  10  21  41  61  93 136 169 211 265 301 381
#     4  12  24  40  70  92 120 164 200 264 314 372
#     4  10  22  41  61  93 119 155 207 255 311 367
#     4  12  26  42  62  92 126 164 204 246 320 378
#     4  10  23  43  67  93 123 165 207 270 312 365
#
# _framework density 21.570501
#
# number of rings (size 3 to 8) (size 9 to 14) (size 15 to 20)
#    1.000    0.667    0.833    3.000    3.500    4.000 
#    3.000    1.667    0.000    0.000    0.000    0.000 
#    0.000    0.000    0.000    0.000    0.000    0.000 
#
# Total GULP energy -297494.833067 kJ/mol
# GULP energy per Si atom -12395.618044 kJ/mol
# Density = 2.152141 g / cm^3
# Si number density = 21.570501 Si / 1000 Ang^3
#
#
#
# Elastic Constant Matrix: (Units=GPa)
#
#
# Indices 1 2 3 4 5 6 
#
# 1 81.8351 48.6226 24.9154 0.0000 18.1557 0.0000
# 2 48.6226 175.3099 37.9630 0.0000 33.6741 0.0000
# 3 24.9154 37.9630 127.5226 0.0000 33.3484 0.0000
# 4 0.0000 0.0000 0.0000 22.4744 0.0000 4.3393
# 5 18.1557 33.6741 33.3484 0.0000 26.2805 0.0000
# 6 0.0000 0.0000 0.0000 4.3393 0.0000 25.8677
#
#
#
# Elastic Compliance Matrix: (Units=1/GPa)
#
#
# Indices 1 2 3 4 5 6 
#
# 1 0.015544 -0.003001 -0.000510 0.000000 -0.006246 0.000000
# 2 -0.003001 0.008161 0.000523 0.000000 -0.009047 0.000000
# 3 -0.000510 0.000523 0.011777 0.000000 -0.015261 0.000000
# 4 0.000000 0.000000 0.000000 0.045984 0.000000 -0.007714
# 5 -0.006246 -0.009047 -0.015261 0.000000 0.073324 0.000000
# 6 0.000000 0.000000 0.000000 -0.007714 0.000000 0.039952
#
#
# Mechanical properties :
#
#
# Convention : Reuss Voigt Hill
#
# Bulk Modulus (GPa) = 33.89289 67.51885 50.70587
# Shear Modulus (GPa) = 23.74683 33.13561 28.44122
#
# Velocity S-wave (km/s) = 3.32157 3.92363 3.63509
# Velocity P-wave (km/s) = 5.51880 7.20388 6.41690
#
# Compressibility (1/GPa) = 0.02950472
#
# Stress axis : x y z
#
# Youngs Moduli (GPa) = 64.33475 122.53207 84.91242
#
# Poissons Ratio (x) = 0.36771 0.04333
# Poissons Ratio (y) = 0.19306 -0.04439
# Poissons Ratio (z) = 0.03283 -0.06405
#
# Static dielectric constant tensor:
#      x y z
#    x 3.604910 0.000000 0.099840 
#    y 0.000000 3.966520 0.000000 
#    z 0.099840 0.000000 3.823690 
# 
# 
# High freq. dielectric constant tensor:
#      x y z
#    x 1.827110 0.000000 0.014000 
#    y 0.000000 1.857160 0.000000 
#    z 0.014000 0.000000 1.849260 
# 
# From -- ./inp_files/7706.got.cif
#   From: 2010.06.25/outbox.cif.g09.slc.cpg/sg11_4_cif.got.tgz:7706.got - 2010.06.27 23:14:04.
