data_PCOD8076025
_publ_section_title
;
Structure prediction by ZEFSAII (Michael W. Deem and Ramdas Pophale) SiO2 
 PCOD8076025
Probable space group: P 21/M
;
_chemical_formula_sum "Si O2"
_cell_formula_units_Z 24
_cell_length_a 17.819147
_cell_length_b 8.987306
_cell_length_c 15.162943
_cell_angle_alpha 90.000000
_cell_angle_beta 31.483333
_cell_angle_gamma 90.000000
_cell_volume 1268.173922
_symmetry_space_group_name_H-M "P 21/M"
_symmetry_group_IT_number 11
_symmetry_cell_setting 'monoclinic'
loop_
_space_group_symop_operation_xyz
x,y,z
-x,1/2+y,-z
-x,-y,-z
x,1/2-y,z
loop_
_atom_site_type_symbol
_atom_site_label
_atom_site_fract_x
_atom_site_fract_y
_atom_site_fract_z
Si Si1 0.595285 0.423365 0.478431
Si Si2 0.419212 0.919167 0.003046
Si Si3 0.086261 0.916487 0.339951
Si Si4 0.601212 0.922369 0.158613
Si Si5 0.902775 0.575792 0.170376
Si Si6 0.108166 0.923513 0.124167
O O1 0.500000 0.500000 0.500000
O O2 0.613127 0.250000 0.437259
O O3 0.522882 0.446526 0.645667
O O4 0.749188 0.499890 0.326470
O O5 0.473731 0.750000 0.940636
O O6 0.449927 0.998076 0.879294
O O7 0.253218 0.925849 0.194952
O O8 0.500000 0.000000 0.000000
O O9 0.027690 0.750000 0.400393
O O10 0.059084 0.983720 0.269427
O O11 0.000000 0.000000 0.500000
O O12 0.627544 0.750000 0.111966
O O13 0.748694 0.990446 0.049931
O O14 0.886205 0.750000 0.165898
O O15 0.978080 0.548010 0.188570
O O16 0.000000 0.500000 0.000000
O O17 0.150875 0.750000 0.088250
#
# Coordination Sequence:
#
# PCOD8076025 Si02
#       6
#     4   4   4   4   4   4
#     4  11  24  40  59  85 116 149 189 236 284 339
#     4  10  21  37  57  82 113 148 187 231 279 333
#     4   9  19  35  54  79 109 142 181 223 269 322
#     4  10  21  37  58  84 112 145 187 233 281 333
#     4  11  23  39  60  85 114 149 188 231 282 339
#     4   9  20  38  57  79 110 147 185 226 276 334
#
# _framework density 18.924848999999998
#
# number of rings (size 3 to 8) (size 9 to 14) (size 15 to 20)
#    0.000    2.000    0.000    4.000    0.000   11.333 
#    0.000    3.333    0.000    0.000    0.000    0.000 
#    0.000    0.000    0.000    0.000    0.000    0.000 
#
# Total GULP energy -297651.683439 kJ/mol
# GULP energy per Si atom -12402.153477 kJ/mol
# Density = 1.888178 g / cm^3
# Si number density = 18.924849 Si / 1000 Ang^3
#
#
#
# Elastic Constant Matrix: (Units=GPa)
#
#
# Indices 1 2 3 4 5 6 
#
# 1 140.2714 78.9238 64.6613 0.0000 -8.7292 0.0000
# 2 78.9238 141.4688 78.1665 0.0000 -1.4352 0.0000
# 3 64.6613 78.1665 133.2766 0.0000 1.2682 0.0000
# 4 0.0000 0.0000 0.0000 38.3748 0.0000 -1.7296
# 5 -8.7292 -1.4352 1.2682 0.0000 24.5930 0.0000
# 6 0.0000 0.0000 0.0000 -1.7296 0.0000 35.9641
#
#
#
# Elastic Compliance Matrix: (Units=1/GPa)
#
#
# Indices 1 2 3 4 5 6 
#
# 1 0.011307 -0.004760 -0.002731 0.000000 0.003877 0.000000
# 2 -0.004760 0.012482 -0.005005 0.000000 -0.000703 0.000000
# 3 -0.002731 -0.005005 0.011781 0.000000 -0.001869 0.000000
# 4 0.000000 0.000000 0.000000 0.026115 0.000000 0.001256
# 5 0.003877 -0.000703 -0.001869 0.000000 0.042093 0.000000
# 6 0.000000 0.000000 0.000000 0.001256 0.000000 0.027866
#
#
# Mechanical properties :
#
#
# Convention : Reuss Voigt Hill
#
# Bulk Modulus (GPa) = 94.52405 95.39114 94.95759
# Shear Modulus (GPa) = 31.21793 32.67071 31.94432
#
# Velocity S-wave (km/s) = 4.06590 4.15943 4.11293
# Velocity P-wave (km/s) = 8.49103 8.57802 8.53464
#
# Compressibility (1/GPa) = 0.01057932
#
# Stress axis : x y z
#
# Youngs Moduli (GPa) = 88.43734 80.11257 84.87922
#
# Poissons Ratio (x) = 0.38133 0.23182
# Poissons Ratio (y) = 0.42095 0.42481
# Poissons Ratio (z) = 0.24154 0.40096
#
# Static dielectric constant tensor:
#      x y z
#    x 3.471980 0.000000 0.243700 
#    y 0.000000 3.454110 0.000000 
#    z 0.243700 0.000000 3.339490 
# 
# 
# High freq. dielectric constant tensor:
#      x y z
#    x 1.746950 0.000000 0.006190 
#    y 0.000000 1.747220 0.000000 
#    z 0.006190 0.000000 1.736390 
# 
# From -- ./inp_files/29148.got.cif
#   From: 2010.06.25/outbox.cif.g09.slc.cpg/sg11_15_cif.got.tgz:29148.got - 2010.06.27 23:14:04.
