data_PCOD8076567
_publ_section_title
;
Structure prediction by ZEFSAII (Michael W. Deem and Ramdas Pophale) SiO2 
 PCOD8076567
Probable space group: P 21/M
;
_chemical_formula_sum "Si O2"
_cell_formula_units_Z 24
_cell_length_a 14.615088
_cell_length_b 8.834964
_cell_length_c 10.269124
_cell_angle_alpha 90.000000
_cell_angle_beta 79.783970
_cell_angle_gamma 90.000000
_cell_volume 1304.965889
_symmetry_space_group_name_H-M "P 21/M"
_symmetry_group_IT_number 11
_symmetry_cell_setting 'monoclinic'
loop_
_space_group_symop_operation_xyz
x,y,z
-x,1/2+y,-z
-x,-y,-z
x,1/2-y,z
loop_
_atom_site_type_symbol
_atom_site_label
_atom_site_fract_x
_atom_site_fract_y
_atom_site_fract_z
Si Si1 0.065713 0.929298 0.874994
Si Si2 0.454879 0.071839 0.886538
Si Si3 0.445995 0.572538 0.395470
Si Si4 0.740397 0.576151 0.165671
Si Si5 0.060487 0.428583 0.597981
Si Si6 0.727403 0.578608 0.467596
O O1 0.053479 0.750000 0.874816
O O2 0.171942 0.969551 0.884879
O O3 0.036335 0.996507 0.742556
O O4 0.000000 0.000000 0.000000
O O5 0.465966 0.250000 0.892141
O O6 0.511139 0.008342 0.748638
O O7 0.345439 0.028684 0.905106
O O8 0.500000 0.000000 0.000000
O O9 0.500000 0.500000 0.500000
O O10 0.459232 0.750000 0.400902
O O11 0.337115 0.529974 0.429767
O O12 0.771599 0.750000 0.135148
O O13 0.703792 0.556700 0.321774
O O14 0.042677 0.250000 0.614459
O O15 0.166245 0.465018 0.532893
O O16 0.000000 0.500000 0.500000
O O17 0.707230 0.750000 0.515689
#
# Coordination Sequence:
#
# PCOD8076567 Si02
#       6
#     4   4   4   4   4   4
#     4  11  22  38  61  88 114 148 194 239 286 344
#     4  10  22  39  56  80 115 151 186 231 283 333
#     4  11  21  35  57  84 112 145 188 234 275 330
#     4   9  18  37  59  80 113 150 186 234 283 334
#     4  10  21  39  61  86 119 153 188 236 289 341
#     4   9  18  35  58  84 113 146 185 229 280 333
#
# _framework density 18.391286000000001
#
# number of rings (size 3 to 8) (size 9 to 14) (size 15 to 20)
#    0.000    2.000    1.667    3.500    0.000    5.333 
#    3.000    0.000    0.000    0.000    0.000    0.000 
#    0.000    0.000    0.000    0.000    0.000    0.000 
#
# Total GULP energy -297627.077154 kJ/mol
# GULP energy per Si atom -12401.128215 kJ/mol
# Density = 1.834943 g / cm^3
# Si number density = 18.391286 Si / 1000 Ang^3
#
#
#
# Elastic Constant Matrix: (Units=GPa)
#
#
# Indices 1 2 3 4 5 6 
#
# 1 121.7200 55.8475 84.2333 0.0000 13.1035 0.0000
# 2 55.8475 97.8650 61.6909 0.0000 -0.9340 0.0000
# 3 84.2333 61.6909 135.8576 0.0000 3.2626 0.0000
# 4 0.0000 0.0000 0.0000 32.9976 0.0000 -0.3821
# 5 13.1035 -0.9340 3.2626 0.0000 37.1311 0.0000
# 6 0.0000 0.0000 0.0000 -0.3821 0.0000 36.5726
#
#
#
# Elastic Compliance Matrix: (Units=1/GPa)
#
#
# Indices 1 2 3 4 5 6 
#
# 1 0.016296 -0.004284 -0.008035 0.000000 -0.005153 0.000000
# 2 -0.004284 0.015474 -0.004426 0.000000 0.002290 0.000000
# 3 -0.008035 -0.004426 0.014317 0.000000 0.001466 0.000000
# 4 0.000000 0.000000 0.000000 0.030309 0.000000 0.000317
# 5 -0.005153 0.002290 0.001466 0.000000 0.028679 0.000000
# 6 0.000000 0.000000 0.000000 0.000317 0.000000 0.027346
#
#
# Mechanical properties :
#
#
# Convention : Reuss Voigt Hill
#
# Bulk Modulus (GPa) = 79.37356 84.33178 81.85267
# Shear Modulus (GPa) = 29.39291 31.58498 30.48895
#
# Velocity S-wave (km/s) = 4.00208 4.14863 4.07602
# Velocity P-wave (km/s) = 8.03788 8.30072 8.17036
#
# Compressibility (1/GPa) = 0.01259865
#
# Stress axis : x y z
#
# Youngs Moduli (GPa) = 61.36465 64.62280 69.84833
#
# Poissons Ratio (x) = 0.27683 0.56122
# Poissons Ratio (y) = 0.26287 0.30913
# Poissons Ratio (z) = 0.49305 0.28600
#
# Static dielectric constant tensor:
#      x y z
#    x 3.545200 0.000000 -0.205090 
#    y 0.000000 3.405820 0.000000 
#    z -0.205090 0.000000 3.423650 
# 
# 
# High freq. dielectric constant tensor:
#      x y z
#    x 1.723170 0.000000 -0.004700 
#    y 0.000000 1.714700 0.000000 
#    z -0.004700 0.000000 1.702070 
# 
# From -- ./inp_files/20377.got.cif
#   From: 2010.06.25/outbox.cif.g09.slc.cpg/sg11_11_cif.got.tgz:20377.got - 2010.06.27 23:14:04.
