data_PCOD8076381
_publ_section_title
;
Structure prediction by ZEFSAII (Michael W. Deem and Ramdas Pophale) SiO2 
 PCOD8076381
Probable space group: P 21/M
;
_chemical_formula_sum "Si O2"
_cell_formula_units_Z 32
_cell_length_a 12.236374
_cell_length_b 8.717752
_cell_length_c 29.351676
_cell_angle_alpha 90.000000
_cell_angle_beta 31.154225
_cell_angle_gamma 90.000000
_cell_volume 1619.828857
_symmetry_space_group_name_H-M "P 21/M"
_symmetry_group_IT_number 11
_symmetry_cell_setting 'monoclinic'
loop_
_space_group_symop_operation_xyz
x,y,z
-x,1/2+y,-z
-x,-y,-z
x,1/2-y,z
loop_
_atom_site_type_symbol
_atom_site_label
_atom_site_fract_x
_atom_site_fract_y
_atom_site_fract_z
Si Si1 0.476676 0.433362 0.303484
Si Si2 0.389973 0.929255 0.993774
Si Si3 0.419106 0.576183 0.573174
Si Si4 0.944195 0.918909 0.252334
Si Si5 0.053415 0.573536 0.839083
Si Si6 0.778451 0.922883 0.519462
Si Si7 0.208030 0.567133 0.322627
Si Si8 0.663424 0.421762 0.823171
O O1 0.467375 0.250000 0.306728
O O2 0.720668 0.485879 0.222469
O O3 0.319508 0.499004 0.399496
O O4 0.403403 0.504611 0.282093
O O5 0.409252 0.750000 0.994492
O O6 0.486848 0.974179 0.910145
O O7 0.500000 0.000000 0.000000
O O8 0.145003 0.973656 0.073960
O O9 0.500000 0.500000 0.500000
O O10 0.339076 0.750000 0.594122
O O11 0.234439 0.458421 0.648616
O O12 0.595698 0.571555 0.548182
O O13 0.906223 0.750000 0.243788
O O14 0.159270 0.916122 0.202324
O O15 0.939425 0.055533 0.217729
O O16 0.015059 0.750000 0.865697
O O17 0.841580 0.750000 0.509190
O O18 0.989946 0.001817 0.422605
O O19 0.197745 0.750000 0.326339
O O20 0.248497 0.509483 0.256181
O O21 0.574121 0.250000 0.846398
#
# Coordination Sequence:
#
# PCOD8076381 Si02
#       8
#     4   4   4   4   4   4   4   4
#     4  10  21  39  61  86 120 159 200 246 298 353
#     4  12  24  39  63  93 122 155 197 245 298 362
#     4  11  21  35  53  79 119 161 201 244 300 359
#     4  11  21  35  58  86 118 156 196 240 297 360
#     4  11  22  39  62  89 120 155 194 243 299 352
#     4   9  18  36  58  82 116 158 199 245 299 349
#     4  10  21  38  61  86 117 158 203 250 299 351
#     4  10  22  40  60  87 123 160 198 246 304 360
#
# _framework density 19.755175000000001
#
# number of rings (size 3 to 8) (size 9 to 14) (size 15 to 20)
#    0.000    1.500    2.500    3.375    0.000    4.000 
#    0.000    3.125    0.000    0.000    0.000    0.000 
#    0.000    0.000    0.000    0.000    0.000    0.000 
#
# Total GULP energy -396534.910406 kJ/mol
# GULP energy per Si atom -12391.715950 kJ/mol
# Density = 1.971021 g / cm^3
# Si number density = 19.755175 Si / 1000 Ang^3
#
#
#
# Elastic Constant Matrix: (Units=GPa)
#
#
# Indices 1 2 3 4 5 6 
#
# 1 115.8215 29.6858 62.7731 0.0000 -4.8728 0.0000
# 2 29.6858 60.5046 36.7954 0.0000 -5.8244 0.0000
# 3 62.7731 36.7954 159.3822 0.0000 -9.6134 0.0000
# 4 0.0000 0.0000 0.0000 23.1430 0.0000 -1.4424
# 5 -4.8728 -5.8244 -9.6134 0.0000 23.2997 0.0000
# 6 0.0000 0.0000 0.0000 -1.4424 0.0000 32.8240
#
#
#
# Elastic Compliance Matrix: (Units=1/GPa)
#
#
# Indices 1 2 3 4 5 6 
#
# 1 0.011539 -0.003370 -0.003766 0.000000 0.000017 0.000000
# 2 -0.003370 0.020425 -0.003202 0.000000 0.003080 0.000000
# 3 -0.003766 -0.003202 0.008615 0.000000 0.001967 0.000000
# 4 0.000000 0.000000 0.000000 0.043328 0.000000 0.001904
# 5 0.000017 0.003080 0.001967 0.000000 0.044504 0.000000
# 6 0.000000 0.000000 0.000000 0.001904 0.000000 0.030549
#
#
# Mechanical properties :
#
#
# Convention : Reuss Voigt Hill
#
# Bulk Modulus (GPa) = 50.24210 66.02412 58.13311
# Shear Modulus (GPa) = 26.84250 29.61694 28.22972
#
# Velocity S-wave (km/s) = 3.69013 3.87615 3.78428
# Velocity P-wave (km/s) = 6.60634 7.31618 6.97030
#
# Compressibility (1/GPa) = 0.01990363
#
# Stress axis : x y z
#
# Youngs Moduli (GPa) = 86.65945 48.95957 116.07216
#
# Poissons Ratio (x) = 0.16499 0.43711
# Poissons Ratio (y) = 0.29203 0.37171
# Poissons Ratio (z) = 0.32634 0.15679
#
# Static dielectric constant tensor:
#      x y z
#    x 3.435020 0.000000 0.086430 
#    y 0.000000 3.651200 0.000000 
#    z 0.086430 0.000000 3.969610 
# 
# 
# High freq. dielectric constant tensor:
#      x y z
#    x 1.757800 0.000000 0.000750 
#    y 0.000000 1.754470 0.000000 
#    z 0.000750 0.000000 1.786550 
# 
# From -- ./inp_files/73120.got.cif
#   From: 2010.06.25/outbox.cif.g09.slc.cpg/sg11_37_cif.got.tgz:73120.got - 2010.06.27 23:14:04.
