data_PCOD8076636
_publ_section_title
;
Structure prediction by ZEFSAII (Michael W. Deem and Ramdas Pophale) SiO2 
 PCOD8076636
Probable space group: P 21/M
;
_chemical_formula_sum "Si O2"
_cell_formula_units_Z 24
_cell_length_a 8.721990
_cell_length_b 22.733148
_cell_length_c 5.474722
_cell_angle_alpha 90.000000
_cell_angle_beta 97.444639
_cell_angle_gamma 90.000000
_cell_volume 1076.368154
_symmetry_space_group_name_H-M "P 21/M"
_symmetry_group_IT_number 11
_symmetry_cell_setting 'monoclinic'
loop_
_space_group_symop_operation_xyz
x,y,z
-x,1/2+y,-z
-x,-y,-z
x,1/2-y,z
loop_
_atom_site_type_symbol
_atom_site_label
_atom_site_fract_x
_atom_site_fract_y
_atom_site_fract_z
Si Si1 0.255722 0.586914 0.156395
Si Si2 0.994658 0.895055 0.765259
Si Si3 0.120817 0.815584 0.414761
Si Si4 0.723048 0.970303 0.595852
Si Si5 0.808371 0.816044 0.068995
Si Si6 0.408437 0.419080 0.920818
O O1 0.235243 0.654218 0.243726
O O2 0.264975 0.540853 0.383252
O O3 0.407097 0.585590 0.017706
O O4 0.097988 0.569249 0.981634
O O5 0.893262 0.941873 0.591920
O O6 0.123294 0.858024 0.647019
O O7 0.874475 0.847298 0.843658
O O8 0.182327 0.750000 0.484321
O O9 0.942572 0.813603 0.296747
O O10 0.623936 0.956776 0.333177
O O11 0.652820 0.948865 0.843192
O O12 0.751316 0.750000 0.993728
O O13 0.664392 0.854473 0.136454
#
# Coordination Sequence:
#
# PCOD8076636 Si02
#       6
#     4   4   4   4   4   4
#     4  11  25  38  64  93 131 162 209 267 321 373
#     4  10  21  39  63  94 122 167 213 262 314 375
#     4  10  21  39  63  88 123 164 211 262 316 374
#     4  11  24  43  65  94 129 173 211 255 314 387
#     4   9  19  39  62  87 120 167 215 257 308 381
#     4  11  24  42  64  95 130 168 210 259 320 373
#
# _framework density 22.297207
#
# number of rings (size 3 to 8) (size 9 to 14) (size 15 to 20)
#    0.000    1.667    1.667    2.000    4.667    2.000 
#    0.000    0.000    0.000    0.000    0.000    0.000 
#    0.000    0.000    0.000    0.000    0.000    0.000 
#
# Total GULP energy -297468.018027 kJ/mol
# GULP energy per Si atom -12394.500751 kJ/mol
# Density = 2.224646 g / cm^3
# Si number density = 22.297207 Si / 1000 Ang^3
#
#
#
# Elastic Constant Matrix: (Units=GPa)
#
#
# Indices 1 2 3 4 5 6 
#
# 1 81.2290 50.2249 17.4476 0.0000 -1.6811 0.0000
# 2 50.2249 119.7942 9.8036 0.0000 1.0549 0.0000
# 3 17.4476 9.8036 78.8457 0.0000 -7.3390 0.0000
# 4 0.0000 0.0000 0.0000 23.8740 0.0000 0.4886
# 5 -1.6811 1.0549 -7.3390 0.0000 16.0621 0.0000
# 6 0.0000 0.0000 0.0000 0.4886 0.0000 23.9518
#
#
#
# Elastic Compliance Matrix: (Units=1/GPa)
#
#
# Indices 1 2 3 4 5 6 
#
# 1 0.017288 -0.007022 -0.002863 0.000000 0.000962 0.000000
# 2 -0.007022 0.011304 0.000011 0.000000 -0.001472 0.000000
# 3 -0.002863 0.000011 0.013877 0.000000 0.006040 0.000000
# 4 0.000000 0.000000 0.000000 0.041904 0.000000 -0.000855
# 5 0.000962 -0.001472 0.006040 0.000000 0.065216 0.000000
# 6 0.000000 0.000000 0.000000 -0.000855 0.000000 0.041768
#
#
# Mechanical properties :
#
#
# Convention : Reuss Voigt Hill
#
# Bulk Modulus (GPa) = 44.01115 48.31346 46.16230
# Shear Modulus (GPa) = 22.86471 26.27044 24.56758
#
# Velocity S-wave (km/s) = 3.20574 3.43621 3.32297
# Velocity P-wave (km/s) = 5.78650 6.12032 5.95575
#
# Compressibility (1/GPa) = 0.02272151
#
# Stress axis : x y z
#
# Youngs Moduli (GPa) = 57.84486 88.46580 72.05996
#
# Poissons Ratio (x) = 0.62122 0.20630
# Poissons Ratio (y) = 0.40620 -0.00082
# Poissons Ratio (z) = 0.16560 -0.00101
#
# Static dielectric constant tensor:
#      x y z
#    x 3.921610 0.000000 -0.039950 
#    y 0.000000 4.261710 0.000000 
#    z -0.039950 0.000000 3.824970 
# 
# 
# High freq. dielectric constant tensor:
#      x y z
#    x 1.867260 0.000000 -0.004070 
#    y 0.000000 1.884220 0.000000 
#    z -0.004070 0.000000 1.868080 
# 
# From -- ./inp_files/2716.got.cif
#   From: 2010.06.25/outbox.cif.g09.slc.cpg/sg11_2_cif.got.tgz:2716.got - 2010.06.27 23:14:04.
