data_PCOD8076985
_publ_section_title
;
Structure prediction by ZEFSAII (Michael W. Deem and Ramdas Pophale) SiO2 
 PCOD8076985
Probable space group: P 21/M
;
_chemical_formula_sum "Si O2"
_cell_formula_units_Z 28
_cell_length_a 10.042029
_cell_length_b 14.989816
_cell_length_c 16.736570
_cell_angle_alpha 90.000000
_cell_angle_beta 35.428618
_cell_angle_gamma 90.000000
_cell_volume 1460.423190
_symmetry_space_group_name_H-M "P 21/M"
_symmetry_group_IT_number 11
_symmetry_cell_setting 'monoclinic'
loop_
_space_group_symop_operation_xyz
x,y,z
-x,1/2+y,-z
-x,-y,-z
x,1/2-y,z
loop_
_atom_site_type_symbol
_atom_site_label
_atom_site_fract_x
_atom_site_fract_y
_atom_site_fract_z
Si Si1 0.621862 0.348656 0.918673
Si Si2 0.892294 0.606979 0.870537
Si Si3 0.042818 0.649069 0.632436
Si Si4 0.722503 0.012814 0.741976
Si Si5 0.618492 0.147498 0.666198
Si Si6 0.763313 0.067717 0.000847
Si Si7 0.896922 0.651864 0.047818
O O1 0.676928 0.250000 0.857812
O O2 0.751499 0.425858 0.806460
O O3 0.350955 0.366290 0.049187
O O4 0.702014 0.351008 0.971934
O O5 0.074857 0.634180 0.712317
O O6 0.912364 0.501971 0.876239
O O7 0.930073 0.656607 0.935999
O O8 0.946476 0.750000 0.663693
O O9 0.292862 0.640338 0.468426
O O10 0.881584 0.574094 0.670464
O O11 0.774957 0.079447 0.642274
O O12 0.462204 0.981504 0.857699
O O13 0.643313 0.250000 0.685569
O O14 0.354054 0.116815 0.803515
O O15 0.905907 0.092529 0.009381
O O16 0.929024 0.750000 0.067287
#
# Coordination Sequence:
#
# PCOD8076985 Si02
#       7
#     4   4   4   4   4   4   4
#     4  11  19  33  58  88 118 146 185 239 288 336
#     4  11  20  36  58  85 112 148 194 236 282 337
#     4  11  22  37  58  85 116 152 194 238 283 337
#     4  11  20  36  59  86 115 149 192 239 287 337
#     4  10  22  38  58  83 116 156 194 230 279 347
#     4  11  21  34  57  87 119 143 186 239 295 330
#     4  11  22  37  58  85 115 151 192 234 284 346
#
# _framework density 19.172523999999999
#
# number of rings (size 3 to 8) (size 9 to 14) (size 15 to 20)
#    0.000    1.143    5.714    3.857    0.000    0.571 
#    0.000    0.714    0.000    0.000    0.000    0.000 
#    0.000    0.000    0.000    0.000    0.000    0.000 
#
# Total GULP energy -346956.673802 kJ/mol
# GULP energy per Si atom -12391.309779 kJ/mol
# Density = 1.912889 g / cm^3
# Si number density = 19.172524 Si / 1000 Ang^3
#
#
#
# Elastic Constant Matrix: (Units=GPa)
#
#
# Indices 1 2 3 4 5 6 
#
# 1 100.3748 39.7708 45.3086 0.0000 15.2557 0.0000
# 2 39.7708 106.1220 26.3740 0.0000 0.8195 0.0000
# 3 45.3086 26.3740 109.0353 0.0000 22.8848 0.0000
# 4 0.0000 0.0000 0.0000 23.1140 0.0000 4.6520
# 5 15.2557 0.8195 22.8848 0.0000 17.7559 0.0000
# 6 0.0000 0.0000 0.0000 4.6520 0.0000 17.7957
#
#
#
# Elastic Compliance Matrix: (Units=1/GPa)
#
#
# Indices 1 2 3 4 5 6 
#
# 1 0.014439 -0.004552 -0.003207 0.000000 -0.008063 0.000000
# 2 -0.004552 0.011637 -0.002236 0.000000 0.006256 0.000000
# 3 -0.003207 -0.002236 0.014318 0.000000 -0.015595 0.000000
# 4 0.000000 0.000000 0.000000 0.045666 0.000000 -0.011938
# 5 -0.008063 0.006256 -0.015595 0.000000 0.083058 0.000000
# 6 0.000000 0.000000 0.000000 -0.011938 0.000000 0.059314
#
#
# Mechanical properties :
#
#
# Convention : Reuss Voigt Hill
#
# Bulk Modulus (GPa) = 49.01062 59.82652 54.41857
# Shear Modulus (GPa) = 19.59062 25.33837 22.46450
#
# Velocity S-wave (km/s) = 3.20004 3.63932 3.42673
# Velocity P-wave (km/s) = 6.26675 6.99511 6.64092
#
# Compressibility (1/GPa) = 0.02040374
#
# Stress axis : x y z
#
# Youngs Moduli (GPa) = 69.25557 85.93634 69.84212
#
# Poissons Ratio (x) = 0.39119 0.22396
# Poissons Ratio (y) = 0.31526 0.15618
# Poissons Ratio (z) = 0.22208 0.19217
#
# Static dielectric constant tensor:
#      x y z
#    x 3.249150 0.000000 0.237790 
#    y 0.000000 3.866130 0.000000 
#    z 0.237790 0.000000 3.458350 
# 
# 
# High freq. dielectric constant tensor:
#      x y z
#    x 1.717350 0.000000 0.027000 
#    y 0.000000 1.769500 0.000000 
#    z 0.027000 0.000000 1.726300 
# 
# From -- ./inp_files/47564.got.cif
#   From: 2010.06.25/outbox.cif.g09.slc.cpg/sg11_24_cif.got.tgz:47564.got - 2010.06.27 23:14:04.
