data_PCOD8076311
_publ_section_title
;
Structure prediction by ZEFSAII (Michael W. Deem and Ramdas Pophale) SiO2 
 PCOD8076311
Probable space group: P 21/M
;
_chemical_formula_sum "Si O2"
_cell_formula_units_Z 24
_cell_length_a 15.238087
_cell_length_b 8.656480
_cell_length_c 17.944953
_cell_angle_alpha 90.000000
_cell_angle_beta 31.453075
_cell_angle_gamma 90.000000
_cell_volume 1235.145857
_symmetry_space_group_name_H-M "P 21/M"
_symmetry_group_IT_number 11
_symmetry_cell_setting 'monoclinic'
loop_
_space_group_symop_operation_xyz
x,y,z
-x,1/2+y,-z
-x,-y,-z
x,1/2-y,z
loop_
_atom_site_type_symbol
_atom_site_label
_atom_site_fract_x
_atom_site_fract_y
_atom_site_fract_z
Si Si1 0.463718 0.929823 0.105859
Si Si2 0.652782 0.431941 0.583727
Si Si3 0.991319 0.569107 0.087942
Si Si4 0.668653 0.567684 0.411275
Si Si5 0.318617 0.073436 0.912439
Si Si6 0.831316 0.931837 0.590036
O O1 0.411220 0.750000 0.139003
O O2 0.625605 0.948207 0.042169
O O3 0.313167 0.030527 0.246715
O O4 0.500000 0.000000 0.000000
O O5 0.666379 0.250000 0.561741
O O6 0.688533 0.518594 0.481733
O O7 0.469407 0.477671 0.748248
O O8 0.795653 0.485836 0.537361
O O9 0.975205 0.750000 0.091120
O O10 0.827939 0.503412 0.249316
O O11 0.000000 0.500000 0.000000
O O12 0.157358 0.531309 0.014877
O O13 0.500000 0.500000 0.500000
O O14 0.659478 0.750000 0.412501
O O15 0.269576 0.250000 0.931521
O O16 0.846005 0.750000 0.566977
O O17 0.000000 0.000000 0.500000
#
# Coordination Sequence:
#
# PCOD8076311 Si02
#       6
#     4   4   4   4   4   4
#     4  10  21  38  59  86 119 155 195 241 289 343
#     4  10  21  39  61  86 115 149 190 238 288 344
#     4  11  24  39  58  84 114 146 186 232 280 336
#     4  11  24  40  58  85 116 150 191 236 285 341
#     4   9  20  38  59  83 113 147 187 232 281 335
#     4  11  22  38  60  86 117 155 196 241 292 347
#
# _framework density 19.430903000000001
#
# number of rings (size 3 to 8) (size 9 to 14) (size 15 to 20)
#    0.000    1.667    0.000    5.500    0.000   12.000 
#    0.000    3.333    0.000    0.000    0.000    0.000 
#    0.000    0.000    0.000    0.000    0.000    0.000 
#
# Total GULP energy -297687.811841 kJ/mol
# GULP energy per Si atom -12403.658827 kJ/mol
# Density = 1.938668 g / cm^3
# Si number density = 19.430903 Si / 1000 Ang^3
#
#
#
# Elastic Constant Matrix: (Units=GPa)
#
#
# Indices 1 2 3 4 5 6 
#
# 1 131.1989 21.2685 78.6266 0.0000 3.2828 0.0000
# 2 21.2685 58.7375 32.9848 0.0000 -4.7899 0.0000
# 3 78.6266 32.9848 117.5605 0.0000 1.7944 0.0000
# 4 0.0000 0.0000 0.0000 33.9334 0.0000 -0.2372
# 5 3.2828 -4.7899 1.7944 0.0000 43.9173 0.0000
# 6 0.0000 0.0000 0.0000 -0.2372 0.0000 41.1849
#
#
#
# Elastic Compliance Matrix: (Units=1/GPa)
#
#
# Indices 1 2 3 4 5 6 
#
# 1 0.012738 0.000141 -0.008550 0.000000 -0.000587 0.000000
# 2 0.000141 0.020475 -0.005877 0.000000 0.002463 0.000000
# 3 -0.008550 -0.005877 0.015883 0.000000 -0.000651 0.000000
# 4 0.000000 0.000000 0.000000 0.029471 0.000000 0.000170
# 5 -0.000587 0.002463 -0.000651 0.000000 0.023109 0.000000
# 6 0.000000 0.000000 0.000000 0.000170 0.000000 0.024282
#
#
# Mechanical properties :
#
#
# Convention : Reuss Voigt Hill
#
# Bulk Modulus (GPa) = 48.72123 63.69519 56.20821
# Shear Modulus (GPa) = 30.98472 35.44826 33.21649
#
# Velocity S-wave (km/s) = 3.99759 4.27584 4.13906
# Velocity P-wave (km/s) = 6.81441 7.56496 7.19947
#
# Compressibility (1/GPa) = 0.02052493
#
# Stress axis : x y z
#
# Youngs Moduli (GPa) = 78.50720 48.84064 62.95906
#
# Poissons Ratio (x) = -0.00689 0.53829
# Poissons Ratio (y) = -0.01108 0.36999
# Poissons Ratio (z) = 0.67122 0.28702
#
# Static dielectric constant tensor:
#      x y z
#    x 3.676810 0.000000 0.028420 
#    y 0.000000 3.654560 0.000000 
#    z 0.028420 0.000000 3.665050 
# 
# 
# High freq. dielectric constant tensor:
#      x y z
#    x 1.772240 0.000000 0.001290 
#    y 0.000000 1.767060 0.000000 
#    z 0.001290 0.000000 1.757030 
# 
# From -- ./inp_files/29140.got.cif
#   From: 2010.06.25/outbox.cif.g09.slc.cpg/sg11_15_cif.got.tgz:29140.got - 2010.06.27 23:14:04.
