data_PCOD8076181
_publ_section_title
;
Structure prediction by ZEFSAII (Michael W. Deem and Ramdas Pophale) SiO2 
 PCOD8076181
Probable space group: P 21/M
;
_chemical_formula_sum "Si O2"
_cell_formula_units_Z 32
_cell_length_a 19.719504
_cell_length_b 14.298704
_cell_length_c 5.095280
_cell_angle_alpha 90.000000
_cell_angle_beta 94.041305
_cell_angle_gamma 90.000000
_cell_volume 1433.109916
_symmetry_space_group_name_H-M "P 21/M"
_symmetry_group_IT_number 11
_symmetry_cell_setting 'monoclinic'
loop_
_space_group_symop_operation_xyz
x,y,z
-x,1/2+y,-z
-x,-y,-z
x,1/2-y,z
loop_
_atom_site_type_symbol
_atom_site_label
_atom_site_fract_x
_atom_site_fract_y
_atom_site_fract_z
Si Si1 0.547323 0.500474 0.262909
Si Si2 0.959644 0.593045 0.500856
Si Si3 0.969482 0.351582 0.974579
Si Si4 0.663918 0.644236 0.405677
Si Si5 0.655384 0.354342 0.148249
Si Si6 0.246744 0.142417 0.078574
Si Si7 0.856563 0.497418 0.788105
Si Si8 0.259403 0.855712 0.315286
O O1 0.500000 0.500000 0.500000
O O2 0.596998 0.588263 0.306286
O O3 0.591084 0.407666 0.243552
O O4 0.500000 0.500000 0.000000
O O5 0.882634 0.561973 0.552194
O O6 0.000000 0.500000 0.500000
O O7 0.969267 0.643021 0.223632
O O8 0.992733 0.655151 0.738496
O O9 0.932229 0.250000 0.926448
O O10 0.918505 0.441527 0.949610
O O11 0.639437 0.750000 0.443173
O O12 0.701037 0.607152 0.679515
O O13 0.717789 0.635455 0.189934
O O14 0.629913 0.250000 0.080111
O O15 0.711566 0.356737 0.386988
O O16 0.688320 0.397329 0.890129
O O17 0.223919 0.250000 0.130453
O O18 0.182900 0.071683 0.038970
O O19 0.807659 0.416595 0.674071
O O20 0.240509 0.750000 0.223140
#
# Coordination Sequence:
#
# PCOD8076181 Si02
#       8
#     4   4   4   4   4   4   4   4
#     4  12  24  37  60  89 113 151 200 239 282 342
#     4  10  23  41  60  86 122 165 203 248 307 360
#     4  11  24  42  62  88 125 166 205 251 308 370
#     4  10  22  42  60  83 120 156 190 239 297 348
#     4  10  22  40  58  84 123 155 185 236 298 351
#     4  10  22  38  61  87 115 154 197 243 298 354
#     4  11  22  39  63  91 119 152 203 254 300 356
#     4  10  21  37  61  88 116 153 190 236 300 363
#
# _framework density 22.329063999999999
#
# number of rings (size 3 to 8) (size 9 to 14) (size 15 to 20)
#    0.000    1.500    0.000    5.250    0.000    8.000 
#    0.000    5.000    0.000    0.000    0.000    0.000 
#    0.000    0.000    0.000    0.000    0.000    0.000 
#
# Total GULP energy -396596.258114 kJ/mol
# GULP energy per Si atom -12393.633066 kJ/mol
# Density = 2.227824 g / cm^3
# Si number density = 22.329064 Si / 1000 Ang^3
#
#
#
# Elastic Constant Matrix: (Units=GPa)
#
#
# Indices 1 2 3 4 5 6 
#
# 1 106.8202 56.1945 17.2271 0.0000 -9.9911 0.0000
# 2 56.1945 106.8560 21.4213 0.0000 -4.8251 0.0000
# 3 17.2271 21.4213 101.2388 0.0000 -3.9745 0.0000
# 4 0.0000 0.0000 0.0000 19.0595 0.0000 1.2643
# 5 -9.9911 -4.8251 -3.9745 0.0000 19.3001 0.0000
# 6 0.0000 0.0000 0.0000 1.2643 0.0000 15.3545
#
#
#
# Elastic Compliance Matrix: (Units=1/GPa)
#
#
# Indices 1 2 3 4 5 6 
#
# 1 0.013492 -0.006728 -0.000670 0.000000 0.005164 0.000000
# 2 -0.006728 0.013208 -0.001670 0.000000 -0.000525 0.000000
# 3 -0.000670 -0.001670 0.010399 0.000000 0.001377 0.000000
# 4 0.000000 0.000000 0.000000 0.052755 0.000000 -0.004344
# 5 0.005164 -0.000525 0.001377 0.000000 0.054639 0.000000
# 6 0.000000 0.000000 0.000000 -0.004344 0.000000 0.065485
#
#
# Mechanical properties :
#
#
# Convention : Reuss Voigt Hill
#
# Bulk Modulus (GPa) = 52.73403 56.06678 54.40040
# Shear Modulus (GPa) = 21.32792 25.41430 23.37111
#
# Velocity S-wave (km/s) = 3.09393 3.37734 3.23873
# Velocity P-wave (km/s) = 6.03583 6.35393 6.19692
#
# Compressibility (1/GPa) = 0.01896309
#
# Stress axis : x y z
#
# Youngs Moduli (GPa) = 74.11906 75.71376 96.16236
#
# Poissons Ratio (x) = 0.50939 0.06438
# Poissons Ratio (y) = 0.49866 0.16063
# Poissons Ratio (z) = 0.04962 0.12647
#
# Static dielectric constant tensor:
#      x y z
#    x 3.822670 0.000000 -0.630600 
#    y 0.000000 3.743720 0.000000 
#    z -0.630600 0.000000 5.701030 
# 
# 
# High freq. dielectric constant tensor:
#      x y z
#    x 1.865600 0.000000 -0.010730 
#    y 0.000000 1.894910 0.000000 
#    z -0.010730 0.000000 1.889090 
# 
# From -- ./inp_files/8106.got.cif
#   From: 2010.06.25/outbox.cif.g09.slc.cpg/sg11_5_cif.got.tgz:8106.got - 2010.06.27 23:14:04.
