data_PCOD8076347
_publ_section_title
;
Structure prediction by ZEFSAII (Michael W. Deem and Ramdas Pophale) SiO2 
 PCOD8076347
Probable space group: P 21/M
;
_chemical_formula_sum "Si O2"
_cell_formula_units_Z 28
_cell_length_a 18.331637
_cell_length_b 13.310632
_cell_length_c 7.179194
_cell_angle_alpha 90.000000
_cell_angle_beta 128.572964
_cell_angle_gamma 90.000000
_cell_volume 1369.555031
_symmetry_space_group_name_H-M "P 21/M"
_symmetry_group_IT_number 11
_symmetry_cell_setting 'monoclinic'
loop_
_space_group_symop_operation_xyz
x,y,z
-x,1/2+y,-z
-x,-y,-z
x,1/2-y,z
loop_
_atom_site_type_symbol
_atom_site_label
_atom_site_fract_x
_atom_site_fract_y
_atom_site_fract_z
Si Si1 0.876141 0.860160 0.139763
Si Si2 0.586834 0.135712 0.127580
Si Si3 0.931423 0.366778 0.369286
Si Si4 0.292346 0.137795 0.850579
Si Si5 0.522154 0.973616 0.747957
Si Si6 0.783767 0.443077 0.415118
Si Si7 0.093382 0.964650 0.052841
O O1 0.899883 0.750000 0.096015
O O2 0.785093 0.852667 0.116973
O O3 0.966533 0.901985 0.396886
O O4 0.854931 0.936141 0.939832
O O5 0.552290 0.250000 0.067198
O O6 0.562631 0.087265 0.290610
O O7 0.697365 0.132688 0.268039
O O8 0.533688 0.077798 0.877620
O O9 0.915846 0.250000 0.386016
O O10 0.849448 0.429601 0.338904
O O11 0.926393 0.384503 0.140377
O O12 0.309443 0.250000 0.791558
O O13 0.255029 0.058105 0.637956
O O14 0.386059 0.095462 0.093332
O O15 0.500000 0.000000 0.500000
O O16 0.840383 0.413898 0.689551
O O17 0.000000 0.000000 0.000000
#
# Coordination Sequence:
#
# PCOD8076347 Si02
#       7
#     4   4   4   4   4   4   4
#     4  10  21  38  60  86 120 161 204 251 304 359
#     4  10  23  42  63  94 129 163 205 256 309 372
#     4  11  23  40  59  87 128 168 208 255 303 356
#     4  10  21  40  64  88 122 162 200 249 309 364
#     4  10  23  42  68  95 123 161 203 257 315 373
#     4  11  23  39  64  90 126 165 208 251 305 363
#     4  12  23  37  63  88 122 166 209 256 303 356
#
# _framework density 20.444596000000001
#
# number of rings (size 3 to 8) (size 9 to 14) (size 15 to 20)
#    0.000    1.429    2.857    2.143    2.000    3.429 
#    0.000    0.000    0.000    0.000    0.000    0.000 
#    0.000    0.000    0.000    0.000    0.000    0.000 
#
# Total GULP energy -347207.035678 kJ/mol
# GULP energy per Si atom -12400.251274 kJ/mol
# Density = 2.039806 g / cm^3
# Si number density = 20.444596 Si / 1000 Ang^3
#
#
#
# Elastic Constant Matrix: (Units=GPa)
#
#
# Indices 1 2 3 4 5 6 
#
# 1 108.8890 25.6856 35.9807 0.0000 5.4485 0.0000
# 2 25.6856 104.7575 23.9094 0.0000 -4.6753 0.0000
# 3 35.9807 23.9094 98.2840 0.0000 -13.2436 0.0000
# 4 0.0000 0.0000 0.0000 19.7967 0.0000 0.2639
# 5 5.4485 -4.6753 -13.2436 0.0000 30.8200 0.0000
# 6 0.0000 0.0000 0.0000 0.2639 0.0000 28.0833
#
#
#
# Elastic Compliance Matrix: (Units=1/GPa)
#
#
# Indices 1 2 3 4 5 6 
#
# 1 0.011238 -0.001983 -0.004182 0.000000 -0.004084 0.000000
# 2 -0.001983 0.010464 -0.001654 0.000000 0.001227 0.000000
# 3 -0.004182 -0.001654 0.012922 0.000000 0.006041 0.000000
# 4 0.000000 0.000000 0.000000 0.050520 0.000000 -0.000475
# 5 -0.004084 0.001227 0.006041 0.000000 0.035951 0.000000
# 6 0.000000 0.000000 0.000000 -0.000475 0.000000 0.035613
#
#
# Mechanical properties :
#
#
# Convention : Reuss Voigt Hill
#
# Bulk Modulus (GPa) = 52.67225 53.67576 53.17401
# Shear Modulus (GPa) = 27.98382 30.83032 29.40707
#
# Velocity S-wave (km/s) = 3.70369 3.88750 3.79671
# Velocity P-wave (km/s) = 6.64147 6.81627 6.72944
#
# Compressibility (1/GPa) = 0.01898533
#
# Stress axis : x y z
#
# Youngs Moduli (GPa) = 88.98615 95.56154 77.38745
#
# Poissons Ratio (x) = 0.18952 0.32363
# Poissons Ratio (y) = 0.17648 0.12802
# Poissons Ratio (z) = 0.37213 0.15809
#
# Static dielectric constant tensor:
#      x y z
#    x 3.790930 0.000000 0.137690 
#    y 0.000000 -50.930330 0.000000 
#    z 0.137690 0.000000 3.148340 
# 
# 
# High freq. dielectric constant tensor:
#      x y z
#    x 1.811950 0.000000 0.006440 
#    y 0.000000 1.812690 0.000000 
#    z 0.006440 0.000000 1.775790 
# 
# From -- ./inp_files/8151.got.cif
#   From: 2010.06.25/outbox.cif.g09.slc.cpg/sg11_5_cif.got.tgz:8151.got - 2010.06.27 23:14:04.
