data_PCOD8076907
_publ_section_title
;
Structure prediction by ZEFSAII (Michael W. Deem and Ramdas Pophale) SiO2 
 PCOD8076907
Probable space group: P 21/M
;
_chemical_formula_sum "Si O2"
_cell_formula_units_Z 28
_cell_length_a 8.601858
_cell_length_b 24.462734
_cell_length_c 9.219891
_cell_angle_alpha 90.000000
_cell_angle_beta 135.567042
_cell_angle_gamma 90.000000
_cell_volume 1358.210633
_symmetry_space_group_name_H-M "P 21/M"
_symmetry_group_IT_number 11
_symmetry_cell_setting 'monoclinic'
loop_
_space_group_symop_operation_xyz
x,y,z
-x,1/2+y,-z
-x,-y,-z
x,1/2-y,z
loop_
_atom_site_type_symbol
_atom_site_label
_atom_site_fract_x
_atom_site_fract_y
_atom_site_fract_z
Si Si1 0.568440 0.007515 0.209848
Si Si2 0.133105 0.606431 0.580035
Si Si3 0.836747 0.550490 0.880949
Si Si4 0.721188 0.593036 0.491838
Si Si5 0.482406 0.311700 0.191187
Si Si6 0.449372 0.811101 0.433898
Si Si7 0.981869 0.854716 0.171547
O O1 0.790978 0.043496 0.363925
O O2 0.382176 0.040763 0.171430
O O3 0.607264 0.948246 0.303736
O O4 0.500000 0.000000 0.000000
O O5 0.333958 0.647590 0.751389
O O6 0.950118 0.616411 0.581296
O O7 0.030849 0.615092 0.354087
O O8 0.764511 0.560590 0.668466
O O9 0.964257 0.602276 0.029790
O O10 0.000000 0.500000 0.000000
O O11 0.554712 0.644112 0.397961
O O12 0.563917 0.250000 0.215784
O O13 0.449590 0.322482 0.340127
O O14 0.244732 0.320906 0.957774
O O15 0.510924 0.750000 0.421162
O O16 0.182583 0.814740 0.262751
#
# Coordination Sequence:
#
# PCOD8076907 Si02
#       7
#     4   4   4   4   4   4   4
#     4  12  24  43  66  94 134 179 219 271 330 400
#     4  11  24  41  64  95 133 170 221 267 320 396
#     4  12  22  38  64  98 132 168 219 267 328 391
#     4  12  24  41  64  99 136 171 218 274 333 389
#     4  10  21  42  69  93 126 174 222 266 324 396
#     4  10  22  41  65  96 130 168 218 275 331 392
#     4  11  20  42  66  93 125 172 218 262 324 394
#
# _framework density 20.615359000000002
#
# number of rings (size 3 to 8) (size 9 to 14) (size 15 to 20)
#    0.000    0.857    2.857    5.571    0.000    1.143 
#    0.000    0.000    0.000    0.000    0.000    0.000 
#    0.000    0.000    0.000    0.000    0.000    0.000 
#
# Total GULP energy -347382.432618 kJ/mol
# GULP energy per Si atom -12406.515451 kJ/mol
# Density = 2.056844 g / cm^3
# Si number density = 20.615359 Si / 1000 Ang^3
#
#
#
# Elastic Constant Matrix: (Units=GPa)
#
#
# Indices 1 2 3 4 5 6 
#
# 1 118.6177 50.1572 53.3294 0.0000 -0.3777 0.0000
# 2 50.1572 130.6455 51.3643 0.0000 -3.0245 0.0000
# 3 53.3294 51.3643 125.9807 0.0000 0.7082 0.0000
# 4 0.0000 0.0000 0.0000 27.1724 0.0000 6.8509
# 5 -0.3777 -3.0245 0.7082 0.0000 33.5273 0.0000
# 6 0.0000 0.0000 0.0000 6.8509 0.0000 27.1643
#
#
#
# Elastic Compliance Matrix: (Units=1/GPa)
#
#
# Indices 1 2 3 4 5 6 
#
# 1 0.011276 -0.002922 -0.003582 0.000000 -0.000061 0.000000
# 2 -0.002922 0.009900 -0.002805 0.000000 0.000919 0.000000
# 3 -0.003582 -0.002805 0.010600 0.000000 -0.000517 0.000000
# 4 0.000000 0.000000 0.000000 0.039301 0.000000 -0.009912
# 5 -0.000061 0.000919 -0.000517 0.000000 0.029920 0.000000
# 6 0.000000 0.000000 0.000000 -0.009912 0.000000 0.039313
#
#
# Mechanical properties :
#
#
# Convention : Reuss Voigt Hill
#
# Bulk Modulus (GPa) = 75.99001 76.10509 76.04755
# Shear Modulus (GPa) = 30.61597 32.26568 31.44082
#
# Velocity S-wave (km/s) = 3.85789 3.96046 3.90951
# Velocity P-wave (km/s) = 7.53560 7.60990 7.57284
#
# Compressibility (1/GPa) = 0.01315962
#
# Stress axis : x y z
#
# Youngs Moduli (GPa) = 88.68225 101.00824 94.33812
#
# Poissons Ratio (x) = 0.29519 0.33787
# Poissons Ratio (y) = 0.25917 0.26457
# Poissons Ratio (z) = 0.31762 0.28328
#
# Static dielectric constant tensor:
#      x y z
#    x 3.735200 0.000000 0.106710 
#    y 0.000000 3.797930 0.000000 
#    z 0.106710 0.000000 3.790940 
# 
# 
# High freq. dielectric constant tensor:
#      x y z
#    x 1.801870 0.000000 0.010890 
#    y 0.000000 1.817170 0.000000 
#    z 0.010890 0.000000 1.814650 
# 
# From -- ./inp_files/15305.got.cif
#   From: 2010.06.25/outbox.cif.g09.slc.cpg/sg11_8_cif.got.tgz:15305.got - 2010.06.27 23:14:04.
