data_PCOD8076403
_publ_section_title
;
Structure prediction by ZEFSAII (Michael W. Deem and Ramdas Pophale) SiO2 
 PCOD8076403
Probable space group: P 21/M
;
_chemical_formula_sum "Si O2"
_cell_formula_units_Z 20
_cell_length_a 9.668457
_cell_length_b 13.733785
_cell_length_c 12.013431
_cell_angle_alpha 90.000000
_cell_angle_beta 38.050108
_cell_angle_gamma 90.000000
_cell_volume 983.200636
_symmetry_space_group_name_H-M "P 21/M"
_symmetry_group_IT_number 11
_symmetry_cell_setting 'monoclinic'
loop_
_space_group_symop_operation_xyz
x,y,z
-x,1/2+y,-z
-x,-y,-z
x,1/2-y,z
loop_
_atom_site_type_symbol
_atom_site_label
_atom_site_fract_x
_atom_site_fract_y
_atom_site_fract_z
Si Si1 0.946658 0.022455 0.864436
Si Si2 0.045602 0.429986 0.369429
Si Si3 0.376645 0.856509 0.273616
Si Si4 0.810542 0.635176 0.115520
Si Si5 0.551288 0.135286 0.018187
O O1 0.123374 0.100318 0.802403
O O2 0.027890 0.989170 0.692599
O O3 0.703039 0.075643 0.009856
O O4 0.955169 0.925180 0.934152
O O5 0.289906 0.382107 0.209403
O O6 0.000000 0.500000 0.500000
O O7 0.860969 0.347567 0.513362
O O8 0.460749 0.750000 0.185803
O O9 0.554943 0.896419 0.250468
O O10 0.386519 0.909769 0.145148
O O11 0.858403 0.750000 0.073144
O O12 0.606220 0.250000 0.994401
#
# Coordination Sequence:
#
# PCOD8076403 Si02
#       5
#     4   4   4   4   4
#     4  11  22  39  65  92 123 167 208 256 314 374
#     4  12  22  36  62  95 126 158 208 260 309 367
#     4  10  21  38  61  88 124 166 207 253 308 367
#     4  10  22  41  63  88 124 166 210 258 311 370
#     4  11  22  40  63  92 129 166 209 256 306 369
#
# _framework density 20.341728
#
# number of rings (size 3 to 8) (size 9 to 14) (size 15 to 20)
#    0.000    1.200    4.000    3.000    0.000    1.600 
#    0.000    0.000    0.000    4.800    0.000    0.000 
#    0.000    0.000    0.000    0.000    0.000    0.000 
#
# Total GULP energy -247796.741074 kJ/mol
# GULP energy per Si atom -12389.837054 kJ/mol
# Density = 2.029543 g / cm^3
# Si number density = 20.341728 Si / 1000 Ang^3
#
#
#
# Elastic Constant Matrix: (Units=GPa)
#
#
# Indices 1 2 3 4 5 6 
#
# 1 115.8279 28.4750 22.5914 0.0000 4.1789 0.0000
# 2 28.4750 88.2266 9.2926 0.0000 6.7237 0.0000
# 3 22.5914 9.2926 105.0587 0.0000 2.9232 0.0000
# 4 0.0000 0.0000 0.0000 25.2845 0.0000 -2.5277
# 5 4.1789 6.7237 2.9232 0.0000 31.0544 0.0000
# 6 0.0000 0.0000 0.0000 -2.5277 0.0000 30.8780
#
#
#
# Elastic Compliance Matrix: (Units=1/GPa)
#
#
# Indices 1 2 3 4 5 6 
#
# 1 0.009721 -0.002907 -0.001819 0.000000 -0.000507 0.000000
# 2 -0.002907 0.012490 -0.000416 0.000000 -0.002274 0.000000
# 3 -0.001819 -0.000416 0.009963 0.000000 -0.000603 0.000000
# 4 0.000000 0.000000 0.000000 0.039876 0.000000 0.003264
# 5 -0.000507 -0.002274 -0.000603 0.000000 0.032819 0.000000
# 6 0.000000 0.000000 0.000000 0.003264 0.000000 0.032653
#
#
# Mechanical properties :
#
#
# Convention : Reuss Voigt Hill
#
# Bulk Modulus (GPa) = 45.68501 47.75902 46.72202
# Shear Modulus (GPa) = 32.23639 34.02700 33.13169
#
# Velocity S-wave (km/s) = 3.98520 4.09439 4.04016
# Velocity P-wave (km/s) = 6.60933 6.77357 6.69196
#
# Compressibility (1/GPa) = 0.02188902
#
# Stress axis : x y z
#
# Youngs Moduli (GPa) = 102.86649 80.06467 100.36858
#
# Poissons Ratio (x) = 0.23277 0.18259
# Poissons Ratio (y) = 0.29906 0.04179
# Poissons Ratio (z) = 0.18713 0.03333
#
# Static dielectric constant tensor:
#      x y z
#    x 3.543530 0.000000 0.759050 
#    y 0.000000 3.520770 0.000000 
#    z 0.759050 0.000000 3.968740 
# 
# 
# High freq. dielectric constant tensor:
#      x y z
#    x 1.804460 0.000000 -0.003220 
#    y 0.000000 1.809920 0.000000 
#    z -0.003220 0.000000 1.771230 
# 
# From -- ./inp_files/32026.got.cif
#   From: 2010.06.25/outbox.cif.g09.slc.cpg/sg11_17_cif.got.tgz:32026.got - 2010.06.27 23:14:04.
