data_PCOD8076990
_publ_section_title
;
Structure prediction by ZEFSAII (Michael W. Deem and Ramdas Pophale) SiO2 
 PCOD8076990
Probable space group: P 21/M
;
_chemical_formula_sum "Si O2"
_cell_formula_units_Z 32
_cell_length_a 30.933055
_cell_length_b 8.691438
_cell_length_c 12.353573
_cell_angle_alpha 90.000000
_cell_angle_beta 152.051239
_cell_angle_gamma 90.000000
_cell_volume 1556.628912
_symmetry_space_group_name_H-M "P 21/M"
_symmetry_group_IT_number 11
_symmetry_cell_setting 'monoclinic'
loop_
_space_group_symop_operation_xyz
x,y,z
-x,1/2+y,-z
-x,-y,-z
x,1/2-y,z
loop_
_atom_site_type_symbol
_atom_site_label
_atom_site_fract_x
_atom_site_fract_y
_atom_site_fract_z
Si Si1 0.987247 0.580692 0.191046
Si Si2 0.511934 0.931316 0.908242
Si Si3 0.207304 0.068482 0.289953
Si Si4 0.087286 0.079618 0.740272
Si Si5 0.182427 0.428782 0.627532
Si Si6 0.298077 0.569769 0.696891
Si Si7 0.329751 0.930077 0.383164
Si Si8 0.249582 0.573929 0.990589
O O1 0.024409 0.750000 0.237606
O O2 0.927500 0.600440 0.166499
O O3 0.073277 0.466828 0.395519
O O4 0.901460 0.522329 0.926647
O O5 0.516080 0.750000 0.928004
O O6 0.427770 0.985203 0.646356
O O7 0.500000 0.000000 0.000000
O O8 0.605250 0.990840 0.058657
O O9 0.219323 0.250000 0.333322
O O10 0.268562 0.978387 0.511859
O O11 0.246982 0.022421 0.259429
O O12 0.105925 0.250000 0.729729
O O13 0.000000 0.000000 0.500000
O O14 0.165553 0.958316 0.884931
O O15 0.193210 0.250000 0.628257
O O16 0.220883 0.521437 0.611572
O O17 0.241149 0.469610 0.865033
O O18 0.312720 0.750000 0.732750
O O19 0.312431 0.750000 0.365802
O O20 0.333639 0.962044 0.260320
O O21 0.249052 0.750000 0.949520
#
# Coordination Sequence:
#
# PCOD8076990 Si02
#       8
#     4   4   4   4   4   4   4   4
#     4  10  22  38  58  89 127 166 208 256 309 365
#     4  11  22  40  67 100 129 160 203 255 313 373
#     4  11  22  38  63  94 128 162 205 258 310 367
#     4  11  20  32  53  84 119 160 207 256 302 354
#     4  12  26  43  64  88 120 169 218 259 307 372
#     4  12  26  45  66  90 124 165 208 257 314 378
#     4  10  22  38  62  96 131 162 200 253 315 370
#     4  11  22  38  60  89 127 167 207 256 310 367
#
# _framework density 20.557244000000001
#
# number of rings (size 3 to 8) (size 9 to 14) (size 15 to 20)
#    0.000    1.000    3.750    3.750    0.000    3.000 
#    0.000    0.625    0.000    0.000    0.000    0.000 
#    0.000    0.000    0.000    0.000    0.000    0.000 
#
# Total GULP energy -396619.635022 kJ/mol
# GULP energy per Si atom -12394.363594 kJ/mol
# Density = 2.051045 g / cm^3
# Si number density = 20.557244 Si / 1000 Ang^3
#
#
#
# Elastic Constant Matrix: (Units=GPa)
#
#
# Indices 1 2 3 4 5 6 
#
# 1 50.5493 9.4926 8.3853 0.0000 -1.4405 0.0000
# 2 9.4926 82.1953 37.8319 0.0000 -1.6735 0.0000
# 3 8.3853 37.8319 113.1491 0.0000 -3.1776 0.0000
# 4 0.0000 0.0000 0.0000 22.5934 0.0000 2.0811
# 5 -1.4405 -1.6735 -3.1776 0.0000 21.7975 0.0000
# 6 0.0000 0.0000 0.0000 2.0811 0.0000 33.3901
#
#
#
# Elastic Compliance Matrix: (Units=1/GPa)
#
#
# Indices 1 2 3 4 5 6 
#
# 1 0.020315 -0.001944 -0.000825 0.000000 0.001073 0.000000
# 2 -0.001944 0.014569 -0.004718 0.000000 0.000302 0.000000
# 3 -0.000825 -0.004718 0.010508 0.000000 0.001115 0.000000
# 4 0.000000 0.000000 0.000000 0.044516 0.000000 -0.002775
# 5 0.001073 0.000302 0.001115 0.000000 0.046134 0.000000
# 6 0.000000 0.000000 0.000000 -0.002775 0.000000 0.030122
#
#
# Mechanical properties :
#
#
# Convention : Reuss Voigt Hill
#
# Bulk Modulus (GPa) = 32.87801 39.70147 36.28974
# Shear Modulus (GPa) = 26.13986 28.23512 27.18749
#
# Velocity S-wave (km/s) = 3.56977 3.71008 3.64060
# Velocity P-wave (km/s) = 5.74623 6.14064 5.94671
#
# Compressibility (1/GPa) = 0.03041546
#
# Stress axis : x y z
#
# Youngs Moduli (GPa) = 49.22401 68.64058 95.16542
#
# Poissons Ratio (x) = 0.13347 0.07854
# Poissons Ratio (y) = 0.09572 0.44904
# Poissons Ratio (z) = 0.04062 0.32388
#
# Static dielectric constant tensor:
#      x y z
#    x 3.466740 0.000000 -0.099180 
#    y 0.000000 3.689510 0.000000 
#    z -0.099180 0.000000 4.130970 
# 
# 
# High freq. dielectric constant tensor:
#      x y z
#    x 1.779400 0.000000 -0.010350 
#    y 0.000000 1.809890 0.000000 
#    z -0.010350 0.000000 1.820670 
# 
# From -- ./inp_files/45245.got.cif
#   From: 2010.06.25/outbox.cif.g09.slc.cpg/sg11_23_cif.got.tgz:45245.got - 2010.06.27 23:14:04.
