data_PCOD8076430
_publ_section_title
;
Structure prediction by ZEFSAII (Michael W. Deem and Ramdas Pophale) SiO2 
 PCOD8076430
Probable space group: P 21/M
;
_chemical_formula_sum "Si O2"
_cell_formula_units_Z 22
_cell_length_a 11.042612
_cell_length_b 9.711721
_cell_length_c 15.226894
_cell_angle_alpha 90.000000
_cell_angle_beta 134.963402
_cell_angle_gamma 90.000000
_cell_volume 1155.424488
_symmetry_space_group_name_H-M "P 21/M"
_symmetry_group_IT_number 11
_symmetry_cell_setting 'monoclinic'
loop_
_space_group_symop_operation_xyz
x,y,z
-x,1/2+y,-z
-x,-y,-z
x,1/2-y,z
loop_
_atom_site_type_symbol
_atom_site_label
_atom_site_fract_x
_atom_site_fract_y
_atom_site_fract_z
Si Si1 0.811788 0.750000 0.496775
Si Si2 0.479108 0.750000 0.696728
Si Si3 0.269898 0.480361 0.146383
Si Si4 0.117600 0.976139 0.365708
Si Si5 0.968488 0.091612 0.118042
Si Si6 0.387768 0.750000 0.462930
Si Si7 0.926586 0.250000 0.524282
Si Si8 0.554704 0.250000 0.700533
O O1 0.813375 0.616046 0.557895
O O2 0.632525 0.750000 0.349918
O O3 0.969609 0.750000 0.511731
O O4 0.565452 0.883628 0.784753
O O5 0.518339 0.750000 0.611903
O O6 0.274631 0.750000 0.605391
O O7 0.329469 0.622207 0.217369
O O8 0.139124 0.408974 0.146511
O O9 0.182174 0.508884 0.007909
O O10 0.274152 0.887985 0.407905
O O11 0.024957 0.885218 0.393833
O O12 0.989447 0.012837 0.221045
O O13 0.915485 0.250000 0.107547
O O14 0.492719 0.750000 0.427228
#
# Coordination Sequence:
#
# PCOD8076430 Si02
#       8
#     2   2   4   4   4   2   2   2
#     4  12  24  37  65  84 116 162 197 250 302 328
#     4  10  22  39  58  81 122 159 194 244 293 348
#     4  11  23  35  58  88 126 160 188 235 289 358
#     4  10  21  38  62  84 118 158 190 247 292 353
#     4  11  21  37  58  90 126 154 195 232 289 360
#     4  10  22  35  54  94 130 145 193 230 305 368
#     4  10  24  45  58  88 115 154 209 247 290 354
#     4  12  22  34  57  91 125 158 189 245 288 360
#
# _framework density 19.040620000000001
#
# number of rings (size 3 to 8) (size 9 to 14) (size 15 to 20)
#    0.000    1.455    4.545    2.727    2.545    2.909 
#    0.000    0.000    0.000    6.545    0.000    0.000 
#    0.000    0.000    0.000    0.000    0.000    0.000 
#
# Total GULP energy -272795.531433 kJ/mol
# GULP energy per Si atom -12399.796883 kJ/mol
# Density = 1.899728 g / cm^3
# Si number density = 19.040620 Si / 1000 Ang^3
#
#
#
# Elastic Constant Matrix: (Units=GPa)
#
#
# Indices 1 2 3 4 5 6 
#
# 1 66.3345 26.8237 40.1374 0.0000 5.4241 0.0000
# 2 26.8237 144.3814 55.3330 0.0000 -2.3965 0.0000
# 3 40.1374 55.3330 140.6825 0.0000 4.5447 0.0000
# 4 0.0000 0.0000 0.0000 34.4865 0.0000 -3.3259
# 5 5.4241 -2.3965 4.5447 0.0000 14.7144 0.0000
# 6 0.0000 0.0000 0.0000 -3.3259 0.0000 0.2727
#
#
#
# Elastic Compliance Matrix: (Units=1/GPa)
#
#
# Indices 1 2 3 4 5 6 
#
# 1 0.019054 -0.001918 -0.004490 0.000000 -0.005949 0.000000
# 2 -0.001918 0.008429 -0.002864 0.000000 0.002964 0.000000
# 3 -0.004490 -0.002864 0.009573 0.000000 -0.001768 0.000000
# 4 0.000000 0.000000 0.000000 -0.164520 0.000000 -2.006572
# 5 -0.005949 0.002964 -0.001768 0.000000 0.071183 0.000000
# 6 0.000000 0.000000 0.000000 -2.006572 0.000000-20.806119
#
#
# Mechanical properties :
#
#
# Convention : Reuss Voigt Hill
#
# Bulk Modulus (GPa) = 54.01724 66.22074 60.11899
# Shear Modulus (GPa) = -0.23995 25.16833 12.46419
#
# Velocity S-wave (km/s) = -0.35538 3.63963 2.56131
# Velocity P-wave (km/s) = 5.31626 7.24684 6.35529
#
# Compressibility (1/GPa) = 0.01851261
#
# Stress axis : x y z
#
# Youngs Moduli (GPa) = 52.48328 118.63509 104.46456
#
# Poissons Ratio (x) = 0.22755 0.46899
# Poissons Ratio (y) = 0.10067 0.29918
# Poissons Ratio (z) = 0.23562 0.33976
#
# Static dielectric constant tensor:
#      x y z
#    x 3.065420 0.000000 -0.025340 
#    y 0.000000 3.717750 0.000000 
#    z -0.025340 0.000000 3.636490 
# 
# 
# High freq. dielectric constant tensor:
#      x y z
#    x 1.695890 0.000000 0.002340 
#    y 0.000000 1.766170 0.000000 
#    z 0.002340 0.000000 1.747020 
# 
# From -- ./inp_files/48858.got.cif
#   From: 2010.06.25/outbox.cif.g09.slc.cpg/sg11_25_cif.got.tgz:48858.got - 2010.06.27 23:14:04.
