data_PCOD8076407
_publ_section_title
;
Structure prediction by ZEFSAII (Michael W. Deem and Ramdas Pophale) SiO2 
 PCOD8076407
Probable space group: P 21/M
;
_chemical_formula_sum "Si O2"
_cell_formula_units_Z 24
_cell_length_a 14.488629
_cell_length_b 8.348670
_cell_length_c 9.923839
_cell_angle_alpha 90.000000
_cell_angle_beta 99.088664
_cell_angle_gamma 90.000000
_cell_volume 1185.324460
_symmetry_space_group_name_H-M "P 21/M"
_symmetry_group_IT_number 11
_symmetry_cell_setting 'monoclinic'
loop_
_space_group_symop_operation_xyz
x,y,z
-x,1/2+y,-z
-x,-y,-z
x,1/2-y,z
loop_
_atom_site_type_symbol
_atom_site_label
_atom_site_fract_x
_atom_site_fract_y
_atom_site_fract_z
Si Si1 0.229897 0.063210 0.767641
Si Si2 0.736709 0.563293 0.926816
Si Si3 0.619003 0.435576 0.393908
Si Si4 0.594461 0.939034 0.675789
Si Si5 0.927564 0.064554 0.876077
Si Si6 0.031053 0.563188 0.650003
O O1 0.203152 0.250000 0.771823
O O2 0.313428 0.041353 0.682044
O O3 0.140531 0.965505 0.697206
O O4 0.260343 0.992190 0.920948
O O5 0.721638 0.750000 0.937135
O O6 0.649986 0.494762 0.819421
O O7 0.831057 0.528867 0.867922
O O8 0.639405 0.250000 0.371168
O O9 0.513696 0.484006 0.329186
O O10 0.636610 0.473618 0.554593
O O11 0.607684 0.750000 0.657627
O O12 0.908866 0.250000 0.898254
O O13 0.968804 0.037186 0.738745
O O14 0.000000 0.000000 0.000000
O O15 0.008892 0.750000 0.660686
O O16 0.000000 0.500000 0.500000
#
# Coordination Sequence:
#
# PCOD8076407 Si02
#       6
#     4   4   4   4   4   4
#     4  11  23  40  62  89 123 161 203 252 307 363
#     4  10  22  40  63  89 120 160 208 253 302 362
#     4  10  21  38  61  89 123 159 201 253 306 364
#     4   9  20  40  63  88 119 159 204 251 305 365
#     4  12  24  41  64  91 125 164 205 252 304 362
#     4  12  26  44  65  91 124 162 206 254 306 365
#
# _framework density 20.247622
#
# number of rings (size 3 to 8) (size 9 to 14) (size 15 to 20)
#    0.000    1.333    1.667    4.000    2.333    2.667 
#    0.000    0.000    0.000    0.000    0.000    0.000 
#    0.000    0.000    0.000    0.000    0.000    0.000 
#
# Total GULP energy -297707.674883 kJ/mol
# GULP energy per Si atom -12404.486453 kJ/mol
# Density = 2.020154 g / cm^3
# Si number density = 20.247622 Si / 1000 Ang^3
#
#
#
# Elastic Constant Matrix: (Units=GPa)
#
#
# Indices 1 2 3 4 5 6 
#
# 1 94.5639 3.9744 61.1332 0.0000 5.4527 0.0000
# 2 3.9744 32.6955 15.2101 0.0000 9.0301 0.0000
# 3 61.1332 15.2101 154.4470 0.0000 16.1853 0.0000
# 4 0.0000 0.0000 0.0000 29.3803 0.0000 -2.3105
# 5 5.4527 9.0301 16.1853 0.0000 44.2703 0.0000
# 6 0.0000 0.0000 0.0000 -2.3105 0.0000 20.2769
#
#
#
# Elastic Compliance Matrix: (Units=1/GPa)
#
#
# Indices 1 2 3 4 5 6 
#
# 1 0.014240 0.000895 -0.005742 0.000000 0.000163 0.000000
# 2 0.000895 0.033502 -0.003043 0.000000 -0.005832 0.000000
# 3 -0.005742 -0.003043 0.009263 0.000000 -0.002059 0.000000
# 4 0.000000 0.000000 0.000000 0.034344 0.000000 0.003913
# 5 0.000163 -0.005832 -0.002059 0.000000 0.024511 0.000000
# 6 0.000000 0.000000 0.000000 0.003913 0.000000 0.049763
#
#
# Mechanical properties :
#
#
# Convention : Reuss Voigt Hill
#
# Bulk Modulus (GPa) = 24.25604 49.14910 36.70257
# Shear Modulus (GPa) = 25.62224 32.21140 28.91682
#
# Velocity S-wave (km/s) = 3.56117 3.99290 3.78320
# Velocity P-wave (km/s) = 5.37726 6.75162 6.10325
#
# Compressibility (1/GPa) = 0.04122685
#
# Stress axis : x y z
#
# Youngs Moduli (GPa) = 70.22668 29.84858 107.96000
#
# Poissons Ratio (x) = -0.02672 0.61985
# Poissons Ratio (y) = -0.06286 0.32847
# Poissons Ratio (z) = 0.40321 0.09082
#
# Static dielectric constant tensor:
#      x y z
#    x 3.661660 0.000000 0.209220 
#    y 0.000000 3.538500 0.000000 
#    z 0.209220 0.000000 3.933830 
# 
# 
# High freq. dielectric constant tensor:
#      x y z
#    x 1.794560 0.000000 0.004000 
#    y 0.000000 1.789890 0.000000 
#    z 0.004000 0.000000 1.803650 
# 
# From -- ./inp_files/20523.got.cif
#   From: 2010.06.25/outbox.cif.g09.slc.cpg/sg11_11_cif.got.tgz:20523.got - 2010.06.27 23:14:04.
