data_PCOD8076335
_publ_section_title
;
Structure prediction by ZEFSAII (Michael W. Deem and Ramdas Pophale) SiO2 
 PCOD8076335
Probable space group: P 21/M
;
_chemical_formula_sum "Si O2"
_cell_formula_units_Z 28
_cell_length_a 10.987201
_cell_length_b 13.510490
_cell_length_c 10.363441
_cell_angle_alpha 90.000000
_cell_angle_beta 117.406925
_cell_angle_gamma 90.000000
_cell_volume 1365.707214
_symmetry_space_group_name_H-M "P 21/M"
_symmetry_group_IT_number 11
_symmetry_cell_setting 'monoclinic'
loop_
_space_group_symop_operation_xyz
x,y,z
-x,1/2+y,-z
-x,-y,-z
x,1/2-y,z
loop_
_atom_site_type_symbol
_atom_site_label
_atom_site_fract_x
_atom_site_fract_y
_atom_site_fract_z
Si Si1 0.116878 0.635685 0.755370
Si Si2 0.348978 0.488625 0.873179
Si Si3 0.910933 0.867083 0.866906
Si Si4 0.113438 0.366451 0.860136
Si Si5 0.630332 0.491459 0.404929
Si Si6 0.104642 0.634218 0.456869
Si Si7 0.387125 0.132361 0.370631
O O1 0.133982 0.750000 0.791720
O O2 0.268374 0.592135 0.846112
O O3 0.057659 0.616373 0.582311
O O4 0.015455 0.585949 0.812286
O O5 0.266616 0.406333 0.913040
O O6 0.353224 0.458071 0.725840
O O7 0.500000 0.500000 0.000000
O O8 0.922350 0.750000 0.858841
O O9 0.756604 0.899725 0.761323
O O10 0.947050 0.901982 0.030462
O O11 0.127227 0.250000 0.868748
O O12 0.016815 0.402898 0.696128
O O13 0.763222 0.430035 0.514292
O O14 0.600409 0.583809 0.482562
O O15 0.505329 0.413328 0.338589
O O16 0.137948 0.750000 0.449253
O O17 0.404804 0.250000 0.391331
#
# Coordination Sequence:
#
# PCOD8076335 Si02
#       7
#     4   4   4   4   4   4   4
#     4   9  20  38  61  85 112 152 197 239 287 344
#     4  11  24  39  58  85 116 154 199 241 293 345
#     4   9  19  37  59  85 114 151 194 233 286 348
#     4  10  22  38  59  88 120 153 190 239 295 347
#     4  10  22  38  59  86 117 151 200 237 286 350
#     4   9  19  37  61  86 115 152 191 237 287 341
#     4  10  21  38  60  84 116 155 192 238 289 345
#
# _framework density 20.502198
#
# number of rings (size 3 to 8) (size 9 to 14) (size 15 to 20)
#    0.000    2.286    0.000    1.286    4.000    3.429 
#    5.143    0.000    0.000    0.000    0.000    0.000 
#    0.000    0.000    0.000    0.000    0.000    0.000 
#
# Total GULP energy -347211.585322 kJ/mol
# GULP energy per Si atom -12400.413761 kJ/mol
# Density = 2.045553 g / cm^3
# Si number density = 20.502198 Si / 1000 Ang^3
#
#
#
# Elastic Constant Matrix: (Units=GPa)
#
#
# Indices 1 2 3 4 5 6 
#
# 1 129.9854 19.6892 66.6543 0.0000 -1.5636 0.0000
# 2 19.6892 43.0563 34.2966 0.0000 -8.6501 0.0000
# 3 66.6543 34.2966 125.4865 0.0000 4.3494 0.0000
# 4 0.0000 0.0000 0.0000 23.6442 0.0000 0.3828
# 5 -1.5636 -8.6501 4.3494 0.0000 40.4478 0.0000
# 6 0.0000 0.0000 0.0000 0.3828 0.0000 29.5589
#
#
#
# Elastic Compliance Matrix: (Units=1/GPa)
#
#
# Indices 1 2 3 4 5 6 
#
# 1 0.010616 -0.000179 -0.005624 0.000000 0.000977 0.000000
# 2 -0.000179 0.031972 -0.008913 0.000000 0.007789 0.000000
# 3 -0.005624 -0.008913 0.013516 0.000000 -0.003577 0.000000
# 4 0.000000 0.000000 0.000000 0.042303 0.000000 -0.000548
# 5 0.000977 0.007789 -0.003577 0.000000 0.026811 0.000000
# 6 0.000000 0.000000 0.000000 -0.000548 0.000000 0.033838
#
#
# Mechanical properties :
#
#
# Convention : Reuss Voigt Hill
#
# Bulk Modulus (GPa) = 37.49185 59.97870 48.73527
# Shear Modulus (GPa) = 25.33213 30.58939 27.96076
#
# Velocity S-wave (km/s) = 3.51890 3.86684 3.69696
# Velocity P-wave (km/s) = 5.90226 7.01818 6.48427
#
# Compressibility (1/GPa) = 0.02667247
#
# Stress axis : x y z
#
# Youngs Moduli (GPa) = 94.19952 31.27755 73.98504
#
# Poissons Ratio (x) = 0.00558 0.41608
# Poissons Ratio (y) = 0.01682 0.65945
# Poissons Ratio (z) = 0.52976 0.27879
#
# Static dielectric constant tensor:
#      x y z
#    x 3.869740 0.000000 -0.179440 
#    y 0.000000 3.595860 0.000000 
#    z -0.179440 0.000000 3.820530 
# 
# 
# High freq. dielectric constant tensor:
#      x y z
#    x 1.807240 0.000000 -0.011010 
#    y 0.000000 1.804310 0.000000 
#    z -0.011010 0.000000 1.802560 
# 
# From -- ./inp_files/18134.got.cif
#   From: 2010.06.25/outbox.cif.g09.slc.cpg/sg11_10_cif.got.tgz:18134.got - 2010.06.27 23:14:04.
