data_PCOD8076719
_publ_section_title
;
Structure prediction by ZEFSAII (Michael W. Deem and Ramdas Pophale) SiO2 
 PCOD8076719
Probable space group: P 21/M
;
_chemical_formula_sum "Si O2"
_cell_formula_units_Z 18
_cell_length_a 8.409395
_cell_length_b 9.946928
_cell_length_c 10.529966
_cell_angle_alpha 90.000000
_cell_angle_beta 94.929895
_cell_angle_gamma 90.000000
_cell_volume 877.548411
_symmetry_space_group_name_H-M "P 21/M"
_symmetry_group_IT_number 11
_symmetry_cell_setting 'monoclinic'
loop_
_space_group_symop_operation_xyz
x,y,z
-x,1/2+y,-z
-x,-y,-z
x,1/2-y,z
loop_
_atom_site_type_symbol
_atom_site_label
_atom_site_fract_x
_atom_site_fract_y
_atom_site_fract_z
Si Si1 0.522047 0.250000 0.686160
Si Si2 0.434519 0.250000 0.051995
Si Si3 0.780276 0.750000 0.202072
Si Si4 0.507455 0.250000 0.396095
Si Si5 0.246118 0.750000 0.813350
Si Si6 0.021826 0.504868 0.850374
Si Si7 0.334090 0.468451 0.240638
O O1 0.326787 0.250000 0.677236
O O2 0.573518 0.250000 0.542750
O O3 0.591052 0.382965 0.759017
O O4 0.627168 0.250000 0.061637
O O5 0.377495 0.386369 0.116749
O O6 0.363488 0.250000 0.908648
O O7 0.896266 0.626147 0.198376
O O8 0.659795 0.250000 0.313266
O O9 0.401233 0.383911 0.365076
O O10 0.135269 0.623066 0.816617
O O11 0.856141 0.520968 0.765274
O O12 0.000000 0.500000 0.000000
#
# Coordination Sequence:
#
# PCOD8076719 Si02
#       7
#     2   2   2   2   2   4   4
#     4  12  25  41  66  92 121 162 222 270 278 359
#     4  10  21  40  60  92 124 174 195 250 316 390
#     4  12  24  37  61  95 131 158 211 250 317 359
#     4  10  23  48  66  85 121 173 218 248 302 361
#     4  10  23  40  65  86 125 171 206 240 313 373
#     4  12  23  39  61  97 131 158 196 252 319 381
#     4  10  22  42  64  90 127 163 203 253 320 361
#
# _framework density 20.511687999999999
#
# number of rings (size 3 to 8) (size 9 to 14) (size 15 to 20)
#    0.000    1.333    2.222    6.000    3.111    1.778 
#    0.000    6.667    0.000    0.000    0.000    0.000 
#    0.000    0.000    0.000    0.000    0.000    0.000 
#
# Total GULP energy -223196.927551 kJ/mol
# GULP energy per Si atom -12399.829308 kJ/mol
# Density = 2.046500 g / cm^3
# Si number density = 20.511688 Si / 1000 Ang^3
#
#
#
# Elastic Constant Matrix: (Units=GPa)
#
#
# Indices 1 2 3 4 5 6 
#
# 1 185.5654 87.9375 29.6365 0.0000 -10.0769 0.0000
# 2 87.9375 194.3722 24.5113 0.0000 -5.1682 0.0000
# 3 29.6365 24.5113 68.6520 0.0000 -12.9995 0.0000
# 4 0.0000 0.0000 0.0000 12.4783 0.0000 -0.2340
# 5 -10.0769 -5.1682 -12.9995 0.0000 22.7410 0.0000
# 6 0.0000 0.0000 0.0000 -0.2340 0.0000 54.0777
#
#
#
# Elastic Compliance Matrix: (Units=1/GPa)
#
#
# Indices 1 2 3 4 5 6 
#
# 1 0.007161 -0.002980 -0.001743 0.000000 0.001499 0.000000
# 2 -0.002980 0.006628 -0.001172 0.000000 -0.000484 0.000000
# 3 -0.001743 -0.001172 0.017427 0.000000 0.008923 0.000000
# 4 0.000000 0.000000 0.000000 0.080146 0.000000 0.000347
# 5 0.001499 -0.000484 0.008923 0.000000 0.049628 0.000000
# 6 0.000000 0.000000 0.000000 0.000347 0.000000 0.018493
#
#
# Mechanical properties :
#
#
# Convention : Reuss Voigt Hill
#
# Bulk Modulus (GPa) = 51.47889 81.41780 66.44834
# Shear Modulus (GPa) = 25.28462 38.29300 31.78881
#
# Velocity S-wave (km/s) = 3.51478 4.32544 3.94101
# Velocity P-wave (km/s) = 6.45162 8.04521 7.29208
#
# Compressibility (1/GPa) = 0.01942544
#
# Stress axis : x y z
#
# Youngs Moduli (GPa) = 139.64507 150.87801 57.38313
#
# Poissons Ratio (x) = 0.44962 0.10005
# Poissons Ratio (y) = 0.41615 0.06723
# Poissons Ratio (z) = 0.24347 0.17676
#
# Static dielectric constant tensor:
#      x y z
#    x 3.987670 0.000000 0.022910 
#    y 0.000000 3.908130 0.000000 
#    z 0.022910 0.000000 3.452570 
# 
# 
# High freq. dielectric constant tensor:
#      x y z
#    x 1.818650 0.000000 -0.001240 
#    y 0.000000 1.827210 0.000000 
#    z -0.001240 0.000000 1.774070 
# 
# From -- ./inp_files/15691.got.cif
#   From: 2010.06.25/outbox.cif.g09.slc.cpg/sg11_8_cif.got.tgz:15691.got - 2010.06.27 23:14:04.
