data_PCOD8076824
_publ_section_title
;
Structure prediction by ZEFSAII (Michael W. Deem and Ramdas Pophale) SiO2 
 PCOD8076824
Probable space group: P 21/M
;
_chemical_formula_sum "Si O2"
_cell_formula_units_Z 32
_cell_length_a 13.986519
_cell_length_b 20.992912
_cell_length_c 13.955220
_cell_angle_alpha 90.000000
_cell_angle_beta 158.578640
_cell_angle_gamma 90.000000
_cell_volume 1496.504934
_symmetry_space_group_name_H-M "P 21/M"
_symmetry_group_IT_number 11
_symmetry_cell_setting 'monoclinic'
loop_
_space_group_symop_operation_xyz
x,y,z
-x,1/2+y,-z
-x,-y,-z
x,1/2-y,z
loop_
_atom_site_type_symbol
_atom_site_label
_atom_site_fract_x
_atom_site_fract_y
_atom_site_fract_z
Si Si1 0.112562 0.676706 0.395173
Si Si2 0.068396 0.177632 0.364737
Si Si3 0.428851 0.122490 0.053782
Si Si4 0.508391 0.176949 0.930469
Si Si5 0.669152 0.981082 0.890290
Si Si6 0.788181 0.325673 0.721375
Si Si7 0.267562 0.396759 0.237976
Si Si8 0.805496 0.556772 0.630332
O O1 0.132623 0.750000 0.393282
O O2 0.342015 0.658366 0.679098
O O3 0.145213 0.645042 0.321435
O O4 0.838365 0.660734 0.185756
O O5 0.101199 0.250000 0.357558
O O6 0.254345 0.165504 0.628843
O O7 0.145423 0.130279 0.351118
O O8 0.769933 0.163615 0.114785
O O9 0.398079 0.052467 0.070728
O O10 0.497648 0.124601 0.005513
O O11 0.511103 0.250000 0.972566
O O12 0.678151 0.930980 0.811887
O O13 0.445769 0.032675 0.662227
O O14 0.947731 0.013696 0.165950
O O15 0.806114 0.250000 0.746083
O O16 0.499081 0.347945 0.479620
O O17 0.998941 0.356964 0.988544
O O18 0.246728 0.448190 0.304288
#
# Coordination Sequence:
#
# PCOD8076824 Si02
#       8
#     4   4   4   4   4   4   4   4
#     4  11  20  34  56  88 130 170 201 244 310 381
#     4  10  23  45  68  92 124 156 211 276 319 368
#     4  12  22  38  63  94 132 167 205 251 316 384
#     4  10  21  40  67  97 124 161 206 256 321 386
#     4  12  24  43  62  96 130 169 216 257 307 379
#     4  11  22  37  59  94 133 166 205 263 318 371
#     4  12  23  43  64  91 131 175 219 262 309 372
#     4  12  26  44  68  90 120 173 221 264 316 367
#
# _framework density 21.383157000000001
#
# number of rings (size 3 to 8) (size 9 to 14) (size 15 to 20)
#    0.000    0.750    2.500    6.000    0.000    4.000 
#    0.000    5.000    0.000    0.000    0.000    0.000 
#    0.000    0.000    0.000    0.000    0.000    0.000 
#
# Total GULP energy -396900.224411 kJ/mol
# GULP energy per Si atom -12403.132013 kJ/mol
# Density = 2.133449 g / cm^3
# Si number density = 21.383157 Si / 1000 Ang^3
#
#
#
# Elastic Constant Matrix: (Units=GPa)
#
#
# Indices 1 2 3 4 5 6 
#
# 1 58.8368 26.2227 3.8522 0.0000 -0.7191 0.0000
# 2 26.2227 81.4838 1.1578 0.0000 5.2602 0.0000
# 3 3.8522 1.1578 141.9413 0.0000 1.4830 0.0000
# 4 0.0000 0.0000 0.0000 37.2437 0.0000 2.5056
# 5 -0.7191 5.2602 1.4830 0.0000 23.5381 0.0000
# 6 0.0000 0.0000 0.0000 2.5056 0.0000 34.4732
#
#
#
# Elastic Compliance Matrix: (Units=1/GPa)
#
#
# Indices 1 2 3 4 5 6 
#
# 1 0.019978 -0.006558 -0.000511 0.000000 0.002108 0.000000
# 2 -0.006558 0.014606 0.000095 0.000000 -0.003470 0.000000
# 3 -0.000511 0.000095 0.007063 0.000000 -0.000482 0.000000
# 4 0.000000 0.000000 0.000000 0.026982 0.000000 -0.001961
# 5 0.002108 -0.003470 -0.000482 0.000000 0.043355 0.000000
# 6 0.000000 0.000000 0.000000 -0.001961 0.000000 0.029151
#
#
# Mechanical properties :
#
#
# Convention : Reuss Voigt Hill
#
# Bulk Modulus (GPa) = 36.10164 38.30305 37.20234
# Shear Modulus (GPa) = 30.42933 35.78627 33.10780
#
# Velocity S-wave (km/s) = 3.77643 4.09537 3.93913
# Velocity P-wave (km/s) = 5.99459 6.34936 6.17452
#
# Compressibility (1/GPa) = 0.02769957
#
# Stress axis : x y z
#
# Youngs Moduli (GPa) = 50.05449 68.46706 141.57715
#
# Poissons Ratio (x) = 0.44902 0.07231
# Poissons Ratio (y) = 0.32826 -0.01346
# Poissons Ratio (z) = 0.02556 -0.00651
#
# Static dielectric constant tensor:
#      x y z
#    x 3.775900 0.000000 0.070270 
#    y 0.000000 3.818290 0.000000 
#    z 0.070270 0.000000 4.061540 
# 
# 
# High freq. dielectric constant tensor:
#      x y z
#    x 1.827730 0.000000 0.006300 
#    y 0.000000 1.832270 0.000000 
#    z 0.006300 0.000000 1.864770 
# 
# From -- ./inp_files/52733.got.cif
#   From: 2010.06.25/outbox.cif.g09.slc.cpg/sg11_27_cif.got.tgz:52733.got - 2010.06.27 23:14:04.
