data_PCOD8076365
_publ_section_title
;
Structure prediction by ZEFSAII (Michael W. Deem and Ramdas Pophale) SiO2 
 PCOD8076365
Probable space group: P 21/M
;
_chemical_formula_sum "Si O2"
_cell_formula_units_Z 24
_cell_length_a 10.041863
_cell_length_b 13.769742
_cell_length_c 7.581175
_cell_angle_alpha 90.000000
_cell_angle_beta 107.455585
_cell_angle_gamma 90.000000
_cell_volume 1000.004890
_symmetry_space_group_name_H-M "P 21/M"
_symmetry_group_IT_number 11
_symmetry_cell_setting 'monoclinic'
loop_
_space_group_symop_operation_xyz
x,y,z
-x,1/2+y,-z
-x,-y,-z
x,1/2-y,z
loop_
_atom_site_type_symbol
_atom_site_label
_atom_site_fract_x
_atom_site_fract_y
_atom_site_fract_z
Si Si1 0.405157 0.144381 0.130226
Si Si2 0.140433 0.364268 0.525153
Si Si3 0.284167 0.635687 0.731542
Si Si4 0.552942 0.856161 0.266707
Si Si5 0.084285 0.557944 0.347828
Si Si6 0.728034 0.047351 0.890362
O O1 0.361252 0.250000 0.188903
O O2 0.556954 0.112178 0.265188
O O3 0.282724 0.069505 0.128089
O O4 0.424281 0.150391 0.930581
O O5 0.120258 0.250000 0.468919
O O6 0.303072 0.395803 0.592966
O O7 0.068413 0.439945 0.359413
O O8 0.064794 0.387792 0.684263
O O9 0.263323 0.750000 0.754696
O O10 0.185059 0.597665 0.540348
O O11 0.248676 0.582804 0.902186
O O12 0.523445 0.750000 0.334177
O O13 0.417664 0.919049 0.255504
O O14 0.142656 0.583424 0.177437
#
# Coordination Sequence:
#
# PCOD8076365 Si02
#       6
#     4   4   4   4   4   4
#     4   9  18  33  56  88 124 158 193 242 298 347
#     4  10  22  41  60  83 123 163 193 238 299 355
#     4  10  21  38  60  89 124 156 193 244 297 348
#     4   9  18  35  60  87 117 156 199 242 292 349
#     4  11  24  40  62  90 118 156 201 243 292 351
#     4  11  21  37  64  92 117 151 201 249 290 343
#
# _framework density 23.999881999999999
#
# number of rings (size 3 to 8) (size 9 to 14) (size 15 to 20)
#    0.000    2.000    0.000    6.000    0.000    6.000 
#    0.000   10.833    0.000    8.000    0.000    0.000 
#    0.000    0.000    0.000    0.000    0.000    0.000 
#
# Total GULP energy -297392.316725 kJ/mol
# GULP energy per Si atom -12391.346530 kJ/mol
# Density = 2.394526 g / cm^3
# Si number density = 23.999882 Si / 1000 Ang^3
#
#
#
# Elastic Constant Matrix: (Units=GPa)
#
#
# Indices 1 2 3 4 5 6 
#
# 1 47.0820 23.4499 -0.2975 0.0000 -19.6256 0.0000
# 2 23.4499 88.9495 12.4499 0.0000 -0.0843 0.0000
# 3 -0.2975 12.4499 44.1552 0.0000 -5.2083 0.0000
# 4 0.0000 0.0000 0.0000 15.0147 0.0000 8.2146
# 5 -19.6256 -0.0843 -5.2083 0.0000 29.6307 0.0000
# 6 0.0000 0.0000 0.0000 8.2146 0.0000 18.9041
#
#
#
# Elastic Compliance Matrix: (Units=1/GPa)
#
#
# Indices 1 2 3 4 5 6 
#
# 1 0.037392 -0.010718 0.006323 0.000000 0.025847 0.000000
# 2 -0.010718 0.014786 -0.005181 0.000000 -0.007968 0.000000
# 3 0.006323 -0.005181 0.025165 0.000000 0.008596 0.000000
# 4 0.000000 0.000000 0.000000 0.087373 0.000000 -0.037967
# 5 0.025847 -0.007968 0.008596 0.000000 0.052357 0.000000
# 6 0.000000 0.000000 0.000000 -0.037967 0.000000 0.069397
#
#
# Mechanical properties :
#
#
# Convention : Reuss Voigt Hill
#
# Bulk Modulus (GPa) = 17.18520 27.93238 22.55879
# Shear Modulus (GPa) = 15.38374 22.34888 18.86631
#
# Velocity S-wave (km/s) = 2.53453 3.05488 2.80679
# Velocity P-wave (km/s) = 3.96752 4.90987 4.46363
#
# Compressibility (1/GPa) = 0.05818960
#
# Stress axis : x y z
#
# Youngs Moduli (GPa) = 26.74377 67.63339 39.73803
#
# Poissons Ratio (x) = 0.72491 -0.25126
# Poissons Ratio (y) = 0.28664 0.20588
# Poissons Ratio (z) = -0.16910 0.35041
#
# Static dielectric constant tensor:
#      x y z
#    x 4.672690 0.000000 0.222010 
#    y 0.000000 4.798330 0.000000 
#    z 0.222010 0.000000 3.913720 
# 
# 
# High freq. dielectric constant tensor:
#      x y z
#    x 1.948720 0.000000 0.008470 
#    y 0.000000 1.967560 0.000000 
#    z 0.008470 0.000000 1.916970 
# 
# From -- ./inp_files/17537.got.cif
#   From: 2010.06.25/outbox.cif.g09.slc.cpg/sg11_9_cif.got.tgz:17537.got - 2010.06.27 23:14:04.
