data_PCOD8076423
_publ_section_title
;
Structure prediction by ZEFSAII (Michael W. Deem and Ramdas Pophale) SiO2 
 PCOD8076423
Probable space group: P 21/M
;
_chemical_formula_sum "Si O2"
_cell_formula_units_Z 26
_cell_length_a 11.261465
_cell_length_b 15.022638
_cell_length_c 8.227828
_cell_angle_alpha 90.000000
_cell_angle_beta 66.318272
_cell_angle_gamma 90.000000
_cell_volume 1274.742723
_symmetry_space_group_name_H-M "P 21/M"
_symmetry_group_IT_number 11
_symmetry_cell_setting 'monoclinic'
loop_
_space_group_symop_operation_xyz
x,y,z
-x,1/2+y,-z
-x,-y,-z
x,1/2-y,z
loop_
_atom_site_type_symbol
_atom_site_label
_atom_site_fract_x
_atom_site_fract_y
_atom_site_fract_z
Si Si1 0.707898 0.148209 0.491382
Si Si2 0.785011 0.480808 0.179879
Si Si3 0.985687 0.404866 0.859126
Si Si4 0.557894 0.910462 0.394911
Si Si5 0.121601 0.250000 0.939937
Si Si6 0.309631 0.250000 0.524796
Si Si7 0.866211 0.750000 0.700568
Si Si8 0.041815 0.601473 0.478421
O O1 0.743373 0.250000 0.446280
O O2 0.719042 0.100490 0.310895
O O3 0.560034 0.135910 0.639412
O O4 0.806591 0.105045 0.563534
O O5 0.679738 0.560887 0.213025
O O6 0.908063 0.516355 0.215842
O O7 0.843686 0.446149 0.977651
O O8 0.975425 0.356710 0.691715
O O9 0.029656 0.336497 0.974972
O O10 0.605391 0.840603 0.508315
O O11 0.500000 0.000000 0.500000
O O12 0.220618 0.250000 0.734905
O O13 0.189614 0.250000 0.082366
O O14 0.240663 0.250000 0.385561
O O15 0.954300 0.661500 0.644048
O O16 0.000000 0.500000 0.500000
#
# Coordination Sequence:
#
# PCOD8076423 Si02
#       8
#     4   4   4   4   2   2   2   4
#     4  11  22  39  63  92 127 174 220 268 326 393
#     4  10  21  38  61  91 122 167 219 259 334 390
#     4  11  22  38  62  96 132 170 207 279 334 380
#     4  10  22  41  67  91 127 177 222 265 327 399
#     4  12  24  40  67 100 137 170 217 281 335 398
#     4  12  22  45  70  94 132 175 225 270 334 399
#     4  12  26  41  65 102 131 171 224 275 339 403
#     4  12  23  39  63  99 136 168 220 272 332 400
#
# _framework density 20.396272
#
# number of rings (size 3 to 8) (size 9 to 14) (size 15 to 20)
#    0.000    0.923    6.154    0.923    5.385    0.000 
#    0.000    0.769    6.769    0.000    0.000    0.000 
#    0.000    0.000    0.000    0.000    0.000    0.000 
#
# Total GULP energy -322197.691299 kJ/mol
# GULP energy per Si atom -12392.218896 kJ/mol
# Density = 2.034985 g / cm^3
# Si number density = 20.396272 Si / 1000 Ang^3
#
#
#
# Elastic Constant Matrix: (Units=GPa)
#
#
# Indices 1 2 3 4 5 6 
#
# 1 133.3714 44.2206 45.7517 0.0000 -3.0913 0.0000
# 2 44.2206 129.0111 23.4576 0.0000 -4.2815 0.0000
# 3 45.7517 23.4576 88.3327 0.0000 5.8963 0.0000
# 4 0.0000 0.0000 0.0000 25.9816 0.0000 -7.9486
# 5 -3.0913 -4.2815 5.8963 0.0000 36.8113 0.0000
# 6 0.0000 0.0000 0.0000 -7.9486 0.0000 37.8237
#
#
#
# Elastic Compliance Matrix: (Units=1/GPa)
#
#
# Indices 1 2 3 4 5 6 
#
# 1 0.009930 -0.002533 -0.004555 0.000000 0.001269 0.000000
# 2 -0.002533 0.008854 -0.001105 0.000000 0.000994 0.000000
# 3 -0.004555 -0.001105 0.014159 0.000000 -0.002779 0.000000
# 4 0.000000 0.000000 0.000000 0.041133 0.000000 0.008644
# 5 0.001269 0.000994 -0.002779 0.000000 0.027833 0.000000
# 6 0.000000 0.000000 0.000000 0.008644 0.000000 0.028255
#
#
# Mechanical properties :
#
#
# Convention : Reuss Voigt Hill
#
# Bulk Modulus (GPa) = 60.40452 64.17501 62.28977
# Shear Modulus (GPa) = 32.87974 35.94235 34.41104
#
# Velocity S-wave (km/s) = 4.01939 4.20241 4.11192
# Velocity P-wave (km/s) = 7.15684 7.42155 7.29040
#
# Compressibility (1/GPa) = 0.01655505
#
# Stress axis : x y z
#
# Youngs Moduli (GPa) = 100.70741 112.94886 70.62555
#
# Poissons Ratio (x) = 0.28613 0.32170
# Poissons Ratio (y) = 0.25512 0.07807
# Poissons Ratio (z) = 0.45873 0.12486
#
# Static dielectric constant tensor:
#      x y z
#    x 4.166080 0.000000 -0.321250 
#    y 0.000000 3.973120 0.000000 
#    z -0.321250 0.000000 3.564390 
# 
# 
# High freq. dielectric constant tensor:
#      x y z
#    x 1.791560 0.000000 -0.017440 
#    y 0.000000 1.823080 0.000000 
#    z -0.017440 0.000000 1.763790 
# 
# From -- ./inp_files/17663.got.cif
#   From: 2010.06.25/outbox.cif.g09.slc.cpg/sg11_9_cif.got.tgz:17663.got - 2010.06.27 23:14:04.
