data_PCOD8076667
_publ_section_title
;
Structure prediction by ZEFSAII (Michael W. Deem and Ramdas Pophale) SiO2 
 PCOD8076667
Probable space group: P 21/M
;
_chemical_formula_sum "Si O2"
_cell_formula_units_Z 24
_cell_length_a 10.941504
_cell_length_b 14.266716
_cell_length_c 13.888815
_cell_angle_alpha 90.000000
_cell_angle_beta 31.342014
_cell_angle_gamma 90.000000
_cell_volume 1127.693572
_symmetry_space_group_name_H-M "P 21/M"
_symmetry_group_IT_number 11
_symmetry_cell_setting 'monoclinic'
loop_
_space_group_symop_operation_xyz
x,y,z
-x,1/2+y,-z
-x,-y,-z
x,1/2-y,z
loop_
_atom_site_type_symbol
_atom_site_label
_atom_site_fract_x
_atom_site_fract_y
_atom_site_fract_z
Si Si1 0.579552 0.516229 0.053987
Si Si2 0.318105 0.861291 0.868056
Si Si3 0.610090 0.360300 0.668809
Si Si4 0.194915 0.352285 0.817944
Si Si5 0.465239 0.603537 0.562486
Si Si6 0.027233 0.855379 0.736639
O O1 0.827999 0.569029 0.889716
O O2 0.500000 0.500000 0.000000
O O3 0.587703 0.415866 0.101829
O O4 0.382564 0.582390 0.236802
O O5 0.319333 0.750000 0.890144
O O6 0.482360 0.885413 0.666022
O O7 0.056185 0.902793 0.022809
O O8 0.585937 0.250000 0.704134
O O9 0.378649 0.401319 0.767861
O O10 0.842217 0.381375 0.450936
O O11 0.140940 0.250000 0.896609
O O12 0.320575 0.339540 0.629333
O O13 0.500000 0.500000 0.500000
O O14 0.212712 0.642945 0.699360
O O15 0.921622 0.750000 0.801939
#
# Coordination Sequence:
#
# PCOD8076667 Si02
#       6
#     4   4   4   4   4   4
#     4  12  26  40  57  81 116 162 212 254 290 341
#     4  11  23  38  57  86 123 159 195 241 302 364
#     4   9  19  38  64  91 116 145 188 245 306 365
#     4   9  18  34  58  88 117 143 177 228 295 364
#     4  11  20  34  61  93 124 150 180 231 302 371
#     4  10  21  39  64  91 117 150 195 247 303 362
#
# _framework density 21.282378000000001
#
# number of rings (size 3 to 8) (size 9 to 14) (size 15 to 20)
#    0.000    1.667    0.000    7.000    0.000    5.333 
#    0.000    0.000    0.000    2.000    0.000    0.000 
#    0.000    0.000    0.000    0.000    0.000    0.000 
#
# Total GULP energy -297503.811197 kJ/mol
# GULP energy per Si atom -12395.992133 kJ/mol
# Density = 2.123394 g / cm^3
# Si number density = 21.282378 Si / 1000 Ang^3
#
#
#
# Elastic Constant Matrix: (Units=GPa)
#
#
# Indices 1 2 3 4 5 6 
#
# 1 85.2226 32.9091 37.9792 0.0000 40.4339 0.0000
# 2 32.9091 108.7896 35.5633 0.0000 17.7743 0.0000
# 3 37.9792 35.5633 88.1816 0.0000 25.7875 0.0000
# 4 0.0000 0.0000 0.0000 36.4236 0.0000 8.6185
# 5 40.4339 17.7743 25.7875 0.0000 32.1341 0.0000
# 6 0.0000 0.0000 0.0000 8.6185 0.0000 21.7398
#
#
#
# Elastic Compliance Matrix: (Units=1/GPa)
#
#
# Indices 1 2 3 4 5 6 
#
# 1 0.030255 -0.002886 -0.001569 0.000000 -0.035214 0.000000
# 2 -0.002886 0.011117 -0.003272 0.000000 0.000108 0.000000
# 3 -0.001569 -0.003272 0.015979 0.000000 -0.009039 0.000000
# 4 0.000000 0.000000 0.000000 0.030297 0.000000 -0.012011
# 5 -0.035214 0.000108 -0.009039 0.000000 0.082623 0.000000
# 6 0.000000 0.000000 0.000000 -0.012011 0.000000 0.050760
#
#
# Mechanical properties :
#
#
# Convention : Reuss Voigt Hill
#
# Bulk Modulus (GPa) = 23.86808 55.01079 39.43943
# Shear Modulus (GPa) = 19.96408 29.77565 24.86986
#
# Velocity S-wave (km/s) = 3.06609 3.74448 3.42214
# Velocity P-wave (km/s) = 4.87585 6.67825 5.84692
#
# Compressibility (1/GPa) = 0.04189697
#
# Stress axis : x y z
#
# Youngs Moduli (GPa) = 33.05255 89.95178 62.58262
#
# Poissons Ratio (x) = 0.25960 0.09818
# Poissons Ratio (y) = 0.09539 0.20478
# Poissons Ratio (z) = 0.05185 0.29433
#
# Static dielectric constant tensor:
#      x y z
#    x 3.482700 0.000000 0.268000 
#    y 0.000000 3.928710 0.000000 
#    z 0.268000 0.000000 4.137720 
# 
# 
# High freq. dielectric constant tensor:
#      x y z
#    x 1.783090 0.000000 0.025410 
#    y 0.000000 1.845960 0.000000 
#    z 0.025410 0.000000 1.850030 
# 
# From -- ./inp_files/39703.got.cif
#   From: 2010.06.25/outbox.cif.g09.slc.cpg/sg11_20_cif.got.tgz:39703.got - 2010.06.27 23:14:04.
