data_PCOD8076589
_publ_section_title
;
Structure prediction by ZEFSAII (Michael W. Deem and Ramdas Pophale) SiO2 
 PCOD8076589
Probable space group: P 21/M
;
_chemical_formula_sum "Si O2"
_cell_formula_units_Z 20
_cell_length_a 5.012329
_cell_length_b 9.906163
_cell_length_c 19.717102
_cell_angle_alpha 90.000000
_cell_angle_beta 82.453586
_cell_angle_gamma 90.000000
_cell_volume 970.532821
_symmetry_space_group_name_H-M "P 21/M"
_symmetry_group_IT_number 11
_symmetry_cell_setting 'monoclinic'
loop_
_space_group_symop_operation_xyz
x,y,z
-x,1/2+y,-z
-x,-y,-z
x,1/2-y,z
loop_
_atom_site_type_symbol
_atom_site_label
_atom_site_fract_x
_atom_site_fract_y
_atom_site_fract_z
Si Si1 0.861172 0.533514 0.365456
Si Si2 0.404521 0.903539 0.279230
Si Si3 0.291509 0.250000 0.521689
Si Si4 0.013820 0.095495 0.063672
Si Si5 0.469287 0.404379 0.153194
Si Si6 0.838315 0.250000 0.429835
O O1 0.690473 0.575148 0.305584
O O2 0.771763 0.615999 0.434257
O O3 0.815402 0.376951 0.381180
O O4 0.172601 0.564368 0.341138
O O5 0.383071 0.750000 0.254347
O O6 0.371035 0.000210 0.216375
O O7 0.605924 0.250000 0.493867
O O8 0.124008 0.250000 0.457965
O O9 0.990999 0.250000 0.039245
O O10 0.292465 0.068202 0.092478
O O11 0.775534 0.061979 0.124083
O O12 0.000000 0.000000 0.000000
O O13 0.435460 0.250000 0.178868
#
# Coordination Sequence:
#
# PCOD8076589 Si02
#       6
#     4   4   2   4   4   2
#     4  12  25  42  65  92 123 161 207 256 313 370
#     4  12  24  43  63  90 126 165 208 257 310 366
#     4  12  22  46  62  92 128 154 201 260 313 374
#     4  10  21  39  61  92 126 162 202 251 303 355
#     4  10  23  39  62  91 124 162 207 255 300 355
#     4  12  26  40  68  94 118 162 205 250 319 380
#
# _framework density 20.607237000000001
#
# number of rings (size 3 to 8) (size 9 to 14) (size 15 to 20)
#    0.000    0.800    2.000    5.400    2.800    1.600 
#    0.000    0.000    0.000    0.000    0.000    0.000 
#    0.000    0.000    0.000    0.000    0.000    0.000 
#
# Total GULP energy -248189.243885 kJ/mol
# GULP energy per Si atom -12409.462194 kJ/mol
# Density = 2.056033 g / cm^3
# Si number density = 20.607237 Si / 1000 Ang^3
#
#
#
# Elastic Constant Matrix: (Units=GPa)
#
#
# Indices 1 2 3 4 5 6 
#
# 1 74.7536 19.7783 9.3201 0.0000 1.0950 0.0000
# 2 19.7783 154.3164 59.0641 0.0000 -1.9505 0.0000
# 3 9.3201 59.0641 79.0561 0.0000 4.3480 0.0000
# 4 0.0000 0.0000 0.0000 53.0765 0.0000 1.6533
# 5 1.0950 -1.9505 4.3480 0.0000 17.2650 0.0000
# 6 0.0000 0.0000 0.0000 1.6533 0.0000 26.7128
#
#
#
# Elastic Compliance Matrix: (Units=1/GPa)
#
#
# Indices 1 2 3 4 5 6 
#
# 1 0.013873 -0.001660 -0.000342 0.000000 -0.000981 0.000000
# 2 -0.001660 0.009407 -0.006993 0.000000 0.002929 0.000000
# 3 -0.000342 -0.006993 0.018209 0.000000 -0.005354 0.000000
# 4 0.000000 0.000000 0.000000 0.018877 0.000000 -0.001168
# 5 -0.000981 0.002929 -0.005354 0.000000 0.059662 0.000000
# 6 0.000000 0.000000 0.000000 -0.001168 0.000000 0.037508
#
#
# Mechanical properties :
#
#
# Convention : Reuss Voigt Hill
#
# Bulk Modulus (GPa) = 42.55395 53.82790 48.19092
# Shear Modulus (GPa) = 27.26909 34.07511 30.67210
#
# Velocity S-wave (km/s) = 3.64163 4.07080 3.86218
# Velocity P-wave (km/s) = 6.19490 6.94786 6.58216
#
# Compressibility (1/GPa) = 0.02349958
#
# Stress axis : x y z
#
# Youngs Moduli (GPa) = 72.08043 106.30839 54.91867
#
# Poissons Ratio (x) = 0.17645 0.01876
# Poissons Ratio (y) = 0.11964 0.38406
# Poissons Ratio (z) = 0.02462 0.74344
#
# Static dielectric constant tensor:
#      x y z
#    x 3.975880 0.000000 -0.048910 
#    y 0.000000 3.949400 0.000000 
#    z -0.048910 0.000000 3.443070 
# 
# 
# High freq. dielectric constant tensor:
#      x y z
#    x 1.825620 0.000000 -0.000450 
#    y 0.000000 1.819010 0.000000 
#    z -0.000450 0.000000 1.796460 
# 
# From -- ./inp_files/56651.got.cif
#   From: 2010.06.25/outbox.cif.g09.slc.cpg/sg11_29_cif.got.tgz:56651.got - 2010.06.27 23:14:04.
