data_PCOD8076975
_publ_section_title
;
Structure prediction by ZEFSAII (Michael W. Deem and Ramdas Pophale) SiO2 
 PCOD8076975
Probable space group: P 21/M
;
_chemical_formula_sum "Si O2"
_cell_formula_units_Z 28
_cell_length_a 28.856718
_cell_length_b 9.017328
_cell_length_c 9.141338
_cell_angle_alpha 90.000000
_cell_angle_beta 39.282135
_cell_angle_gamma 90.000000
_cell_volume 1506.031367
_symmetry_space_group_name_H-M "P 21/M"
_symmetry_group_IT_number 11
_symmetry_cell_setting 'monoclinic'
loop_
_space_group_symop_operation_xyz
x,y,z
-x,1/2+y,-z
-x,-y,-z
x,1/2-y,z
loop_
_atom_site_type_symbol
_atom_site_label
_atom_site_fract_x
_atom_site_fract_y
_atom_site_fract_z
Si Si1 0.935036 0.422760 0.074626
Si Si2 0.637890 0.413768 0.973832
Si Si3 0.068258 0.926183 0.254620
Si Si4 0.199659 0.425558 0.098324
Si Si5 0.343145 0.914438 0.725600
Si Si6 0.500908 0.922653 0.342755
Si Si7 0.797283 0.074834 0.598727
O O1 0.947537 0.250000 0.062905
O O2 0.857522 0.470539 0.332877
O O3 0.936235 0.470171 0.903750
O O4 0.000000 0.500000 0.000000
O O5 0.621543 0.250000 0.953005
O O6 0.717962 0.468698 0.723257
O O7 0.642583 0.413515 0.136935
O O8 0.570811 0.516097 0.080401
O O9 0.067485 0.750000 0.281426
O O10 0.000000 0.000000 0.500000
O O11 0.142309 0.995105 0.134162
O O12 0.188859 0.250000 0.120365
O O13 0.280494 0.467149 0.839685
O O14 0.187032 0.483266 0.292974
O O15 0.317436 0.750000 0.738260
O O16 0.421916 0.954209 0.457651
O O17 0.512460 0.750000 0.339734
O O18 0.500000 0.000000 0.500000
O O19 0.798393 0.250000 0.634992
#
# Coordination Sequence:
#
# PCOD8076975 Si02
#       7
#     4   4   4   4   4   4   4
#     4  10  22  38  57  78 100 129 165 202 245 295
#     4   8  14  24  40  62  91 126 161 198 246 294
#     4  11  23  39  57  78 103 132 165 202 246 297
#     4  11  21  32  50  77 104 134 170 207 249 296
#     4   8  15  27  41  61  93 133 168 203 247 292
#     4   9  15  22  35  58  91 127 163 201 244 289
#     4   9  18  34  52  72 101 135 168 207 251 297
#
# _framework density 18.591909999999999
#
# number of rings (size 3 to 8) (size 9 to 14) (size 15 to 20)
#    0.000    2.571    0.000    4.714    0.000    9.714 
#    0.000    0.000    0.000    0.000    0.000    1.000 
#    0.000    0.000    0.000    0.000    0.000    0.000 
#
# Total GULP energy -346996.195326 kJ/mol
# GULP energy per Si atom -12392.721262 kJ/mol
# Density = 1.854959 g / cm^3
# Si number density = 18.591910 Si / 1000 Ang^3
#
#
#
# Elastic Constant Matrix: (Units=GPa)
#
#
# Indices 1 2 3 4 5 6 
#
# 1 95.1927 59.8876 78.3457 0.0000 -22.5850 0.0000
# 2 59.8876 100.6151 59.7190 0.0000 -13.5074 0.0000
# 3 78.3457 59.7190 142.7534 0.0000 -34.5424 0.0000
# 4 0.0000 0.0000 0.0000 27.7634 0.0000 -10.9974
# 5 -22.5850 -13.5074 -34.5424 0.0000 31.2236 0.0000
# 6 0.0000 0.0000 0.0000 -10.9974 0.0000 28.3194
#
#
#
# Elastic Compliance Matrix: (Units=1/GPa)
#
#
# Indices 1 2 3 4 5 6 
#
# 1 0.023931 -0.008630 -0.008518 0.000000 0.004152 0.000000
# 2 -0.008630 0.016341 -0.002594 0.000000 -0.002043 0.000000
# 3 -0.008518 -0.002594 0.015025 0.000000 0.009338 0.000000
# 4 0.000000 0.000000 0.000000 0.042566 0.000000 0.016530
# 5 0.004152 -0.002043 0.009338 0.000000 0.044477 0.000000
# 6 0.000000 0.000000 0.000000 0.016530 0.000000 0.041731
#
#
# Mechanical properties :
#
#
# Convention : Reuss Voigt Hill
#
# Bulk Modulus (GPa) = 63.24664 81.60734 72.42699
# Shear Modulus (GPa) = 21.85060 26.83520 24.34290
#
# Velocity S-wave (km/s) = 3.43195 3.80331 3.62239
# Velocity P-wave (km/s) = 7.05667 7.95463 7.51907
#
# Compressibility (1/GPa) = 0.01581112
#
# Stress axis : x y z
#
# Youngs Moduli (GPa) = 41.78765 61.19528 66.55664
#
# Poissons Ratio (x) = 0.52814 0.56695
# Poissons Ratio (y) = 0.36064 0.17264
# Poissons Ratio (z) = 0.35596 0.15874
#
# Static dielectric constant tensor:
#      x y z
#    x 6.971260 0.000000 -6.258590 
#    y 0.000000 3.637960 0.000000 
#    z -6.258590 0.000000 12.756610 
# 
# 
# High freq. dielectric constant tensor:
#      x y z
#    x 1.694730 0.000000 -0.045030 
#    y 0.000000 1.720330 0.000000 
#    z -0.045030 0.000000 1.718900 
# 
# From -- ./inp_files/29009.got.cif
#   From: 2010.06.25/outbox.cif.g09.slc.cpg/sg11_15_cif.got.tgz:29009.got - 2010.06.27 23:14:04.
