data_PCOD8076165
_publ_section_title
;
Structure prediction by ZEFSAII (Michael W. Deem and Ramdas Pophale) SiO2 
 PCOD8076165
Probable space group: P 21/M
;
_chemical_formula_sum "Si O2"
_cell_formula_units_Z 32
_cell_length_a 14.895336
_cell_length_b 8.919451
_cell_length_c 12.210971
_cell_angle_alpha 90.000000
_cell_angle_beta 88.660493
_cell_angle_gamma 90.000000
_cell_volume 1621.884530
_symmetry_space_group_name_H-M "P 21/M"
_symmetry_group_IT_number 11
_symmetry_cell_setting 'monoclinic'
loop_
_space_group_symop_operation_xyz
x,y,z
-x,1/2+y,-z
-x,-y,-z
x,1/2-y,z
loop_
_atom_site_type_symbol
_atom_site_label
_atom_site_fract_x
_atom_site_fract_y
_atom_site_fract_z
Si Si1 0.055447 0.574904 0.901748
Si Si2 0.031438 0.424955 0.670648
Si Si3 0.133660 0.575684 0.480414
Si Si4 0.263268 0.575850 0.894539
Si Si5 0.455582 0.420136 0.274429
Si Si6 0.360850 0.074785 0.703139
Si Si7 0.591542 0.920737 0.964540
Si Si8 0.316364 0.425985 0.458932
O O1 0.033167 0.750000 0.898186
O O2 0.159724 0.545587 0.923921
O O3 0.026899 0.504640 0.787261
O O4 0.000000 0.500000 0.000000
O O5 0.049275 0.250000 0.687965
O O6 0.938363 0.457842 0.611748
O O7 0.111706 0.489589 0.593890
O O8 0.138753 0.750000 0.508727
O O9 0.227304 0.516547 0.430764
O O10 0.287122 0.750000 0.891145
O O11 0.284435 0.507276 0.775214
O O12 0.322361 0.500071 0.986687
O O13 0.488142 0.250000 0.295677
O O14 0.541609 0.525208 0.258177
O O15 0.396580 0.428407 0.166331
O O16 0.394225 0.479316 0.374902
O O17 0.350004 0.250000 0.722000
O O18 0.349155 0.028401 0.578104
O O19 0.588029 0.750000 0.006793
O O20 0.500000 0.000000 0.000000
O O21 0.296765 0.250000 0.447641
#
# Coordination Sequence:
#
# PCOD8076165 Si02
#       8
#     4   4   4   4   4   4   4   4
#     4  11  25  43  64  91 124 162 204 253 309 365
#     4  10  21  39  63  89 120 156 199 249 301 361
#     4  10  21  37  60  90 119 155 199 246 301 360
#     4  11  24  41  62  88 119 157 201 249 300 358
#     4  10  22  39  58  82 117 156 194 241 297 355
#     4  11  22  36  59  87 116 153 198 244 295 354
#     4  11  22  38  62  89 118 155 200 249 298 353
#     4  10  22  38  56  85 121 156 195 241 298 362
#
# _framework density 19.730134
#
# number of rings (size 3 to 8) (size 9 to 14) (size 15 to 20)
#    0.000    1.500    1.250    3.375    0.000    8.500 
#    0.000    2.500    0.000    0.000    0.000    0.000 
#    0.000    0.000    0.000    0.000    0.000    0.000 
#
# Total GULP energy -397001.212999 kJ/mol
# GULP energy per Si atom -12406.287906 kJ/mol
# Density = 1.968523 g / cm^3
# Si number density = 19.730134 Si / 1000 Ang^3
#
#
#
# Elastic Constant Matrix: (Units=GPa)
#
#
# Indices 1 2 3 4 5 6 
#
# 1 96.3692 63.0022 47.9177 0.0000 -9.8415 0.0000
# 2 63.0022 123.2254 61.9787 0.0000 -3.5033 0.0000
# 3 47.9177 61.9787 118.1351 0.0000 -6.3761 0.0000
# 4 0.0000 0.0000 0.0000 32.7816 0.0000 1.1315
# 5 -9.8415 -3.5033 -6.3761 0.0000 30.7698 0.0000
# 6 0.0000 0.0000 0.0000 1.1315 0.0000 36.3312
#
#
#
# Elastic Compliance Matrix: (Units=1/GPa)
#
#
# Indices 1 2 3 4 5 6 
#
# 1 0.016827 -0.007017 -0.002929 0.000000 0.003976 0.000000
# 2 -0.007017 0.013950 -0.004559 0.000000 -0.001601 0.000000
# 3 -0.002929 -0.004559 0.012102 0.000000 0.001052 0.000000
# 4 0.000000 0.000000 0.000000 0.030538 0.000000 -0.000951
# 5 0.003976 -0.001601 0.001052 0.000000 0.033807 0.000000
# 6 0.000000 0.000000 0.000000 -0.000951 0.000000 0.027554
#
#
# Mechanical properties :
#
#
# Convention : Reuss Voigt Hill
#
# Bulk Modulus (GPa) = 72.10710 75.94743 74.02727
# Shear Modulus (GPa) = 29.68937 30.96526 30.32731
#
# Velocity S-wave (km/s) = 3.88335 3.96591 3.92485
# Velocity P-wave (km/s) = 7.53215 7.71673 7.62500
#
# Compressibility (1/GPa) = 0.01386826
#
# Stress axis : x y z
#
# Youngs Moduli (GPa) = 59.43002 71.68310 82.63225
#
# Poissons Ratio (x) = 0.50297 0.24206
# Poissons Ratio (y) = 0.41700 0.37674
# Poissons Ratio (z) = 0.17409 0.32682
#
# Static dielectric constant tensor:
#      x y z
#    x 3.582120 0.000000 0.028510 
#    y 0.000000 3.694080 0.000000 
#    z 0.028510 0.000000 3.762990 
# 
# 
# High freq. dielectric constant tensor:
#      x y z
#    x 1.770570 0.000000 0.003310 
#    y 0.000000 1.779760 0.000000 
#    z 0.003310 0.000000 1.778720 
# 
# From -- ./inp_files/38092.got.cif
#   From: 2010.06.25/outbox.cif.g09.slc.cpg/sg11_20_cif.got.tgz:38092.got - 2010.06.27 23:14:04.
