data_PCOD8076272
_publ_section_title
;
Structure prediction by ZEFSAII (Michael W. Deem and Ramdas Pophale) SiO2 
 PCOD8076272
Probable space group: P 21/M
;
_chemical_formula_sum "Si O2"
_cell_formula_units_Z 24
_cell_length_a 32.042673
_cell_length_b 8.805184
_cell_length_c 9.388160
_cell_angle_alpha 90.000000
_cell_angle_beta 151.559388
_cell_angle_gamma 90.000000
_cell_volume 1261.480241
_symmetry_space_group_name_H-M "P 21/M"
_symmetry_group_IT_number 11
_symmetry_cell_setting 'monoclinic'
loop_
_space_group_symop_operation_xyz
x,y,z
-x,1/2+y,-z
-x,-y,-z
x,1/2-y,z
loop_
_atom_site_type_symbol
_atom_site_label
_atom_site_fract_x
_atom_site_fract_y
_atom_site_fract_z
Si Si1 0.076205 0.572441 0.819472
Si Si2 0.426120 0.919914 0.690155
Si Si3 0.578212 0.423463 0.651365
Si Si4 0.233319 0.929783 0.091980
Si Si5 0.235003 0.069460 0.797855
Si Si6 0.918626 0.068856 0.839411
O O1 0.061314 0.750000 0.769477
O O2 0.000000 0.500000 0.500000
O O3 0.168652 0.527944 0.025740
O O4 0.074519 0.514509 0.976259
O O5 0.424454 0.750000 0.742283
O O6 0.449996 0.930005 0.596822
O O7 0.329461 0.990661 0.425845
O O8 0.500000 0.000000 0.000000
O O9 0.500000 0.500000 0.500000
O O10 0.591958 0.250000 0.742924
O O11 0.667340 0.515021 0.946022
O O12 0.236834 0.750000 0.068495
O O13 0.203262 0.013599 0.857809
O O14 0.229747 0.250000 0.775286
O O15 0.171357 0.997530 0.490180
O O16 0.918977 0.250000 0.826473
O O17 0.000000 0.000000 0.000000
#
# Coordination Sequence:
#
# PCOD8076272 Si02
#       6
#     4   4   4   4   4   4
#     4  10  22  38  58  82 109 142 183 227 277 331
#     4   9  19  34  54  80 110 143 182 225 275 330
#     4  10  21  38  58  83 114 150 189 232 279 331
#     4   9  19  38  58  78 108 146 183 227 279 332
#     4  11  22  37  58  85 113 147 188 231 279 334
#     4  11  23  39  58  84 115 150 188 230 279 334
#
# _framework density 19.025268000000001
#
# number of rings (size 3 to 8) (size 9 to 14) (size 15 to 20)
#    0.000    2.000    0.000    4.500    0.000    9.333 
#    0.000    1.667    0.000    0.000    0.000    0.000 
#    0.000    0.000    0.000    0.000    0.000    0.000 
#
# Total GULP energy -297630.246910 kJ/mol
# GULP energy per Si atom -12401.260288 kJ/mol
# Density = 1.898197 g / cm^3
# Si number density = 19.025268 Si / 1000 Ang^3
#
#
#
# Elastic Constant Matrix: (Units=GPa)
#
#
# Indices 1 2 3 4 5 6 
#
# 1 155.1458 53.4637 77.3205 0.0000 7.2389 0.0000
# 2 53.4637 90.7434 53.3917 0.0000 -4.3485 0.0000
# 3 77.3205 53.3917 150.8330 0.0000 -13.9675 0.0000
# 4 0.0000 0.0000 0.0000 39.3608 0.0000 1.0226
# 5 7.2389 -4.3485 -13.9675 0.0000 28.5133 0.0000
# 6 0.0000 0.0000 0.0000 1.0226 0.0000 31.4309
#
#
#
# Elastic Compliance Matrix: (Units=1/GPa)
#
#
# Indices 1 2 3 4 5 6 
#
# 1 0.010138 -0.003638 -0.004398 0.000000 -0.005283 0.000000
# 2 -0.003638 0.015227 -0.003378 0.000000 0.001591 0.000000
# 3 -0.004398 -0.003378 0.010617 0.000000 0.005803 0.000000
# 4 0.000000 0.000000 0.000000 0.025427 0.000000 -0.000827
# 5 -0.005283 0.001591 0.005803 0.000000 0.039498 0.000000
# 6 0.000000 0.000000 0.000000 -0.000827 0.000000 0.031843
#
#
# Mechanical properties :
#
#
# Convention : Reuss Voigt Hill
#
# Bulk Modulus (GPa) = 76.02184 85.00822 80.51503
# Shear Modulus (GPa) = 31.25712 34.03076 32.64394
#
# Velocity S-wave (km/s) = 4.05770 4.23391 4.14674
# Velocity P-wave (km/s) = 7.87390 8.28734 8.08327
#
# Compressibility (1/GPa) = 0.01315411
#
# Stress axis : x y z
#
# Youngs Moduli (GPa) = 98.64115 65.67146 94.18466
#
# Poissons Ratio (x) = 0.23893 0.41424
# Poissons Ratio (y) = 0.35888 0.31813
# Poissons Ratio (z) = 0.43384 0.22182
#
# Static dielectric constant tensor:
#      x y z
#    x 3.337930 0.000000 0.036220 
#    y 0.000000 3.521780 0.000000 
#    z 0.036220 0.000000 3.808100 
# 
# 
# High freq. dielectric constant tensor:
#      x y z
#    x 1.744500 0.000000 0.006880 
#    y 0.000000 1.740870 0.000000 
#    z 0.006880 0.000000 1.750570 
# 
# From -- ./inp_files/20391.got.cif
#   From: 2010.06.25/outbox.cif.g09.slc.cpg/sg11_11_cif.got.tgz:20391.got - 2010.06.27 23:14:04.
