data_PCOD8076972
_publ_section_title
;
Structure prediction by ZEFSAII (Michael W. Deem and Ramdas Pophale) SiO2 
 PCOD8076972
Probable space group: P 21/M
;
_chemical_formula_sum "Si O2"
_cell_formula_units_Z 28
_cell_length_a 14.192232
_cell_length_b 8.723806
_cell_length_c 14.279649
_cell_angle_alpha 90.000000
_cell_angle_beta 119.621119
_cell_angle_gamma 90.000000
_cell_volume 1536.916633
_symmetry_space_group_name_H-M "P 21/M"
_symmetry_group_IT_number 11
_symmetry_cell_setting 'monoclinic'
loop_
_space_group_symop_operation_xyz
x,y,z
-x,1/2+y,-z
-x,-y,-z
x,1/2-y,z
loop_
_atom_site_type_symbol
_atom_site_label
_atom_site_fract_x
_atom_site_fract_y
_atom_site_fract_z
Si Si1 0.480990 0.574350 0.889547
Si Si2 0.898553 0.070242 0.505864
Si Si3 0.171263 0.573706 0.826575
Si Si4 0.283823 0.425510 0.046735
Si Si5 0.268864 0.070666 0.702088
Si Si6 0.888193 0.426871 0.909443
Si Si7 0.956254 0.424072 0.742193
O O1 0.449170 0.750000 0.891963
O O2 0.587067 0.561635 0.875251
O O3 0.385970 0.495924 0.784191
O O4 0.500000 0.500000 0.000000
O O5 0.900756 0.250000 0.488217
O O6 0.901252 0.029309 0.617420
O O7 0.783038 0.002102 0.416568
O O8 0.000000 0.000000 0.500000
O O9 0.182892 0.750000 0.803701
O O10 0.183422 0.468276 0.741544
O O11 0.054947 0.538064 0.813832
O O12 0.262235 0.529545 0.945607
O O13 0.249214 0.250000 0.010183
O O14 0.217102 0.487350 0.102279
O O15 0.280123 0.250000 0.693769
O O16 0.886196 0.250000 0.940787
O O17 0.875652 0.441682 0.790713
O O18 0.000000 0.500000 0.000000
O O19 0.000061 0.250000 0.758404
#
# Coordination Sequence:
#
# PCOD8076972 Si02
#       7
#     4   4   4   4   4   4   4
#     4  11  23  38  59  84 114 152 192 234 286 343
#     4  11  22  37  58  84 115 152 193 236 286 341
#     4  12  22  32  55  84 115 153 193 232 278 342
#     4  11  23  38  56  82 118 152 188 236 287 339
#     4  12  24  38  56  82 119 154 190 238 286 341
#     4  11  22  36  57  84 115 153 192 233 285 340
#     4  10  22  38  56  80 117 154 190 235 284 335
#
# _framework density 18.218294
#
# number of rings (size 3 to 8) (size 9 to 14) (size 15 to 20)
#    0.000    0.857    4.286    4.286    0.000    2.857 
#    0.000    0.000    0.000    0.857    0.000    0.000 
#    0.000    0.000    0.000    0.000    0.000    0.000 
#
# Total GULP energy -347223.255870 kJ/mol
# GULP energy per Si atom -12400.830567 kJ/mol
# Density = 1.817683 g / cm^3
# Si number density = 18.218294 Si / 1000 Ang^3
#
#
#
# Elastic Constant Matrix: (Units=GPa)
#
#
# Indices 1 2 3 4 5 6 
#
# 1 94.7805 41.0480 39.6767 0.0000 1.4942 0.0000
# 2 41.0480 120.4643 48.8851 0.0000 7.1066 0.0000
# 3 39.6767 48.8851 111.5845 0.0000 3.7463 0.0000
# 4 0.0000 0.0000 0.0000 27.9784 0.0000 1.8594
# 5 1.4942 7.1066 3.7463 0.0000 30.3217 0.0000
# 6 0.0000 0.0000 0.0000 1.8594 0.0000 30.7407
#
#
#
# Elastic Compliance Matrix: (Units=1/GPa)
#
#
# Indices 1 2 3 4 5 6 
#
# 1 0.013338 -0.003215 -0.003351 0.000000 0.000510 0.000000
# 2 -0.003215 0.010973 -0.003598 0.000000 -0.001969 0.000000
# 3 -0.003351 -0.003598 0.011745 0.000000 -0.000443 0.000000
# 4 0.000000 0.000000 0.000000 0.035886 0.000000 -0.002171
# 5 0.000510 -0.001969 -0.000443 0.000000 0.033471 0.000000
# 6 0.000000 0.000000 0.000000 -0.002171 0.000000 0.032661
#
#
# Mechanical properties :
#
#
# Convention : Reuss Voigt Hill
#
# Bulk Modulus (GPa) = 63.58515 65.11656 64.35085
# Shear Modulus (GPa) = 30.55405 30.95613 30.75509
#
# Velocity S-wave (km/s) = 4.09969 4.12658 4.11316
# Velocity P-wave (km/s) = 7.57546 7.65016 7.61290
#
# Compressibility (1/GPa) = 0.01572694
#
# Stress axis : x y z
#
# Youngs Moduli (GPa) = 74.97419 91.13319 85.14568
#
# Poissons Ratio (x) = 0.29299 0.28535
# Poissons Ratio (y) = 0.24104 0.30635
# Poissons Ratio (z) = 0.25126 0.32789
#
# Static dielectric constant tensor:
#      x y z
#    x 3.382710 0.000000 -0.060450 
#    y 0.000000 3.553040 0.000000 
#    z -0.060450 0.000000 3.378040 
# 
# 
# High freq. dielectric constant tensor:
#      x y z
#    x 1.693510 0.000000 0.000110 
#    y 0.000000 1.724360 0.000000 
#    z 0.000110 0.000000 1.694970 
# 
# From -- ./inp_files/51099.got.cif
#   From: 2010.06.25/outbox.cif.g09.slc.cpg/sg11_26_cif.got.tgz:51099.got - 2010.06.27 23:14:04.
