data_PCOD8076027
_publ_section_title
;
Structure prediction by ZEFSAII (Michael W. Deem and Ramdas Pophale) SiO2 
 PCOD8076027
Probable space group: P 21/M
;
_chemical_formula_sum "Si O2"
_cell_formula_units_Z 28
_cell_length_a 13.979800
_cell_length_b 9.281311
_cell_length_c 11.808057
_cell_angle_alpha 90.000000
_cell_angle_beta 105.669718
_cell_angle_gamma 90.000000
_cell_volume 1475.164412
_symmetry_space_group_name_H-M "P 21/M"
_symmetry_group_IT_number 11
_symmetry_cell_setting 'monoclinic'
loop_
_space_group_symop_operation_xyz
x,y,z
-x,1/2+y,-z
-x,-y,-z
x,1/2-y,z
loop_
_atom_site_type_symbol
_atom_site_label
_atom_site_fract_x
_atom_site_fract_y
_atom_site_fract_z
Si Si1 0.029581 0.918379 0.623552
Si Si2 0.794474 0.079517 0.165090
Si Si3 0.895450 0.078230 0.964210
Si Si4 0.351527 0.083082 0.447900
Si Si5 0.528685 0.415653 0.347436
Si Si6 0.849827 0.916858 0.731750
Si Si7 0.429984 0.917910 0.892192
O O1 0.033079 0.750000 0.594762
O O2 0.134555 0.975241 0.709055
O O3 0.950596 0.949087 0.697279
O O4 0.000000 0.000000 0.500000
O O5 0.794627 0.250000 0.171947
O O6 0.682573 0.019710 0.142956
O O7 0.835206 0.030145 0.056205
O O8 0.909477 0.250000 0.962609
O O9 0.837682 0.019912 0.836095
O O10 0.000000 0.000000 0.000000
O O11 0.363889 0.250000 0.477491
O O12 0.425375 0.033922 0.370580
O O13 0.239974 0.043124 0.379904
O O14 0.378046 0.000472 0.571124
O O15 0.550915 0.250000 0.378572
O O16 0.520981 0.447756 0.212997
O O17 0.844571 0.750000 0.769152
O O18 0.428979 0.750000 0.923891
O O19 0.500000 0.000000 0.000000
#
# Coordination Sequence:
#
# PCOD8076027 Si02
#       7
#     4   4   4   4   4   4   4
#     4  10  21  38  57  81 114 149 184 226 276 333
#     4   9  20  39  58  79 114 152 181 226 286 332
#     4  11  21  37  59  82 110 145 186 227 276 335
#     4   9  19  35  56  81 109 141 178 229 281 323
#     4   9  19  36  56  79 108 142 184 227 274 330
#     4  10  21  37  57  82 114 144 180 233 284 327
#     4  10  22  39  58  82 112 148 189 232 279 332
#
# _framework density 18.980936
#
# number of rings (size 3 to 8) (size 9 to 14) (size 15 to 20)
#    0.000    2.286    1.429    0.429    4.000    1.714 
#    0.000    1.429    0.000    0.000    0.000    0.000 
#    0.000    0.000    0.000    0.000    0.000    0.000 
#
# Total GULP energy -347194.981982 kJ/mol
# GULP energy per Si atom -12399.820785 kJ/mol
# Density = 1.893773 g / cm^3
# Si number density = 18.980936 Si / 1000 Ang^3
#
#
#
# Elastic Constant Matrix: (Units=GPa)
#
#
# Indices 1 2 3 4 5 6 
#
# 1 93.1229 27.9510 45.0260 0.0000 24.5630 0.0000
# 2 27.9510 52.6561 53.5218 0.0000 5.0990 0.0000
# 3 45.0260 53.5218 134.0466 0.0000 19.5365 0.0000
# 4 0.0000 0.0000 0.0000 40.8889 0.0000 4.0270
# 5 24.5630 5.0990 19.5365 0.0000 31.1619 0.0000
# 6 0.0000 0.0000 0.0000 4.0270 0.0000 23.5447
#
#
#
# Elastic Compliance Matrix: (Units=1/GPa)
#
#
# Indices 1 2 3 4 5 6 
#
# 1 0.016090 -0.006062 -0.001409 0.000000 -0.010807 0.000000
# 2 -0.006062 0.034513 -0.012785 0.000000 0.007147 0.000000
# 3 -0.001409 -0.012785 0.013836 0.000000 -0.005471 0.000000
# 4 0.000000 0.000000 0.000000 0.024876 0.000000 -0.004255
# 5 -0.010807 0.007147 -0.005471 0.000000 0.042870 0.000000
# 6 0.000000 0.000000 0.000000 -0.004255 0.000000 0.043200
#
#
# Mechanical properties :
#
#
# Convention : Reuss Voigt Hill
#
# Bulk Modulus (GPa) = 41.79708 59.20258 50.49983
# Shear Modulus (GPa) = 22.33413 29.34089 25.83751
#
# Velocity S-wave (km/s) = 3.43397 3.93594 3.69349
# Velocity P-wave (km/s) = 6.14746 7.20512 6.69720
#
# Compressibility (1/GPa) = 0.02392512
#
# Stress axis : x y z
#
# Youngs Moduli (GPa) = 62.15037 28.97479 72.27655
#
# Poissons Ratio (x) = 0.17565 0.10184
# Poissons Ratio (y) = 0.37677 0.92409
# Poissons Ratio (z) = 0.08757 0.37046
#
# Static dielectric constant tensor:
#      x y z
#    x 3.847880 0.000000 -0.041220 
#    y 0.000000 3.390120 0.000000 
#    z -0.041220 0.000000 3.671130 
# 
# 
# High freq. dielectric constant tensor:
#      x y z
#    x 1.744580 0.000000 0.004360 
#    y 0.000000 1.716760 0.000000 
#    z 0.004360 0.000000 1.746800 
# 
# From -- ./inp_files/37473.got.cif
#   From: 2010.06.25/outbox.cif.g09.slc.cpg/sg11_19_cif.got.tgz:37473.got - 2010.06.27 23:14:04.
