data_PCOD8076263
_publ_section_title
;
Structure prediction by ZEFSAII (Michael W. Deem and Ramdas Pophale) SiO2 
 PCOD8076263
Probable space group: P 21/M
;
_chemical_formula_sum "Si O2"
_cell_formula_units_Z 32
_cell_length_a 19.435607
_cell_length_b 18.549791
_cell_length_c 6.793746
_cell_angle_alpha 90.000000
_cell_angle_beta 134.355113
_cell_angle_gamma 90.000000
_cell_volume 1751.317899
_symmetry_space_group_name_H-M "P 21/M"
_symmetry_group_IT_number 11
_symmetry_cell_setting 'monoclinic'
loop_
_space_group_symop_operation_xyz
x,y,z
-x,1/2+y,-z
-x,-y,-z
x,1/2-y,z
loop_
_atom_site_type_symbol
_atom_site_label
_atom_site_fract_x
_atom_site_fract_y
_atom_site_fract_z
Si Si1 0.265844 0.666679 0.194928
Si Si2 0.734155 0.833321 0.131551
Si Si3 0.889580 0.832800 0.123555
Si Si4 0.762719 0.920443 0.581781
Si Si5 0.611808 0.574342 0.615516
Si Si6 0.388192 0.925658 0.168285
Si Si7 0.237281 0.579558 0.530904
Si Si8 0.110420 0.832800 0.565235
O O1 0.282617 0.750000 0.275502
O O2 0.354331 0.639824 0.238450
O O3 0.263645 0.624198 0.392162
O O4 0.166206 0.652769 0.880124
O O5 0.717381 0.750000 0.145035
O O6 0.833794 0.847228 0.215298
O O7 0.736357 0.875803 0.337584
O O8 0.645669 0.860176 0.821126
O O9 0.876848 0.750000 0.031258
O O10 1.000000 0.852711 0.383143
O O11 0.849734 0.882646 0.870469
O O12 0.666234 0.924093 0.517424
O O13 0.798218 0.000001 0.596437
O O14 0.636322 0.500000 0.772643
O O15 0.500000 0.583206 0.345797
O O16 0.333765 0.924093 0.852487
O O17 0.150266 0.617355 0.471531
O O18 0.123154 0.750000 0.523878
#
# Coordination Sequence:
#
# PCOD8076263 Si02
#       8
#     4   4   4   4   4   4   4   4
#     4  10  21  38  58  82 114 149 187 236 285 334
#     4  10  21  38  58  82 114 149 187 236 285 334
#     4   9  20  38  58  81 113 152 190 231 283 341
#     4  11  21  35  58  87 114 148 189 236 284 337
#     4  10  21  38  59  82 112 151 189 228 279 339
#     4  10  21  38  59  82 112 151 189 228 279 339
#     4  11  21  35  58  87 114 148 189 236 284 337
#     4   9  20  38  58  81 113 152 190 231 283 341
#
# _framework density 18.271953
#
# number of rings (size 3 to 8) (size 9 to 14) (size 15 to 20)
#    0.000    2.000    2.500    0.750    0.000    4.500 
#    0.000    3.750    0.000    0.000    0.000    0.000 
#    0.000    0.000    0.000    0.000    0.000    0.000 
#
# Total GULP energy -396946.002361 kJ/mol
# GULP energy per Si atom -12404.562574 kJ/mol
# Density = 1.823036 g / cm^3
# Si number density = 18.271953 Si / 1000 Ang^3
#
#
#
# Elastic Constant Matrix: (Units=GPa)
#
#
# Indices 1 2 3 4 5 6 
#
# 1 105.4083 61.3794 78.9061 0.0000 1.6120 0.0000
# 2 61.3794 126.7240 63.7815 0.0000 -8.4280 0.0000
# 3 78.9061 63.7815 106.2046 0.0000 -4.4001 0.0000
# 4 0.0000 0.0000 0.0000 34.3509 0.0000 -7.1294
# 5 1.6120 -8.4280 -4.4001 0.0000 34.1160 0.0000
# 6 0.0000 0.0000 0.0000 -7.1294 0.0000 32.3193
#
#
#
# Elastic Compliance Matrix: (Units=1/GPa)
#
#
# Indices 1 2 3 4 5 6 
#
# 1 0.022952 -0.003892 -0.014880 0.000000 -0.003965 0.000000
# 2 -0.003892 0.012097 -0.004265 0.000000 0.002622 0.000000
# 3 -0.014880 -0.004265 0.023142 0.000000 0.002634 0.000000
# 4 0.000000 0.000000 0.000000 0.030508 0.000000 0.006730
# 5 -0.003965 0.002622 0.002634 0.000000 0.030487 0.000000
# 6 0.000000 0.000000 0.000000 0.006730 0.000000 0.032426
#
#
# Mechanical properties :
#
#
# Convention : Reuss Voigt Hill
#
# Bulk Modulus (GPa) = 82.52223 82.94124 82.73173
# Shear Modulus (GPa) = 24.78632 29.10855 26.94744
#
# Velocity S-wave (km/s) = 3.68710 3.99566 3.84448
# Velocity P-wave (km/s) = 7.96163 8.17180 8.06740
#
# Compressibility (1/GPa) = 0.01211795
#
# Stress axis : x y z
#
# Youngs Moduli (GPa) = 43.56834 82.66453 43.21223
#
# Poissons Ratio (x) = 0.32169 0.64300
# Poissons Ratio (y) = 0.16955 0.18430
# Poissons Ratio (z) = 0.64830 0.35257
#
# Static dielectric constant tensor:
#      x y z
#    x 3.371700 0.000000 -0.076150 
#    y 0.000000 3.636000 0.000000 
#    z -0.076150 0.000000 3.393390 
# 
# 
# High freq. dielectric constant tensor:
#      x y z
#    x 1.709150 0.000000 -0.006300 
#    y 0.000000 1.720850 0.000000 
#    z -0.006300 0.000000 1.710950 
# 
# From -- ./inp_files/8344.got.cif
#   From: 2010.06.25/outbox.cif.g09.slc.cpg/sg11_5_cif.got.tgz:8344.got - 2010.06.27 23:14:04.
