data_PCOD8076646
_publ_section_title
;
Structure prediction by ZEFSAII (Michael W. Deem and Ramdas Pophale) SiO2 
 PCOD8076646
Probable space group: P 21/M
;
_chemical_formula_sum "Si O2"
_cell_formula_units_Z 28
_cell_length_a 15.361199
_cell_length_b 8.813021
_cell_length_c 11.715708
_cell_angle_alpha 90.000000
_cell_angle_beta 120.391799
_cell_angle_gamma 90.000000
_cell_volume 1368.109663
_symmetry_space_group_name_H-M "P 21/M"
_symmetry_group_IT_number 11
_symmetry_cell_setting 'monoclinic'
loop_
_space_group_symop_operation_xyz
x,y,z
-x,1/2+y,-z
-x,-y,-z
x,1/2-y,z
loop_
_atom_site_type_symbol
_atom_site_label
_atom_site_fract_x
_atom_site_fract_y
_atom_site_fract_z
Si Si1 0.847007 0.576105 0.399831
Si Si2 0.607094 0.424196 0.582424
Si Si3 0.521684 0.427387 0.891896
Si Si4 0.716252 0.073724 0.879488
Si Si5 0.348259 0.574193 0.641798
Si Si6 0.982093 0.076981 0.309731
Si Si7 0.068489 0.427235 0.949789
O O1 0.848383 0.750000 0.358684
O O2 0.734058 0.523972 0.347221
O O3 0.890823 0.468856 0.331450
O O4 0.911142 0.556488 0.557433
O O5 0.500000 0.500000 0.500000
O O6 0.585478 0.250000 0.595700
O O7 0.671634 0.491926 0.730407
O O8 0.667197 0.446340 0.504058
O O9 0.494612 0.250000 0.878035
O O10 0.637794 0.452083 0.931418
O O11 0.456136 0.510050 0.751550
O O12 0.500000 0.500000 0.000000
O O13 0.743306 0.250000 0.883737
O O14 0.817376 0.985322 0.975525
O O15 0.339353 0.750000 0.670978
O O16 0.964401 0.250000 0.258901
O O17 0.984676 0.966332 0.204354
O O18 0.069653 0.250000 0.970490
O O19 0.000000 0.500000 0.000000
#
# Coordination Sequence:
#
# PCOD8076646 Si02
#       7
#     4   4   4   4   4   4   4
#     4  10  22  40  65  95 125 163 208 259 316 377
#     4  10  21  39  63  91 123 160 202 251 306 365
#     4  11  24  42  65  92 130 171 214 262 314 380
#     4  10  23  44  66  92 126 169 212 262 320 375
#     4  11  23  38  62  95 128 164 206 257 314 376
#     4  10  22  43  67  93 126 163 209 262 318 379
#     4  12  27  45  67  94 127 169 216 266 320 380
#
# _framework density 20.466196
#
# number of rings (size 3 to 8) (size 9 to 14) (size 15 to 20)
#    0.000    1.429    1.429    3.000    4.000    4.000 
#    0.000    0.000    0.000    0.000    0.000    0.000 
#    0.000    0.000    0.000    0.000    0.000    0.000 
#
# Total GULP energy -347325.834885 kJ/mol
# GULP energy per Si atom -12404.494103 kJ/mol
# Density = 2.041961 g / cm^3
# Si number density = 20.466196 Si / 1000 Ang^3
#
#
#
# Elastic Constant Matrix: (Units=GPa)
#
#
# Indices 1 2 3 4 5 6 
#
# 1 101.3366 46.2447 30.8847 0.0000 4.8561 0.0000
# 2 46.2447 102.6734 39.3465 0.0000 0.8667 0.0000
# 3 30.8847 39.3465 85.2014 0.0000 -14.2257 0.0000
# 4 0.0000 0.0000 0.0000 34.2147 0.0000 -0.7670
# 5 4.8561 0.8667 -14.2257 0.0000 26.8538 0.0000
# 6 0.0000 0.0000 0.0000 -0.7670 0.0000 34.7261
#
#
#
# Elastic Compliance Matrix: (Units=1/GPa)
#
#
# Indices 1 2 3 4 5 6 
#
# 1 0.013182 -0.004638 -0.003301 0.000000 -0.003983 0.000000
# 2 -0.004638 0.013791 -0.005070 0.000000 -0.002292 0.000000
# 3 -0.003301 -0.005070 0.016896 0.000000 0.009711 0.000000
# 4 0.000000 0.000000 0.000000 0.029242 0.000000 0.000646
# 5 -0.003983 -0.002292 0.009711 0.000000 0.043177 0.000000
# 6 0.000000 0.000000 0.000000 0.000646 0.000000 0.028811
#
#
# Mechanical properties :
#
#
# Convention : Reuss Voigt Hill
#
# Bulk Modulus (GPa) = 56.02310 58.01812 57.02061
# Shear Modulus (GPa) = 28.23754 30.67461 29.45608
#
# Velocity S-wave (km/s) = 3.71848 3.87563 3.79787
# Velocity P-wave (km/s) = 6.77267 6.95968 6.86681
#
# Compressibility (1/GPa) = 0.01784978
#
# Stress axis : x y z
#
# Youngs Moduli (GPa) = 75.86195 72.51030 59.18397
#
# Poissons Ratio (x) = 0.33634 0.19538
# Poissons Ratio (y) = 0.35188 0.30007
# Poissons Ratio (z) = 0.25044 0.36764
#
# Static dielectric constant tensor:
#      x y z
#    x 3.682300 0.000000 -0.153270 
#    y 0.000000 3.776760 0.000000 
#    z -0.153270 0.000000 4.034210 
# 
# 
# High freq. dielectric constant tensor:
#      x y z
#    x 1.805750 0.000000 -0.004310 
#    y 0.000000 1.805950 0.000000 
#    z -0.004310 0.000000 1.807320 
# 
# From -- ./inp_files/38408.got.cif
#   From: 2010.06.25/outbox.cif.g09.slc.cpg/sg11_20_cif.got.tgz:38408.got - 2010.06.27 23:14:04.
