data_PCOD8076675
_publ_section_title
;
Structure prediction by ZEFSAII (Michael W. Deem and Ramdas Pophale) SiO2 
 PCOD8076675
Probable space group: P 21/M
;
_chemical_formula_sum "Si O2"
_cell_formula_units_Z 32
_cell_length_a 17.717361
_cell_length_b 15.298240
_cell_length_c 11.250869
_cell_angle_alpha 90.000000
_cell_angle_beta 30.295128
_cell_angle_gamma 90.000000
_cell_volume 1538.325783
_symmetry_space_group_name_H-M "P 21/M"
_symmetry_group_IT_number 11
_symmetry_cell_setting 'monoclinic'
loop_
_space_group_symop_operation_xyz
x,y,z
-x,1/2+y,-z
-x,-y,-z
x,1/2-y,z
loop_
_atom_site_type_symbol
_atom_site_label
_atom_site_fract_x
_atom_site_fract_y
_atom_site_fract_z
Si Si1 0.784998 0.655155 0.160199
Si Si2 0.213819 0.148561 0.569681
Si Si3 0.899949 0.348467 0.884022
Si Si4 0.669882 0.026107 0.688344
Si Si5 0.361460 0.035165 0.020939
Si Si6 0.044116 0.100072 0.442458
Si Si7 0.654903 0.492670 0.219482
Si Si8 0.917904 0.343331 0.364066
O O1 0.709465 0.750000 0.236915
O O2 0.751715 0.627545 0.340118
O O3 0.730794 0.585287 0.138742
O O4 0.961396 0.663041 0.903858
O O5 0.255942 0.250000 0.480170
O O6 0.313432 0.077680 0.363268
O O7 0.039032 0.131899 0.781276
O O8 0.839851 0.250000 0.983130
O O9 0.959026 0.356729 0.668538
O O10 0.764363 0.412929 0.106953
O O11 0.528356 0.073353 0.817076
O O12 0.815031 0.079607 0.455175
O O13 0.658108 0.035856 0.847068
O O14 0.368018 0.982020 0.889538
O O15 0.226178 0.106369 0.208566
O O16 0.994977 0.143488 0.387132
O O17 0.000000 0.000000 0.500000
O O18 0.500000 0.500000 0.500000
O O19 0.831950 0.250000 0.487580
#
# Coordination Sequence:
#
# PCOD8076675 Si02
#       8
#     4   4   4   4   4   4   4   4
#     4  10  22  39  61  89 121 162 217 266 316 387
#     4  10  21  39  64  92 123 167 216 266 331 393
#     4  11  23  39  64  96 124 164 219 272 320 389
#     4  11  22  41  61  92 134 166 207 273 327 379
#     4  11  23  38  64  96 128 168 212 266 325 387
#     4  12  18  39  68  92 125 163 214 267 319 379
#     4  12  24  41  62  90 128 175 215 261 332 392
#     4  11  22  38  63  91 125 169 212 258 319 385
#
# _framework density 20.801835000000001
#
# number of rings (size 3 to 8) (size 9 to 14) (size 15 to 20)
#    0.000    1.000    5.000    1.875    0.000    3.500 
#    0.000    5.625    0.000    0.000    0.000    0.000 
#    0.000    0.000    0.000    0.000    0.000    0.000 
#
# Total GULP energy -396527.604813 kJ/mol
# GULP energy per Si atom -12391.487650 kJ/mol
# Density = 2.075449 g / cm^3
# Si number density = 20.801835 Si / 1000 Ang^3
#
#
#
# Elastic Constant Matrix: (Units=GPa)
#
#
# Indices 1 2 3 4 5 6 
#
# 1 75.5476 39.0943 27.3247 0.0000 -5.4191 0.0000
# 2 39.0943 124.6983 47.6978 0.0000 -6.6665 0.0000
# 3 27.3247 47.6978 105.7970 0.0000 -13.0395 0.0000
# 4 0.0000 0.0000 0.0000 13.0415 0.0000 4.4380
# 5 -5.4191 -6.6665 -13.0395 0.0000 36.5150 0.0000
# 6 0.0000 0.0000 0.0000 4.4380 0.0000 22.0892
#
#
#
# Elastic Compliance Matrix: (Units=1/GPa)
#
#
# Indices 1 2 3 4 5 6 
#
# 1 0.016275 -0.004216 -0.002196 0.000000 0.000861 0.000000
# 2 -0.004216 0.010784 -0.003774 0.000000 -0.000004 0.000000
# 3 -0.002196 -0.003774 0.012129 0.000000 0.003317 0.000000
# 4 0.000000 0.000000 0.000000 0.082306 0.000000 -0.016536
# 5 0.000861 -0.000004 0.003317 0.000000 0.028697 0.000000
# 6 0.000000 0.000000 0.000000 -0.016536 0.000000 0.048593
#
#
# Mechanical properties :
#
#
# Convention : Reuss Voigt Hill
#
# Bulk Modulus (GPa) = 53.14601 59.36405 56.25503
# Shear Modulus (GPa) = 22.17992 27.12421 24.65207
#
# Velocity S-wave (km/s) = 3.26889 3.61492 3.44625
# Velocity P-wave (km/s) = 6.31282 6.78405 6.55267
#
# Compressibility (1/GPa) = 0.01881609
#
# Stress axis : x y z
#
# Youngs Moduli (GPa) = 61.44538 92.72671 82.44401
#
# Poissons Ratio (x) = 0.39095 0.18108
# Poissons Ratio (y) = 0.25906 0.31112
# Poissons Ratio (z) = 0.13496 0.34992
#
# Static dielectric constant tensor:
#      x y z
#    x 3.989630 0.000000 -0.045540 
#    y 0.000000 4.191410 0.000000 
#    z -0.045540 0.000000 3.951450 
# 
# 
# High freq. dielectric constant tensor:
#      x y z
#    x 1.821480 0.000000 0.005060 
#    y 0.000000 1.802000 0.000000 
#    z 0.005060 0.000000 1.811310 
# 
# From -- ./inp_files/41682.got.cif
#   From: 2010.06.25/outbox.cif.g09.slc.cpg/sg11_21_cif.got.tgz:41682.got - 2010.06.27 23:14:04.
