data_PCOD8076440
_publ_section_title
;
Structure prediction by ZEFSAII (Michael W. Deem and Ramdas Pophale) SiO2 
 PCOD8076440
Probable space group: P 21/M
;
_chemical_formula_sum "Si O2"
_cell_formula_units_Z 28
_cell_length_a 25.936384
_cell_length_b 8.802355
_cell_length_c 9.288388
_cell_angle_alpha 90.000000
_cell_angle_beta 43.045612
_cell_angle_gamma 90.000000
_cell_volume 1447.446244
_symmetry_space_group_name_H-M "P 21/M"
_symmetry_group_IT_number 11
_symmetry_cell_setting 'monoclinic'
loop_
_space_group_symop_operation_xyz
x,y,z
-x,1/2+y,-z
-x,-y,-z
x,1/2-y,z
loop_
_atom_site_type_symbol
_atom_site_label
_atom_site_fract_x
_atom_site_fract_y
_atom_site_fract_z
Si Si1 0.002444 0.075187 0.148773
Si Si2 0.163996 0.575425 0.513264
Si Si3 0.412175 0.926072 0.024880
Si Si4 0.707923 0.572328 0.926190
Si Si5 0.850513 0.426775 0.122318
Si Si6 0.292788 0.570315 0.764924
Si Si7 0.587708 0.926465 0.676533
O O1 0.020469 0.250000 0.090243
O O2 0.919271 0.052318 0.388620
O O3 0.071903 0.002610 0.096341
O O4 0.000000 0.000000 0.000000
O O5 0.190595 0.750000 0.439776
O O6 0.221355 0.462236 0.320253
O O7 0.163029 0.532037 0.683517
O O8 0.390177 0.750000 0.054772
O O9 0.500317 0.955511 0.819766
O O10 0.369410 0.023341 0.992480
O O11 0.386941 0.980718 0.234420
O O12 0.704827 0.750000 0.968349
O O13 0.718112 0.475413 0.048763
O O14 0.861220 0.250000 0.077308
O O15 0.780177 0.487630 0.173975
O O16 0.303912 0.750000 0.728182
O O17 0.366315 0.486537 0.553548
O O18 0.603945 0.750000 0.671459
#
# Coordination Sequence:
#
# PCOD8076440 Si02
#       7
#     4   4   4   4   4   4   4
#     4   9  17  30  53  82 110 140 177 225 275 324
#     4   9  18  35  57  82 111 142 180 226 279 335
#     4  10  21  39  62  86 114 147 181 223 278 332
#     4  12  25  38  55  81 112 148 191 235 275 323
#     4   9  19  35  57  83 109 141 182 226 274 330
#     4  11  23  39  58  80 113 154 187 224 279 335
#     4  10  21  38  62  90 114 140 182 231 273 323
#
# _framework density 19.344415000000001
#
# number of rings (size 3 to 8) (size 9 to 14) (size 15 to 20)
#    0.000    2.000    0.000    4.714    0.000    7.429 
#    0.000    0.714    0.000    0.000    0.000    0.000 
#    0.000    0.000    0.000    0.000    0.000    0.000 
#
# Total GULP energy -347233.378342 kJ/mol
# GULP energy per Si atom -12401.192084 kJ/mol
# Density = 1.930039 g / cm^3
# Si number density = 19.344415 Si / 1000 Ang^3
#
#
#
# Elastic Constant Matrix: (Units=GPa)
#
#
# Indices 1 2 3 4 5 6 
#
# 1 92.6120 33.5531 61.7068 0.0000 -11.4819 0.0000
# 2 33.5531 66.2404 28.5834 0.0000 -14.7592 0.0000
# 3 61.7068 28.5834 58.8993 0.0000 -10.4541 0.0000
# 4 0.0000 0.0000 0.0000 34.2751 0.0000 -3.7853
# 5 -11.4819 -14.7592 -10.4541 0.0000 22.4608 0.0000
# 6 0.0000 0.0000 0.0000 -3.7853 0.0000 32.3520
#
#
#
# Elastic Compliance Matrix: (Units=1/GPa)
#
#
# Indices 1 2 3 4 5 6 
#
# 1 0.036082 -0.002534 -0.036619 0.000000 -0.000264 0.000000
# 2 -0.002534 0.021091 -0.005832 0.000000 0.009849 0.000000
# 3 -0.036619 -0.005832 0.059048 0.000000 0.004931 0.000000
# 4 0.000000 0.000000 0.000000 0.029558 0.000000 0.003458
# 5 -0.000264 0.009849 0.004931 0.000000 0.053154 0.000000
# 6 0.000000 0.000000 0.000000 0.003458 0.000000 0.031315
#
#
# Mechanical properties :
#
#
# Convention : Reuss Voigt Hill
#
# Bulk Modulus (GPa) = 38.09425 51.71537 44.90481
# Shear Modulus (GPa) = 15.19894 24.07814 19.63854
#
# Velocity S-wave (km/s) = 2.80608 3.53187 3.18968
# Velocity P-wave (km/s) = 5.49856 6.58970 6.06870
#
# Compressibility (1/GPa) = 0.02625068
#
# Stress axis : x y z
#
# Youngs Moduli (GPa) = 27.71447 47.41252 16.93527
#
# Poissons Ratio (x) = 0.12016 0.62015
# Poissons Ratio (y) = 0.07024 0.09877
# Poissons Ratio (z) = 1.01488 0.27652
#
# Static dielectric constant tensor:
#      x y z
#    x 3.733450 0.000000 -0.325870 
#    y 0.000000 3.615790 0.000000 
#    z -0.325870 0.000000 3.492400 
# 
# 
# High freq. dielectric constant tensor:
#      x y z
#    x 1.752500 0.000000 -0.023120 
#    y 0.000000 1.760050 0.000000 
#    z -0.023120 0.000000 1.744360 
# 
# From -- ./inp_files/28329.got.cif
#   From: 2010.06.25/outbox.cif.g09.slc.cpg/sg11_15_cif.got.tgz:28329.got - 2010.06.27 23:14:04.
