data_PCOD8076876
_publ_section_title
;
Structure prediction by ZEFSAII (Michael W. Deem and Ramdas Pophale) SiO2 
 PCOD8076876
Probable space group: P 21/M
;
_chemical_formula_sum "Si O2"
_cell_formula_units_Z 24
_cell_length_a 6.736789
_cell_length_b 21.002266
_cell_length_c 9.255158
_cell_angle_alpha 90.000000
_cell_angle_beta 62.086260
_cell_angle_gamma 90.000000
_cell_volume 1157.137280
_symmetry_space_group_name_H-M "P 21/M"
_symmetry_group_IT_number 11
_symmetry_cell_setting 'monoclinic'
loop_
_space_group_symop_operation_xyz
x,y,z
-x,1/2+y,-z
-x,-y,-z
x,1/2-y,z
loop_
_atom_site_type_symbol
_atom_site_label
_atom_site_fract_x
_atom_site_fract_y
_atom_site_fract_z
Si Si1 0.316975 0.678378 0.271251
Si Si2 0.575213 0.561343 0.067171
Si Si3 0.627475 0.179951 0.421105
Si Si4 0.706762 0.526749 0.339303
Si Si5 0.016314 0.412872 0.258945
Si Si6 0.165101 0.361700 0.510889
O O1 0.393334 0.750000 0.193554
O O2 0.395130 0.619833 0.141379
O O3 0.417076 0.662695 0.395569
O O4 0.046541 0.681357 0.374284
O O5 0.633142 0.531131 0.200063
O O6 0.500000 0.500000 0.000000
O O7 0.790779 0.595575 0.924979
O O8 0.733036 0.250000 0.374188
O O9 0.393420 0.178905 0.412090
O O10 0.810115 0.133372 0.288331
O O11 0.500000 0.500000 0.500000
O O12 0.782004 0.594113 0.372025
O O13 0.927172 0.484213 0.282695
O O14 0.116339 0.400932 0.382923
#
# Coordination Sequence:
#
# PCOD8076876 Si02
#       6
#     4   4   4   4   4   4
#     4  10  22  42  66  94 126 174 225 271 324 398
#     4  12  25  42  65  98 140 172 215 276 337 395
#     4  10  21  41  67  93 125 170 227 274 321 390
#     4  12  21  41  67  93 127 172 217 267 320 387
#     4  11  24  38  63  96 134 163 209 269 337 391
#     4  11  20  41  67  95 122 166 221 268 321 387
#
# _framework density 20.740839999999999
#
# number of rings (size 3 to 8) (size 9 to 14) (size 15 to 20)
#    0.000    1.000    3.333    4.500    0.000    1.333 
#    0.000    0.000    0.000    0.000    0.000    0.000 
#    0.000    0.000    0.000    0.000    0.000    0.000 
#
# Total GULP energy -297546.310603 kJ/mol
# GULP energy per Si atom -12397.762942 kJ/mol
# Density = 2.069363 g / cm^3
# Si number density = 20.740840 Si / 1000 Ang^3
#
#
#
# Elastic Constant Matrix: (Units=GPa)
#
#
# Indices 1 2 3 4 5 6 
#
# 1 125.1142 35.7083 45.2706 0.0000 -3.9770 0.0000
# 2 35.7083 118.0743 46.5069 0.0000 -3.9835 0.0000
# 3 45.2706 46.5069 108.1419 0.0000 -4.9052 0.0000
# 4 0.0000 0.0000 0.0000 28.8238 0.0000 -3.0026
# 5 -3.9770 -3.9835 -4.9052 0.0000 40.4534 0.0000
# 6 0.0000 0.0000 0.0000 -3.0026 0.0000 25.8077
#
#
#
# Elastic Compliance Matrix: (Units=1/GPa)
#
#
# Indices 1 2 3 4 5 6 
#
# 1 0.009670 -0.001594 -0.003345 0.000000 0.000388 0.000000
# 2 -0.001594 0.010468 -0.003816 0.000000 0.000411 0.000000
# 3 -0.003345 -0.003816 0.012324 0.000000 0.000790 0.000000
# 4 0.000000 0.000000 0.000000 0.035119 0.000000 0.004086
# 5 0.000388 0.000411 0.000790 0.000000 0.024894 0.000000
# 6 0.000000 0.000000 0.000000 0.004086 0.000000 0.039224
#
#
# Mechanical properties :
#
#
# Convention : Reuss Voigt Hill
#
# Bulk Modulus (GPa) = 66.87687 67.36689 67.12188
# Shear Modulus (GPa) = 32.42666 33.93996 33.18331
#
# Velocity S-wave (km/s) = 3.95830 4.04961 4.00422
# Velocity P-wave (km/s) = 7.29417 7.37676 7.33558
#
# Compressibility (1/GPa) = 0.01495285
#
# Stress axis : x y z
#
# Youngs Moduli (GPa) = 103.40921 95.52759 81.13991
#
# Poissons Ratio (x) = 0.15226 0.27143
# Poissons Ratio (y) = 0.16482 0.30963
# Poissons Ratio (z) = 0.34592 0.36453
#
# Static dielectric constant tensor:
#      x y z
#    x 4.140340 0.000000 -0.000840 
#    y 0.000000 3.813550 0.000000 
#    z -0.000840 0.000000 3.657490 
# 
# 
# High freq. dielectric constant tensor:
#      x y z
#    x 1.825520 0.000000 -0.005380 
#    y 0.000000 1.823430 0.000000 
#    z -0.005380 0.000000 1.789090 
# 
# From -- ./inp_files/10425.got.cif
#   From: 2010.06.25/outbox.cif.g09.slc.cpg/sg11_6_cif.got.tgz:10425.got - 2010.06.27 23:14:04.
