data_PCOD8076151
_publ_section_title
;
Structure prediction by ZEFSAII (Michael W. Deem and Ramdas Pophale) SiO2 
 PCOD8076151
Probable space group: P 21/M
;
_chemical_formula_sum "Si O2"
_cell_formula_units_Z 32
_cell_length_a 15.275722
_cell_length_b 9.125454
_cell_length_c 26.333827
_cell_angle_alpha 90.000000
_cell_angle_beta 153.815267
_cell_angle_gamma 90.000000
_cell_volume 1619.837365
_symmetry_space_group_name_H-M "P 21/M"
_symmetry_group_IT_number 11
_symmetry_cell_setting 'monoclinic'
loop_
_space_group_symop_operation_xyz
x,y,z
-x,1/2+y,-z
-x,-y,-z
x,1/2-y,z
loop_
_atom_site_type_symbol
_atom_site_label
_atom_site_fract_x
_atom_site_fract_y
_atom_site_fract_z
Si Si1 0.793162 0.918204 0.388659
Si Si2 0.584573 0.577498 0.093531
Si Si3 0.964388 0.081725 0.656093
Si Si4 0.936712 0.417119 0.016940
Si Si5 0.284853 0.417973 0.277689
Si Si6 0.537560 0.424510 0.860067
Si Si7 0.702220 0.419445 0.617552
Si Si8 0.333465 0.418818 0.565142
O O1 0.844833 0.750000 0.404861
O O2 0.654589 0.982070 0.271311
O O3 0.669056 0.936344 0.375721
O O4 0.000000 0.000000 0.500000
O O5 0.561393 0.750000 0.073279
O O6 0.471328 0.524441 0.085783
O O7 0.811694 0.531429 0.218850
O O8 0.500000 0.500000 0.000000
O O9 0.952941 0.250000 0.631853
O O10 0.853878 0.057423 0.651262
O O11 0.871818 0.980185 0.564335
O O12 0.894228 0.250000 0.979792
O O13 0.116942 0.431223 0.148897
O O14 0.738930 0.486541 0.939322
O O15 0.000000 0.500000 0.000000
O O16 0.330040 0.250000 0.315863
O O17 0.203322 0.504977 0.283885
O O18 0.487711 0.487399 0.363815
O O19 0.539290 0.250000 0.858746
O O20 0.500000 0.500000 0.500000
O O21 0.659445 0.250000 0.606224
O O22 0.359747 0.250000 0.562750
#
# Coordination Sequence:
#
# PCOD8076151 Si02
#       8
#     4   4   4   4   4   4   4   4
#     4  10  21  37  60  87 114 148 190 235 289 350
#     4  10  22  40  62  86 114 156 200 244 296 349
#     4  10  22  39  59  84 118 156 196 243 300 354
#     4  10  22  40  62  88 118 157 201 244 296 354
#     4  11  23  37  57  86 119 155 196 241 298 361
#     4   9  19  39  62  83 115 156 194 233 288 354
#     4  11  22  37  58  86 120 158 198 246 298 355
#     4  11  22  36  59  89 117 151 193 240 294 355
#
# _framework density 19.75507
#
# number of rings (size 3 to 8) (size 9 to 14) (size 15 to 20)
#    0.000    1.750    1.250    2.625    1.750    5.000 
#    0.000    1.875    0.000    0.000    0.000    0.000 
#    0.000    0.000    0.000    0.000    0.000    0.000 
#
# Total GULP energy -396874.843581 kJ/mol
# GULP energy per Si atom -12402.338862 kJ/mol
# Density = 1.971011 g / cm^3
# Si number density = 19.755070 Si / 1000 Ang^3
#
#
#
# Elastic Constant Matrix: (Units=GPa)
#
#
# Indices 1 2 3 4 5 6 
#
# 1 128.0911 46.9285 65.0706 0.0000 -4.7520 0.0000
# 2 46.9285 85.4849 49.6598 0.0000 -8.0478 0.0000
# 3 65.0706 49.6598 119.5904 0.0000 -1.2950 0.0000
# 4 0.0000 0.0000 0.0000 30.3908 0.0000 -4.1916
# 5 -4.7520 -8.0478 -1.2950 0.0000 38.3471 0.0000
# 6 0.0000 0.0000 0.0000 -4.1916 0.0000 31.3156
#
#
#
# Elastic Compliance Matrix: (Units=1/GPa)
#
#
# Indices 1 2 3 4 5 6 
#
# 1 0.011561 -0.003486 -0.004837 0.000000 0.000538 0.000000
# 2 -0.003486 0.016826 -0.005058 0.000000 0.002928 0.000000
# 3 -0.004837 -0.005058 0.013081 0.000000 -0.001219 0.000000
# 4 0.000000 0.000000 0.000000 0.033524 0.000000 0.004487
# 5 0.000538 0.002928 -0.001219 0.000000 0.026718 0.000000
# 6 0.000000 0.000000 0.000000 0.004487 0.000000 0.032534
#
#
# Mechanical properties :
#
#
# Convention : Reuss Voigt Hill
#
# Bulk Modulus (GPa) = 68.00440 72.94267 70.47353
# Shear Modulus (GPa) = 30.13705 31.44453 30.79079
#
# Velocity S-wave (km/s) = 3.91005 3.99396 3.95223
# Velocity P-wave (km/s) = 7.40831 7.63365 7.52183
#
# Compressibility (1/GPa) = 0.01470493
#
# Stress axis : x y z
#
# Youngs Moduli (GPa) = 86.49413 59.43194 76.44571
#
# Poissons Ratio (x) = 0.20719 0.36979
# Poissons Ratio (y) = 0.30154 0.38669
# Poissons Ratio (z) = 0.41840 0.30063
#
# Static dielectric constant tensor:
#      x y z
#    x 3.674640 0.000000 -0.198210 
#    y 0.000000 3.237980 0.000000 
#    z -0.198210 0.000000 3.731430 
# 
# 
# High freq. dielectric constant tensor:
#      x y z
#    x 1.787140 0.000000 -0.003690 
#    y 0.000000 1.754940 0.000000 
#    z -0.003690 0.000000 1.779410 
# 
# From -- ./inp_files/69133.got.cif
#   From: 2010.06.25/outbox.cif.g09.slc.cpg/sg11_35_cif.got.tgz:69133.got - 2010.06.27 23:14:04.
