data_PCOD8076301
_publ_section_title
;
Structure prediction by ZEFSAII (Michael W. Deem and Ramdas Pophale) SiO2 
 PCOD8076301
Probable space group: P 21/M
;
_chemical_formula_sum "Si O2"
_cell_formula_units_Z 32
_cell_length_a 25.399026
_cell_length_b 9.119435
_cell_length_c 22.861877
_cell_angle_alpha 90.000000
_cell_angle_beta 18.241995
_cell_angle_gamma 90.000000
_cell_volume 1657.617757
_symmetry_space_group_name_H-M "P 21/M"
_symmetry_group_IT_number 11
_symmetry_cell_setting 'monoclinic'
loop_
_space_group_symop_operation_xyz
x,y,z
-x,1/2+y,-z
-x,-y,-z
x,1/2-y,z
loop_
_atom_site_type_symbol
_atom_site_label
_atom_site_fract_x
_atom_site_fract_y
_atom_site_fract_z
Si Si1 0.401278 0.424026 0.464666
Si Si2 0.736724 0.421809 0.949776
Si Si3 0.368518 0.581414 0.065058
Si Si4 0.703362 0.079249 0.731763
Si Si5 0.580609 0.586805 0.361474
Si Si6 0.923309 0.079092 0.395377
Si Si7 0.392585 0.924504 0.353900
Si Si8 0.160111 0.091123 0.822688
O O1 0.418290 0.250000 0.437461
O O2 0.575992 0.494388 0.305162
O O3 0.341960 0.504420 0.468970
O O4 0.278982 0.475129 0.646514
O O5 0.724582 0.250000 0.979186
O O6 0.750187 0.445826 0.865504
O O7 0.907021 0.488502 0.798585
O O8 0.568571 0.502422 0.149029
O O9 0.420195 0.750000 0.015785
O O10 0.272194 0.530814 0.226187
O O11 0.541167 0.495289 0.874336
O O12 0.666879 0.250000 0.764261
O O13 0.868185 0.038987 0.520123
O O14 0.500000 0.500000 0.500000
O O15 0.501540 0.750000 0.436284
O O16 0.769448 0.602643 0.185550
O O17 0.967233 0.250000 0.341960
O O18 0.764600 0.035936 0.522088
O O19 0.418313 0.750000 0.331035
O O20 0.110273 0.250000 0.851282
O O21 0.000000 0.000000 0.000000
#
# Coordination Sequence:
#
# PCOD8076301 Si02
#       8
#     4   4   4   4   4   4   4   4
#     4  10  21  38  59  85 114 150 192 236 287 345
#     4  11  23  38  59  87 118 154 195 245 302 360
#     4   9  18  32  54  84 115 148 191 240 298 361
#     4   9  17  33  56  82 113 150 191 241 298 356
#     4   9  17  32  54  81 110 145 184 226 273 330
#     4  10  22  39  60  85 115 155 201 247 298 357
#     4  11  23  42  64  85 114 157 204 250 297 350
#     4   9  19  34  55  85 119 150 183 225 277 331
#
# _framework density 19.304811999999998
#
# number of rings (size 3 to 8) (size 9 to 14) (size 15 to 20)
#    0.000    2.250    1.250    2.250    0.000    5.500 
#    2.250    0.000    0.000    0.000    0.000    0.000 
#    0.000    0.000    0.000    0.000    0.000    0.000 
#
# Total GULP energy -396429.706617 kJ/mol
# GULP energy per Si atom -12388.428332 kJ/mol
# Density = 1.926087 g / cm^3
# Si number density = 19.304812 Si / 1000 Ang^3
#
#
#
# Elastic Constant Matrix: (Units=GPa)
#
#
# Indices 1 2 3 4 5 6 
#
# 1 105.4376 51.6080 50.7513 0.0000 -2.6275 0.0000
# 2 51.6080 98.9216 47.0906 0.0000 -11.8705 0.0000
# 3 50.7513 47.0906 95.6986 0.0000 -14.9974 0.0000
# 4 0.0000 0.0000 0.0000 32.6311 0.0000 -1.4357
# 5 -2.6275 -11.8705 -14.9974 0.0000 22.3585 0.0000
# 6 0.0000 0.0000 0.0000 -1.4357 0.0000 32.3237
#
#
#
# Elastic Compliance Matrix: (Units=1/GPa)
#
#
# Indices 1 2 3 4 5 6 
#
# 1 0.014983 -0.005579 -0.006022 0.000000 -0.005240 0.000000
# 2 -0.005579 0.015457 -0.003871 0.000000 0.004954 0.000000
# 3 -0.006022 -0.003871 0.016890 0.000000 0.008567 0.000000
# 4 0.000000 0.000000 0.000000 0.030706 0.000000 0.001364
# 5 -0.005240 0.004954 0.008567 0.000000 0.052486 0.000000
# 6 0.000000 0.000000 0.000000 0.001364 0.000000 0.030998
#
#
# Mechanical properties :
#
#
# Convention : Reuss Voigt Hill
#
# Bulk Modulus (GPa) = 61.02467 66.55084 63.78776
# Shear Modulus (GPa) = 25.26210 27.50318 26.38264
#
# Velocity S-wave (km/s) = 3.62137 3.77859 3.70081
# Velocity P-wave (km/s) = 7.01181 7.32021 7.16767
#
# Compressibility (1/GPa) = 0.01638681
#
# Stress axis : x y z
#
# Youngs Moduli (GPa) = 66.74266 64.69683 59.20575
#
# Poissons Ratio (x) = 0.36094 0.35653
# Poissons Ratio (y) = 0.37235 0.22917
# Poissons Ratio (z) = 0.40191 0.25043
#
# Static dielectric constant tensor:
#      x y z
#    x 3.519140 0.000000 -0.314830 
#    y 0.000000 3.800770 0.000000 
#    z -0.314830 0.000000 3.118420 
# 
# 
# High freq. dielectric constant tensor:
#      x y z
#    x 1.756710 0.000000 0.000370 
#    y 0.000000 1.760250 0.000000 
#    z 0.000370 0.000000 1.725200 
# 
# From -- ./inp_files/70326.got.cif
#   From: 2010.06.25/outbox.cif.g09.slc.cpg/sg11_36_cif.got.tgz:70326.got - 2010.06.27 23:14:04.
