data_PCOD8076241
_publ_section_title
;
Structure prediction by ZEFSAII (Michael W. Deem and Ramdas Pophale) SiO2 
 PCOD8076241
Probable space group: P 21/M
;
_chemical_formula_sum "Si O2"
_cell_formula_units_Z 32
_cell_length_a 28.204905
_cell_length_b 8.926047
_cell_length_c 22.315803
_cell_angle_alpha 90.000000
_cell_angle_beta 161.403253
_cell_angle_gamma 90.000000
_cell_volume 1791.671300
_symmetry_space_group_name_H-M "P 21/M"
_symmetry_group_IT_number 11
_symmetry_cell_setting 'monoclinic'
loop_
_space_group_symop_operation_xyz
x,y,z
-x,1/2+y,-z
-x,-y,-z
x,1/2-y,z
loop_
_atom_site_type_symbol
_atom_site_label
_atom_site_fract_x
_atom_site_fract_y
_atom_site_fract_z
Si Si1 0.054902 0.422489 0.506507
Si Si2 0.703630 0.574362 0.499937
Si Si3 0.648832 0.571644 0.202905
Si Si4 0.406358 0.572608 0.206597
Si Si5 0.799537 0.427427 0.493849
Si Si6 0.149605 0.075872 0.199779
Si Si7 0.450216 0.427427 0.501412
Si Si8 0.084571 0.926314 0.784343
O O1 0.058341 0.250000 0.525913
O O2 0.219471 0.475944 0.684631
O O3 0.000000 0.500000 0.500000
O O4 0.941182 0.458456 0.316601
O O5 0.708158 0.750000 0.487977
O O6 0.536849 0.522198 0.317769
O O7 0.754791 0.471424 0.507022
O O8 0.814056 0.541111 0.687466
O O9 0.634119 0.750000 0.190780
O O10 0.683835 0.505905 0.310194
O O11 0.500000 0.500000 0.000000
O O12 0.403630 0.750000 0.203293
O O13 0.439828 0.516379 0.314052
O O14 0.247449 0.509747 0.995095
O O15 0.791799 0.250000 0.476011
O O16 0.966534 0.484450 0.682773
O O17 0.128350 0.250000 0.164868
O O18 0.284052 0.018787 0.318776
O O19 0.000000 0.000000 0.000000
O O20 0.500000 0.500000 0.500000
O O21 0.457068 0.250000 0.503624
O O22 0.066386 0.750000 0.776670
#
# Coordination Sequence:
#
# PCOD8076241 Si02
#       8
#     4   4   4   4   4   4   4   4
#     4   9  19  33  51  76 105 133 166 207 251 299
#     4   9  18  35  55  75 101 137 175 215 260 307
#     4  10  21  38  57  79 106 138 175 214 254 303
#     4   8  16  33  56  75  95 128 173 214 252 301
#     4  11  22  35  52  78 108 138 171 211 256 305
#     4   9  19  34  52  74 103 136 174 215 258 308
#     4   9  18  33  51  74 101 130 165 209 255 306
#     4   9  18  35  55  75  99 132 172 211 250 301
#
# _framework density 17.860417999999999
#
# number of rings (size 3 to 8) (size 9 to 14) (size 15 to 20)
#    0.000    2.750    0.000    3.750    0.000    5.500 
#    0.000    8.125    0.000    0.000    0.000    0.000 
#    0.000    0.000    0.000    0.000    0.000    0.000 
#
# Total GULP energy -396741.481690 kJ/mol
# GULP energy per Si atom -12398.171303 kJ/mol
# Density = 1.781977 g / cm^3
# Si number density = 17.860418 Si / 1000 Ang^3
#
#
#
# Elastic Constant Matrix: (Units=GPa)
#
#
# Indices 1 2 3 4 5 6 
#
# 1 130.7441 44.0779 60.4922 0.0000 -4.3164 0.0000
# 2 44.0779 61.1350 45.4207 0.0000 -1.5177 0.0000
# 3 60.4922 45.4207 166.9183 0.0000 -0.8546 0.0000
# 4 0.0000 0.0000 0.0000 28.3795 0.0000 -0.9045
# 5 -4.3164 -1.5177 -0.8546 0.0000 13.5705 0.0000
# 6 0.0000 0.0000 0.0000 -0.9045 0.0000 35.2917
#
#
#
# Elastic Compliance Matrix: (Units=1/GPa)
#
#
# Indices 1 2 3 4 5 6 
#
# 1 0.010824 -0.006059 -0.002260 0.000000 0.002623 0.000000
# 2 -0.006059 0.023946 -0.004318 0.000000 0.000479 0.000000
# 3 -0.002260 -0.004318 0.007981 0.000000 -0.000699 0.000000
# 4 0.000000 0.000000 0.000000 0.035266 0.000000 0.000904
# 5 0.002623 0.000479 -0.000699 0.000000 0.074533 0.000000
# 6 0.000000 0.000000 0.000000 0.000904 0.000000 0.028358
#
#
# Mechanical properties :
#
#
# Convention : Reuss Voigt Hill
#
# Bulk Modulus (GPa) = 57.22036 73.19768 65.20902
# Shear Modulus (GPa) = 23.58408 29.36879 26.47643
#
# Velocity S-wave (km/s) = 3.63776 4.05946 3.85438
# Velocity P-wave (km/s) = 7.05348 7.94005 7.50986
#
# Compressibility (1/GPa) = 0.01747630
#
# Stress axis : x y z
#
# Youngs Moduli (GPa) = 92.38968 41.76118 125.29163
#
# Poissons Ratio (x) = 0.25305 0.28320
# Poissons Ratio (y) = 0.55983 0.54095
# Poissons Ratio (z) = 0.20883 0.18031
#
# Static dielectric constant tensor:
#      x y z
#    x 3.417290 0.000000 0.026930 
#    y 0.000000 3.114100 0.000000 
#    z 0.026930 0.000000 3.097990 
# 
# 
# High freq. dielectric constant tensor:
#      x y z
#    x 1.695150 0.000000 0.000010 
#    y 0.000000 1.675010 0.000000 
#    z 0.000010 0.000000 1.698910 
# 
# From -- ./inp_files/67196.got.cif
#   From: 2010.06.25/outbox.cif.g09.slc.cpg/sg11_34_cif.got.tgz:67196.got - 2010.06.27 23:14:04.
