data_PCOD8076298
_publ_section_title
;
Structure prediction by ZEFSAII (Michael W. Deem and Ramdas Pophale) SiO2 
 PCOD8076298
Probable space group: P 21/M
;
_chemical_formula_sum "Si O2"
_cell_formula_units_Z 28
_cell_length_a 14.278358
_cell_length_b 8.739895
_cell_length_c 13.280541
_cell_angle_alpha 90.000000
_cell_angle_beta 122.301781
_cell_angle_gamma 90.000000
_cell_volume 1400.822064
_symmetry_space_group_name_H-M "P 21/M"
_symmetry_group_IT_number 11
_symmetry_cell_setting 'monoclinic'
loop_
_space_group_symop_operation_xyz
x,y,z
-x,1/2+y,-z
-x,-y,-z
x,1/2-y,z
loop_
_atom_site_type_symbol
_atom_site_label
_atom_site_fract_x
_atom_site_fract_y
_atom_site_fract_z
Si Si1 0.602108 0.929554 0.499594
Si Si2 0.255600 0.072853 0.798875
Si Si3 0.830047 0.930117 0.731031
Si Si4 0.954491 0.928874 0.196767
Si Si5 0.389629 0.573987 0.711239
Si Si6 0.373833 0.073338 0.068728
Si Si7 0.821570 0.429169 0.940902
O O1 0.590944 0.750000 0.501966
O O2 0.716707 0.985958 0.614654
O O3 0.500000 0.000000 0.500000
O O4 0.600804 0.975447 0.383055
O O5 0.268767 0.250000 0.778809
O O6 0.130618 0.034069 0.761501
O O7 0.283282 0.975189 0.715611
O O8 0.340688 0.026605 0.936584
O O9 0.829213 0.750000 0.751361
O O10 0.849532 0.022493 0.844306
O O11 0.932749 0.976760 0.717841
O O12 0.981129 0.750000 0.207539
O O13 0.901414 0.978189 0.060642
O O14 0.378697 0.750000 0.673851
O O15 0.497026 0.542268 0.841443
O O16 0.341954 0.250000 0.070465
O O17 0.306116 0.971133 0.109421
O O18 0.842208 0.250000 0.967141
#
# Coordination Sequence:
#
# PCOD8076298 Si02
#       7
#     4   4   4   4   4   4   4
#     4  11  25  43  62  84 113 147 186 232 280 330
#     4   9  19  36  57  82 115 149 183 227 280 333
#     4  11  23  39  58  81 111 148 189 234 280 330
#     4  10  21  38  59  84 115 149 185 230 280 332
#     4  11  22  36  58  85 114 149 190 233 279 332
#     4   9  19  35  54  82 118 152 186 230 280 330
#     4  11  21  33  55  86 117 150 186 228 279 337
#
# _framework density 19.988263
#
# number of rings (size 3 to 8) (size 9 to 14) (size 15 to 20)
#    0.000    1.714    0.000    5.571    0.000    9.714 
#    0.000    0.714    0.000    0.000    0.000    0.000 
#    0.000    0.000    0.000    0.000    0.000    0.000 
#
# Total GULP energy -347316.365161 kJ/mol
# GULP energy per Si atom -12404.155899 kJ/mol
# Density = 1.994277 g / cm^3
# Si number density = 19.988263 Si / 1000 Ang^3
#
#
#
# Elastic Constant Matrix: (Units=GPa)
#
#
# Indices 1 2 3 4 5 6 
#
# 1 140.2485 37.6982 54.9936 0.0000 1.9651 0.0000
# 2 37.6982 56.1679 22.7471 0.0000 3.9352 0.0000
# 3 54.9936 22.7471 63.9976 0.0000 -1.2403 0.0000
# 4 0.0000 0.0000 0.0000 27.0915 0.0000 -2.6273
# 5 1.9651 3.9352 -1.2403 0.0000 31.3742 0.0000
# 6 0.0000 0.0000 0.0000 -2.6273 0.0000 40.1265
#
#
#
# Elastic Compliance Matrix: (Units=1/GPa)
#
#
# Indices 1 2 3 4 5 6 
#
# 1 0.011617 -0.004338 -0.008451 0.000000 -0.000518 0.000000
# 2 -0.004338 0.022685 -0.004388 0.000000 -0.002747 0.000000
# 3 -0.008451 -0.004388 0.024487 0.000000 0.002048 0.000000
# 4 0.000000 0.000000 0.000000 0.037148 0.000000 0.002432
# 5 -0.000518 -0.002747 0.002048 0.000000 0.032331 0.000000
# 6 0.000000 0.000000 0.000000 0.002432 0.000000 0.025080
#
#
# Mechanical properties :
#
#
# Convention : Reuss Voigt Hill
#
# Bulk Modulus (GPa) = 40.92619 54.58798 47.75709
# Shear Modulus (GPa) = 25.52986 29.38345 27.45666
#
# Velocity S-wave (km/s) = 3.57773 3.83826 3.71028
# Velocity P-wave (km/s) = 6.13078 6.85655 6.50380
#
# Compressibility (1/GPa) = 0.02443423
#
# Stress axis : x y z
#
# Youngs Moduli (GPa) = 86.07845 44.08137 40.83817
#
# Poissons Ratio (x) = 0.19125 0.34512
# Poissons Ratio (y) = 0.37345 0.17921
# Poissons Ratio (z) = 0.72743 0.19344
#
# Static dielectric constant tensor:
#      x y z
#    x 3.877070 0.000000 0.137240 
#    y 0.000000 3.635780 0.000000 
#    z 0.137240 0.000000 3.522560 
# 
# 
# High freq. dielectric constant tensor:
#      x y z
#    x 1.795360 0.000000 0.001030 
#    y 0.000000 1.784040 0.000000 
#    z 0.001030 0.000000 1.757550 
# 
# From -- ./inp_files/38415.got.cif
#   From: 2010.06.25/outbox.cif.g09.slc.cpg/sg11_20_cif.got.tgz:38415.got - 2010.06.27 23:14:04.
