data_PCOD8076108
_publ_section_title
;
Structure prediction by ZEFSAII (Michael W. Deem and Ramdas Pophale) SiO2 
 PCOD8076108
Probable space group: P 21/M
;
_chemical_formula_sum "Si O2"
_cell_formula_units_Z 28
_cell_length_a 8.640149
_cell_length_b 14.686127
_cell_length_c 12.057056
_cell_angle_alpha 90.000000
_cell_angle_beta 111.501397
_cell_angle_gamma 90.000000
_cell_volume 1423.454272
_symmetry_space_group_name_H-M "P 21/M"
_symmetry_group_IT_number 11
_symmetry_cell_setting 'monoclinic'
loop_
_space_group_symop_operation_xyz
x,y,z
-x,1/2+y,-z
-x,-y,-z
x,1/2-y,z
loop_
_atom_site_type_symbol
_atom_site_label
_atom_site_fract_x
_atom_site_fract_y
_atom_site_fract_z
Si Si1 0.603465 0.428074 0.603485
Si Si2 0.048020 0.995252 0.220673
Si Si3 0.222037 0.146571 0.913883
Si Si4 0.747505 0.645461 0.829882
Si Si5 0.144258 0.508083 0.622566
Si Si6 0.375083 0.144052 0.727810
Si Si7 0.416465 0.850097 0.619621
O O1 0.500000 0.500000 0.500000
O O2 0.793249 0.455224 0.673036
O O3 0.529895 0.403798 0.705781
O O4 0.594842 0.342000 0.517449
O O5 0.943585 0.915789 0.132732
O O6 0.099563 0.076654 0.151511
O O7 0.925003 0.040102 0.277533
O O8 0.158358 0.250000 0.879904
O O9 0.366477 0.126059 0.859423
O O10 0.307689 0.134754 0.056466
O O11 0.800918 0.750000 0.818596
O O12 0.596516 0.614681 0.709988
O O13 0.210595 0.404429 0.639204
O O14 0.282642 0.579950 0.628095
O O15 0.000000 0.500000 0.500000
O O16 0.372021 0.250000 0.697360
O O17 0.384507 0.750000 0.661683
#
# Coordination Sequence:
#
# PCOD8076108 Si02
#       7
#     4   4   4   4   4   4   4
#     4  12  20  38  59  86 122 149 192 244 289 350
#     4  11  21  36  63  86 120 153 194 241 300 340
#     4   9  21  40  60  86 119 155 201 247 289 339
#     4  10  21  40  61  85 119 158 199 242 289 349
#     4  11  21  38  54  83 121 149 185 241 285 352
#     4  10  21  37  59  84 111 154 196 237 290 338
#     4  11  23  38  60  86 117 158 194 236 297 352
#
# _framework density 19.670459999999999
#
# number of rings (size 3 to 8) (size 9 to 14) (size 15 to 20)
#    0.000    1.429    4.286    0.857    0.000    2.286 
#    0.000    7.857    0.000    3.429    0.000    0.000 
#    0.000    0.000    0.000    0.000    0.000    0.000 
#
# Total GULP energy -346912.019114 kJ/mol
# GULP energy per Si atom -12389.714968 kJ/mol
# Density = 1.962569 g / cm^3
# Si number density = 19.670460 Si / 1000 Ang^3
#
#
#
# Elastic Constant Matrix: (Units=GPa)
#
#
# Indices 1 2 3 4 5 6 
#
# 1 101.9113 46.6549 37.7850 0.0000 -21.5487 0.0000
# 2 46.6549 88.0922 23.4754 0.0000 -13.1319 0.0000
# 3 37.7850 23.4754 87.7672 0.0000 -12.5437 0.0000
# 4 0.0000 0.0000 0.0000 27.4726 0.0000 -4.2716
# 5 -21.5487 -13.1319 -12.5437 0.0000 31.6878 0.0000
# 6 0.0000 0.0000 0.0000 -4.2716 0.0000 31.7365
#
#
#
# Elastic Compliance Matrix: (Units=1/GPa)
#
#
# Indices 1 2 3 4 5 6 
#
# 1 0.015507 -0.006168 -0.004118 0.000000 0.006360 0.000000
# 2 -0.006168 0.015173 -0.001170 0.000000 0.001631 0.000000
# 3 -0.004118 -0.001170 0.013790 0.000000 0.002174 0.000000
# 4 0.000000 0.000000 0.000000 0.037178 0.000000 0.005004
# 5 0.006360 0.001631 0.002174 0.000000 0.037419 0.000000
# 6 0.000000 0.000000 0.000000 0.005004 0.000000 0.032183
#
#
# Mechanical properties :
#
#
# Convention : Reuss Voigt Hill
#
# Bulk Modulus (GPa) = 46.38220 54.84458 50.61339
# Shear Modulus (GPa) = 27.57138 29.50308 28.53723
#
# Velocity S-wave (km/s) = 3.74794 3.87701 3.81302
# Velocity P-wave (km/s) = 6.50847 6.92704 6.72102
#
# Compressibility (1/GPa) = 0.02156000
#
# Stress axis : x y z
#
# Youngs Moduli (GPa) = 64.48573 65.90612 72.51580
#
# Poissons Ratio (x) = 0.40648 0.29859
# Poissons Ratio (y) = 0.39772 0.08485
# Poissons Ratio (z) = 0.26552 0.07712
#
# Static dielectric constant tensor:
#      x y z
#    x 3.567280 0.000000 -0.334500 
#    y 0.000000 4.320950 0.000000 
#    z -0.334500 0.000000 3.958790 
# 
# 
# High freq. dielectric constant tensor:
#      x y z
#    x 1.759050 0.000000 -0.017260 
#    y 0.000000 1.775240 0.000000 
#    z -0.017260 0.000000 1.767500 
# 
# From -- ./inp_files/31657.got.cif
#   From: 2010.06.25/outbox.cif.g09.slc.cpg/sg11_16_cif.got.tgz:31657.got - 2010.06.27 23:14:04.
