data_PCOD8076305
_publ_section_title
;
Structure prediction by ZEFSAII (Michael W. Deem and Ramdas Pophale) SiO2 
 PCOD8076305
Probable space group: P 21/M
;
_chemical_formula_sum "Si O2"
_cell_formula_units_Z 28
_cell_length_a 9.214708
_cell_length_b 8.783106
_cell_length_c 29.104239
_cell_angle_alpha 90.000000
_cell_angle_beta 37.584499
_cell_angle_gamma 90.000000
_cell_volume 1436.701382
_symmetry_space_group_name_H-M "P 21/M"
_symmetry_group_IT_number 11
_symmetry_cell_setting 'monoclinic'
loop_
_space_group_symop_operation_xyz
x,y,z
-x,1/2+y,-z
-x,-y,-z
x,1/2-y,z
loop_
_atom_site_type_symbol
_atom_site_label
_atom_site_fract_x
_atom_site_fract_y
_atom_site_fract_z
Si Si1 0.454483 0.574355 0.059893
Si Si2 0.645506 0.428742 0.504856
Si Si3 0.641391 0.428970 0.777004
Si Si4 0.008477 0.576700 0.230177
Si Si5 0.189363 0.428453 0.358382
Si Si6 0.256903 0.570825 0.932171
Si Si7 0.479574 0.927108 0.639775
O O1 0.538374 0.750000 0.039584
O O2 0.177228 0.562991 0.143255
O O3 0.604582 0.476098 0.057316
O O4 0.500000 0.500000 0.000000
O O5 0.500000 0.500000 0.500000
O O6 0.621793 0.250000 0.506449
O O7 0.536234 0.479004 0.580258
O O8 0.918986 0.480771 0.433933
O O9 0.598098 0.250000 0.791235
O O10 0.852060 0.477403 0.758984
O O11 0.705950 0.476269 0.709668
O O12 0.395365 0.510000 0.852583
O O13 0.919818 0.750000 0.258610
O O14 0.785745 0.467354 0.277245
O O15 0.209702 0.250000 0.342088
O O16 0.335403 0.472931 0.367083
O O17 0.235073 0.750000 0.934051
O O18 0.000000 0.500000 0.000000
O O19 0.496754 0.750000 0.623825
#
# Coordination Sequence:
#
# PCOD8076305 Si02
#       7
#     4   4   4   4   4   4   4
#     4  10  21  38  59  85 117 153 194 240 290 346
#     4  11  23  40  62  85 113 149 190 233 281 337
#     4  10  21  38  60  85 113 148 191 237 285 341
#     4   9  20  38  58  82 113 149 190 233 280 337
#     4  10  23  40  57  83 117 152 188 231 283 338
#     4  11  22  38  60  85 116 153 194 241 291 346
#     4  11  23  38  58  85 116 148 187 233 282 335
#
# _framework density 19.489089
#
# number of rings (size 3 to 8) (size 9 to 14) (size 15 to 20)
#    0.000    1.714    0.000    5.143    0.000    9.143 
#    0.000    2.857    0.000    0.000    0.000    0.000 
#    0.000    0.000    0.000    0.000    0.000    0.000 
#
# Total GULP energy -347326.908676 kJ/mol
# GULP energy per Si atom -12404.532453 kJ/mol
# Density = 1.944473 g / cm^3
# Si number density = 19.489089 Si / 1000 Ang^3
#
#
#
# Elastic Constant Matrix: (Units=GPa)
#
#
# Indices 1 2 3 4 5 6 
#
# 1 115.0573 47.7288 67.1430 0.0000 -7.1100 0.0000
# 2 47.7288 93.8442 51.7228 0.0000 -6.5429 0.0000
# 3 67.1430 51.7228 131.0106 0.0000 -3.4492 0.0000
# 4 0.0000 0.0000 0.0000 38.1899 0.0000 2.1275
# 5 -7.1100 -6.5429 -3.4492 0.0000 40.9553 0.0000
# 6 0.0000 0.0000 0.0000 2.1275 0.0000 34.5806
#
#
#
# Elastic Compliance Matrix: (Units=1/GPa)
#
#
# Indices 1 2 3 4 5 6 
#
# 1 0.013486 -0.003807 -0.005375 0.000000 0.001280 0.000000
# 2 -0.003807 0.014817 -0.003862 0.000000 0.001381 0.000000
# 3 -0.005375 -0.003862 0.011898 0.000000 -0.000548 0.000000
# 4 0.000000 0.000000 0.000000 0.026275 0.000000 -0.001616
# 5 0.001280 0.001381 -0.000548 0.000000 0.024814 0.000000
# 6 0.000000 0.000000 0.000000 -0.001616 0.000000 0.029017
#
#
# Mechanical properties :
#
#
# Convention : Reuss Voigt Hill
#
# Bulk Modulus (GPa) = 70.85843 74.78903 72.82373
# Shear Modulus (GPa) = 33.09039 34.29965 33.69502
#
# Velocity S-wave (km/s) = 4.12502 4.19972 4.16254
# Velocity P-wave (km/s) = 7.68926 7.87242 7.78138
#
# Compressibility (1/GPa) = 0.01411265
#
# Stress axis : x y z
#
# Youngs Moduli (GPa) = 74.14826 67.48827 84.04782
#
# Poissons Ratio (x) = 0.25696 0.45175
# Poissons Ratio (y) = 0.28232 0.32461
# Poissons Ratio (z) = 0.39854 0.26065
#
# Static dielectric constant tensor:
#      x y z
#    x 3.576390 0.000000 -0.242180 
#    y 0.000000 3.623170 0.000000 
#    z -0.242180 0.000000 3.335830 
# 
# 
# High freq. dielectric constant tensor:
#      x y z
#    x 1.758620 0.000000 -0.001530 
#    y 0.000000 1.768380 0.000000 
#    z -0.001530 0.000000 1.773460 
# 
# From -- ./inp_files/28240.got.cif
#   From: 2010.06.25/outbox.cif.g09.slc.cpg/sg11_15_cif.got.tgz:28240.got - 2010.06.27 23:14:04.
