data_PCOD8076385
_publ_section_title
;
Structure prediction by ZEFSAII (Michael W. Deem and Ramdas Pophale) SiO2 
 PCOD8076385
Probable space group: P 21/M
;
_chemical_formula_sum "Si O2"
_cell_formula_units_Z 28
_cell_length_a 9.560039
_cell_length_b 8.743722
_cell_length_c 26.400311
_cell_angle_alpha 90.000000
_cell_angle_beta 39.196349
_cell_angle_gamma 90.000000
_cell_volume 1394.659945
_symmetry_space_group_name_H-M "P 21/M"
_symmetry_group_IT_number 11
_symmetry_cell_setting 'monoclinic'
loop_
_space_group_symop_operation_xyz
x,y,z
-x,1/2+y,-z
-x,-y,-z
x,1/2-y,z
loop_
_atom_site_type_symbol
_atom_site_label
_atom_site_fract_x
_atom_site_fract_y
_atom_site_fract_z
Si Si1 0.215196 0.068680 0.914319
Si Si2 0.922766 0.570307 0.251380
Si Si3 0.454442 0.428343 0.567152
Si Si4 0.203465 0.421798 0.331474
Si Si5 0.869804 0.927817 0.490939
Si Si6 0.339853 0.074187 0.178732
Si Si7 0.691431 0.070738 0.219062
O O1 0.211587 0.250000 0.918133
O O2 0.423769 0.008308 0.888218
O O3 0.218824 0.017478 0.855042
O O4 0.000000 0.000000 0.000000
O O5 0.925918 0.750000 0.239521
O O6 0.784640 0.532998 0.341509
O O7 0.814236 0.486661 0.234287
O O8 0.172174 0.508873 0.187370
O O9 0.500000 0.500000 0.500000
O O10 0.488357 0.250000 0.551234
O O11 0.631455 0.494504 0.556694
O O12 0.126456 0.250000 0.366857
O O13 0.238330 0.439403 0.262597
O O14 0.429024 0.460998 0.298394
O O15 0.010007 0.539415 0.400693
O O16 0.835361 0.750000 0.508421
O O17 0.000000 0.000000 0.500000
O O18 0.370312 0.250000 0.153725
O O19 0.735122 0.250000 0.198300
#
# Coordination Sequence:
#
# PCOD8076385 Si02
#       7
#     4   4   4   4   4   4   4
#     4  11  22  40  66  94 124 154 188 231 278 337
#     4  11  23  38  57  85 118 154 196 243 293 346
#     4  11  24  40  58  81 113 153 199 247 298 351
#     4   9  19  36  57  80 108 144 192 242 289 344
#     4  12  24  36  53  77 108 146 192 244 297 346
#     4  10  21  38  61  87 115 151 190 230 280 340
#     4  10  21  38  61  88 117 154 195 237 289 346
#
# _framework density 20.076578999999999
#
# number of rings (size 3 to 8) (size 9 to 14) (size 15 to 20)
#    0.000    1.429    0.000    6.857    0.000   10.286 
#    0.000    0.714    0.000    0.000    0.000    0.000 
#    0.000    0.000    0.000    0.000    0.000    0.000 
#
# Total GULP energy -347276.398362 kJ/mol
# GULP energy per Si atom -12402.728513 kJ/mol
# Density = 2.003088 g / cm^3
# Si number density = 20.076579 Si / 1000 Ang^3
#
#
#
# Elastic Constant Matrix: (Units=GPa)
#
#
# Indices 1 2 3 4 5 6 
#
# 1 99.9377 34.5760 15.4781 0.0000 -19.7225 0.0000
# 2 34.5760 128.1806 50.0204 0.0000 -16.5243 0.0000
# 3 15.4781 50.0204 74.5662 0.0000 -19.3085 0.0000
# 4 0.0000 0.0000 0.0000 34.5343 0.0000 -1.2798
# 5 -19.7225 -16.5243 -19.3085 0.0000 24.9102 0.0000
# 6 0.0000 0.0000 0.0000 -1.2798 0.0000 39.2491
#
#
#
# Elastic Compliance Matrix: (Units=1/GPa)
#
#
# Indices 1 2 3 4 5 6 
#
# 1 0.012585 -0.002862 0.001747 0.000000 0.009419 0.000000
# 2 -0.002862 0.011291 -0.007040 0.000000 -0.000233 0.000000
# 3 0.001747 -0.007040 0.021169 0.000000 0.013121 0.000000
# 4 0.000000 0.000000 0.000000 0.028992 0.000000 0.000945
# 5 0.009419 -0.000233 0.013121 0.000000 0.057617 0.000000
# 6 0.000000 0.000000 0.000000 0.000945 0.000000 0.025509
#
#
# Mechanical properties :
#
#
# Convention : Reuss Voigt Hill
#
# Bulk Modulus (GPa) = 34.80341 55.87042 45.33691
# Shear Modulus (GPa) = 27.31465 33.24606 30.28036
#
# Velocity S-wave (km/s) = 3.69253 4.07377 3.88782
# Velocity P-wave (km/s) = 5.96260 7.07223 6.54099
#
# Compressibility (1/GPa) = 0.02873282
#
# Stress axis : x y z
#
# Youngs Moduli (GPa) = 79.46115 88.56738 47.23932
#
# Poissons Ratio (x) = 0.25348 -0.08251
# Poissons Ratio (y) = 0.22742 0.33259
# Poissons Ratio (z) = -0.13879 0.62355
#
# Static dielectric constant tensor:
#      x y z
#    x 3.774170 0.000000 -0.213530 
#    y 0.000000 3.832180 0.000000 
#    z -0.213530 0.000000 3.702950 
# 
# 
# High freq. dielectric constant tensor:
#      x y z
#    x 1.792270 0.000000 -0.010180 
#    y 0.000000 1.797060 0.000000 
#    z -0.010180 0.000000 1.772870 
# 
# From -- ./inp_files/28523.got.cif
#   From: 2010.06.25/outbox.cif.g09.slc.cpg/sg11_15_cif.got.tgz:28523.got - 2010.06.27 23:14:04.
