data_PCOD8076042
_publ_section_title
;
Structure prediction by ZEFSAII (Michael W. Deem and Ramdas Pophale) SiO2 
 PCOD8076042
Probable space group: P 21/M
;
_chemical_formula_sum "Si O2"
_cell_formula_units_Z 28
_cell_length_a 28.673885
_cell_length_b 8.967393
_cell_length_c 8.907367
_cell_angle_alpha 90.000000
_cell_angle_beta 39.084784
_cell_angle_gamma 90.000000
_cell_volume 1443.997037
_symmetry_space_group_name_H-M "P 21/M"
_symmetry_group_IT_number 11
_symmetry_cell_setting 'monoclinic'
loop_
_space_group_symop_operation_xyz
x,y,z
-x,1/2+y,-z
-x,-y,-z
x,1/2-y,z
loop_
_atom_site_type_symbol
_atom_site_label
_atom_site_fract_x
_atom_site_fract_y
_atom_site_fract_z
Si Si1 0.355622 0.424691 0.520808
Si Si2 0.932079 0.424099 0.088705
Si Si3 0.070304 0.573085 0.248219
Si Si4 0.357200 0.924350 0.197187
Si Si5 0.207516 0.425217 0.064607
Si Si6 0.786232 0.424198 0.634600
Si Si7 0.498897 0.073436 0.341417
O O1 0.361636 0.250000 0.480925
O O2 0.351104 0.498006 0.371109
O O3 0.427001 0.484000 0.431975
O O4 0.283890 0.469172 0.794822
O O5 0.946673 0.250000 0.058517
O O6 0.856326 0.467797 0.359036
O O7 0.927087 0.479504 0.930404
O O8 0.000000 0.500000 0.000000
O O9 0.065302 0.750000 0.276914
O O10 0.143583 0.517072 0.145025
O O11 0.000000 0.500000 0.500000
O O12 0.361258 0.750000 0.217615
O O13 0.286331 0.967314 0.276458
O O14 0.429679 0.981066 0.929170
O O15 0.190517 0.250000 0.096504
O O16 0.212394 0.472597 0.224186
O O17 0.786843 0.250000 0.678266
O O18 0.498366 0.250000 0.364234
O O19 0.500000 0.000000 0.500000
#
# Coordination Sequence:
#
# PCOD8076042 Si02
#       7
#     4   4   4   4   4   4   4
#     4  10  22  38  56  82 117 151 187 233 286 340
#     4  10  22  38  57  81 110 143 181 225 275 328
#     4  11  23  40  61  86 116 150 188 233 282 334
#     4  10  21  37  59  85 112 146 193 239 284 341
#     4  11  23  38  57  84 115 150 190 231 279 338
#     4  10  21  38  58  82 111 145 186 234 283 334
#     4  10  21  37  57  84 115 149 190 237 287 343
#
# _framework density 19.390622
#
# number of rings (size 3 to 8) (size 9 to 14) (size 15 to 20)
#    0.000    1.714    0.000    3.857    0.000    8.000 
#    0.000    0.000    0.000    0.000    0.000    0.000 
#    0.000    0.000    0.000    0.000    0.000    0.000 
#
# Total GULP energy -347348.491230 kJ/mol
# GULP energy per Si atom -12405.303258 kJ/mol
# Density = 1.934649 g / cm^3
# Si number density = 19.390622 Si / 1000 Ang^3
#
#
#
# Elastic Constant Matrix: (Units=GPa)
#
#
# Indices 1 2 3 4 5 6 
#
# 1 162.1546 45.9836 97.3515 0.0000 -3.5045 0.0000
# 2 45.9836 44.3966 56.0626 0.0000 2.1314 0.0000
# 3 97.3515 56.0626 179.3797 0.0000 1.5838 0.0000
# 4 0.0000 0.0000 0.0000 30.5920 0.0000 5.0412
# 5 -3.5045 2.1314 1.5838 0.0000 46.6464 0.0000
# 6 0.0000 0.0000 0.0000 5.0412 0.0000 39.2226
#
#
#
# Elastic Compliance Matrix: (Units=1/GPa)
#
#
# Indices 1 2 3 4 5 6 
#
# 1 0.010029 -0.005876 -0.003617 0.000000 0.001145 0.000000
# 2 -0.005876 0.040731 -0.009524 0.000000 -0.001979 0.000000
# 3 -0.003617 -0.009524 0.010516 0.000000 -0.000194 0.000000
# 4 0.000000 0.000000 0.000000 0.033396 0.000000 -0.004292
# 5 0.001145 -0.001979 -0.000194 0.000000 0.021621 0.000000
# 6 0.000000 0.000000 0.000000 -0.004292 0.000000 0.026047
#
#
# Mechanical properties :
#
#
# Convention : Reuss Voigt Hill
#
# Bulk Modulus (GPa) = 43.02174 87.19180 65.10677
# Shear Modulus (GPa) = 26.57880 35.72776 31.15328
#
# Velocity S-wave (km/s) = 3.70632 4.29712 4.01261
# Velocity P-wave (km/s) = 6.36795 8.34769 7.42411
#
# Compressibility (1/GPa) = 0.02324406
#
# Stress axis : x y z
#
# Youngs Moduli (GPa) = 99.70826 24.55130 95.09459
#
# Poissons Ratio (x) = 0.14425 0.34394
# Poissons Ratio (y) = 0.58584 0.90565
# Poissons Ratio (z) = 0.36062 0.23382
#
# Static dielectric constant tensor:
#      x y z
#    x 2.486150 0.000000 1.155140 
#    y 0.000000 3.469160 0.000000 
#    z 1.155140 0.000000 2.576710 
# 
# 
# High freq. dielectric constant tensor:
#      x y z
#    x 1.774180 0.000000 -0.002450 
#    y 0.000000 1.749370 0.000000 
#    z -0.002450 0.000000 1.776820 
# 
# From -- ./inp_files/28428.got.cif
#   From: 2010.06.25/outbox.cif.g09.slc.cpg/sg11_15_cif.got.tgz:28428.got - 2010.06.27 23:14:04.
