data_PCOD8076236
_publ_section_title
;
Structure prediction by ZEFSAII (Michael W. Deem and Ramdas Pophale) SiO2 
 PCOD8076236
Probable space group: P 21/M
;
_chemical_formula_sum "Si O2"
_cell_formula_units_Z 32
_cell_length_a 27.302504
_cell_length_b 9.181282
_cell_length_c 21.532598
_cell_angle_alpha 90.000000
_cell_angle_beta 18.662491
_cell_angle_gamma 90.000000
_cell_volume 1727.199405
_symmetry_space_group_name_H-M "P 21/M"
_symmetry_group_IT_number 11
_symmetry_cell_setting 'monoclinic'
loop_
_space_group_symop_operation_xyz
x,y,z
-x,1/2+y,-z
-x,-y,-z
x,1/2-y,z
loop_
_atom_site_type_symbol
_atom_site_label
_atom_site_fract_x
_atom_site_fract_y
_atom_site_fract_z
Si Si1 0.981141 0.583077 0.586325
Si Si2 0.429153 0.915112 0.791757
Si Si3 0.879223 0.418026 0.912938
Si Si4 0.129769 0.082419 0.517234
Si Si5 0.270386 0.416539 0.806985
Si Si6 0.371026 0.083314 0.979623
Si Si7 0.520378 0.918774 0.910922
Si Si8 0.445796 0.083670 0.483298
O O1 0.028471 0.750000 0.519409
O O2 0.000000 0.500000 0.500000
O O3 0.095868 0.513358 0.497795
O O4 0.808656 0.569165 0.818106
O O5 0.425338 0.750000 0.821722
O O6 0.567679 0.936923 0.575303
O O7 0.458958 0.020463 0.813991
O O8 0.269415 0.953107 0.949890
O O9 0.894378 0.250000 0.910187
O O10 0.029497 0.473836 0.695960
O O11 0.867452 0.496529 0.994329
O O12 0.087492 0.250000 0.552592
O O13 0.306971 0.064989 0.321560
O O14 0.243851 0.250000 0.856268
O O15 0.432804 0.467131 0.638592
O O16 0.284888 0.439343 0.714126
O O17 0.421073 0.250000 0.930023
O O18 0.408534 0.991579 0.995652
O O19 0.475737 0.750000 0.973053
O O20 0.500000 0.000000 0.000000
O O21 0.505508 0.250000 0.423973
#
# Coordination Sequence:
#
# PCOD8076236 Si02
#       8
#     4   4   4   4   4   4   4   4
#     4  11  23  36  54  79 105 133 168 209 258 313
#     4   9  16  29  50  72  99 137 174 209 254 302
#     4   9  17  30  48  71 102 135 168 210 258 306
#     4  10  21  38  57  77 102 135 174 215 259 310
#     4   9  15  23  39  65  99 135 171 208 248 300
#     4  11  23  37  53  78 108 136 170 213 260 310
#     4  11  24  41  60  79 102 135 174 215 263 314
#     4   8  15  26  39  62  98 138 173 206 250 299
#
# _framework density 18.527101999999999
#
# number of rings (size 3 to 8) (size 9 to 14) (size 15 to 20)
#    0.000    2.250    1.250    3.000    0.000    8.500 
#    0.000    0.000    0.000    0.000    0.000    0.875 
#    0.000    0.000    0.000    0.000    0.000    0.000 
#
# Total GULP energy -396657.943187 kJ/mol
# GULP energy per Si atom -12395.560725 kJ/mol
# Density = 1.848493 g / cm^3
# Si number density = 18.527102 Si / 1000 Ang^3
#
#
#
# Elastic Constant Matrix: (Units=GPa)
#
#
# Indices 1 2 3 4 5 6 
#
# 1 52.7803 31.9678 17.8041 0.0000 20.4653 0.0000
# 2 31.9678 93.4761 26.1591 0.0000 14.4913 0.0000
# 3 17.8041 26.1591 62.2564 0.0000 26.8539 0.0000
# 4 0.0000 0.0000 0.0000 26.5486 0.0000 8.7050
# 5 20.4653 14.4913 26.8539 0.0000 37.4948 0.0000
# 6 0.0000 0.0000 0.0000 8.7050 0.0000 30.3963
#
#
#
# Elastic Compliance Matrix: (Units=1/GPa)
#
#
# Indices 1 2 3 4 5 6 
#
# 1 0.028580 -0.007974 0.000835 0.000000 -0.013115 0.000000
# 2 -0.007974 0.014407 -0.004701 0.000000 0.002151 0.000000
# 3 0.000835 -0.004701 0.024906 0.000000 -0.016477 0.000000
# 4 0.000000 0.000000 0.000000 0.041570 0.000000 -0.011905
# 5 -0.013115 0.002151 -0.016477 0.000000 0.044798 0.000000
# 6 0.000000 0.000000 0.000000 -0.011905 0.000000 0.036308
#
#
# Mechanical properties :
#
#
# Convention : Reuss Voigt Hill
#
# Bulk Modulus (GPa) = 22.61841 40.04167 31.33004
# Shear Modulus (GPa) = 21.83506 27.72673 24.78089
#
# Velocity S-wave (km/s) = 3.43672 3.87272 3.66122
# Velocity P-wave (km/s) = 5.28988 6.45420 5.90083
#
# Compressibility (1/GPa) = 0.04421178
#
# Stress axis : x y z
#
# Youngs Moduli (GPa) = 34.98914 69.40987 40.15041
#
# Poissons Ratio (x) = 0.55351 -0.03351
# Poissons Ratio (y) = 0.27902 0.18875
# Poissons Ratio (z) = -0.02920 0.32630
#
# Static dielectric constant tensor:
#      x y z
#    x 3.307390 0.000000 0.481870 
#    y 0.000000 3.498690 0.000000 
#    z 0.481870 0.000000 3.596000 
# 
# 
# High freq. dielectric constant tensor:
#      x y z
#    x 1.689360 0.000000 0.043880 
#    y 0.000000 1.726500 0.000000 
#    z 0.043880 0.000000 1.709140 
# 
# From -- ./inp_files/66976.got.cif
#   From: 2010.06.25/outbox.cif.g09.slc.cpg/sg11_34_cif.got.tgz:66976.got - 2010.06.27 23:14:04.
