data_PCOD8076754
_publ_section_title
;
Structure prediction by ZEFSAII (Michael W. Deem and Ramdas Pophale) SiO2 
 PCOD8076754
Probable space group: P 21/M
;
_chemical_formula_sum "Si O2"
_cell_formula_units_Z 28
_cell_length_a 9.599353
_cell_length_b 8.619847
_cell_length_c 25.444892
_cell_angle_alpha 90.000000
_cell_angle_beta 139.290748
_cell_angle_gamma 90.000000
_cell_volume 1373.209464
_symmetry_space_group_name_H-M "P 21/M"
_symmetry_group_IT_number 11
_symmetry_cell_setting 'monoclinic'
loop_
_space_group_symop_operation_xyz
x,y,z
-x,1/2+y,-z
-x,-y,-z
x,1/2-y,z
loop_
_atom_site_type_symbol
_atom_site_label
_atom_site_fract_x
_atom_site_fract_y
_atom_site_fract_z
Si Si1 0.845167 0.567005 0.000141
Si Si2 0.878029 0.078099 0.317057
Si Si3 0.360947 0.934477 0.853564
Si Si4 0.641101 0.431006 0.692462
Si Si5 0.174739 0.069873 0.588639
Si Si6 0.353399 0.422790 0.415225
Si Si7 0.054995 0.932149 0.859248
O O1 0.848931 0.750000 0.995374
O O2 0.921084 0.520773 0.079395
O O3 0.603493 0.503661 0.924134
O O4 0.000000 0.500000 0.000000
O O5 0.788509 0.250000 0.306121
O O6 0.743926 0.003891 0.230460
O O7 0.119528 0.096275 0.370116
O O8 0.872316 0.963880 0.364399
O O9 0.347057 0.750000 0.850286
O O10 0.228778 0.995880 0.866574
O O11 0.677090 0.250000 0.715789
O O12 0.411129 0.493989 0.644967
O O13 0.653137 0.458048 0.634248
O O14 0.817560 0.534719 0.771443
O O15 0.168926 0.250000 0.575822
O O16 0.000000 0.000000 0.500000
O O17 0.500000 0.500000 0.500000
O O18 0.438508 0.250000 0.423996
O O19 0.084177 0.750000 0.877086
#
# Coordination Sequence:
#
# PCOD8076754 Si02
#       7
#     4   4   4   4   4   4   4
#     4  11  24  42  65  97 131 165 203 251 305 366
#     4  10  21  40  63  89 121 162 206 254 303 362
#     4   9  20  41  66  92 124 162 206 251 307 368
#     4  11  24  41  61  91 127 162 206 258 309 366
#     4  11  25  42  60  88 123 164 209 257 310 369
#     4  11  22  38  62  91 124 160 204 255 306 365
#     4  11  22  42  68  94 124 164 208 253 308 369
#
# _framework density 20.390187000000001
#
# number of rings (size 3 to 8) (size 9 to 14) (size 15 to 20)
#    0.000    1.429    1.429    3.429    2.000    6.857 
#    0.000    2.857    0.000    0.000    0.000    0.000 
#    0.000    0.000    0.000    0.000    0.000    0.000 
#
# Total GULP energy -347237.762860 kJ/mol
# GULP energy per Si atom -12401.348674 kJ/mol
# Density = 2.034378 g / cm^3
# Si number density = 20.390187 Si / 1000 Ang^3
#
#
#
# Elastic Constant Matrix: (Units=GPa)
#
#
# Indices 1 2 3 4 5 6 
#
# 1 141.2954 26.3708 74.7223 0.0000 0.3272 0.0000
# 2 26.3708 47.0433 22.7524 0.0000 9.0387 0.0000
# 3 74.7223 22.7524 164.8649 0.0000 -0.4511 0.0000
# 4 0.0000 0.0000 0.0000 33.9602 0.0000 -4.8407
# 5 0.3272 9.0387 -0.4511 0.0000 44.0595 0.0000
# 6 0.0000 0.0000 0.0000 -4.8407 0.0000 34.7549
#
#
#
# Elastic Compliance Matrix: (Units=1/GPa)
#
#
# Indices 1 2 3 4 5 6 
#
# 1 0.009865 -0.003744 -0.003953 0.000000 0.000654 0.000000
# 2 -0.003744 0.025217 -0.001797 0.000000 -0.005164 0.000000
# 3 -0.003953 -0.001797 0.008106 0.000000 0.000481 0.000000
# 4 0.000000 0.000000 0.000000 0.030043 0.000000 0.004184
# 5 0.000654 -0.005164 0.000481 0.000000 0.023756 0.000000
# 6 0.000000 0.000000 0.000000 0.004184 0.000000 0.029356
#
#
# Mechanical properties :
#
#
# Convention : Reuss Voigt Hill
#
# Bulk Modulus (GPa) = 41.32129 66.76607 54.04368
# Shear Modulus (GPa) = 32.59500 37.84545 35.22023
#
# Velocity S-wave (km/s) = 4.00254 4.31288 4.16060
# Velocity P-wave (km/s) = 6.45521 7.59055 7.04579
#
# Compressibility (1/GPa) = 0.02420060
#
# Stress axis : x y z
#
# Youngs Moduli (GPa) = 101.36935 39.65541 123.35926
#
# Poissons Ratio (x) = 0.14847 0.48759
# Poissons Ratio (y) = 0.37952 0.22172
# Poissons Ratio (z) = 0.40068 0.07128
#
# Static dielectric constant tensor:
#      x y z
#    x 3.881850 0.000000 0.034870 
#    y 0.000000 3.634480 0.000000 
#    z 0.034870 0.000000 4.500840 
# 
# 
# High freq. dielectric constant tensor:
#      x y z
#    x 1.804830 0.000000 0.000420 
#    y 0.000000 1.787800 0.000000 
#    z 0.000420 0.000000 1.814890 
# 
# From -- ./inp_files/70922.got.cif
#   From: 2010.06.25/outbox.cif.g09.slc.cpg/sg11_36_cif.got.tgz:70922.got - 2010.06.27 23:14:04.
