data_PCOD8076187
_publ_section_title
;
Structure prediction by ZEFSAII (Michael W. Deem and Ramdas Pophale) SiO2 
 PCOD8076187
Probable space group: P 21/M
;
_chemical_formula_sum "Si O2"
_cell_formula_units_Z 32
_cell_length_a 14.833516
_cell_length_b 8.900584
_cell_length_c 12.286553
_cell_angle_alpha 90.000000
_cell_angle_beta 88.294657
_cell_angle_gamma 90.000000
_cell_volume 1621.437712
_symmetry_space_group_name_H-M "P 21/M"
_symmetry_group_IT_number 11
_symmetry_cell_setting 'monoclinic'
loop_
_space_group_symop_operation_xyz
x,y,z
-x,1/2+y,-z
-x,-y,-z
x,1/2-y,z
loop_
_atom_site_type_symbol
_atom_site_label
_atom_site_fract_x
_atom_site_fract_y
_atom_site_fract_z
Si Si1 0.259835 0.424055 0.376157
Si Si2 0.133658 0.424643 0.986831
Si Si3 0.559767 0.074456 0.241707
Si Si4 0.317943 0.576310 0.963804
Si Si5 0.625726 0.424804 0.797208
Si Si6 0.975211 0.074358 0.828524
Si Si7 0.947238 0.926237 0.600813
Si Si8 0.408773 0.073679 0.545615
O O1 0.270417 0.250000 0.344076
O O2 0.285196 0.523911 0.270584
O O3 0.157991 0.462679 0.412663
O O4 0.324278 0.468928 0.473506
O O5 0.132257 0.250000 0.016152
O O6 0.231566 0.474501 0.943388
O O7 0.066312 0.462402 0.890827
O O8 0.108642 0.513609 0.097768
O O9 0.559614 0.250000 0.266514
O O10 0.606548 0.034264 0.126585
O O11 0.457332 0.018995 0.245921
O O12 0.614634 0.990808 0.334660
O O13 0.288943 0.750000 0.957893
O O14 0.361102 0.536263 0.077564
O O15 0.606925 0.250000 0.778858
O O16 0.961162 0.250000 0.809224
O O17 0.982287 0.992667 0.713101
O O18 0.966458 0.750000 0.600380
O O19 0.000000 0.000000 0.500000
O O20 0.424120 0.250000 0.551315
O O21 0.500000 0.000000 0.500000
#
# Coordination Sequence:
#
# PCOD8076187 Si02
#       8
#     4   4   4   4   4   4   4   4
#     4  10  23  41  62  87 118 155 196 245 301 357
#     4  10  21  37  61  90 118 155 199 246 300 357
#     4  11  23  39  58  83 119 158 196 243 298 353
#     4  10  23  39  56  85 122 157 196 245 297 353
#     4  11  22  37  60  87 116 153 199 245 294 353
#     4  10  21  39  62  88 120 156 198 248 299 357
#     4  11  24  42  63  90 123 161 202 249 305 361
#     4  11  22  39  62  87 116 152 198 249 297 351
#
# _framework density 19.735571
#
# number of rings (size 3 to 8) (size 9 to 14) (size 15 to 20)
#    0.000    1.500    1.250    3.375    0.000    8.000 
#    0.000    3.750    0.000    0.000    0.000    0.000 
#    0.000    0.000    0.000    0.000    0.000    0.000 
#
# Total GULP energy -397014.833410 kJ/mol
# GULP energy per Si atom -12406.713544 kJ/mol
# Density = 1.969065 g / cm^3
# Si number density = 19.735571 Si / 1000 Ang^3
#
#
#
# Elastic Constant Matrix: (Units=GPa)
#
#
# Indices 1 2 3 4 5 6 
#
# 1 87.8967 45.4701 53.4558 0.0000 -10.5472 0.0000
# 2 45.4701 94.0176 67.9303 0.0000 -3.1275 0.0000
# 3 53.4558 67.9303 157.7197 0.0000 -6.4889 0.0000
# 4 0.0000 0.0000 0.0000 37.5859 0.0000 -2.1198
# 5 -10.5472 -3.1275 -6.4889 0.0000 26.6546 0.0000
# 6 0.0000 0.0000 0.0000 -2.1198 0.0000 33.5583
#
#
#
# Elastic Compliance Matrix: (Units=1/GPa)
#
#
# Indices 1 2 3 4 5 6 
#
# 1 0.016826 -0.005805 -0.002987 0.000000 0.005250 0.000000
# 2 -0.005805 0.017446 -0.005613 0.000000 -0.001617 0.000000
# 3 -0.002987 -0.005613 0.009792 0.000000 0.000544 0.000000
# 4 0.000000 0.000000 0.000000 0.026701 0.000000 0.001687
# 5 0.005250 -0.001617 0.000544 0.000000 0.039537 0.000000
# 6 0.000000 0.000000 0.000000 0.001687 0.000000 0.029905
#
#
# Mechanical properties :
#
#
# Convention : Reuss Voigt Hill
#
# Bulk Modulus (GPa) = 65.55201 74.81625 70.18413
# Shear Modulus (GPa) = 28.71877 31.07828 29.89852
#
# Velocity S-wave (km/s) = 3.81882 3.97260 3.89647
# Velocity P-wave (km/s) = 7.26166 7.68334 7.47547
#
# Compressibility (1/GPa) = 0.01525506
#
# Stress axis : x y z
#
# Youngs Moduli (GPa) = 59.43009 57.32129 102.11986
#
# Poissons Ratio (x) = 0.33277 0.30500
# Poissons Ratio (y) = 0.34501 0.57317
# Poissons Ratio (z) = 0.17750 0.32173
#
# Static dielectric constant tensor:
#      x y z
#    x 3.599670 0.000000 0.039200 
#    y 0.000000 3.662670 0.000000 
#    z 0.039200 0.000000 3.839710 
# 
# 
# High freq. dielectric constant tensor:
#      x y z
#    x 1.769610 0.000000 0.004230 
#    y 0.000000 1.778870 0.000000 
#    z 0.004230 0.000000 1.780290 
# 
# From -- ./inp_files/38278.got.cif
#   From: 2010.06.25/outbox.cif.g09.slc.cpg/sg11_20_cif.got.tgz:38278.got - 2010.06.27 23:14:04.
