data_PCOD8076783
_publ_section_title
;
Structure prediction by ZEFSAII (Michael W. Deem and Ramdas Pophale) SiO2 
 PCOD8076783
Probable space group: P 21/M
;
_chemical_formula_sum "Si O2"
_cell_formula_units_Z 32
_cell_length_a 11.442455
_cell_length_b 18.555626
_cell_length_c 14.474648
_cell_angle_alpha 90.000000
_cell_angle_beta 30.941246
_cell_angle_gamma 90.000000
_cell_volume 1580.156588
_symmetry_space_group_name_H-M "P 21/M"
_symmetry_group_IT_number 11
_symmetry_cell_setting 'monoclinic'
loop_
_space_group_symop_operation_xyz
x,y,z
-x,1/2+y,-z
-x,-y,-z
x,1/2-y,z
loop_
_atom_site_type_symbol
_atom_site_label
_atom_site_fract_x
_atom_site_fract_y
_atom_site_fract_z
Si Si1 0.017289 0.448487 0.275879
Si Si2 0.893538 0.422883 0.046659
Si Si3 0.363175 0.926138 0.601287
Si Si4 0.659182 0.666118 0.265125
Si Si5 0.651751 0.832223 0.888970
Si Si6 0.223917 0.529107 0.389878
Si Si7 0.639736 0.440128 0.032021
Si Si8 0.412461 0.828327 0.242637
O O1 0.116688 0.378950 0.264026
O O2 0.216136 0.508137 0.133775
O O3 0.897004 0.430149 0.260938
O O4 0.803965 0.477585 0.480696
O O5 0.686300 0.405478 0.258226
O O6 0.798979 0.415749 0.007243
O O7 0.000000 0.500000 0.000000
O O8 0.088518 0.363625 0.915156
O O9 0.512874 0.866077 0.448809
O O10 0.500000 0.000000 0.500000
O O11 0.675316 0.750000 0.273936
O O12 0.543136 0.648267 0.246514
O O13 0.691224 0.750000 0.824999
O O14 0.459649 0.871559 0.956416
O O15 0.583559 0.827954 0.041713
O O16 0.224774 0.611444 0.353518
O O17 0.000000 0.500000 0.500000
O O18 0.442256 0.487292 0.209357
O O19 0.296432 0.750000 0.332608
#
# Coordination Sequence:
#
# PCOD8076783 Si02
#       8
#     4   4   4   4   4   4   4   4
#     4  12  22  38  69  91 128 167 216 265 327 383
#     4  12  23  41  70  96 129 176 222 271 328 394
#     4  12  23  40  67 102 130 171 222 275 330 392
#     4  11  24  43  66  97 133 168 214 277 335 388
#     4  11  24  41  62  91 128 172 213 259 325 392
#     4  12  22  37  62  94 123 165 211 258 320 385
#     4  12  24  43  63  94 133 165 218 274 317 383
#     4  10  21  40  64  91 129 162 203 265 324 379
#
# _framework density 20.251156999999999
#
# number of rings (size 3 to 8) (size 9 to 14) (size 15 to 20)
#    0.000    0.500    6.250    3.375    0.000    2.000 
#    0.000    0.000    0.000    0.000    0.000    0.000 
#    0.000    0.000    0.000    0.000    0.000    0.000 
#
# Total GULP energy -396685.009985 kJ/mol
# GULP energy per Si atom -12396.406562 kJ/mol
# Density = 2.020506 g / cm^3
# Si number density = 20.251157 Si / 1000 Ang^3
#
#
#
# Elastic Constant Matrix: (Units=GPa)
#
#
# Indices 1 2 3 4 5 6 
#
# 1 68.2629 54.6890 11.8273 0.0000 -3.3335 0.0000
# 2 54.6890 145.3514 55.8533 0.0000 -11.0709 0.0000
# 3 11.8273 55.8533 118.9502 0.0000 9.1129 0.0000
# 4 0.0000 0.0000 0.0000 26.4667 0.0000 0.8784
# 5 -3.3335 -11.0709 9.1129 0.0000 39.1013 0.0000
# 6 0.0000 0.0000 0.0000 0.8784 0.0000 26.4105
#
#
#
# Elastic Compliance Matrix: (Units=1/GPa)
#
#
# Indices 1 2 3 4 5 6 
#
# 1 0.021413 -0.008991 0.002187 0.000000 -0.001230 0.000000
# 2 -0.008991 0.012625 -0.005345 0.000000 0.004054 0.000000
# 3 0.002187 -0.005345 0.010997 0.000000 -0.003890 0.000000
# 4 0.000000 0.000000 0.000000 0.037825 0.000000 -0.001258
# 5 -0.001230 0.004054 -0.003890 0.000000 0.027524 0.000000
# 6 0.000000 0.000000 0.000000 -0.001258 0.000000 0.037906
#
#
# Mechanical properties :
#
#
# Convention : Reuss Voigt Hill
#
# Bulk Modulus (GPa) = 48.22083 64.14486 56.18285
# Shear Modulus (GPa) = 27.85501 32.40870 30.13186
#
# Velocity S-wave (km/s) = 3.71277 4.00476 3.86153
# Velocity P-wave (km/s) = 6.49943 7.28887 6.90544
#
# Compressibility (1/GPa) = 0.02073792
#
# Stress axis : x y z
#
# Youngs Moduli (GPa) = 46.69988 79.20613 90.93283
#
# Poissons Ratio (x) = 0.71212 -0.19884
# Poissons Ratio (y) = 0.41987 0.48602
# Poissons Ratio (z) = -0.10212 0.42334
#
# Static dielectric constant tensor:
#      x y z
#    x 3.529590 0.000000 0.422940 
#    y 0.000000 3.917160 0.000000 
#    z 0.422940 0.000000 3.761750 
# 
# 
# High freq. dielectric constant tensor:
#      x y z
#    x 1.792430 0.000000 0.009200 
#    y 0.000000 1.786070 0.000000 
#    z 0.009200 0.000000 1.805500 
# 
# From -- ./inp_files/50642.got.cif
#   From: 2010.06.25/outbox.cif.g09.slc.cpg/sg11_26_cif.got.tgz:50642.got - 2010.06.27 23:14:04.
