data_PCOD8076037
_publ_section_title
;
Structure prediction by ZEFSAII (Michael W. Deem and Ramdas Pophale) SiO2 
 PCOD8076037
Probable space group: P 21/M
;
_chemical_formula_sum "Si O2"
_cell_formula_units_Z 32
_cell_length_a 25.583287
_cell_length_b 8.534095
_cell_length_c 14.734358
_cell_angle_alpha 90.000000
_cell_angle_beta 149.346930
_cell_angle_gamma 90.000000
_cell_volume 1640.127552
_symmetry_space_group_name_H-M "P 21/M"
_symmetry_group_IT_number 11
_symmetry_cell_setting 'monoclinic'
loop_
_space_group_symop_operation_xyz
x,y,z
-x,1/2+y,-z
-x,-y,-z
x,1/2-y,z
loop_
_atom_site_type_symbol
_atom_site_label
_atom_site_fract_x
_atom_site_fract_y
_atom_site_fract_z
Si Si1 0.997124 0.934069 0.596513
Si Si2 0.887582 0.933826 0.837774
Si Si3 0.735366 0.065938 0.752464
Si Si4 0.344450 0.436086 0.016713
Si Si5 0.740795 0.066367 0.478202
Si Si6 0.778982 0.564933 0.343553
Si Si7 0.572132 0.434816 0.364856
Si Si8 0.204771 0.066183 0.970908
O O1 0.995231 0.750000 0.584150
O O2 0.894680 0.990681 0.495068
O O3 0.000000 0.000000 0.500000
O O4 0.093501 0.986860 0.800298
O O5 0.887512 0.750000 0.858179
O O6 0.833515 0.025255 0.838741
O O7 0.832869 0.968725 0.660498
O O8 0.000000 0.000000 0.000000
O O9 0.734604 0.250000 0.771554
O O10 0.633328 0.010283 0.546276
O O11 0.739122 0.972147 0.851571
O O12 0.349163 0.250000 0.030106
O O13 0.458685 0.510190 0.193713
O O14 0.275903 0.501453 0.996789
O O15 0.293340 0.489057 0.846711
O O16 0.761238 0.250000 0.524209
O O17 0.634356 0.015113 0.367471
O O18 0.735034 0.025822 0.364264
O O19 0.773228 0.750000 0.351825
O O20 0.561484 0.250000 0.351307
O O21 0.188511 0.250000 0.935954
#
# Coordination Sequence:
#
# PCOD8076037 Si02
#       8
#     4   4   4   4   4   4   4   4
#     4  11  22  38  58  82 115 153 192 239 291 344
#     4  11  22  38  59  83 112 149 191 236 285 342
#     4  10  21  38  58  85 118 151 188 236 290 341
#     4   9  18  36  59  83 113 152 196 239 285 339
#     4  10  21  37  57  85 117 150 189 236 287 339
#     4  10  21  37  57  83 114 153 194 234 285 344
#     4   8  17  36  60  82 113 152 189 237 292 337
#     4  11  22  37  58  86 116 155 198 237 285 343
#
# _framework density 19.510679
#
# number of rings (size 3 to 8) (size 9 to 14) (size 15 to 20)
#    0.000    2.000    1.250    3.375    1.750    2.000 
#    0.000    0.000    0.000   12.000    0.000    0.000 
#    0.000    0.000    0.000    0.000    0.000    0.000 
#
# Total GULP energy -396862.242542 kJ/mol
# GULP energy per Si atom -12401.945079 kJ/mol
# Density = 1.946627 g / cm^3
# Si number density = 19.510679 Si / 1000 Ang^3
#
#
#
# Elastic Constant Matrix: (Units=GPa)
#
#
# Indices 1 2 3 4 5 6 
#
# 1 102.0391 5.8410 80.7321 0.0000 -7.2664 0.0000
# 2 5.8410 31.6727 14.6005 0.0000 4.8966 0.0000
# 3 80.7321 14.6005 150.6776 0.0000 14.6276 0.0000
# 4 0.0000 0.0000 0.0000 26.1953 0.0000 -7.4907
# 5 -7.2664 4.8966 14.6276 0.0000 39.4665 0.0000
# 6 0.0000 0.0000 0.0000 -7.4907 0.0000 29.2222
#
#
#
# Elastic Compliance Matrix: (Units=1/GPa)
#
#
# Indices 1 2 3 4 5 6 
#
# 1 0.018948 0.000380 -0.010916 0.000000 0.007487 0.000000
# 2 0.000380 0.033408 -0.003159 0.000000 -0.002904 0.000000
# 3 -0.010916 -0.003159 0.013432 0.000000 -0.006596 0.000000
# 4 0.000000 0.000000 0.000000 0.041194 0.000000 0.010560
# 5 0.007487 -0.002904 -0.006596 0.000000 0.029522 0.000000
# 6 0.000000 0.000000 0.000000 0.010560 0.000000 0.036927
#
#
# Mechanical properties :
#
#
# Convention : Reuss Voigt Hill
#
# Bulk Modulus (GPa) = 26.04273 54.08186 40.06229
# Shear Modulus (GPa) = 23.40600 31.19119 27.29860
#
# Velocity S-wave (km/s) = 3.46736 4.00268 3.74460
# Velocity P-wave (km/s) = 5.42282 7.01008 6.26690
#
# Compressibility (1/GPa) = 0.03839844
#
# Stress axis : x y z
#
# Youngs Moduli (GPa) = 52.77544 29.93291 74.44983
#
# Poissons Ratio (x) = -0.01138 0.81270
# Poissons Ratio (y) = -0.02006 0.23518
# Poissons Ratio (z) = 0.57610 0.09456
#
# Static dielectric constant tensor:
#      x y z
#    x 3.723020 0.000000 0.206970 
#    y 0.000000 3.362180 0.000000 
#    z 0.206970 0.000000 4.057090 
# 
# 
# High freq. dielectric constant tensor:
#      x y z
#    x 1.765860 0.000000 0.000120 
#    y 0.000000 1.742850 0.000000 
#    z 0.000120 0.000000 1.767610 
# 
# From -- ./inp_files/51674.got.cif
#   From: 2010.06.25/outbox.cif.g09.slc.cpg/sg11_26_cif.got.tgz:51674.got - 2010.06.27 23:14:04.
