data_PCOD8076276
_publ_section_title
;
Structure prediction by ZEFSAII (Michael W. Deem and Ramdas Pophale) SiO2 
 PCOD8076276
Probable space group: P 21/M
;
_chemical_formula_sum "Si O2"
_cell_formula_units_Z 28
_cell_length_a 25.383065
_cell_length_b 8.794863
_cell_length_c 9.090521
_cell_angle_alpha 90.000000
_cell_angle_beta 44.093609
_cell_angle_gamma 90.000000
_cell_volume 1412.104193
_symmetry_space_group_name_H-M "P 21/M"
_symmetry_group_IT_number 11
_symmetry_cell_setting 'monoclinic'
loop_
_space_group_symop_operation_xyz
x,y,z
-x,1/2+y,-z
-x,-y,-z
x,1/2-y,z
loop_
_atom_site_type_symbol
_atom_site_label
_atom_site_fract_x
_atom_site_fract_y
_atom_site_fract_z
Si Si1 0.711089 0.570370 0.738529
Si Si2 0.412041 0.426230 0.517627
Si Si3 0.998932 0.069990 0.842160
Si Si4 0.143331 0.070436 0.374690
Si Si5 0.145015 0.573024 0.054498
Si Si6 0.289410 0.927290 0.571362
Si Si7 0.412395 0.573417 0.822931
O O1 0.699404 0.750000 0.772629
O O2 0.780918 0.512244 0.697238
O O3 0.727709 0.523763 0.538896
O O4 0.635392 0.486483 0.943933
O O5 0.390515 0.250000 0.545877
O O6 0.368977 0.522324 0.480789
O O7 0.387495 0.481580 0.728280
O O8 0.500384 0.456364 0.313501
O O9 0.001716 0.250000 0.852276
O O10 0.923102 0.016034 0.911934
O O11 0.070577 0.006367 0.607468
O O12 0.000000 0.000000 0.000000
O O13 0.140769 0.250000 0.380474
O O14 0.141777 0.015730 0.212088
O O15 0.136793 0.750000 0.106029
O O16 0.223720 0.534730 0.818404
O O17 0.292252 0.750000 0.525324
O O18 0.396430 0.750000 0.825592
#
# Coordination Sequence:
#
# PCOD8076276 Si02
#       7
#     4   4   4   4   4   4   4
#     4  11  23  38  57  83 114 149 189 233 283 336
#     4  10  21  38  60  85 113 147 187 231 280 335
#     4  10  21  38  58  84 116 148 185 228 276 328
#     4  10  22  38  58  84 113 147 188 231 276 330
#     4  10  22  38  58  84 113 147 188 231 276 330
#     4  11  23  38  57  83 114 149 189 233 283 336
#     4  10  21  38  60  85 113 147 187 231 280 335
#
# _framework density 19.828564
#
# number of rings (size 3 to 8) (size 9 to 14) (size 15 to 20)
#    0.000    1.714    0.000    3.857    0.000    8.000 
#    0.000    0.000    0.000    0.000    0.000    0.000 
#    0.000    0.000    0.000    0.000    0.000    0.000 
#
# Total GULP energy -347383.601309 kJ/mol
# GULP energy per Si atom -12406.557190 kJ/mol
# Density = 1.978343 g / cm^3
# Si number density = 19.828564 Si / 1000 Ang^3
#
#
#
# Elastic Constant Matrix: (Units=GPa)
#
#
# Indices 1 2 3 4 5 6 
#
# 1 135.4245 29.0766 48.4549 0.0000 3.7837 0.0000
# 2 29.0766 32.2463 29.2409 0.0000 -11.8410 0.0000
# 3 48.4549 29.2409 94.7020 0.0000 0.0007 0.0000
# 4 0.0000 0.0000 0.0000 32.5095 0.0000 11.3734
# 5 3.7837 -11.8410 0.0007 0.0000 29.0975 0.0000
# 6 0.0000 0.0000 0.0000 11.3734 0.0000 30.1697
#
#
#
# Elastic Compliance Matrix: (Units=1/GPa)
#
#
# Indices 1 2 3 4 5 6 
#
# 1 0.010328 -0.008788 -0.002571 0.000000 -0.004919 0.000000
# 2 -0.008788 0.061829 -0.014594 0.000000 0.026304 0.000000
# 3 -0.002571 -0.014594 0.016381 0.000000 -0.005605 0.000000
# 4 0.000000 0.000000 0.000000 0.035433 0.000000 -0.013358
# 5 -0.004919 0.026304 -0.005605 0.000000 0.045711 0.000000
# 6 0.000000 0.000000 0.000000 -0.013358 0.000000 0.038182
#
#
# Mechanical properties :
#
#
# Convention : Reuss Voigt Hill
#
# Bulk Modulus (GPa) = 27.29910 52.87971 40.08941
# Shear Modulus (GPa) = 18.38356 28.72869 23.55613
#
# Velocity S-wave (km/s) = 3.04818 3.81051 3.45046
# Velocity P-wave (km/s) = 5.11722 6.78869 6.01133
#
# Compressibility (1/GPa) = 0.03663125
#
# Stress axis : x y z
#
# Youngs Moduli (GPa) = 96.82002 16.17371 61.04535
#
# Poissons Ratio (x) = 0.14214 0.15695
# Poissons Ratio (y) = 0.85087 0.89092
# Poissons Ratio (z) = 0.24893 0.23605
#
# Static dielectric constant tensor:
#      x y z
#    x 3.794950 0.000000 -0.208470 
#    y 0.000000 3.549920 0.000000 
#    z -0.208470 0.000000 3.713650 
# 
# 
# High freq. dielectric constant tensor:
#      x y z
#    x 1.784400 0.000000 -0.004040 
#    y 0.000000 1.773160 0.000000 
#    z -0.004040 0.000000 1.784370 
# 
# From -- ./inp_files/28263.got.cif
#   From: 2010.06.25/outbox.cif.g09.slc.cpg/sg11_15_cif.got.tgz:28263.got - 2010.06.27 23:14:04.
