data_PCOD8076003
_publ_section_title
;
Structure prediction by ZEFSAII (Michael W. Deem and Ramdas Pophale) SiO2 
 PCOD8076003
Probable space group: P 21/M
;
_chemical_formula_sum "Si O2"
_cell_formula_units_Z 20
_cell_length_a 7.604162
_cell_length_b 8.840117
_cell_length_c 18.678641
_cell_angle_alpha 90.000000
_cell_angle_beta 127.532330
_cell_angle_gamma 90.000000
_cell_volume 995.710655
_symmetry_space_group_name_H-M "P 21/M"
_symmetry_group_IT_number 11
_symmetry_cell_setting 'monoclinic'
loop_
_space_group_symop_operation_xyz
x,y,z
-x,1/2+y,-z
-x,-y,-z
x,1/2-y,z
loop_
_atom_site_type_symbol
_atom_site_label
_atom_site_fract_x
_atom_site_fract_y
_atom_site_fract_z
Si Si1 0.357418 0.570794 0.402034
Si Si2 0.152276 0.429360 0.718138
Si Si3 0.538166 0.929952 0.723694
Si Si4 0.414317 0.087634 0.911299
Si Si5 0.819939 0.416313 0.908130
O O1 0.500000 0.500000 0.500000
O O2 0.392615 0.750000 0.405634
O O3 0.439309 0.495228 0.349676
O O4 0.103056 0.530022 0.357262
O O5 0.198696 0.250000 0.723275
O O6 0.303181 0.514761 0.697447
O O7 0.214067 0.485356 0.815014
O O8 0.539834 0.750000 0.722401
O O9 0.751434 0.986664 0.821809
O O10 0.337683 0.250000 0.922161
O O11 0.607308 0.106975 0.902916
O O12 0.500000 0.000000 0.000000
O O13 0.908161 0.250000 0.905995
O O14 0.000000 0.500000 0.000000
#
# Coordination Sequence:
#
# PCOD8076003 Si02
#       5
#     4   4   4   4   4
#     4  11  24  43  67  94 123 161 208 261 314 371
#     4   9  21  42  63  86 121 164 206 252 309 367
#     4  11  23  40  63  92 125 163 205 254 311 372
#     4   9  19  34  53  82 115 152 197 242 294 355
#     4  10  21  37  56  84 120 161 205 248 299 361
#
# _framework density 20.086154000000001
#
# number of rings (size 3 to 8) (size 9 to 14) (size 15 to 20)
#    0.000    2.000    0.000    4.200    2.800    6.400 
#    0.000    0.000    0.000    0.000    0.000    0.000 
#    0.000    0.000    0.000    0.000    0.000    0.000 
#
# Total GULP energy -247883.237344 kJ/mol
# GULP energy per Si atom -12394.161867 kJ/mol
# Density = 2.004044 g / cm^3
# Si number density = 20.086154 Si / 1000 Ang^3
#
#
#
# Elastic Constant Matrix: (Units=GPa)
#
#
# Indices 1 2 3 4 5 6 
#
# 1 88.1467 61.2383 80.4226 0.0000 0.2729 0.0000
# 2 61.2383 148.7249 88.6136 0.0000 -2.9100 0.0000
# 3 80.4226 88.6136 206.5804 0.0000 1.5791 0.0000
# 4 0.0000 0.0000 0.0000 39.9012 0.0000 -2.3592
# 5 0.2729 -2.9100 1.5791 0.0000 39.3024 0.0000
# 6 0.0000 0.0000 0.0000 -2.3592 0.0000 27.5806
#
#
#
# Elastic Compliance Matrix: (Units=1/GPa)
#
#
# Indices 1 2 3 4 5 6 
#
# 1 0.019852 -0.004804 -0.005666 0.000000 -0.000266 0.000000
# 2 -0.004804 0.010221 -0.002521 0.000000 0.000891 0.000000
# 3 -0.005666 -0.002521 0.008132 0.000000 -0.000474 0.000000
# 4 0.000000 0.000000 0.000000 0.025189 0.000000 0.002155
# 5 -0.000266 0.000891 -0.000474 0.000000 0.025531 0.000000
# 6 0.000000 0.000000 0.000000 0.002155 0.000000 0.036442
#
#
# Mechanical properties :
#
#
# Convention : Reuss Voigt Hill
#
# Bulk Modulus (GPa) = 81.80889 100.44454 91.12672
# Shear Modulus (GPa) = 32.17025 35.56868 33.86947
#
# Velocity S-wave (km/s) = 4.00636 4.21266 4.11080
# Velocity P-wave (km/s) = 7.88788 8.58938 8.24609
#
# Compressibility (1/GPa) = 0.01222361
#
# Stress axis : x y z
#
# Youngs Moduli (GPa) = 50.37217 97.83405 122.97573
#
# Poissons Ratio (x) = 0.46995 0.69678
# Poissons Ratio (y) = 0.24196 0.31006
# Poissons Ratio (z) = 0.28541 0.24667
#
# Static dielectric constant tensor:
#      x y z
#    x 3.472420 0.000000 0.012710 
#    y 0.000000 3.949540 0.000000 
#    z 0.012710 0.000000 3.470700 
# 
# 
# High freq. dielectric constant tensor:
#      x y z
#    x 1.783680 0.000000 0.003150 
#    y 0.000000 1.786920 0.000000 
#    z 0.003150 0.000000 1.795340 
# 
# From -- ./inp_files/20263.got.cif
#   From: 2010.06.25/outbox.cif.g09.slc.cpg/sg11_11_cif.got.tgz:20263.got - 2010.06.27 23:14:04.
