data_PCOD8076368
_publ_section_title
;
Structure prediction by ZEFSAII (Michael W. Deem and Ramdas Pophale) SiO2 
 PCOD8076368
Probable space group: P 21/M
;
_chemical_formula_sum "Si O2"
_cell_formula_units_Z 32
_cell_length_a 22.900225
_cell_length_b 14.616703
_cell_length_c 9.070348
_cell_angle_alpha 90.000000
_cell_angle_beta 31.152373
_cell_angle_gamma 90.000000
_cell_volume 1570.611864
_symmetry_space_group_name_H-M "P 21/M"
_symmetry_group_IT_number 11
_symmetry_cell_setting 'monoclinic'
loop_
_space_group_symop_operation_xyz
x,y,z
-x,1/2+y,-z
-x,-y,-z
x,1/2-y,z
loop_
_atom_site_type_symbol
_atom_site_label
_atom_site_fract_x
_atom_site_fract_y
_atom_site_fract_z
Si Si1 0.039750 0.354894 0.276475
Si Si2 0.340908 0.146832 0.007412
Si Si3 0.211386 0.852216 0.077442
Si Si4 0.066578 0.985452 0.004295
Si Si5 0.532000 0.445794 0.785850
Si Si6 0.247382 0.649608 0.659526
Si Si7 0.905842 0.852744 0.518526
Si Si8 0.620393 0.511314 0.306964
O O1 0.054857 0.250000 0.192504
O O2 0.088788 0.418848 0.040412
O O3 0.111719 0.374970 0.269339
O O4 0.907811 0.376943 0.590600
O O5 0.386488 0.250000 0.906354
O O6 0.208262 0.141424 0.333761
O O7 0.417559 0.090503 0.956392
O O8 0.339823 0.108601 0.841872
O O9 0.251321 0.750000 0.041390
O O10 0.199115 0.853615 0.928735
O O11 0.301970 0.929321 0.926581
O O12 0.995707 0.922169 0.264494
O O13 0.182895 0.932043 0.712233
O O14 0.000000 0.000000 0.000000
O O15 0.616943 0.363557 0.643079
O O16 0.606409 0.509911 0.514381
O O17 0.500000 0.500000 0.000000
O O18 0.222671 0.750000 0.643635
O O19 0.955941 0.750000 0.398913
O O20 0.500000 0.500000 0.500000
#
# Coordination Sequence:
#
# PCOD8076368 Si02
#       8
#     4   4   4   4   4   4   4   4
#     4  10  21  38  60  90 120 158 206 254 298 361
#     4  10  21  38  61  87 120 159 198 246 301 360
#     4   9  17  34  62  89 113 150 199 249 299 347
#     4  12  25  36  60  89 128 165 197 247 311 369
#     4  10  22  39  63  86 121 158 206 252 308 360
#     4  10  21  39  63  87 116 160 206 248 299 366
#     4  10  21  38  62  89 121 156 202 247 299 364
#     4   9  19  34  56  86 116 149 195 250 291 354
#
# _framework density 20.374224999999999
#
# number of rings (size 3 to 8) (size 9 to 14) (size 15 to 20)
#    0.000    2.000    1.250    1.875    5.250    4.000 
#    0.000    1.250    0.000    0.750    0.000    0.000 
#    0.000    0.000    0.000    0.000    0.000    0.000 
#
# Total GULP energy -396546.575258 kJ/mol
# GULP energy per Si atom -12392.080477 kJ/mol
# Density = 2.032785 g / cm^3
# Si number density = 20.374225 Si / 1000 Ang^3
#
#
#
# Elastic Constant Matrix: (Units=GPa)
#
#
# Indices 1 2 3 4 5 6 
#
# 1 103.4086 61.4529 29.0201 0.0000 -12.8698 0.0000
# 2 61.4529 114.4957 39.2630 0.0000 1.5745 0.0000
# 3 29.0201 39.2630 56.1006 0.0000 -8.1344 0.0000
# 4 0.0000 0.0000 0.0000 17.7498 0.0000 -8.4822
# 5 -12.8698 1.5745 -8.1344 0.0000 34.0665 0.0000
# 6 0.0000 0.0000 0.0000 -8.4822 0.0000 33.0152
#
#
#
# Elastic Compliance Matrix: (Units=1/GPa)
#
#
# Indices 1 2 3 4 5 6 
#
# 1 0.015526 -0.007827 -0.001710 0.000000 0.005819 0.000000
# 2 -0.007827 0.015654 -0.007707 0.000000 -0.005521 0.000000
# 3 -0.001710 -0.007707 0.024925 0.000000 0.005662 0.000000
# 4 0.000000 0.000000 0.000000 0.064224 0.000000 0.016500
# 5 0.005819 -0.005521 0.005662 0.000000 0.033160 0.000000
# 6 0.000000 0.000000 0.000000 0.016500 0.000000 0.034528
#
#
# Mechanical properties :
#
#
# Convention : Reuss Voigt Hill
#
# Bulk Modulus (GPa) = 46.26159 59.27519 52.76839
# Shear Modulus (GPa) = 21.76670 26.58421 24.17545
#
# Velocity S-wave (km/s) = 3.27210 3.61611 3.44840
# Velocity P-wave (km/s) = 6.08529 6.82579 6.46615
#
# Compressibility (1/GPa) = 0.02161621
#
# Stress axis : x y z
#
# Youngs Moduli (GPa) = 64.40993 63.88286 40.12093
#
# Poissons Ratio (x) = 0.49999 0.06860
# Poissons Ratio (y) = 0.50411 0.30922
# Poissons Ratio (z) = 0.11013 0.49237
#
# Static dielectric constant tensor:
#      x y z
#    x 3.687670 0.000000 -0.194260 
#    y 0.000000 3.649160 0.000000 
#    z -0.194260 0.000000 3.542000 
# 
# 
# High freq. dielectric constant tensor:
#      x y z
#    x 1.783400 0.000000 -0.028210 
#    y 0.000000 1.802880 0.000000 
#    z -0.028210 0.000000 1.780760 
# 
# From -- ./inp_files/27764.got.cif
#   From: 2010.06.25/outbox.cif.g09.slc.cpg/sg11_14_cif.got.tgz:27764.got - 2010.06.27 23:14:04.
