data_PCOD8076123
_publ_section_title
;
Structure prediction by ZEFSAII (Michael W. Deem and Ramdas Pophale) SiO2 
 PCOD8076123
Probable space group: P 21/M
;
_chemical_formula_sum "Si O2"
_cell_formula_units_Z 32
_cell_length_a 15.427733
_cell_length_b 8.870414
_cell_length_c 26.349335
_cell_angle_alpha 90.000000
_cell_angle_beta 26.941082
_cell_angle_gamma 90.000000
_cell_volume 1633.747096
_symmetry_space_group_name_H-M "P 21/M"
_symmetry_group_IT_number 11
_symmetry_cell_setting 'monoclinic'
loop_
_space_group_symop_operation_xyz
x,y,z
-x,1/2+y,-z
-x,-y,-z
x,1/2-y,z
loop_
_atom_site_type_symbol
_atom_site_label
_atom_site_fract_x
_atom_site_fract_y
_atom_site_fract_z
Si Si1 0.379104 0.423736 0.996502
Si Si2 0.188617 0.425803 0.991478
Si Si3 0.786099 0.571585 0.218508
Si Si4 0.781285 0.072460 0.827579
Si Si5 0.852119 0.070955 0.538345
Si Si6 0.422951 0.428533 0.772972
Si Si7 0.865669 0.927796 0.422973
Si Si8 0.517710 0.072393 0.435940
O O1 0.364185 0.250000 0.018927
O O2 0.593582 0.483824 0.894969
O O3 0.334622 0.452591 0.961198
O O4 0.224463 0.508537 0.112333
O O5 0.131596 0.250000 0.016196
O O6 0.003843 0.526165 0.096747
O O7 0.295112 0.489220 0.886087
O O8 0.769761 0.750000 0.233568
O O9 0.665065 0.511527 0.233644
O O10 0.706581 0.492396 0.310459
O O11 0.789627 0.250000 0.827110
O O12 0.969411 0.013581 0.700931
O O13 0.868259 0.250000 0.532040
O O14 0.640360 0.014208 0.664680
O O15 0.897152 0.015859 0.458491
O O16 0.000000 0.000000 0.500000
O O17 0.418840 0.250000 0.776080
O O18 0.881521 0.750000 0.425239
O O19 0.664468 0.972130 0.503010
O O20 0.537386 0.250000 0.432107
O O21 0.500000 0.000000 0.500000
#
# Coordination Sequence:
#
# PCOD8076123 Si02
#       8
#     4   4   4   4   4   4   4   4
#     4   9  19  35  56  83 113 149 190 235 288 349
#     4  10  21  37  59  87 113 149 197 243 296 353
#     4  11  22  40  61  86 117 155 198 244 299 356
#     4   9  19  36  58  81 114 153 189 233 289 347
#     4  11  23  40  63  91 123 161 200 247 298 357
#     4   9  20  39  62  84 115 155 196 242 299 356
#     4  10  22  40  63  90 119 157 200 246 299 355
#     4  11  24  41  62  91 124 160 202 251 302 361
#
# _framework density 19.586874000000002
#
# number of rings (size 3 to 8) (size 9 to 14) (size 15 to 20)
#    0.000    2.000    1.250    1.500    3.500    1.500 
#    0.000    1.875    0.000    0.000    0.000    0.000 
#    0.000    0.000    0.000    0.000    0.000    0.000 
#
# Total GULP energy -396904.871471 kJ/mol
# GULP energy per Si atom -12403.277233 kJ/mol
# Density = 1.954229 g / cm^3
# Si number density = 19.586874 Si / 1000 Ang^3
#
#
#
# Elastic Constant Matrix: (Units=GPa)
#
#
# Indices 1 2 3 4 5 6 
#
# 1 85.0659 30.4315 26.0481 0.0000 17.2685 0.0000
# 2 30.4315 49.6699 28.1337 0.0000 6.8756 0.0000
# 3 26.0481 28.1337 134.0888 0.0000 17.9097 0.0000
# 4 0.0000 0.0000 0.0000 29.1113 0.0000 1.8082
# 5 17.2685 6.8756 17.9097 0.0000 36.2531 0.0000
# 6 0.0000 0.0000 0.0000 1.8082 0.0000 31.4487
#
#
#
# Elastic Compliance Matrix: (Units=1/GPa)
#
#
# Indices 1 2 3 4 5 6 
#
# 1 0.016267 -0.008865 -0.000524 0.000000 -0.005808 0.000000
# 2 -0.008865 0.027831 -0.004257 0.000000 0.001048 0.000000
# 3 -0.000524 -0.004257 0.008899 0.000000 -0.003339 0.000000
# 4 0.000000 0.000000 0.000000 0.034474 0.000000 -0.001982
# 5 -0.005808 0.001048 -0.003339 0.000000 0.031801 0.000000
# 6 0.000000 0.000000 0.000000 -0.001982 0.000000 0.031912
#
#
# Mechanical properties :
#
#
# Convention : Reuss Voigt Hill
#
# Bulk Modulus (GPa) = 38.90575 48.67234 43.78905
# Shear Modulus (GPa) = 26.73169 31.64335 29.18752
#
# Velocity S-wave (km/s) = 3.69830 4.02374 3.86444
# Velocity P-wave (km/s) = 6.17599 6.81841 6.50513
#
# Compressibility (1/GPa) = 0.02570314
#
# Stress axis : x y z
#
# Youngs Moduli (GPa) = 61.47564 35.93154 112.37551
#
# Poissons Ratio (x) = 0.31854 0.05890
# Poissons Ratio (y) = 0.54500 0.47839
# Poissons Ratio (z) = 0.03222 0.15296
#
# Static dielectric constant tensor:
#      x y z
#    x 3.700410 0.000000 -0.024910 
#    y 0.000000 3.289290 0.000000 
#    z -0.024910 0.000000 3.803830 
# 
# 
# High freq. dielectric constant tensor:
#      x y z
#    x 1.770460 0.000000 0.002550 
#    y 0.000000 1.748230 0.000000 
#    z 0.002550 0.000000 1.777020 
# 
# From -- ./inp_files/55638.got.cif
#   From: 2010.06.25/outbox.cif.g09.slc.cpg/sg11_28_cif.got.tgz:55638.got - 2010.06.27 23:14:04.
