data_PCOD8076217
_publ_section_title
;
Structure prediction by ZEFSAII (Michael W. Deem and Ramdas Pophale) SiO2 
 PCOD8076217
Probable space group: P 21/M
;
_chemical_formula_sum "Si O2"
_cell_formula_units_Z 32
_cell_length_a 8.077773
_cell_length_b 13.701558
_cell_length_c 13.879910
_cell_angle_alpha 90.000000
_cell_angle_beta 114.286378
_cell_angle_gamma 90.000000
_cell_volume 1400.249542
_symmetry_space_group_name_H-M "P 21/M"
_symmetry_group_IT_number 11
_symmetry_cell_setting 'monoclinic'
loop_
_space_group_symop_operation_xyz
x,y,z
-x,1/2+y,-z
-x,-y,-z
x,1/2-y,z
loop_
_atom_site_type_symbol
_atom_site_label
_atom_site_fract_x
_atom_site_fract_y
_atom_site_fract_z
Si Si1 0.938781 0.011275 0.646346
Si Si2 0.595211 0.139230 0.603946
Si Si3 0.764515 0.952884 0.419058
Si Si4 0.361344 0.640934 0.072597
Si Si5 0.290382 0.141399 0.965149
Si Si6 0.564835 0.360756 0.375046
Si Si7 0.313133 0.049797 0.161801
Si Si8 0.077237 0.958179 0.874046
O O1 0.780572 0.076652 0.658730
O O2 0.094116 0.079574 0.631092
O O3 0.034017 0.944285 0.750320
O O4 0.854709 0.939052 0.545752
O O5 0.640059 0.250000 0.643750
O O6 0.430575 0.100951 0.632686
O O7 0.519197 0.132473 0.477026
O O8 0.736455 0.069865 0.394633
O O9 0.306874 0.750000 0.093113
O O10 0.567950 0.638655 0.087770
O O11 0.346269 0.567201 0.159753
O O12 0.238729 0.609468 0.951430
O O13 0.214299 0.250000 0.962989
O O14 0.122406 0.072363 0.898967
O O15 0.392925 0.103909 0.086773
O O16 0.607828 0.250000 0.353245
O O17 0.392248 0.404803 0.277942
O O18 0.098749 0.069204 0.106397
#
# Coordination Sequence:
#
# PCOD8076217 Si02
#       8
#     4   4   4   4   4   4   4   4
#     4  10  22  39  61  93 127 163 214 264 313 370
#     4  10  21  41  64  92 132 172 213 260 314 376
#     4  10  21  40  65  89 128 175 207 258 321 376
#     4  10  23  41  60  87 121 160 206 253 308 378
#     4  10  22  39  58  83 118 158 202 252 307 372
#     4  10  21  37  64  95 124 164 213 259 310 375
#     4  11  21  36  63  91 121 160 199 256 314 373
#     4  11  22  37  60  87 119 156 201 256 309 367
#
# _framework density 22.853068
#
# number of rings (size 3 to 8) (size 9 to 14) (size 15 to 20)
#    0.000    1.750    0.000    6.375    3.500    3.500 
#    0.000    4.375    0.000    1.500    0.000    0.000 
#    0.000    0.000    0.000    0.000    0.000    0.000 
#
# Total GULP energy -396668.134039 kJ/mol
# GULP energy per Si atom -12395.879189 kJ/mol
# Density = 2.280105 g / cm^3
# Si number density = 22.853068 Si / 1000 Ang^3
#
#
#
# Elastic Constant Matrix: (Units=GPa)
#
#
# Indices 1 2 3 4 5 6 
#
# 1 96.6407 3.4059 -1.4486 0.0000 0.6960 0.0000
# 2 3.4059 101.9354 16.4831 0.0000 1.3400 0.0000
# 3 -1.4486 16.4831 74.6936 0.0000 13.8465 0.0000
# 4 0.0000 0.0000 0.0000 22.1992 0.0000 -1.1376
# 5 0.6960 1.3400 13.8465 0.0000 25.7904 0.0000
# 6 0.0000 0.0000 0.0000 -1.1376 0.0000 20.5011
#
#
#
# Elastic Compliance Matrix: (Units=1/GPa)
#
#
# Indices 1 2 3 4 5 6 
#
# 1 0.010371 -0.000401 0.000375 0.000000 -0.000460 0.000000
# 2 -0.000401 0.010202 -0.002402 0.000000 0.000770 0.000000
# 3 0.000375 -0.002402 0.015441 0.000000 -0.008175 0.000000
# 4 0.000000 0.000000 0.000000 0.045175 0.000000 0.002507
# 5 -0.000460 0.000770 -0.008175 0.000000 0.043136 0.000000
# 6 0.000000 0.000000 0.000000 0.002507 0.000000 0.048917
#
#
# Mechanical properties :
#
#
# Convention : Reuss Voigt Hill
#
# Bulk Modulus (GPa) = 32.09516 34.46118 33.27817
# Shear Modulus (GPa) = 26.52758 30.68674 28.60716
#
# Velocity S-wave (km/s) = 3.41073 3.66838 3.54190
# Velocity P-wave (km/s) = 5.43925 5.74933 5.59644
#
# Compressibility (1/GPa) = 0.03115735
#
# Stress axis : x y z
#
# Youngs Moduli (GPa) = 96.42569 98.02201 64.76331
#
# Poissons Ratio (x) = 0.03932 -0.02428
# Poissons Ratio (y) = 0.03868 0.15555
# Poissons Ratio (z) = -0.03616 0.23544
#
# Static dielectric constant tensor:
#      x y z
#    x 4.033800 0.000000 -0.019890 
#    y 0.000000 4.104600 0.000000 
#    z -0.019890 0.000000 4.089890 
# 
# 
# High freq. dielectric constant tensor:
#      x y z
#    x 1.902670 0.000000 0.000240 
#    y 0.000000 1.876350 0.000000 
#    z 0.000240 0.000000 1.909260 
# 
# From -- ./inp_files/47651.got.cif
#   From: 2010.06.25/outbox.cif.g09.slc.cpg/sg11_24_cif.got.tgz:47651.got - 2010.06.27 23:14:04.
