data_PCOD8076879
_publ_section_title
;
Structure prediction by ZEFSAII (Michael W. Deem and Ramdas Pophale) SiO2 
 PCOD8076879
Probable space group: P 21/M
;
_chemical_formula_sum "Si O2"
_cell_formula_units_Z 24
_cell_length_a 11.075987
_cell_length_b 16.674066
_cell_length_c 16.436390
_cell_angle_alpha 90.000000
_cell_angle_beta 22.355134
_cell_angle_gamma 90.000000
_cell_volume 1154.541558
_symmetry_space_group_name_H-M "P 21/M"
_symmetry_group_IT_number 11
_symmetry_cell_setting 'monoclinic'
loop_
_space_group_symop_operation_xyz
x,y,z
-x,1/2+y,-z
-x,-y,-z
x,1/2-y,z
loop_
_atom_site_type_symbol
_atom_site_label
_atom_site_fract_x
_atom_site_fract_y
_atom_site_fract_z
Si Si1 0.320750 0.581744 0.103203
Si Si2 0.305967 0.841759 0.812213
Si Si3 0.631792 0.344096 0.750062
Si Si4 0.387492 0.032899 0.484702
Si Si5 0.672444 0.842106 0.736128
Si Si6 0.736741 0.569763 0.152459
O O1 0.311859 0.631655 0.192028
O O2 0.971321 0.563207 0.288453
O O3 0.500000 0.500000 0.000000
O O4 0.519035 0.632044 0.915434
O O5 0.395176 0.750000 0.741146
O O6 0.395644 0.891000 0.674956
O O7 0.505018 0.882946 0.762049
O O8 0.927915 0.851888 0.066400
O O9 0.530410 0.250000 0.808988
O O10 0.375677 0.404388 0.868577
O O11 0.953391 0.358645 0.498596
O O12 0.500000 0.000000 0.500000
O O13 0.431619 0.957623 0.394750
O O14 0.592120 0.750000 0.775140
O O15 0.000000 0.500000 0.000000
#
# Coordination Sequence:
#
# PCOD8076879 Si02
#       6
#     4   4   4   4   4   4
#     4  12  26  38  67 100 131 174 219 270 336 400
#     4  10  21  41  68  92 127 176 225 278 336 397
#     4  11  24  45  68  96 136 177 220 282 341 396
#     4  11  24  41  63  97 138 173 220 277 336 397
#     4  10  22  42  67  96 128 170 221 275 333 398
#     4  10  23  41  65  90 131 173 221 271 330 401
#
# _framework density 20.787472000000001
#
# number of rings (size 3 to 8) (size 9 to 14) (size 15 to 20)
#    0.000    1.333    1.667    3.000    9.333    2.000 
#    0.000    1.667    0.000    0.000    0.000    0.000 
#    0.000    0.000    0.000    0.000    0.000    0.000 
#
# Total GULP energy -297396.245072 kJ/mol
# GULP energy per Si atom -12391.510211 kJ/mol
# Density = 2.074016 g / cm^3
# Si number density = 20.787472 Si / 1000 Ang^3
#
#
#
# Elastic Constant Matrix: (Units=GPa)
#
#
# Indices 1 2 3 4 5 6 
#
# 1 146.4903 65.0429 45.1271 0.0000 1.5556 0.0000
# 2 65.0429 88.7967 55.0668 0.0000 0.9263 0.0000
# 3 45.1271 55.0668 100.5151 0.0000 8.3495 0.0000
# 4 0.0000 0.0000 0.0000 40.4549 0.0000 2.2475
# 5 1.5556 0.9263 8.3495 0.0000 34.7305 0.0000
# 6 0.0000 0.0000 0.0000 2.2475 0.0000 42.0560
#
#
#
# Elastic Compliance Matrix: (Units=1/GPa)
#
#
# Indices 1 2 3 4 5 6 
#
# 1 0.010152 -0.006988 -0.000722 0.000000 -0.000095 0.000000
# 2 -0.006988 0.021981 -0.009063 0.000000 0.001906 0.000000
# 3 -0.000722 -0.009063 0.015525 0.000000 -0.003458 0.000000
# 4 0.000000 0.000000 0.000000 0.024792 0.000000 -0.001325
# 5 -0.000095 0.001906 -0.003458 0.000000 0.029578 0.000000
# 6 0.000000 0.000000 0.000000 -0.001325 0.000000 0.023849
#
#
# Mechanical properties :
#
#
# Convention : Reuss Voigt Hill
#
# Bulk Modulus (GPa) = 70.85765 74.03063 72.44414
# Shear Modulus (GPa) = 30.46405 34.81930 32.64168
#
# Velocity S-wave (km/s) = 3.83234 4.09713 3.96695
# Velocity P-wave (km/s) = 7.33097 7.62053 7.47715
#
# Compressibility (1/GPa) = 0.01411280
#
# Stress axis : x y z
#
# Youngs Moduli (GPa) = 98.49798 45.49405 64.41105
#
# Poissons Ratio (x) = 0.31791 0.04649
# Poissons Ratio (y) = 0.68830 0.58376
# Poissons Ratio (z) = 0.07110 0.41232
#
# Static dielectric constant tensor:
#      x y z
#    x 3.903840 0.000000 -0.545590 
#    y 0.000000 3.690190 0.000000 
#    z -0.545590 0.000000 4.454200 
# 
# 
# High freq. dielectric constant tensor:
#      x y z
#    x 1.816340 0.000000 -0.011490 
#    y 0.000000 1.820080 0.000000 
#    z -0.011490 0.000000 1.817660 
# 
# From -- ./inp_files/59664.got.cif
#   From: 2010.06.25/outbox.cif.g09.slc.cpg/sg11_30_cif.got.tgz:59664.got - 2010.06.27 23:14:04.
