data_PCOD8076361
_publ_section_title
;
Structure prediction by ZEFSAII (Michael W. Deem and Ramdas Pophale) SiO2 
 PCOD8076361
Probable space group: P 21/M
;
_chemical_formula_sum "Si O2"
_cell_formula_units_Z 32
_cell_length_a 14.855599
_cell_length_b 8.505066
_cell_length_c 14.581233
_cell_angle_alpha 90.000000
_cell_angle_beta 120.022157
_cell_angle_gamma 90.000000
_cell_volume 1595.128703
_symmetry_space_group_name_H-M "P 21/M"
_symmetry_group_IT_number 11
_symmetry_cell_setting 'monoclinic'
loop_
_space_group_symop_operation_xyz
x,y,z
-x,1/2+y,-z
-x,-y,-z
x,1/2-y,z
loop_
_atom_site_type_symbol
_atom_site_label
_atom_site_fract_x
_atom_site_fract_y
_atom_site_fract_z
Si Si1 0.774718 0.567193 0.783953
Si Si2 0.500775 0.066771 0.102455
Si Si3 0.072993 0.934130 0.281538
Si Si4 0.289208 0.430386 0.724956
Si Si5 0.765234 0.932592 0.506288
Si Si6 0.163931 0.432012 0.839642
Si Si7 0.707007 0.067805 0.934554
Si Si8 0.613254 0.066646 0.569810
O O1 0.797498 0.750000 0.783030
O O2 0.868260 0.473158 0.783218
O O3 0.769157 0.525416 0.887876
O O4 0.665545 0.522135 0.681858
O O5 0.476774 0.250000 0.084447
O O6 0.610740 0.038091 0.206997
O O7 0.412005 0.987237 0.118825
O O8 0.500000 0.000000 0.000000
O O9 0.080646 0.750000 0.305450
O O10 0.954384 0.989189 0.211934
O O11 0.123257 0.024685 0.393506
O O12 0.326995 0.250000 0.746395
O O13 0.235941 0.474104 0.601487
O O14 0.200958 0.461762 0.755073
O O15 0.741315 0.750000 0.512114
O O16 0.677068 0.036496 0.509699
O O17 0.176313 0.250000 0.874276
O O18 0.235236 0.537697 0.940630
O O19 0.708616 0.250000 0.910505
O O20 0.609860 0.250000 0.590451
O O21 0.500000 0.000000 0.500000
#
# Coordination Sequence:
#
# PCOD8076361 Si02
#       8
#     4   4   4   4   4   4   4   4
#     4  11  23  41  63  88 120 159 201 251 307 365
#     4  12  24  40  62  89 124 163 203 250 304 362
#     4  10  21  40  64  90 122 160 203 256 308 359
#     4  10  22  40  62  89 124 163 206 251 299 358
#     4  10  21  38  60  88 122 160 202 250 304 359
#     4  10  22  41  64  89 121 162 207 254 304 358
#     4  12  25  41  63  92 123 160 204 252 305 366
#     4  11  22  38  59  85 119 157 201 250 301 362
#
# _framework density 20.061077999999998
#
# number of rings (size 3 to 8) (size 9 to 14) (size 15 to 20)
#    0.000    1.250    1.250    6.750    1.750    3.000 
#    0.000    0.000    0.000    0.000    0.000    0.000 
#    0.000    0.000    0.000    0.000    0.000    0.000 
#
# Total GULP energy -397001.477261 kJ/mol
# GULP energy per Si atom -12406.296164 kJ/mol
# Density = 2.001542 g / cm^3
# Si number density = 20.061078 Si / 1000 Ang^3
#
#
#
# Elastic Constant Matrix: (Units=GPa)
#
#
# Indices 1 2 3 4 5 6 
#
# 1 103.2524 12.4518 40.7041 0.0000 9.8344 0.0000
# 2 12.4518 72.5799 17.0928 0.0000 2.4448 0.0000
# 3 40.7041 17.0928 74.3610 0.0000 -15.6953 0.0000
# 4 0.0000 0.0000 0.0000 34.8054 0.0000 1.7269
# 5 9.8344 2.4448 -15.6953 0.0000 39.6142 0.0000
# 6 0.0000 0.0000 0.0000 1.7269 0.0000 29.4418
#
#
#
# Elastic Compliance Matrix: (Units=1/GPa)
#
#
# Indices 1 2 3 4 5 6 
#
# 1 0.013963 -0.000005 -0.009138 0.000000 -0.007086 0.000000
# 2 -0.000005 0.014784 -0.003915 0.000000 -0.002462 0.000000
# 3 -0.009138 -0.003915 0.021694 0.000000 0.011105 0.000000
# 4 0.000000 0.000000 0.000000 0.028815 0.000000 -0.001690
# 5 -0.007086 -0.002462 0.011105 0.000000 0.031555 0.000000
# 6 0.000000 0.000000 0.000000 -0.001690 0.000000 0.034064
#
#
# Mechanical properties :
#
#
# Convention : Reuss Voigt Hill
#
# Bulk Modulus (GPa) = 41.11056 43.41005 42.26030
# Shear Modulus (GPa) = 27.91766 32.76858 30.34312
#
# Velocity S-wave (km/s) = 3.73451 4.04597 3.89335
# Velocity P-wave (km/s) = 6.25560 6.59639 6.42826
#
# Compressibility (1/GPa) = 0.02432465
#
# Stress axis : x y z
#
# Youngs Moduli (GPa) = 71.61904 67.64175 46.09640
#
# Poissons Ratio (x) = 0.00033 0.42121
# Poissons Ratio (y) = 0.00034 0.18048
# Poissons Ratio (z) = 0.65443 0.26484
#
# Static dielectric constant tensor:
#      x y z
#    x 3.776370 0.000000 0.017170 
#    y 0.000000 3.773340 0.000000 
#    z 0.017170 0.000000 3.640960 
# 
# 
# High freq. dielectric constant tensor:
#      x y z
#    x 1.786830 0.000000 -0.002440 
#    y 0.000000 1.791200 0.000000 
#    z -0.002440 0.000000 1.784810 
# 
# From -- ./inp_files/51760.got.cif
#   From: 2010.06.25/outbox.cif.g09.slc.cpg/sg11_26_cif.got.tgz:51760.got - 2010.06.27 23:14:04.
