data_PCOD8076115
_publ_section_title
;
Structure prediction by ZEFSAII (Michael W. Deem and Ramdas Pophale) SiO2 
 PCOD8076115
Probable space group: P 21/M
;
_chemical_formula_sum "Si O2"
_cell_formula_units_Z 28
_cell_length_a 11.933603
_cell_length_b 8.773831
_cell_length_c 15.168750
_cell_angle_alpha 90.000000
_cell_angle_beta 119.014025
_cell_angle_gamma 90.000000
_cell_volume 1388.899939
_symmetry_space_group_name_H-M "P 21/M"
_symmetry_group_IT_number 11
_symmetry_cell_setting 'monoclinic'
loop_
_space_group_symop_operation_xyz
x,y,z
-x,1/2+y,-z
-x,-y,-z
x,1/2-y,z
loop_
_atom_site_type_symbol
_atom_site_label
_atom_site_fract_x
_atom_site_fract_y
_atom_site_fract_z
Si Si1 0.030053 0.929642 0.290099
Si Si2 0.639408 0.575315 0.304331
Si Si3 0.118387 0.070309 0.490593
Si Si4 0.360849 0.923306 0.169839
Si Si5 0.623409 0.927674 0.004446
Si Si6 0.772532 0.071613 0.202890
Si Si7 0.076658 0.927203 0.111403
O O1 0.050037 0.750000 0.298834
O O2 0.035804 0.993056 0.191678
O O3 0.131231 0.005693 0.395653
O O4 0.896150 0.979586 0.283035
O O5 0.664214 0.750000 0.286643
O O6 0.743007 0.524351 0.416320
O O7 0.490303 0.554480 0.278912
O O8 0.656202 0.471302 0.223612
O O9 0.097295 0.250000 0.480366
O O10 0.000000 0.000000 0.500000
O O11 0.358183 0.750000 0.131801
O O12 0.229404 0.958020 0.170386
O O13 0.369335 0.045325 0.095833
O O14 0.628262 0.750000 0.027633
O O15 0.500000 0.000000 0.000000
O O16 0.744335 0.013121 0.093643
O O17 0.799494 0.250000 0.213503
O O18 0.043930 0.750000 0.093408
O O19 0.000000 0.000000 0.000000
#
# Coordination Sequence:
#
# PCOD8076115 Si02
#       7
#     4   4   4   4   4   4   4
#     4  11  23  40  61  88 123 162 205 253 308 366
#     4  10  21  37  59  85 119 156 195 247 308 363
#     4  11  22  37  60  91 124 161 203 254 311 368
#     4  10  21  40  62  85 117 158 204 254 308 362
#     4  12  23  35  53  83 120 156 195 242 301 367
#     4  12  23  35  56  86 119 156 200 248 304 364
#     4  10  23  42  65  90 119 160 207 255 305 364
#
# _framework density 20.159839000000002
#
# number of rings (size 3 to 8) (size 9 to 14) (size 15 to 20)
#    0.000    1.143    2.857    4.286    0.000    4.571 
#    0.000    0.714    0.000    0.000    0.000    0.000 
#    0.000    0.000    0.000    0.000    0.000    0.000 
#
# Total GULP energy -347067.156252 kJ/mol
# GULP energy per Si atom -12395.255580 kJ/mol
# Density = 2.011395 g / cm^3
# Si number density = 20.159839 Si / 1000 Ang^3
#
#
#
# Elastic Constant Matrix: (Units=GPa)
#
#
# Indices 1 2 3 4 5 6 
#
# 1 95.0030 27.2633 49.4608 0.0000 15.3914 0.0000
# 2 27.2633 74.4388 44.7215 0.0000 2.8106 0.0000
# 3 49.4608 44.7215 142.8609 0.0000 11.7897 0.0000
# 4 0.0000 0.0000 0.0000 34.3638 0.0000 -1.2893
# 5 15.3914 2.8106 11.7897 0.0000 37.1075 0.0000
# 6 0.0000 0.0000 0.0000 -1.2893 0.0000 21.5610
#
#
#
# Elastic Compliance Matrix: (Units=1/GPa)
#
#
# Indices 1 2 3 4 5 6 
#
# 1 0.013902 -0.002774 -0.003580 0.000000 -0.004419 0.000000
# 2 -0.002774 0.017105 -0.004500 0.000000 0.001285 0.000000
# 3 -0.003580 -0.004500 0.009753 0.000000 -0.001273 0.000000
# 4 0.000000 0.000000 0.000000 0.029166 0.000000 0.001744
# 5 -0.004419 0.001285 -0.001273 0.000000 0.029089 0.000000
# 6 0.000000 0.000000 0.000000 0.001744 0.000000 0.046484
#
#
# Mechanical properties :
#
#
# Convention : Reuss Voigt Hill
#
# Bulk Modulus (GPa) = 52.48931 61.68819 57.08875
# Shear Modulus (GPa) = 28.80892 31.33025 30.06959
#
# Velocity S-wave (km/s) = 3.78435 3.94647 3.86626
# Velocity P-wave (km/s) = 6.72221 7.17162 6.95055
#
# Compressibility (1/GPa) = 0.01905150
#
# Stress axis : x y z
#
# Youngs Moduli (GPa) = 71.93357 58.46261 102.53171
#
# Poissons Ratio (x) = 0.16217 0.36706
# Poissons Ratio (y) = 0.19954 0.46142
# Poissons Ratio (z) = 0.25752 0.26309
#
# Static dielectric constant tensor:
#      x y z
#    x 3.732110 0.000000 0.142430 
#    y 0.000000 3.682330 0.000000 
#    z 0.142430 0.000000 4.049540 
# 
# 
# High freq. dielectric constant tensor:
#      x y z
#    x 1.772340 0.000000 0.021260 
#    y 0.000000 1.785520 0.000000 
#    z 0.021260 0.000000 1.793120 
# 
# From -- ./inp_files/37858.got.cif
#   From: 2010.06.25/outbox.cif.g09.slc.cpg/sg11_19_cif.got.tgz:37858.got - 2010.06.27 23:14:04.
