data_PCOD8076291
_publ_section_title
;
Structure prediction by ZEFSAII (Michael W. Deem and Ramdas Pophale) SiO2 
 PCOD8076291
Probable space group: P 21/M
;
_chemical_formula_sum "Si O2"
_cell_formula_units_Z 16
_cell_length_a 8.123152
_cell_length_b 14.209202
_cell_length_c 8.343831
_cell_angle_alpha 90.000000
_cell_angle_beta 120.902820
_cell_angle_gamma 90.000000
_cell_volume 826.355865
_symmetry_space_group_name_H-M "P 21/M"
_symmetry_group_IT_number 11
_symmetry_cell_setting 'monoclinic'
loop_
_space_group_symop_operation_xyz
x,y,z
-x,1/2+y,-z
-x,-y,-z
x,1/2-y,z
loop_
_atom_site_type_symbol
_atom_site_label
_atom_site_fract_x
_atom_site_fract_y
_atom_site_fract_z
Si Si1 0.991038 0.607476 0.183564
Si Si2 0.306446 0.250000 0.837266
Si Si3 0.991038 0.892524 0.807474
Si Si4 0.279330 0.750000 0.453780
Si Si5 0.720670 0.250000 0.174451
Si Si6 0.693554 0.750000 0.530820
O O1 0.191522 0.656922 0.327912
O O2 0.816486 0.657100 0.187848
O O3 1.000000 0.500000 0.244986
O O4 0.952672 0.616109 0.976336
O O5 0.370442 0.250000 0.685221
O O6 0.493547 0.250000 0.040853
O O7 0.191522 0.843078 0.863610
O O8 0.816486 0.842900 0.628638
O O9 0.223570 0.750000 0.611785
O O10 0.506453 0.750000 0.547306
#
# Coordination Sequence:
#
# PCOD8076291 Si02
#       6
#     4   2   4   2   2   2
#     4  10  21  38  59  83 112 144 181 227 276 327
#     4  11  22  37  58  82 112 147 184 227 272 324
#     4  10  21  38  59  83 112 144 181 227 276 327
#     4  11  22  37  58  82 112 147 184 227 272 324
#     4  11  22  37  58  82 112 147 184 227 272 324
#     4  11  22  37  58  82 112 147 184 227 272 324
#
# _framework density 19.362120000000001
#
# number of rings (size 3 to 8) (size 9 to 14) (size 15 to 20)
#    0.000    1.500    0.000    9.000    0.000    6.000 
#    0.000    0.000    0.000    0.000    0.000    0.000 
#    0.000    0.000    0.000    0.000    0.000    0.000 
#
# Total GULP energy -198495.372203 kJ/mol
# GULP energy per Si atom -12405.960763 kJ/mol
# Density = 1.931805 g / cm^3
# Si number density = 19.362120 Si / 1000 Ang^3
#
#
#
# Elastic Constant Matrix: (Units=GPa)
#
#
# Indices 1 2 3 4 5 6 
#
# 1 90.8018 45.9969 11.0208 0.0000 13.1407 0.0000
# 2 45.9969 181.7115 39.0892 0.0000 9.3921 0.0000
# 3 11.0208 39.0892 78.0057 0.0000 4.2574 0.0000
# 4 0.0000 0.0000 0.0000 -0.5444 0.0000 7.4880
# 5 13.1407 9.3921 4.2574 0.0000 47.1363 0.0000
# 6 0.0000 0.0000 0.0000 7.4880 0.0000 4.9631
#
#
#
# Elastic Compliance Matrix: (Units=1/GPa)
#
#
# Indices 1 2 3 4 5 6 
#
# 1 0.013043 -0.003122 -0.000114 0.000000 -0.003004 0.000000
# 2 -0.003122 0.006958 -0.003033 0.000000 -0.000242 0.000000
# 3 -0.000114 -0.003033 0.014392 0.000000 -0.000664 0.000000
# 4 0.000000 0.000000 0.000000 -0.084447 0.000000 0.127408
# 5 -0.003004 -0.000242 -0.000664 0.000000 0.022161 0.000000
# 6 0.000000 0.000000 0.000000 0.127408 0.000000 0.009262
#
#
# Mechanical properties :
#
#
# Convention : Reuss Voigt Hill
#
# Bulk Modulus (GPa) = 45.75544 60.30366 53.02955
# Shear Modulus (GPa) = 4197.25857 27.27180 2112.26518
#
# Velocity S-wave (km/s) = 46.60981 3.75709 33.06501
# Velocity P-wave (km/s) = 54.03994 7.07345 38.53796
#
# Compressibility (1/GPa) = 0.02185533
#
# Stress axis : x y z
#
# Youngs Moduli (GPa) = 76.66981 143.71288 69.48479
#
# Poissons Ratio (x) = 0.44863 0.00795
# Poissons Ratio (y) = 0.23934 0.21072
# Poissons Ratio (z) = 0.00878 0.43582
#
# Static dielectric constant tensor:
#      x y z
#    x 3.445410 0.000000 -0.087680 
#    y 0.000000 3.680530 0.000000 
#    z -0.087680 0.000000 3.509900 
# 
# 
# High freq. dielectric constant tensor:
#      x y z
#    x 1.758250 0.000000 -0.008610 
#    y 0.000000 1.755590 0.000000 
#    z -0.008610 0.000000 1.764580 
# 
# From -- ./inp_files/12002.got.cif
#   From: 2010.06.25/outbox.cif.g09.slc.cpg/sg11_7_cif.got.tgz:12002.got - 2010.06.27 23:14:04.
