data_PCOD8076790
_publ_section_title
;
Structure prediction by ZEFSAII (Michael W. Deem and Ramdas Pophale) SiO2 
 PCOD8076790
Probable space group: P 21/M
;
_chemical_formula_sum "Si O2"
_cell_formula_units_Z 24
_cell_length_a 11.861436
_cell_length_b 8.773451
_cell_length_c 11.755604
_cell_angle_alpha 90.000000
_cell_angle_beta 88.297463
_cell_angle_gamma 90.000000
_cell_volume 1222.815427
_symmetry_space_group_name_H-M "P 21/M"
_symmetry_group_IT_number 11
_symmetry_cell_setting 'monoclinic'
loop_
_space_group_symop_operation_xyz
x,y,z
-x,1/2+y,-z
-x,-y,-z
x,1/2-y,z
loop_
_atom_site_type_symbol
_atom_site_label
_atom_site_fract_x
_atom_site_fract_y
_atom_site_fract_z
Si Si1 0.547493 0.574017 0.337743
Si Si2 0.406986 0.070859 0.922866
Si Si3 0.021514 0.926441 0.178942
Si Si4 0.321589 0.926571 0.471782
Si Si5 0.167026 0.572976 0.952866
Si Si6 0.911101 0.570887 0.588366
O O1 0.575995 0.750000 0.361614
O O2 0.559439 0.531267 0.206475
O O3 0.635975 0.471344 0.404033
O O4 0.419672 0.536732 0.378118
O O5 0.398020 0.250000 0.943890
O O6 0.290754 0.992926 0.959036
O O7 0.500000 0.000000 0.000000
O O8 0.011648 0.750000 0.211788
O O9 0.064704 0.018329 0.285096
O O10 0.109430 0.956121 0.075670
O O11 0.898725 0.985547 0.145260
O O12 0.287343 0.750000 0.471723
O O13 0.214477 0.025442 0.442288
O O14 0.169587 0.750000 0.921341
O O15 0.923422 0.750000 0.581057
O O16 0.000000 0.500000 0.500000
#
# Coordination Sequence:
#
# PCOD8076790 Si02
#       6
#     4   4   4   4   4   4
#     4   9  21  41  63  88 122 163 203 249 305 362
#     4  11  24  40  61  91 126 163 207 255 305 362
#     4  10  22  42  66  91 123 162 205 254 307 363
#     4  10  21  40  65  91 121 159 204 252 305 364
#     4  10  22  41  65  92 124 163 206 252 307 366
#     4  12  26  42  63  92 125 161 205 253 307 366
#
# _framework density 19.626836999999998
#
# number of rings (size 3 to 8) (size 9 to 14) (size 15 to 20)
#    0.000    1.667    0.000    3.500    4.667    4.000 
#    0.000    0.000    0.000    0.000    0.000    0.000 
#    0.000    0.000    0.000    0.000    0.000    0.000 
#
# Total GULP energy -297748.930205 kJ/mol
# GULP energy per Si atom -12406.205425 kJ/mol
# Density = 1.958217 g / cm^3
# Si number density = 19.626837 Si / 1000 Ang^3
#
#
#
# Elastic Constant Matrix: (Units=GPa)
#
#
# Indices 1 2 3 4 5 6 
#
# 1 150.3465 64.7421 62.1474 0.0000 13.2951 0.0000
# 2 64.7421 123.9839 66.2880 0.0000 1.9784 0.0000
# 3 62.1474 66.2880 107.2166 0.0000 14.6381 0.0000
# 4 0.0000 0.0000 0.0000 37.0215 0.0000 5.0874
# 5 13.2951 1.9784 14.6381 0.0000 19.1115 0.0000
# 6 0.0000 0.0000 0.0000 5.0874 0.0000 40.9115
#
#
#
# Elastic Compliance Matrix: (Units=1/GPa)
#
#
# Indices 1 2 3 4 5 6 
#
# 1 0.009712 -0.003433 -0.002941 0.000000 -0.004149 0.000000
# 2 -0.003433 0.013701 -0.007386 0.000000 0.006627 0.000000
# 3 -0.002941 -0.007386 0.016991 0.000000 -0.010204 0.000000
# 4 0.000000 0.000000 0.000000 0.027481 0.000000 -0.003417
# 5 -0.004149 0.006627 -0.010204 0.000000 0.062340 0.000000
# 6 0.000000 0.000000 0.000000 -0.003417 0.000000 0.024868
#
#
# Mechanical properties :
#
#
# Convention : Reuss Voigt Hill
#
# Bulk Modulus (GPa) = 77.60789 85.32242 81.46516
# Shear Modulus (GPa) = 26.75127 31.96686 29.35906
#
# Velocity S-wave (km/s) = 3.69588 4.04013 3.87183
# Velocity P-wave (km/s) = 7.60528 8.08271 7.84763
#
# Compressibility (1/GPa) = 0.01288529
#
# Stress axis : x y z
#
# Youngs Moduli (GPa) = 102.96520 72.98565 58.85518
#
# Poissons Ratio (x) = 0.25056 0.17307
# Poissons Ratio (y) = 0.35349 0.43469
# Poissons Ratio (z) = 0.30278 0.53906
#
# Static dielectric constant tensor:
#      x y z
#    x 3.712780 0.000000 -0.023770 
#    y 0.000000 3.702150 0.000000 
#    z -0.023770 0.000000 3.697580 
# 
# 
# High freq. dielectric constant tensor:
#      x y z
#    x 1.776240 0.000000 0.001460 
#    y 0.000000 1.779280 0.000000 
#    z 0.001460 0.000000 1.772550 
# 
# From -- ./inp_files/33805.got.cif
#   From: 2010.06.25/outbox.cif.g09.slc.cpg/sg11_17_cif.got.tgz:33805.got - 2010.06.27 23:14:04.
