data_PCOD8076768
_publ_section_title
;
Structure prediction by ZEFSAII (Michael W. Deem and Ramdas Pophale) SiO2 
 PCOD8076768
Probable space group: P 21/M
;
_chemical_formula_sum "Si O2"
_cell_formula_units_Z 28
_cell_length_a 33.149531
_cell_length_b 7.951303
_cell_length_c 33.545061
_cell_angle_alpha 90.000000
_cell_angle_beta 171.093765
_cell_angle_gamma 90.000000
_cell_volume 1368.880195
_symmetry_space_group_name_H-M "P 21/M"
_symmetry_group_IT_number 11
_symmetry_cell_setting 'monoclinic'
loop_
_space_group_symop_operation_xyz
x,y,z
-x,1/2+y,-z
-x,-y,-z
x,1/2-y,z
loop_
_atom_site_type_symbol
_atom_site_label
_atom_site_fract_x
_atom_site_fract_y
_atom_site_fract_z
Si Si1 0.057463 0.444128 0.218235
Si Si2 0.399510 0.048699 0.285161
Si Si3 0.771045 0.936761 0.249767
Si Si4 0.858508 0.442624 0.248365
Si Si5 0.973722 0.250000 0.751843
Si Si6 0.472319 0.750000 0.748594
Si Si7 0.590010 0.553181 0.252053
Si Si8 0.273602 0.445794 0.249801
O O1 0.061830 0.250000 0.238188
O O2 0.054879 0.577446 0.251495
O O3 0.311155 0.479465 0.439370
O O4 0.798402 0.469067 0.939467
O O5 0.395068 0.250000 0.276974
O O6 0.316935 0.979719 0.248029
O O7 0.758635 0.750000 0.249908
O O8 0.818580 0.953894 0.249299
O O9 0.000000 0.000000 0.500000
O O10 0.500000 0.000000 0.000000
O O11 0.845277 0.250000 0.248034
O O12 0.133992 0.488682 0.498123
O O13 0.633702 0.489166 0.997905
O O14 0.747500 0.250000 0.498994
O O15 0.249485 0.250000 0.000085
O O16 0.446305 0.575996 0.747370
O O17 0.575155 0.750000 0.251672
O O18 0.500000 0.500000 0.500000
O O19 0.280105 0.250000 0.251356
O O20 0.000000 0.500000 0.000000
#
# Coordination Sequence:
#
# PCOD8076768 Si02
#       8
#     4   4   4   4   2   2   4   4
#     4  12  25  43  71  99 128 175 224 263 332 399
#     4  11  22  43  66  91 133 176 220 278 325 385
#     4  12  25  40  62  92 130 173 220 271 328 385
#     4  10  21  40  64  89 125 165 210 272 314 373
#     4  12  26  46  66 100 136 166 208 286 324 394
#     4  12  26  42  72  94 132 172 208 264 342 394
#     4  10  23  41  65  96 127 164 216 262 319 391
#     4  11  24  39  61  91 132 175 216 274 330 379
#
# _framework density 20.454675000000002
#
# number of rings (size 3 to 8) (size 9 to 14) (size 15 to 20)
#    0.000    0.857    1.429    5.571    2.000    8.000 
#    0.000    0.000    0.000    0.000    0.000    0.000 
#    0.000    0.000    0.000    0.000    0.000    0.000 
#
# Total GULP energy -347186.900436 kJ/mol
# GULP energy per Si atom -12399.532158 kJ/mol
# Density = 2.040812 g / cm^3
# Si number density = 20.454675 Si / 1000 Ang^3
#
#
#
# Elastic Constant Matrix: (Units=GPa)
#
#
# Indices 1 2 3 4 5 6 
#
# 1 134.0939 66.9653 65.9241 0.0000 0.5514 0.0000
# 2 66.9653 141.4366 44.1126 0.0000 -0.3077 0.0000
# 3 65.9241 44.1126 170.4475 0.0000 2.6405 0.0000
# 4 0.0000 0.0000 0.0000 34.7683 0.0000 -0.6498
# 5 0.5514 -0.3077 2.6405 0.0000 41.4238 0.0000
# 6 0.0000 0.0000 0.0000 -0.6498 0.0000 37.4703
#
#
#
# Elastic Compliance Matrix: (Units=1/GPa)
#
#
# Indices 1 2 3 4 5 6 
#
# 1 0.011180 -0.004291 -0.003214 0.000000 0.000024 0.000000
# 2 -0.004291 0.009339 -0.000760 0.000000 0.000175 0.000000
# 3 -0.003214 -0.000760 0.007313 0.000000 -0.000429 0.000000
# 4 0.000000 0.000000 0.000000 0.028771 0.000000 0.000499
# 5 0.000024 0.000175 -0.000429 0.000000 0.024169 0.000000
# 6 0.000000 0.000000 0.000000 0.000499 0.000000 0.026696
#
#
# Mechanical properties :
#
#
# Convention : Reuss Voigt Hill
#
# Bulk Modulus (GPa) = 88.47459 88.88690 88.68074
# Shear Modulus (GPa) = 39.13341 40.66419 39.89880
#
# Velocity S-wave (km/s) = 4.37873 4.46355 4.42135
# Velocity P-wave (km/s) = 8.30134 8.37343 8.33746
#
# Compressibility (1/GPa) = 0.01130268
#
# Stress axis : x y z
#
# Youngs Moduli (GPa) = 89.44225 107.07296 136.73530
#
# Poissons Ratio (x) = 0.45945 0.43948
# Poissons Ratio (y) = 0.38380 0.10394
# Poissons Ratio (z) = 0.28747 0.08139
#
# Static dielectric constant tensor:
#      x y z
#    x 3.990630 0.000000 0.076600 
#    y 0.000000 4.660290 0.000000 
#    z 0.076600 0.000000 3.947560 
# 
# 
# High freq. dielectric constant tensor:
#      x y z
#    x 1.803550 0.000000 0.002370 
#    y 0.000000 1.815420 0.000000 
#    z 0.002370 0.000000 1.827210 
# 
# From -- ./inp_files/73888.got.cif
#   From: 2010.06.25/outbox.cif.g09.slc.cpg/sg11_37_cif.got.tgz:73888.got - 2010.06.27 23:14:04.
