data_PCOD8076133
_publ_section_title
;
Structure prediction by ZEFSAII (Michael W. Deem and Ramdas Pophale) SiO2 
 PCOD8076133
Probable space group: P 21/M
;
_chemical_formula_sum "Si O2"
_cell_formula_units_Z 32
_cell_length_a 11.946962
_cell_length_b 18.917261
_cell_length_c 14.726324
_cell_angle_alpha 90.000000
_cell_angle_beta 28.659134
_cell_angle_gamma 90.000000
_cell_volume 1596.199720
_symmetry_space_group_name_H-M "P 21/M"
_symmetry_group_IT_number 11
_symmetry_cell_setting 'monoclinic'
loop_
_space_group_symop_operation_xyz
x,y,z
-x,1/2+y,-z
-x,-y,-z
x,1/2-y,z
loop_
_atom_site_type_symbol
_atom_site_label
_atom_site_fract_x
_atom_site_fract_y
_atom_site_fract_z
Si Si1 0.719437 0.170541 0.058577
Si Si2 0.200723 0.378769 0.661275
Si Si3 0.856240 0.665244 0.964009
Si Si4 0.190207 0.439301 0.158119
Si Si5 0.721366 0.991760 0.534589
Si Si6 0.458948 0.447966 0.153482
Si Si7 0.685159 0.171650 0.279932
Si Si8 0.227490 0.450648 0.828436
O O1 0.624176 0.250000 0.129686
O O2 0.536347 0.129288 0.128088
O O3 0.720599 0.132075 0.157498
O O4 0.975765 0.170061 0.832582
O O5 0.189262 0.418854 0.573339
O O6 0.426860 0.329196 0.502828
O O7 0.226894 0.434483 0.722876
O O8 0.793845 0.750000 0.012776
O O9 0.768736 0.631780 0.931130
O O10 0.133590 0.647831 0.771419
O O11 0.757924 0.621068 0.120554
O O12 0.323534 0.434341 0.157588
O O13 0.914495 0.449142 0.372378
O O14 0.305830 0.504910 0.022073
O O15 0.711420 0.983470 0.650803
O O16 0.465233 0.007124 0.677795
O O17 0.761980 0.250000 0.198771
O O18 0.000000 0.500000 0.000000
#
# Coordination Sequence:
#
# PCOD8076133 Si02
#       8
#     4   4   4   4   4   4   4   4
#     4  11  22  39  61  92 129 163 203 260 322 384
#     4  12  21  35  61  93 129 164 205 251 320 381
#     4  11  23  42  65  92 130 173 212 258 325 391
#     4  11  24  43  67  89 121 166 221 269 313 374
#     4  12  22  39  64  96 125 165 219 268 316 380
#     4  11  23  43  66  92 120 164 218 271 319 374
#     4  10  21  37  59  88 125 164 200 246 310 384
#     4  12  23  38  62  98 138 169 210 260 318 391
#
# _framework density 20.047615
#
# number of rings (size 3 to 8) (size 9 to 14) (size 15 to 20)
#    0.000    0.750    5.000    4.125    0.000    1.000 
#    0.000    0.625    0.000    0.000    0.000    0.000 
#    0.000    0.000    0.000    0.000    0.000    0.000 
#
# Total GULP energy -396601.005328 kJ/mol
# GULP energy per Si atom -12393.781416 kJ/mol
# Density = 2.000199 g / cm^3
# Si number density = 20.047615 Si / 1000 Ang^3
#
#
#
# Elastic Constant Matrix: (Units=GPa)
#
#
# Indices 1 2 3 4 5 6 
#
# 1 92.9416 38.6398 32.5298 0.0000 12.9682 0.0000
# 2 38.6398 95.5419 25.4657 0.0000 4.0070 0.0000
# 3 32.5298 25.4657 109.5424 0.0000 2.5339 0.0000
# 4 0.0000 0.0000 0.0000 31.8641 0.0000 0.8869
# 5 12.9682 4.0070 2.5339 0.0000 34.9689 0.0000
# 6 0.0000 0.0000 0.0000 0.8869 0.0000 27.6127
#
#
#
# Elastic Compliance Matrix: (Units=1/GPa)
#
#
# Indices 1 2 3 4 5 6 
#
# 1 0.014491 -0.004850 -0.003070 0.000000 -0.004596 0.000000
# 2 -0.004850 0.012823 -0.001551 0.000000 0.000442 0.000000
# 3 -0.003070 -0.001551 0.010388 0.000000 0.000563 0.000000
# 4 0.000000 0.000000 0.000000 0.031411 0.000000 -0.001009
# 5 -0.004596 0.000442 0.000563 0.000000 0.030210 0.000000
# 6 0.000000 0.000000 0.000000 -0.001009 0.000000 0.036248
#
#
# Mechanical properties :
#
#
# Convention : Reuss Voigt Hill
#
# Bulk Modulus (GPa) = 53.30084 54.58851 53.94468
# Shear Modulus (GPa) = 31.10118 32.31518 31.70818
#
# Velocity S-wave (km/s) = 3.94301 4.01923 3.98130
# Velocity P-wave (km/s) = 6.88292 6.98767 6.93549
#
# Compressibility (1/GPa) = 0.01876143
#
# Stress axis : x y z
#
# Youngs Moduli (GPa) = 69.00664 77.98556 96.26518
#
# Poissons Ratio (x) = 0.37821 0.29550
# Poissons Ratio (y) = 0.33467 0.14931
# Poissons Ratio (z) = 0.21182 0.12096
#
# Static dielectric constant tensor:
#      x y z
#    x 3.606690 0.000000 0.076650 
#    y 0.000000 3.572380 0.000000 
#    z 0.076650 0.000000 3.837920 
# 
# 
# High freq. dielectric constant tensor:
#      x y z
#    x 1.777850 0.000000 0.007350 
#    y 0.000000 1.775610 0.000000 
#    z 0.007350 0.000000 1.791540 
# 
# From -- ./inp_files/50681.got.cif
#   From: 2010.06.25/outbox.cif.g09.slc.cpg/sg11_26_cif.got.tgz:50681.got - 2010.06.27 23:14:04.
