data_PCOD8076107
_publ_section_title
;
Structure prediction by ZEFSAII (Michael W. Deem and Ramdas Pophale) SiO2 
 PCOD8076107
Probable space group: P 21/M
;
_chemical_formula_sum "Si O2"
_cell_formula_units_Z 28
_cell_length_a 9.606820
_cell_length_b 14.150822
_cell_length_c 12.101110
_cell_angle_alpha 90.000000
_cell_angle_beta 123.062911
_cell_angle_gamma 90.000000
_cell_volume 1378.694000
_symmetry_space_group_name_H-M "P 21/M"
_symmetry_group_IT_number 11
_symmetry_cell_setting 'monoclinic'
loop_
_space_group_symop_operation_xyz
x,y,z
-x,1/2+y,-z
-x,-y,-z
x,1/2-y,z
loop_
_atom_site_type_symbol
_atom_site_label
_atom_site_fract_x
_atom_site_fract_y
_atom_site_fract_z
Si Si1 0.019590 0.468047 0.169908
Si Si2 0.679477 0.543079 0.059083
Si Si3 0.157709 0.857455 0.334925
Si Si4 0.499916 0.357345 0.431501
Si Si5 0.730607 0.639332 0.860555
Si Si6 0.838107 0.856146 0.330417
Si Si7 0.814077 0.858489 0.564488
O O1 0.086038 0.576779 0.205549
O O2 0.098823 0.416711 0.096867
O O3 0.065973 0.416026 0.303440
O O4 0.818128 0.467298 0.077501
O O5 0.728743 0.585534 0.197566
O O6 0.500000 0.500000 0.000000
O O7 0.674360 0.623434 0.961824
O O8 0.183359 0.750000 0.299857
O O9 0.327334 0.905511 0.455990
O O10 0.030494 0.856459 0.381092
O O11 0.546478 0.250000 0.424205
O O12 0.414130 0.400085 0.284038
O O13 0.376038 0.366626 0.480337
O O14 0.762990 0.750000 0.852537
O O15 0.766159 0.750000 0.301389
O O16 0.824563 0.901627 0.446144
O O17 0.874954 0.750000 0.592735
#
# Coordination Sequence:
#
# PCOD8076107 Si02
#       7
#     4   4   4   4   4   4   4
#     4  10  21  37  59  84 109 147 194 236 285 337
#     4  11  24  38  54  80 116 154 196 237 278 335
#     4   9  18  32  52  82 115 143 178 228 287 346
#     4   8  16  31  53  82 108 137 181 229 279 330
#     4  10  21  40  61  80 112 153 191 233 279 334
#     4   9  19  36  55  76 109 150 185 225 285 343
#     4   9  18  34  56  82 111 139 179 238 290 335
#
# _framework density 20.309073999999999
#
# number of rings (size 3 to 8) (size 9 to 14) (size 15 to 20)
#    0.000    2.571    0.000    2.143    0.000    8.571 
#    0.000    4.286    0.000    0.857    0.000    0.000 
#    0.000    0.000    0.000    0.000    0.000    0.000 
#
# Total GULP energy -347107.333121 kJ/mol
# GULP energy per Si atom -12396.690469 kJ/mol
# Density = 2.026285 g / cm^3
# Si number density = 20.309074 Si / 1000 Ang^3
#
#
#
# Elastic Constant Matrix: (Units=GPa)
#
#
# Indices 1 2 3 4 5 6 
#
# 1 103.3544 33.2264 51.8456 0.0000 14.5110 0.0000
# 2 33.2264 68.1643 22.5959 0.0000 2.1344 0.0000
# 3 51.8456 22.5959 60.5172 0.0000 -2.0680 0.0000
# 4 0.0000 0.0000 0.0000 24.0898 0.0000 -5.1336
# 5 14.5110 2.1344 -2.0680 0.0000 49.8935 0.0000
# 6 0.0000 0.0000 0.0000 -5.1336 0.0000 25.8744
#
#
#
# Elastic Compliance Matrix: (Units=1/GPa)
#
#
# Indices 1 2 3 4 5 6 
#
# 1 0.019679 -0.004269 -0.015477 0.000000 -0.006182 0.000000
# 2 -0.004269 0.017716 -0.002946 0.000000 0.000361 0.000000
# 3 -0.015477 -0.002946 0.031086 0.000000 0.005916 0.000000
# 4 0.000000 0.000000 0.000000 0.043344 0.000000 0.008600
# 5 -0.006182 0.000361 0.005916 0.000000 0.022071 0.000000
# 6 0.000000 0.000000 0.000000 0.008600 0.000000 0.040355
#
#
# Mechanical properties :
#
#
# Convention : Reuss Voigt Hill
#
# Bulk Modulus (GPa) = 43.29228 49.70795 46.50012
# Shear Modulus (GPa) = 21.99423 28.26273 25.12848
#
# Velocity S-wave (km/s) = 3.29443 3.73450 3.52135
# Velocity P-wave (km/s) = 5.98615 6.56690 6.28324
#
# Compressibility (1/GPa) = 0.02309881
#
# Stress axis : x y z
#
# Youngs Moduli (GPa) = 50.81435 56.44538 32.16926
#
# Poissons Ratio (x) = 0.24094 0.49789
# Poissons Ratio (y) = 0.21690 0.09476
# Poissons Ratio (z) = 0.78646 0.16627
#
# Static dielectric constant tensor:
#      x y z
#    x 3.697490 0.000000 0.039440 
#    y 0.000000 3.720010 0.000000 
#    z 0.039440 0.000000 3.760680 
# 
# 
# High freq. dielectric constant tensor:
#      x y z
#    x 1.784950 0.000000 -0.000510 
#    y 0.000000 1.784460 0.000000 
#    z -0.000510 0.000000 1.793790 
# 
# From -- ./inp_files/17791.got.cif
#   From: 2010.06.25/outbox.cif.g09.slc.cpg/sg11_9_cif.got.tgz:17791.got - 2010.06.27 23:14:04.
