data_PCOD8076138
_publ_section_title
;
Structure prediction by ZEFSAII (Michael W. Deem and Ramdas Pophale) SiO2 
 PCOD8076138
Probable space group: P 21/M
;
_chemical_formula_sum "Si O2"
_cell_formula_units_Z 32
_cell_length_a 21.060454
_cell_length_b 9.178907
_cell_length_c 27.084488
_cell_angle_alpha 90.000000
_cell_angle_beta 18.665100
_cell_angle_gamma 90.000000
_cell_volume 1675.629961
_symmetry_space_group_name_H-M "P 21/M"
_symmetry_group_IT_number 11
_symmetry_cell_setting 'monoclinic'
loop_
_space_group_symop_operation_xyz
x,y,z
-x,1/2+y,-z
-x,-y,-z
x,1/2-y,z
loop_
_atom_site_type_symbol
_atom_site_label
_atom_site_fract_x
_atom_site_fract_y
_atom_site_fract_z
Si Si1 0.629136 0.412327 0.942973
Si Si2 0.976143 0.079506 0.940871
Si Si3 0.747478 0.080700 0.453983
Si Si4 0.708737 0.582760 0.209118
Si Si5 0.023604 0.082307 0.159873
Si Si6 0.579270 0.585079 0.077851
Si Si7 0.861537 0.420454 0.562655
Si Si8 0.081404 0.085028 0.580337
O O1 0.542580 0.250000 0.008865
O O2 0.852371 0.413088 0.761228
O O3 0.500000 0.500000 0.000000
O O4 0.617851 0.477623 0.005143
O O5 0.940907 0.250000 0.961054
O O6 0.164160 0.041041 0.836482
O O7 0.024689 0.013834 0.851919
O O8 0.777852 0.011229 0.111031
O O9 0.788906 0.250000 0.435774
O O10 0.518536 0.051633 0.609626
O O11 0.882095 0.030078 0.308826
O O12 0.796323 0.984660 0.465341
O O13 0.741994 0.750000 0.169604
O O14 0.979227 0.250000 0.179865
O O15 0.253713 0.058501 0.003965
O O16 0.591560 0.750000 0.048561
O O17 0.367082 0.551488 0.257024
O O18 0.914803 0.250000 0.523520
O O19 0.894750 0.486169 0.484826
O O20 0.000000 0.500000 0.500000
O O21 0.157739 0.250000 0.514658
#
# Coordination Sequence:
#
# PCOD8076138 Si02
#       8
#     4   4   4   4   4   4   4   4
#     4  11  23  38  60  86 115 151 191 236 288 342
#     4  10  21  37  59  89 122 156 192 237 288 339
#     4  10  21  39  63  86 113 155 199 238 286 345
#     4   9  20  39  61  87 119 154 197 239 282 341
#     4  10  21  38  60  86 117 154 194 239 289 344
#     4  10  22  40  60  84 114 150 195 240 285 341
#     4  11  24  41  61  86 116 153 195 241 293 347
#     4  11  24  40  58  87 121 151 190 242 293 346
#
# _framework density 19.097294999999999
#
# number of rings (size 3 to 8) (size 9 to 14) (size 15 to 20)
#    0.000    1.750    1.250    2.250    1.750    8.000 
#    0.000    0.000    0.000    0.000    0.000    0.000 
#    0.000    0.000    0.000    0.000    0.000    0.000 
#
# Total GULP energy -396928.264737 kJ/mol
# GULP energy per Si atom -12404.008273 kJ/mol
# Density = 1.905383 g / cm^3
# Si number density = 19.097295 Si / 1000 Ang^3
#
#
#
# Elastic Constant Matrix: (Units=GPa)
#
#
# Indices 1 2 3 4 5 6 
#
# 1 125.0002 68.3290 52.7377 0.0000 14.6354 0.0000
# 2 68.3290 113.5428 51.9257 0.0000 12.4261 0.0000
# 3 52.7377 51.9257 113.5574 0.0000 1.6920 0.0000
# 4 0.0000 0.0000 0.0000 28.8037 0.0000 5.1835
# 5 14.6354 12.4261 1.6920 0.0000 33.1359 0.0000
# 6 0.0000 0.0000 0.0000 5.1835 0.0000 45.6967
#
#
#
# Elastic Compliance Matrix: (Units=1/GPa)
#
#
# Indices 1 2 3 4 5 6 
#
# 1 0.013045 -0.005988 -0.003270 0.000000 -0.003349 0.000000
# 2 -0.005988 0.014418 -0.003773 0.000000 -0.002569 0.000000
# 3 -0.003270 -0.003773 0.012017 0.000000 0.002246 0.000000
# 4 0.000000 0.000000 0.000000 0.035441 0.000000 -0.004020
# 5 -0.003349 -0.002569 0.002246 0.000000 0.032507 0.000000
# 6 0.000000 0.000000 0.000000 -0.004020 0.000000 0.022339
#
#
# Mechanical properties :
#
#
# Convention : Reuss Voigt Hill
#
# Bulk Modulus (GPa) = 74.53845 77.56501 76.05173
# Shear Modulus (GPa) = 31.19084 33.46779 32.32932
#
# Velocity S-wave (km/s) = 4.04575 4.19081 4.11892
# Velocity P-wave (km/s) = 7.80639 8.00757 7.90762
#
# Compressibility (1/GPa) = 0.01341589
#
# Stress axis : x y z
#
# Youngs Moduli (GPa) = 76.65590 69.35840 83.21673
#
# Poissons Ratio (x) = 0.41535 0.27214
# Poissons Ratio (y) = 0.45905 0.31401
# Poissons Ratio (z) = 0.25068 0.26171
#
# Static dielectric constant tensor:
#      x y z
#    x 3.557740 0.000000 -0.029720 
#    y 0.000000 3.688440 0.000000 
#    z -0.029720 0.000000 3.614650 
# 
# 
# High freq. dielectric constant tensor:
#      x y z
#    x 1.747880 0.000000 -0.001310 
#    y 0.000000 1.750220 0.000000 
#    z -0.001310 0.000000 1.751660 
# 
# From -- ./inp_files/72009.got.cif
#   From: 2010.06.25/outbox.cif.g09.slc.cpg/sg11_37_cif.got.tgz:72009.got - 2010.06.27 23:14:04.
