data_PCOD8076986
_publ_section_title
;
Structure prediction by ZEFSAII (Michael W. Deem and Ramdas Pophale) SiO2 
 PCOD8076986
Probable space group: P 21/M
;
_chemical_formula_sum "Si O2"
_cell_formula_units_Z 32
_cell_length_a 25.775454
_cell_length_b 8.824642
_cell_length_c 14.664505
_cell_angle_alpha 90.000000
_cell_angle_beta 30.122435
_cell_angle_gamma 90.000000
_cell_volume 1673.956969
_symmetry_space_group_name_H-M "P 21/M"
_symmetry_group_IT_number 11
_symmetry_cell_setting 'monoclinic'
loop_
_space_group_symop_operation_xyz
x,y,z
-x,1/2+y,-z
-x,-y,-z
x,1/2-y,z
loop_
_atom_site_type_symbol
_atom_site_label
_atom_site_fract_x
_atom_site_fract_y
_atom_site_fract_z
Si Si1 0.695898 0.572557 0.364928
Si Si2 0.764139 0.927746 0.735118
Si Si3 0.388827 0.928229 0.164981
Si Si4 0.264939 0.074575 0.013265
Si Si5 0.932520 0.572946 0.339238
Si Si6 0.504871 0.572780 0.393482
Si Si7 0.241921 0.073730 0.529415
Si Si8 0.162090 0.571083 0.003080
O O1 0.680770 0.750000 0.373742
O O2 0.583069 0.496848 0.537770
O O3 0.755665 0.534125 0.367570
O O4 0.761751 0.509460 0.182064
O O5 0.746583 0.750000 0.744411
O O6 0.867459 0.985417 0.525823
O O7 0.666368 0.014473 0.842673
O O8 0.773116 0.965683 0.827631
O O9 0.399183 0.750000 0.145605
O O10 0.327428 0.975265 0.348807
O O11 0.500000 0.000000 0.000000
O O12 0.244287 0.250000 0.020660
O O13 0.386026 0.037052 0.819595
O O14 0.197764 0.967934 0.050581
O O15 0.948432 0.750000 0.325831
O O16 0.871324 0.532684 0.338912
O O17 0.047045 0.501667 0.162954
O O18 0.500000 0.500000 0.500000
O O19 0.485025 0.750000 0.434337
O O20 0.266783 0.250000 0.473566
O O21 0.167365 0.750000 0.978981
#
# Coordination Sequence:
#
# PCOD8076986 Si02
#       8
#     4   4   4   4   4   4   4   4
#     4  11  23  38  58  85 115 151 193 237 285 338
#     4   9  19  39  61  82 113 151 189 234 286 338
#     4  11  22  36  56  84 116 149 189 233 280 336
#     4  10  22  38  58  84 114 151 191 233 285 341
#     4   8  17  37  61  83 113 150 188 232 288 340
#     4  11  22  37  57  82 115 152 188 232 286 341
#     4   9  20  40  61  82 113 151 189 233 286 339
#     4  11  22  36  58  85 114 152 193 237 285 339
#
# _framework density 19.116381000000001
#
# number of rings (size 3 to 8) (size 9 to 14) (size 15 to 20)
#    0.000    2.000    1.250    3.000    1.750    3.000 
#    0.000    5.000    0.000    0.000    0.000    0.000 
#    0.000    0.000    0.000    0.000    0.000    0.000 
#
# Total GULP energy -396852.595985 kJ/mol
# GULP energy per Si atom -12401.643625 kJ/mol
# Density = 1.907287 g / cm^3
# Si number density = 19.116381 Si / 1000 Ang^3
#
#
#
# Elastic Constant Matrix: (Units=GPa)
#
#
# Indices 1 2 3 4 5 6 
#
# 1 127.6437 37.9193 45.2607 0.0000 -6.2310 0.0000
# 2 37.9193 76.5745 21.7235 0.0000 -10.1118 0.0000
# 3 45.2607 21.7235 68.5671 0.0000 -28.0979 0.0000
# 4 0.0000 0.0000 0.0000 20.2224 0.0000 -2.3632
# 5 -6.2310 -10.1118 -28.0979 0.0000 35.0212 0.0000
# 6 0.0000 0.0000 0.0000 -2.3632 0.0000 28.2035
#
#
#
# Elastic Compliance Matrix: (Units=1/GPa)
#
#
# Indices 1 2 3 4 5 6 
#
# 1 0.012064 -0.004195 -0.009313 0.000000 -0.006536 0.000000
# 2 -0.004195 0.015820 -0.001009 0.000000 0.003012 0.000000
# 3 -0.009313 -0.001009 0.030173 0.000000 0.022260 0.000000
# 4 0.000000 0.000000 0.000000 0.049939 0.000000 0.004184
# 5 -0.006536 0.003012 0.022260 0.000000 0.046120 0.000000
# 6 0.000000 0.000000 0.000000 0.004184 0.000000 0.035807
#
#
# Mechanical properties :
#
#
# Convention : Reuss Voigt Hill
#
# Bulk Modulus (GPa) = 34.45420 53.62135 44.03778
# Shear Modulus (GPa) = 21.86932 27.88155 24.87544
#
# Velocity S-wave (km/s) = 3.38599 3.82320 3.61122
# Velocity P-wave (km/s) = 5.77487 6.89927 6.36196
#
# Compressibility (1/GPa) = 0.02902404
#
# Stress axis : x y z
#
# Youngs Moduli (GPa) = 82.89426 63.20918 33.14243
#
# Poissons Ratio (x) = 0.26517 0.30864
# Poissons Ratio (y) = 0.34775 0.03343
# Poissons Ratio (z) = 0.77196 0.06377
#
# Static dielectric constant tensor:
#      x y z
#    x 3.052110 0.000000 -0.067260 
#    y 0.000000 3.444220 0.000000 
#    z -0.067260 0.000000 3.393920 
# 
# 
# High freq. dielectric constant tensor:
#      x y z
#    x 1.751460 0.000000 -0.003340 
#    y 0.000000 1.734560 0.000000 
#    z -0.003340 0.000000 1.746330 
# 
# From -- ./inp_files/55618.got.cif
#   From: 2010.06.25/outbox.cif.g09.slc.cpg/sg11_28_cif.got.tgz:55618.got - 2010.06.27 23:14:04.
