data_PCOD8076323
_publ_section_title
;
Structure prediction by ZEFSAII (Michael W. Deem and Ramdas Pophale) SiO2 
 PCOD8076323
Probable space group: P 21/M
;
_chemical_formula_sum "Si O2"
_cell_formula_units_Z 32
_cell_length_a 11.777259
_cell_length_b 18.828866
_cell_length_c 13.973197
_cell_angle_alpha 90.000000
_cell_angle_beta 32.137234
_cell_angle_gamma 90.000000
_cell_volume 1648.291992
_symmetry_space_group_name_H-M "P 21/M"
_symmetry_group_IT_number 11
_symmetry_cell_setting 'monoclinic'
loop_
_space_group_symop_operation_xyz
x,y,z
-x,1/2+y,-z
-x,-y,-z
x,1/2-y,z
loop_
_atom_site_type_symbol
_atom_site_label
_atom_site_fract_x
_atom_site_fract_y
_atom_site_fract_z
Si Si1 0.997235 0.075601 0.949070
Si Si2 0.719935 0.330059 0.613631
Si Si3 0.822748 0.334146 0.755282
Si Si4 0.544603 0.043873 0.235801
Si Si5 0.270163 0.112435 0.915282
Si Si6 0.956745 0.915770 0.730414
Si Si7 0.129556 0.067361 0.641159
Si Si8 0.551333 0.572168 0.907233
O O1 0.120328 0.131105 0.930620
O O2 0.122568 0.076709 0.759872
O O3 0.748687 0.095538 0.108147
O O4 0.000000 0.000000 0.000000
O O5 0.794067 0.250000 0.541576
O O6 0.802238 0.355467 0.658645
O O7 0.462600 0.332233 0.790815
O O8 0.822709 0.379622 0.458975
O O9 0.821016 0.250000 0.771169
O O10 0.039198 0.365212 0.647204
O O11 0.623764 0.367547 0.952514
O O12 0.377048 0.055762 0.440177
O O13 0.427232 0.059487 0.220377
O O14 0.622330 0.963576 0.176327
O O15 0.115208 0.115207 0.116815
O O16 0.777405 0.897579 0.780358
O O17 0.984286 0.000295 0.716580
O O18 0.500000 0.500000 0.000000
#
# Coordination Sequence:
#
# PCOD8076323 Si02
#       8
#     4   4   4   4   4   4   4   4
#     4  10  21  38  59  95 122 151 207 258 303 356
#     4  11  25  41  59  90 124 161 206 250 312 375
#     4  11  23  41  63  90 128 166 197 247 316 381
#     4  11  21  35  61  94 121 153 201 253 304 362
#     4  11  21  38  61  88 123 159 199 255 310 354
#     4  12  22  35  65  94 123 159 203 252 308 367
#     4  12  22  38  65  94 125 161 201 260 310 361
#     4  12  19  36  62  91 121 157 204 247 303 368
#
# _framework density 19.414034999999998
#
# number of rings (size 3 to 8) (size 9 to 14) (size 15 to 20)
#    0.000    0.750    8.750    0.750    0.000    5.000 
#    0.000    1.250    0.000    0.000    0.000    0.000 
#    0.000    0.000    0.000    0.000    0.000    0.000 
#
# Total GULP energy -396846.449611 kJ/mol
# GULP energy per Si atom -12401.451550 kJ/mol
# Density = 1.936985 g / cm^3
# Si number density = 19.414035 Si / 1000 Ang^3
#
#
#
# Elastic Constant Matrix: (Units=GPa)
#
#
# Indices 1 2 3 4 5 6 
#
# 1 142.0684 15.2798 45.6506 0.0000 12.9067 0.0000
# 2 15.2798 47.7447 9.6536 0.0000 6.2620 0.0000
# 3 45.6506 9.6536 120.2787 0.0000 18.9370 0.0000
# 4 0.0000 0.0000 0.0000 16.6677 0.0000 0.2715
# 5 12.9067 6.2620 18.9370 0.0000 22.0715 0.0000
# 6 0.0000 0.0000 0.0000 0.2715 0.0000 11.7246
#
#
#
# Elastic Compliance Matrix: (Units=1/GPa)
#
#
# Indices 1 2 3 4 5 6 
#
# 1 0.008281 -0.001844 -0.002676 0.000000 -0.002023 0.000000
# 2 -0.001844 0.022248 -0.000303 0.000000 -0.004974 0.000000
# 3 -0.002676 -0.000303 0.010515 0.000000 -0.007370 0.000000
# 4 0.000000 0.000000 0.000000 0.060019 0.000000 -0.001390
# 5 -0.002023 -0.004974 -0.007370 0.000000 0.054225 0.000000
# 6 0.000000 0.000000 0.000000 -0.001390 0.000000 0.085323
#
#
# Mechanical properties :
#
#
# Convention : Reuss Voigt Hill
#
# Bulk Modulus (GPa) = 31.84907 50.13998 40.99453
# Shear Modulus (GPa) = 19.17746 26.05995 22.61871
#
# Velocity S-wave (km/s) = 3.14636 3.66775 3.41701
# Velocity P-wave (km/s) = 5.44429 6.61961 6.06051
#
# Compressibility (1/GPa) = 0.03139809
#
# Stress axis : x y z
#
# Youngs Moduli (GPa) = 120.75884 44.94712 95.10622
#
# Poissons Ratio (x) = 0.08287 0.25455
# Poissons Ratio (y) = 0.22264 0.02879
# Poissons Ratio (z) = 0.32321 0.01361
#
# Static dielectric constant tensor:
#      x y z
#    x 4.158900 0.000000 -0.267260 
#    y 0.000000 3.253200 0.000000 
#    z -0.267260 0.000000 3.680570 
# 
# 
# High freq. dielectric constant tensor:
#      x y z
#    x 1.767060 0.000000 -0.001480 
#    y 0.000000 1.716490 0.000000 
#    z -0.001480 0.000000 1.765660 
# 
# From -- ./inp_files/50665.got.cif
#   From: 2010.06.25/outbox.cif.g09.slc.cpg/sg11_26_cif.got.tgz:50665.got - 2010.06.27 23:14:04.
