data_PCOD8076764
_publ_section_title
;
Structure prediction by ZEFSAII (Michael W. Deem and Ramdas Pophale) SiO2 
 PCOD8076764
Probable space group: P 21/M
;
_chemical_formula_sum "Si O2"
_cell_formula_units_Z 32
_cell_length_a 17.751234
_cell_length_b 18.452848
_cell_length_c 17.044051
_cell_angle_alpha 90.000000
_cell_angle_beta 16.904079
_cell_angle_gamma 90.000000
_cell_volume 1623.359991
_symmetry_space_group_name_H-M "P 21/M"
_symmetry_group_IT_number 11
_symmetry_cell_setting 'monoclinic'
loop_
_space_group_symop_operation_xyz
x,y,z
-x,1/2+y,-z
-x,-y,-z
x,1/2-y,z
loop_
_atom_site_type_symbol
_atom_site_label
_atom_site_fract_x
_atom_site_fract_y
_atom_site_fract_z
Si Si1 0.977782 0.945354 0.292865
Si Si2 0.489368 0.835980 0.373805
Si Si3 0.537738 0.164334 0.421695
Si Si4 0.481296 0.957199 0.895583
Si Si5 0.987329 0.601111 0.793962
Si Si6 0.028452 0.331623 0.357260
Si Si7 0.521902 0.110336 0.937449
Si Si8 0.966636 0.663810 0.167859
O O1 0.726403 0.945975 0.596859
O O2 0.975009 0.872709 0.244307
O O3 0.978541 0.014593 0.233728
O O4 0.226417 0.942972 0.099904
O O5 0.533031 0.750000 0.325811
O O6 0.464357 0.865133 0.487415
O O7 0.231541 0.856402 0.584559
O O8 0.732157 0.875467 0.093854
O O9 0.539999 0.250000 0.423394
O O10 0.286956 0.136655 0.625375
O O11 0.791370 0.136109 0.124531
O O12 0.473928 0.037193 0.937587
O O13 0.493833 0.900130 0.953779
O O14 0.957809 0.617822 0.732003
O O15 0.976939 0.250000 0.380654
O O16 0.802441 0.357816 0.639671
O O17 0.297850 0.334217 0.135782
O O18 0.969678 0.750000 0.177528
#
# Coordination Sequence:
#
# PCOD8076764 Si02
#       8
#     4   4   4   4   4   4   4   4
#     4  12  23  41  62  92 120 157 196 252 300 357
#     4  11  22  38  60  87 121 163 203 243 288 347
#     4   9  19  38  62  85 114 156 204 243 293 365
#     4  11  22  41  65  84 117 155 203 246 286 357
#     4  12  23  38  56  91 124 161 198 242 292 359
#     4  12  23  39  60  90 129 158 196 247 296 350
#     4  11  22  41  63  88 112 161 210 236 287 353
#     4  10  21  40  64  87 113 152 200 252 307 358
#
# _framework density 19.712202000000001
#
# number of rings (size 3 to 8) (size 9 to 14) (size 15 to 20)
#    0.000    1.000    2.500    5.250    0.000    4.000 
#    0.000    7.500    0.000    0.000    0.000    0.000 
#    0.000    0.000    0.000    0.000    0.000    0.000 
#
# Total GULP energy -396981.751545 kJ/mol
# GULP energy per Si atom -12405.679736 kJ/mol
# Density = 1.966734 g / cm^3
# Si number density = 19.712202 Si / 1000 Ang^3
#
#
#
# Elastic Constant Matrix: (Units=GPa)
#
#
# Indices 1 2 3 4 5 6 
#
# 1 123.6282 26.7703 48.2698 0.0000 -3.1516 0.0000
# 2 26.7703 66.1508 33.3615 0.0000 21.8677 0.0000
# 3 48.2698 33.3615 206.6798 0.0000 39.1200 0.0000
# 4 0.0000 0.0000 0.0000 21.8482 0.0000 -0.0414
# 5 -3.1516 21.8677 39.1200 0.0000 46.1442 0.0000
# 6 0.0000 0.0000 0.0000 -0.0414 0.0000 28.6713
#
#
#
# Elastic Compliance Matrix: (Units=1/GPa)
#
#
# Indices 1 2 3 4 5 6 
#
# 1 0.010207 -0.004477 -0.002614 0.000000 0.005035 0.000000
# 2 -0.004477 0.020305 -0.000420 0.000000 -0.009572 0.000000
# 3 -0.002614 -0.000420 0.006567 0.000000 -0.005546 0.000000
# 4 0.000000 0.000000 0.000000 0.045771 0.000000 0.000066
# 5 0.005035 -0.009572 -0.005546 0.000000 0.031253 0.000000
# 6 0.000000 0.000000 0.000000 0.000066 0.000000 0.034878
#
#
# Mechanical properties :
#
#
# Convention : Reuss Voigt Hill
#
# Bulk Modulus (GPa) = 45.33873 68.14021 56.73947
# Shear Modulus (GPa) = 29.17916 38.53655 33.85786
#
# Velocity S-wave (km/s) = 3.85159 4.42629 4.14890
# Velocity P-wave (km/s) = 6.54446 7.79521 7.19705
#
# Compressibility (1/GPa) = 0.02205620
#
# Stress axis : x y z
#
# Youngs Moduli (GPa) = 97.96978 49.24941 152.28548
#
# Poissons Ratio (x) = 0.22048 0.39812
# Poissons Ratio (y) = 0.43858 0.06400
# Poissons Ratio (z) = 0.25612 0.02070
#
# Static dielectric constant tensor:
#      x y z
#    x 3.718750 0.000000 0.020650 
#    y 0.000000 3.510540 0.000000 
#    z 0.020650 0.000000 3.827010 
# 
# 
# High freq. dielectric constant tensor:
#      x y z
#    x 1.776710 0.000000 -0.002410 
#    y 0.000000 1.753160 0.000000 
#    z -0.002410 0.000000 1.792220 
# 
# From -- ./inp_files/52708.got.cif
#   From: 2010.06.25/outbox.cif.g09.slc.cpg/sg11_27_cif.got.tgz:52708.got - 2010.06.27 23:14:04.
