data_PCOD8076859
_publ_section_title
;
Structure prediction by ZEFSAII (Michael W. Deem and Ramdas Pophale) SiO2 
 PCOD8076859
Probable space group: P 21/M
;
_chemical_formula_sum "Si O2"
_cell_formula_units_Z 32
_cell_length_a 8.082692
_cell_length_b 22.120389
_cell_length_c 10.497266
_cell_angle_alpha 90.000000
_cell_angle_beta 127.964662
_cell_angle_gamma 90.000000
_cell_volume 1479.674797
_symmetry_space_group_name_H-M "P 21/M"
_symmetry_group_IT_number 11
_symmetry_cell_setting 'monoclinic'
loop_
_space_group_symop_operation_xyz
x,y,z
-x,1/2+y,-z
-x,-y,-z
x,1/2-y,z
loop_
_atom_site_type_symbol
_atom_site_label
_atom_site_fract_x
_atom_site_fract_y
_atom_site_fract_z
Si Si1 0.993799 0.612909 0.798001
Si Si2 0.118686 0.517159 0.299361
Si Si3 0.976338 0.818926 0.538788
Si Si4 0.329033 0.489025 0.812685
Si Si5 0.315534 0.924780 0.154481
Si Si6 0.375225 0.180783 0.284892
Si Si7 0.507013 0.815618 0.366834
Si Si8 0.721505 0.408498 0.403155
O O1 0.861515 0.555673 0.679959
O O2 0.858036 0.652947 0.833067
O O3 0.056567 0.658346 0.714950
O O4 0.195775 0.584868 0.964269
O O5 0.178732 0.532204 0.181659
O O6 0.285378 0.548978 0.474308
O O7 0.882019 0.539758 0.225505
O O8 0.052793 0.750000 0.557067
O O9 0.083234 0.862544 0.485725
O O10 0.728735 0.824582 0.401746
O O11 0.449166 0.449450 0.761964
O O12 0.249787 0.550678 0.708789
O O13 0.500000 0.500000 0.000000
O O14 0.334486 0.861749 0.236509
O O15 0.379999 0.250000 0.233967
O O16 0.457104 0.178567 0.467084
O O17 0.520716 0.133676 0.278552
O O18 0.415133 0.750000 0.289989
#
# Coordination Sequence:
#
# PCOD8076859 Si02
#       8
#     4   4   4   4   4   4   4   4
#     4  11  23  40  62  92 127 170 217 258 320 392
#     4  12  25  41  64 100 131 169 217 264 325 390
#     4  10  21  41  66  90 124 168 214 270 323 383
#     4  12  26  42  63  96 134 167 209 267 319 391
#     4  12  24  42  65  93 133 172 210 267 333 378
#     4  10  22  40  63  93 124 162 217 270 313 378
#     4   9  20  39  62  90 120 160 215 263 317 380
#     4  12  23  40  66  95 129 168 217 266 328 386
#
# _framework density 21.626373999999998
#
# number of rings (size 3 to 8) (size 9 to 14) (size 15 to 20)
#    0.000    1.000    3.750    3.750    5.250    2.000 
#    0.000    0.000    0.000    0.000    0.000    0.000 
#    0.000    0.000    0.000    0.000    0.000    0.000 
#
# Total GULP energy -396695.062140 kJ/mol
# GULP energy per Si atom -12396.720692 kJ/mol
# Density = 2.157715 g / cm^3
# Si number density = 21.626374 Si / 1000 Ang^3
#
#
#
# Elastic Constant Matrix: (Units=GPa)
#
#
# Indices 1 2 3 4 5 6 
#
# 1 84.5559 16.8424 -7.9142 0.0000 6.6063 0.0000
# 2 16.8424 122.4756 25.6832 0.0000 3.5265 0.0000
# 3 -7.9142 25.6832 44.8442 0.0000 -1.4076 0.0000
# 4 0.0000 0.0000 0.0000 26.9596 0.0000 6.0048
# 5 6.6063 3.5265 -1.4076 0.0000 23.1680 0.0000
# 6 0.0000 0.0000 0.0000 6.0048 0.0000 39.3819
#
#
#
# Elastic Compliance Matrix: (Units=1/GPa)
#
#
# Indices 1 2 3 4 5 6 
#
# 1 0.012886 -0.002432 0.003570 0.000000 -0.003087 0.000000
# 2 -0.002432 0.009809 -0.006084 0.000000 -0.001169 0.000000
# 3 0.003570 -0.006084 0.026461 0.000000 0.001516 0.000000
# 4 0.000000 0.000000 0.000000 0.038397 0.000000 -0.005855
# 5 -0.003087 -0.001169 0.001516 0.000000 0.044313 0.000000
# 6 0.000000 0.000000 0.000000 -0.005855 0.000000 0.026285
#
#
# Mechanical properties :
#
#
# Convention : Reuss Voigt Hill
#
# Bulk Modulus (GPa) = 25.46759 35.67761 30.57260
# Shear Modulus (GPa) = 27.60441 32.38616 29.99529
#
# Velocity S-wave (km/s) = 3.57658 3.87399 3.72825
# Velocity P-wave (km/s) = 5.37193 6.04512 5.71844
#
# Compressibility (1/GPa) = 0.03926559
#
# Stress axis : x y z
#
# Youngs Moduli (GPa) = 77.60207 101.95042 37.79113
#
# Poissons Ratio (x) = 0.24793 -0.13492
# Poissons Ratio (y) = 0.18871 0.22990
# Poissons Ratio (z) = -0.27704 0.62022
#
# Static dielectric constant tensor:
#      x y z
#    x 4.145800 0.000000 0.101500 
#    y 0.000000 4.215440 0.000000 
#    z 0.101500 0.000000 3.452530 
# 
# 
# High freq. dielectric constant tensor:
#      x y z
#    x 1.855630 0.000000 0.004760 
#    y 0.000000 1.863510 0.000000 
#    z 0.004760 0.000000 1.813370 
# 
# From -- ./inp_files/19347.got.cif
#   From: 2010.06.25/outbox.cif.g09.slc.cpg/sg11_10_cif.got.tgz:19347.got - 2010.06.27 23:14:04.
