data_PCOD8076155
_publ_section_title
;
Structure prediction by ZEFSAII (Michael W. Deem and Ramdas Pophale) SiO2 
 PCOD8076155
Probable space group: P 21/M
;
_chemical_formula_sum "Si O2"
_cell_formula_units_Z 32
_cell_length_a 14.630281
_cell_length_b 8.665925
_cell_length_c 20.970762
_cell_angle_alpha 90.000000
_cell_angle_beta 143.003802
_cell_angle_gamma 90.000000
_cell_volume 1599.950637
_symmetry_space_group_name_H-M "P 21/M"
_symmetry_group_IT_number 11
_symmetry_cell_setting 'monoclinic'
loop_
_space_group_symop_operation_xyz
x,y,z
-x,1/2+y,-z
-x,-y,-z
x,1/2-y,z
loop_
_atom_site_type_symbol
_atom_site_label
_atom_site_fract_x
_atom_site_fract_y
_atom_site_fract_z
Si Si1 0.574453 0.071869 0.480321
Si Si2 0.113297 0.933417 0.408439
Si Si3 0.739853 0.067926 0.380506
Si Si4 0.616594 0.568684 0.192383
Si Si5 0.802479 0.431217 0.185989
Si Si6 0.710842 0.569279 0.002376
Si Si7 0.562378 0.569749 0.724579
Si Si8 0.145165 0.070167 0.048562
O O1 0.597283 0.250000 0.506147
O O2 0.739206 0.008558 0.549482
O O3 0.449225 0.038153 0.356777
O O4 0.500000 0.000000 0.500000
O O5 0.091558 0.750000 0.389055
O O6 0.132163 0.973880 0.494947
O O7 0.971405 0.022317 0.300631
O O8 0.740577 0.250000 0.368698
O O9 0.583284 0.001122 0.321352
O O10 0.748158 0.982390 0.316709
O O11 0.590031 0.750000 0.180733
O O12 0.678340 0.523399 0.157490
O O13 0.456104 0.483232 0.114101
O O14 0.780125 0.250000 0.183850
O O15 0.771732 0.472355 0.095651
O O16 0.704289 0.750000 0.015638
O O17 0.833431 0.536930 0.014609
O O18 0.562307 0.750000 0.740041
O O19 0.713870 0.491856 0.835736
O O20 0.139354 0.250000 0.058852
O O21 0.000000 0.000000 0.000000
#
# Coordination Sequence:
#
# PCOD8076155 Si02
#       8
#     4   4   4   4   4   4   4   4
#     4   9  18  33  57  84 113 150 196 243 292 353
#     4   9  20  39  61  86 120 158 200 250 305 359
#     4   9  17  36  64  87 113 153 200 246 297 354
#     4  12  24  39  63  93 122 155 202 252 303 364
#     4  12  26  42  61  87 123 163 203 249 303 366
#     4  11  23  43  66  87 120 161 203 251 304 359
#     4   8  15  33  56  78 107 149 191 233 289 346
#     4  10  21  37  60  87 118 153 194 243 299 354
#
# _framework density 20.000616999999998
#
# number of rings (size 3 to 8) (size 9 to 14) (size 15 to 20)
#    0.000    2.000    1.250    4.500    0.000    3.500 
#    0.000    5.000    0.000    0.000    0.000    0.000 
#    0.000    0.000    0.000    0.000    0.000    0.000 
#
# Total GULP energy -396618.439201 kJ/mol
# GULP energy per Si atom -12394.326225 kJ/mol
# Density = 1.995509 g / cm^3
# Si number density = 20.000617 Si / 1000 Ang^3
#
#
#
# Elastic Constant Matrix: (Units=GPa)
#
#
# Indices 1 2 3 4 5 6 
#
# 1 82.2244 26.9830 18.1652 0.0000 -1.1474 0.0000
# 2 26.9830 53.7443 26.7124 0.0000 -7.6374 0.0000
# 3 18.1652 26.7124 92.7843 0.0000 -1.0668 0.0000
# 4 0.0000 0.0000 0.0000 29.8528 0.0000 -2.4670
# 5 -1.1474 -7.6374 -1.0668 0.0000 26.3712 0.0000
# 6 0.0000 0.0000 0.0000 -2.4670 0.0000 34.9346
#
#
#
# Elastic Compliance Matrix: (Units=1/GPa)
#
#
# Indices 1 2 3 4 5 6 
#
# 1 0.014676 -0.007166 -0.000827 0.000000 -0.001470 0.000000
# 2 -0.007166 0.026218 -0.006064 0.000000 0.007036 0.000000
# 3 -0.000827 -0.006064 0.012671 0.000000 -0.001280 0.000000
# 4 0.000000 0.000000 0.000000 0.033694 0.000000 0.002379
# 5 -0.001470 0.007036 -0.001280 0.000000 0.039842 0.000000
# 6 0.000000 0.000000 0.000000 0.002379 0.000000 0.028793
#
#
# Mechanical properties :
#
#
# Convention : Reuss Voigt Hill
#
# Bulk Modulus (GPa) = 39.29256 41.38603 40.33930
# Shear Modulus (GPa) = 25.97506 28.69122 27.33314
#
# Velocity S-wave (km/s) = 3.60768 3.79161 3.70079
# Velocity P-wave (km/s) = 6.08622 6.31710 6.20273
#
# Compressibility (1/GPa) = 0.02545011
#
# Stress axis : x y z
#
# Youngs Moduli (GPa) = 68.14013 38.14113 78.92156
#
# Poissons Ratio (x) = 0.27332 0.06527
# Poissons Ratio (y) = 0.48829 0.47861
# Poissons Ratio (z) = 0.05635 0.23130
#
# Static dielectric constant tensor:
#      x y z
#    x 3.594550 0.000000 -0.057950 
#    y 0.000000 4.127450 0.000000 
#    z -0.057950 0.000000 4.148990 
# 
# 
# High freq. dielectric constant tensor:
#      x y z
#    x 1.782590 0.000000 -0.009180 
#    y 0.000000 1.760620 0.000000 
#    z -0.009180 0.000000 1.790740 
# 
# From -- ./inp_files/65250.got.cif
#   From: 2010.06.25/outbox.cif.g09.slc.cpg/sg11_33_cif.got.tgz:65250.got - 2010.06.27 23:14:04.
