data_PCOD8076425
_publ_section_title
;
Structure prediction by ZEFSAII (Michael W. Deem and Ramdas Pophale) SiO2 
 PCOD8076425
Probable space group: P 21/M
;
_chemical_formula_sum "Si O2"
_cell_formula_units_Z 32
_cell_length_a 7.053677
_cell_length_b 11.115113
_cell_length_c 20.472056
_cell_angle_alpha 90.000000
_cell_angle_beta 109.644634
_cell_angle_gamma 90.000000
_cell_volume 1511.637589
_symmetry_space_group_name_H-M "P 21/M"
_symmetry_group_IT_number 11
_symmetry_cell_setting 'monoclinic'
loop_
_space_group_symop_operation_xyz
x,y,z
-x,1/2+y,-z
-x,-y,-z
x,1/2-y,z
loop_
_atom_site_type_symbol
_atom_site_label
_atom_site_fract_x
_atom_site_fract_y
_atom_site_fract_z
Si Si1 0.854015 0.114855 0.981530
Si Si2 0.517812 0.616622 0.146265
Si Si3 0.167528 0.052360 0.472059
Si Si4 0.563972 0.119517 0.583449
Si Si5 0.267971 0.885091 0.891984
Si Si6 0.504114 0.529051 0.282798
Si Si7 0.118860 0.385468 0.229044
Si Si8 0.101469 0.617536 0.671572
O O1 0.958699 0.250000 0.994372
O O2 0.707079 0.104064 0.027355
O O3 0.715451 0.105724 0.901402
O O4 0.000000 0.000000 0.000000
O O5 0.599319 0.750000 0.131902
O O6 0.627336 0.497902 0.130987
O O7 0.542570 0.620321 0.227664
O O8 0.331145 0.122794 0.533609
O O9 0.050301 0.134139 0.406591
O O10 0.290500 0.955828 0.444958
O O11 0.000000 0.000000 0.500000
O O12 0.656383 0.250000 0.585887
O O13 0.576436 0.089337 0.661126
O O14 0.345249 0.750000 0.878024
O O15 0.029481 0.894671 0.849887
O O16 0.329682 0.443627 0.234905
O O17 0.705717 0.459398 0.326128
O O18 0.169942 0.250000 0.254811
O O19 0.010005 0.445116 0.279806
O O20 0.177813 0.750000 0.700965
#
# Coordination Sequence:
#
# PCOD8076425 Si02
#       8
#     4   4   4   4   4   4   4   4
#     4  10  22  40  62  93 129 169 217 270 322 382
#     4  11  24  40  62  94 131 169 215 264 319 386
#     4  11  23  45  63  90 121 158 208 259 317 383
#     4  11  25  42  63  90 124 162 205 254 313 383
#     4  10  21  40  64  91 127 168 218 269 320 381
#     4  12  22  41  63  90 129 167 209 256 319 382
#     4  10  21  38  61  91 123 160 210 265 312 370
#     4  11  22  39  63  91 123 161 209 265 315 371
#
# _framework density 21.169094999999999
#
# number of rings (size 3 to 8) (size 9 to 14) (size 15 to 20)
#    0.000    1.250    3.750    2.250    0.000    2.500 
#    0.000    2.500    0.000    0.000    0.000    0.000 
#    0.000    0.000    0.000    0.000    0.000    0.000 
#
# Total GULP energy -396483.400354 kJ/mol
# GULP energy per Si atom -12390.106261 kJ/mol
# Density = 2.112091 g / cm^3
# Si number density = 21.169095 Si / 1000 Ang^3
#
#
#
# Elastic Constant Matrix: (Units=GPa)
#
#
# Indices 1 2 3 4 5 6 
#
# 1 79.0694 50.1463 20.9029 0.0000 0.6371 0.0000
# 2 50.1463 152.7903 24.5433 0.0000 4.5693 0.0000
# 3 20.9029 24.5433 103.3565 0.0000 0.2188 0.0000
# 4 0.0000 0.0000 0.0000 23.1802 0.0000 3.0702
# 5 0.6371 4.5693 0.2188 0.0000 35.4411 0.0000
# 6 0.0000 0.0000 0.0000 3.0702 0.0000 22.7001
#
#
#
# Elastic Compliance Matrix: (Units=1/GPa)
#
#
# Indices 1 2 3 4 5 6 
#
# 1 0.016411 -0.005057 -0.002119 0.000000 0.000370 0.000000
# 2 -0.005057 0.008389 -0.000967 0.000000 -0.000985 0.000000
# 3 -0.002119 -0.000967 0.010333 0.000000 0.000099 0.000000
# 4 0.000000 0.000000 0.000000 0.043927 0.000000 -0.005941
# 5 0.000370 -0.000985 0.000099 0.000000 0.028335 0.000000
# 6 0.000000 0.000000 0.000000 -0.005941 0.000000 0.044856
#
#
# Mechanical properties :
#
#
# Convention : Reuss Voigt Hill
#
# Bulk Modulus (GPa) = 53.05735 58.48903 55.77319
# Shear Modulus (GPa) = 28.60045 32.23919 30.41982
#
# Velocity S-wave (km/s) = 3.67965 3.90672 3.79488
# Velocity P-wave (km/s) = 6.57047 6.93104 6.75316
#
# Compressibility (1/GPa) = 0.01884753
#
# Stress axis : x y z
#
# Youngs Moduli (GPa) = 60.93291 119.19682 96.77440
#
# Poissons Ratio (x) = 0.60278 0.20507
# Poissons Ratio (y) = 0.30814 0.09362
# Poissons Ratio (z) = 0.12912 0.11531
#
# Static dielectric constant tensor:
#      x y z
#    x 3.681150 0.000000 0.154880 
#    y 0.000000 3.982450 0.000000 
#    z 0.154880 0.000000 4.293560 
# 
# 
# High freq. dielectric constant tensor:
#      x y z
#    x 1.808270 0.000000 -0.000180 
#    y 0.000000 1.829660 0.000000 
#    z -0.000180 0.000000 1.850360 
# 
# From -- ./inp_files/67640.got.cif
#   From: 2010.06.25/outbox.cif.g09.slc.cpg/sg11_34_cif.got.tgz:67640.got - 2010.06.27 23:14:04.
