data_PCOD8076166
_publ_section_title
;
Structure prediction by ZEFSAII (Michael W. Deem and Ramdas Pophale) SiO2 
 PCOD8076166
Probable space group: P 21/M
;
_chemical_formula_sum "Si O2"
_cell_formula_units_Z 28
_cell_length_a 26.710805
_cell_length_b 8.728017
_cell_length_c 9.660813
_cell_angle_alpha 90.000000
_cell_angle_beta 38.299983
_cell_angle_gamma 90.000000
_cell_volume 1395.895644
_symmetry_space_group_name_H-M "P 21/M"
_symmetry_group_IT_number 11
_symmetry_cell_setting 'monoclinic'
loop_
_space_group_symop_operation_xyz
x,y,z
-x,1/2+y,-z
-x,-y,-z
x,1/2-y,z
loop_
_atom_site_type_symbol
_atom_site_label
_atom_site_fract_x
_atom_site_fract_y
_atom_site_fract_z
Si Si1 0.358526 0.429746 0.536272
Si Si2 0.017629 0.430400 0.814626
Si Si3 0.064679 0.430249 0.256672
Si Si4 0.312266 0.425828 0.322729
Si Si5 0.226095 0.573310 0.009362
Si Si6 0.813460 0.425462 0.597195
Si Si7 0.487639 0.072476 0.879264
O O1 0.352168 0.250000 0.577097
O O2 0.327874 0.473550 0.448399
O O3 0.451862 0.483330 0.355439
O O4 0.308292 0.519847 0.759927
O O5 0.007846 0.250000 0.839585
O O6 0.106790 0.471855 0.568657
O O7 0.949600 0.500308 0.863164
O O8 0.000000 0.500000 0.000000
O O9 0.052312 0.250000 0.279511
O O10 0.154696 0.468731 0.106794
O O11 0.000000 0.500000 0.500000
O O12 0.284061 0.250000 0.378547
O O13 0.241848 0.529397 0.412815
O O14 0.392444 0.448320 0.053123
O O15 0.208070 0.750000 0.012999
O O16 0.235109 0.549738 0.154674
O O17 0.840266 0.250000 0.520034
O O18 0.511815 0.250000 0.829655
O O19 0.500000 0.000000 0.000000
#
# Coordination Sequence:
#
# PCOD8076166 Si02
#       7
#     4   4   4   4   4   4   4
#     4  10  21  37  60  90 120 154 200 248 297 357
#     4  12  26  44  66  90 122 159 200 252 304 357
#     4  12  24  42  66  91 120 159 204 246 298 360
#     4   9  20  37  59  87 120 155 195 244 300 357
#     4  11  24  41  61  87 121 159 202 249 298 355
#     4  11  24  41  61  87 121 158 201 246 300 361
#     4   9  17  33  57  86 119 154 195 243 297 355
#
# _framework density 20.058807000000002
#
# number of rings (size 3 to 8) (size 9 to 14) (size 15 to 20)
#    0.000    1.429    1.429    5.143    2.000    5.143 
#    0.000    0.714    0.000    0.000    0.000    0.000 
#    0.000    0.000    0.000    0.000    0.000    0.000 
#
# Total GULP energy -347243.501986 kJ/mol
# GULP energy per Si atom -12401.553642 kJ/mol
# Density = 2.001315 g / cm^3
# Si number density = 20.058807 Si / 1000 Ang^3
#
#
#
# Elastic Constant Matrix: (Units=GPa)
#
#
# Indices 1 2 3 4 5 6 
#
# 1 42.7789 23.8128 -2.9473 0.0000 8.7336 0.0000
# 2 23.8128 131.2858 29.3929 0.0000 8.7874 0.0000
# 3 -2.9473 29.3929 98.7364 0.0000 6.4185 0.0000
# 4 0.0000 0.0000 0.0000 39.0775 0.0000 -3.3627
# 5 8.7336 8.7874 6.4185 0.0000 28.9652 0.0000
# 6 0.0000 0.0000 0.0000 -3.3627 0.0000 31.9426
#
#
#
# Elastic Compliance Matrix: (Units=1/GPa)
#
#
# Indices 1 2 3 4 5 6 
#
# 1 0.028013 -0.005224 0.002879 0.000000 -0.007500 0.000000
# 2 -0.005224 0.009247 -0.002870 0.000000 -0.000594 0.000000
# 3 0.002879 -0.002870 0.011230 0.000000 -0.002486 0.000000
# 4 0.000000 0.000000 0.000000 0.025824 0.000000 0.002719
# 5 -0.007500 -0.000594 -0.002486 0.000000 0.037517 0.000000
# 6 0.000000 0.000000 0.000000 0.002719 0.000000 0.031592
#
#
# Mechanical properties :
#
#
# Convention : Reuss Voigt Hill
#
# Bulk Modulus (GPa) = 26.27417 41.47975 33.87696
# Shear Modulus (GPa) = 30.02295 34.83324 32.42809
#
# Velocity S-wave (km/s) = 3.87298 4.17172 4.02512
# Velocity P-wave (km/s) = 5.75560 6.62784 6.20706
#
# Compressibility (1/GPa) = 0.03806019
#
# Stress axis : x y z
#
# Youngs Moduli (GPa) = 35.69749 108.14615 89.04823
#
# Poissons Ratio (x) = 0.56491 -0.25635
# Poissons Ratio (y) = 0.18647 0.25557
# Poissons Ratio (z) = -0.10276 0.31038
#
# Static dielectric constant tensor:
#      x y z
#    x 3.751590 0.000000 -0.296370 
#    y 0.000000 4.023070 0.000000 
#    z -0.296370 0.000000 4.071510 
# 
# 
# High freq. dielectric constant tensor:
#      x y z
#    x 1.766670 0.000000 -0.007220 
#    y 0.000000 1.797810 0.000000 
#    z -0.007220 0.000000 1.790690 
# 
# From -- ./inp_files/28453.got.cif
#   From: 2010.06.25/outbox.cif.g09.slc.cpg/sg11_15_cif.got.tgz:28453.got - 2010.06.27 23:14:04.
