data_PCOD8076562
_publ_section_title
;
Structure prediction by ZEFSAII (Michael W. Deem and Ramdas Pophale) SiO2 
 PCOD8076562
Probable space group: P 21/M
;
_chemical_formula_sum "Si O2"
_cell_formula_units_Z 24
_cell_length_a 11.650594
_cell_length_b 8.963364
_cell_length_c 22.058146
_cell_angle_alpha 90.000000
_cell_angle_beta 31.108589
_cell_angle_gamma 90.000000
_cell_volume 1190.129890
_symmetry_space_group_name_H-M "P 21/M"
_symmetry_group_IT_number 11
_symmetry_cell_setting 'monoclinic'
loop_
_space_group_symop_operation_xyz
x,y,z
-x,1/2+y,-z
-x,-y,-z
x,1/2-y,z
loop_
_atom_site_type_symbol
_atom_site_label
_atom_site_fract_x
_atom_site_fract_y
_atom_site_fract_z
Si Si1 0.544487 0.420253 0.829809
Si Si2 0.914434 0.425762 0.977330
Si Si3 0.962559 0.424394 0.712092
Si Si4 0.831038 0.576192 0.258083
Si Si5 0.614217 0.927069 0.553114
Si Si6 0.232882 0.579980 0.400374
O O1 0.482052 0.250000 0.875125
O O2 0.328798 0.521896 0.931995
O O3 0.636434 0.427810 0.720876
O O4 0.730223 0.489260 0.791571
O O5 0.912666 0.250000 0.988222
O O6 0.000000 0.500000 0.000000
O O7 0.076715 0.471498 0.849026
O O8 0.956835 0.250000 0.700491
O O9 0.985074 0.459261 0.773343
O O10 0.175223 0.489556 0.579812
O O11 0.767983 0.750000 0.288174
O O12 0.613105 0.482982 0.374518
O O13 0.613873 0.750000 0.556625
O O14 0.617069 0.995272 0.618868
O O15 0.193542 0.750000 0.438351
O O16 0.000000 0.500000 0.500000
#
# Coordination Sequence:
#
# PCOD8076562 Si02
#       6
#     4   4   4   4   4   4
#     4  10  21  39  61  85 117 155 189 233 292 345
#     4  11  24  41  61  86 114 150 195 242 289 343
#     4   9  19  38  60  84 118 155 190 236 293 348
#     4  10  22  40  60  83 115 156 198 240 289 343
#     4  11  21  36  59  88 120 154 195 239 289 345
#     4  11  21  35  57  86 118 151 189 233 286 342
#
# _framework density 20.165866000000001
#
# number of rings (size 3 to 8) (size 9 to 14) (size 15 to 20)
#    0.000    1.667    1.667    3.000    0.000    7.333 
#    0.000    1.667    0.000    0.000    0.000    0.000 
#    0.000    0.000    0.000    0.000    0.000    0.000 
#
# Total GULP energy -297642.972169 kJ/mol
# GULP energy per Si atom -12401.790507 kJ/mol
# Density = 2.011997 g / cm^3
# Si number density = 20.165866 Si / 1000 Ang^3
#
#
#
# Elastic Constant Matrix: (Units=GPa)
#
#
# Indices 1 2 3 4 5 6 
#
# 1 147.6305 38.2817 55.3794 0.0000 -8.3130 0.0000
# 2 38.2817 70.7855 43.8644 0.0000 -3.1826 0.0000
# 3 55.3794 43.8644 104.4328 0.0000 -18.6491 0.0000
# 4 0.0000 0.0000 0.0000 30.3946 0.0000 -8.0740
# 5 -8.3130 -3.1826 -18.6491 0.0000 35.7276 0.0000
# 6 0.0000 0.0000 0.0000 -8.0740 0.0000 31.8093
#
#
#
# Elastic Compliance Matrix: (Units=1/GPa)
#
#
# Indices 1 2 3 4 5 6 
#
# 1 0.008776 -0.002512 -0.003611 0.000000 -0.000066 0.000000
# 2 -0.002512 0.020064 -0.007588 0.000000 -0.002758 0.000000
# 3 -0.003611 -0.007588 0.015887 0.000000 0.006777 0.000000
# 4 0.000000 0.000000 0.000000 0.035279 0.000000 0.008955
# 5 -0.000066 -0.002758 0.006777 0.000000 0.031266 0.000000
# 6 0.000000 0.000000 0.000000 0.008955 0.000000 0.033710
#
#
# Mechanical properties :
#
#
# Convention : Reuss Voigt Hill
#
# Bulk Modulus (GPa) = 57.78109 66.43333 62.10721
# Shear Modulus (GPa) = 28.06299 31.94119 30.00209
#
# Velocity S-wave (km/s) = 3.73447 3.98417 3.86134
# Velocity P-wave (km/s) = 6.87824 7.36069 7.12355
#
# Compressibility (1/GPa) = 0.01730670
#
# Stress axis : x y z
#
# Youngs Moduli (GPa) = 113.95260 49.84175 62.94290
#
# Poissons Ratio (x) = 0.12518 0.22726
# Poissons Ratio (y) = 0.28620 0.47760
# Poissons Ratio (z) = 0.41143 0.37819
#
# Static dielectric constant tensor:
#      x y z
#    x 3.490200 0.000000 -1.779140 
#    y 0.000000 3.559330 0.000000 
#    z -1.779140 0.000000 -4.972790 
# 
# 
# High freq. dielectric constant tensor:
#      x y z
#    x 1.805760 0.000000 -0.006380 
#    y 0.000000 1.771300 0.000000 
#    z -0.006380 0.000000 1.785740 
# 
# From -- ./inp_files/42651.got.cif
#   From: 2010.06.25/outbox.cif.g09.slc.cpg/sg11_22_cif.got.tgz:42651.got - 2010.06.27 23:14:04.
