data_PCOD8076033
_publ_section_title
;
Structure prediction by ZEFSAII (Michael W. Deem and Ramdas Pophale) SiO2 
 PCOD8076033
Probable space group: P 21/M
;
_chemical_formula_sum "Si O2"
_cell_formula_units_Z 32
_cell_length_a 11.660770
_cell_length_b 13.916960
_cell_length_c 9.780454
_cell_angle_alpha 90.000000
_cell_angle_beta 85.646927
_cell_angle_gamma 90.000000
_cell_volume 1582.617570
_symmetry_space_group_name_H-M "P 21/M"
_symmetry_group_IT_number 11
_symmetry_cell_setting 'monoclinic'
loop_
_space_group_symop_operation_xyz
x,y,z
-x,1/2+y,-z
-x,-y,-z
x,1/2-y,z
loop_
_atom_site_type_symbol
_atom_site_label
_atom_site_fract_x
_atom_site_fract_y
_atom_site_fract_z
Si Si1 0.564179 0.134681 0.389077
Si Si2 0.305892 0.855182 0.888639
Si Si3 0.554862 0.425111 0.892785
Si Si4 0.156384 0.362986 0.001590
Si Si5 0.215122 0.004355 0.237033
Si Si6 0.335755 0.037242 0.478109
Si Si7 0.905352 0.363632 0.926119
Si Si8 0.664957 0.638357 0.239168
O O1 0.575392 0.250000 0.411048
O O2 0.627671 0.095433 0.244414
O O3 0.430775 0.104447 0.394224
O O4 0.620562 0.073370 0.507037
O O5 0.273615 0.750000 0.838244
O O6 0.388418 0.845618 0.013119
O O7 0.185443 0.903846 0.950171
O O8 0.652110 0.476313 0.795732
O O9 0.465813 0.377253 0.796381
O O10 0.500000 0.500000 0.000000
O O11 0.165013 0.250000 0.017462
O O12 0.251451 0.401653 0.886908
O O13 0.031514 0.394766 0.959801
O O14 0.178786 0.405813 0.148248
O O15 0.218526 0.034605 0.396958
O O16 0.128035 0.916081 0.213464
O O17 0.304108 0.082820 0.626046
O O18 0.892837 0.250000 0.905275
O O19 0.687419 0.750000 0.264556
#
# Coordination Sequence:
#
# PCOD8076033 Si02
#       8
#     4   4   4   4   4   4   4   4
#     4  10  21  37  57  82 122 163 191 232 292 351
#     4   9  18  32  56  85 108 140 188 244 288 328
#     4  11  18  31  53  83 117 141 186 236 283 343
#     4  10  22  40  62  85 113 153 196 240 292 347
#     4  11  22  36  59  86 114 151 189 243 293 336
#     4  11  23  37  54  87 122 158 195 232 283 352
#     4   9  20  39  63  88 112 143 196 250 293 340
#     4  11  23  38  58  84 122 164 193 232 291 350
#
# _framework density 20.219664000000002
#
# number of rings (size 3 to 8) (size 9 to 14) (size 15 to 20)
#    0.000    1.750    1.250    4.125    1.750    2.000 
#    0.000    0.625    0.000    0.000    0.000    0.000 
#    0.000    0.000    0.000    0.000    0.000    0.000 
#
# Total GULP energy -396616.648165 kJ/mol
# GULP energy per Si atom -12394.270255 kJ/mol
# Density = 2.017364 g / cm^3
# Si number density = 20.219664 Si / 1000 Ang^3
#
#
#
# Elastic Constant Matrix: (Units=GPa)
#
#
# Indices 1 2 3 4 5 6 
#
# 1 101.2626 34.3207 49.4477 0.0000 22.6273 0.0000
# 2 34.3207 68.3027 33.6239 0.0000 13.7341 0.0000
# 3 49.4477 33.6239 102.6736 0.0000 32.6975 0.0000
# 4 0.0000 0.0000 0.0000 23.7942 0.0000 3.7317
# 5 22.6273 13.7341 32.6975 0.0000 29.0806 0.0000
# 6 0.0000 0.0000 0.0000 3.7317 0.0000 22.6859
#
#
#
# Elastic Compliance Matrix: (Units=1/GPa)
#
#
# Indices 1 2 3 4 5 6 
#
# 1 0.014323 -0.004290 -0.004034 0.000000 -0.004583 0.000000
# 2 -0.004290 0.018890 -0.003649 0.000000 -0.001481 0.000000
# 3 -0.004034 -0.003649 0.017648 0.000000 -0.014981 0.000000
# 4 0.000000 0.000000 0.000000 0.043140 0.000000 -0.007096
# 5 -0.004583 -0.001481 -0.014981 0.000000 0.055498 0.000000
# 6 0.000000 0.000000 0.000000 -0.007096 0.000000 0.045248
#
#
# Mechanical properties :
#
#
# Convention : Reuss Voigt Hill
#
# Bulk Modulus (GPa) = 37.15057 56.33595 46.74326
# Shear Modulus (GPa) = 21.96232 25.43524 23.69878
#
# Velocity S-wave (km/s) = 3.29931 3.55060 3.42726
# Velocity P-wave (km/s) = 5.73823 6.68816 6.23132
#
# Compressibility (1/GPa) = 0.02691749
#
# Stress axis : x y z
#
# Youngs Moduli (GPa) = 69.81760 52.93758 56.66388
#
# Poissons Ratio (x) = 0.22709 0.22855
# Poissons Ratio (y) = 0.29950 0.20674
# Poissons Ratio (z) = 0.28161 0.19314
#
# Static dielectric constant tensor:
#      x y z
#    x 3.764620 0.000000 0.003710 
#    y 0.000000 4.912360 0.000000 
#    z 0.003710 0.000000 3.812330 
# 
# 
# High freq. dielectric constant tensor:
#      x y z
#    x 1.773140 0.000000 0.003600 
#    y 0.000000 1.802900 0.000000 
#    z 0.003600 0.000000 1.780510 
# 
# From -- ./inp_files/18084.got.cif
#   From: 2010.06.25/outbox.cif.g09.slc.cpg/sg11_10_cif.got.tgz:18084.got - 2010.06.27 23:14:04.
