data_PCOD8076112
_publ_section_title
;
Structure prediction by ZEFSAII (Michael W. Deem and Ramdas Pophale) SiO2 
 PCOD8076112
Probable space group: P 21/M
;
_chemical_formula_sum "Si O2"
_cell_formula_units_Z 28
_cell_length_a 25.213248
_cell_length_b 8.984304
_cell_length_c 8.820041
_cell_angle_alpha 90.000000
_cell_angle_beta 44.339130
_cell_angle_gamma 90.000000
_cell_volume 1396.372554
_symmetry_space_group_name_H-M "P 21/M"
_symmetry_group_IT_number 11
_symmetry_cell_setting 'monoclinic'
loop_
_space_group_symop_operation_xyz
x,y,z
-x,1/2+y,-z
-x,-y,-z
x,1/2-y,z
loop_
_atom_site_type_symbol
_atom_site_label
_atom_site_fract_x
_atom_site_fract_y
_atom_site_fract_z
Si Si1 0.163190 0.074843 0.501810
Si Si2 0.126958 0.921272 0.884869
Si Si3 0.985639 0.924365 0.370575
Si Si4 0.437379 0.423699 0.925928
Si Si5 0.723237 0.419727 0.238199
Si Si6 0.588725 0.576924 0.673153
Si Si7 0.300190 0.924383 0.060159
O O1 0.177611 0.250000 0.469579
O O2 0.096269 0.027376 0.524593
O O3 0.141457 0.027790 0.714679
O O4 0.240059 0.993923 0.298123
O O5 0.122875 0.750000 0.838431
O O6 0.191954 0.943322 0.876857
O O7 0.048592 0.974574 0.120406
O O8 0.991326 0.750000 0.385560
O O9 0.000000 0.000000 0.500000
O O10 0.437499 0.250000 0.889032
O O11 0.521865 0.485956 0.728030
O O12 0.409227 0.459175 0.152947
O O13 0.382454 0.505567 0.920874
O O14 0.695762 0.250000 0.318035
O O15 0.668604 0.528551 0.441643
O O16 0.723761 0.463336 0.061234
O O17 0.574628 0.750000 0.671887
O O18 0.303985 0.750000 0.083688
#
# Coordination Sequence:
#
# PCOD8076112 Si02
#       7
#     4   4   4   4   4   4   4
#     4  11  23  38  58  87 118 149 190 238 286 337
#     4  10  21  39  61  84 113 152 195 236 281 337
#     4  10  22  39  60  87 119 153 191 236 286 339
#     4  10  21  38  60  86 115 147 188 236 282 335
#     4  10  22  38  57  82 112 148 191 236 282 335
#     4  10  21  37  59  85 113 148 188 231 284 341
#     4  11  23  39  59  83 114 153 192 232 284 341
#
# _framework density 20.051955
#
# number of rings (size 3 to 8) (size 9 to 14) (size 15 to 20)
#    0.000    1.714    0.000    3.857    0.000    9.143 
#    0.000    0.000    0.000    0.000    0.000    0.000 
#    0.000    0.000    0.000    0.000    0.000    0.000 
#
# Total GULP energy -347399.411377 kJ/mol
# GULP energy per Si atom -12407.121835 kJ/mol
# Density = 2.000632 g / cm^3
# Si number density = 20.051955 Si / 1000 Ang^3
#
#
#
# Elastic Constant Matrix: (Units=GPa)
#
#
# Indices 1 2 3 4 5 6 
#
# 1 89.9985 33.9992 -7.1975 0.0000 0.8032 0.0000
# 2 33.9992 72.1787 15.4168 0.0000 0.2291 0.0000
# 3 -7.1975 15.4168 45.9278 0.0000 -5.0062 0.0000
# 4 0.0000 0.0000 0.0000 33.9480 0.0000 0.1221
# 5 0.8032 0.2291 -5.0062 0.0000 33.0361 0.0000
# 6 0.0000 0.0000 0.0000 0.1221 0.0000 33.9623
#
#
#
# Elastic Compliance Matrix: (Units=1/GPa)
#
#
# Indices 1 2 3 4 5 6 
#
# 1 0.014483 -0.007884 0.004966 0.000000 0.000455 0.000000
# 2 -0.007884 0.019242 -0.007817 0.000000 -0.001126 0.000000
# 3 0.004966 -0.007817 0.025591 0.000000 0.003811 0.000000
# 4 0.000000 0.000000 0.000000 0.029457 0.000000 -0.000106
# 5 0.000455 -0.001126 0.003811 0.000000 0.030844 0.000000
# 6 0.000000 0.000000 0.000000 -0.000106 0.000000 0.029445
#
#
# Mechanical properties :
#
#
# Convention : Reuss Voigt Hill
#
# Bulk Modulus (GPa) = 26.42415 32.50468 29.46441
# Shear Modulus (GPa) = 27.30042 31.24838 29.27440
#
# Velocity S-wave (km/s) = 3.69383 3.95190 3.82505
# Velocity P-wave (km/s) = 5.60348 6.08842 5.85097
#
# Compressibility (1/GPa) = 0.03784417
#
# Stress axis : x y z
#
# Youngs Moduli (GPa) = 69.04763 51.97100 39.07619
#
# Poissons Ratio (x) = 0.40974 -0.19404
# Poissons Ratio (y) = 0.54438 0.30547
# Poissons Ratio (z) = -0.34287 0.40627
#
# Static dielectric constant tensor:
#      x y z
#    x 3.777450 0.000000 -0.105800 
#    y 0.000000 3.655550 0.000000 
#    z -0.105800 0.000000 3.586100 
# 
# 
# High freq. dielectric constant tensor:
#      x y z
#    x 1.795650 0.000000 -0.006880 
#    y 0.000000 1.785500 0.000000 
#    z -0.006880 0.000000 1.785450 
# 
# From -- ./inp_files/28365.got.cif
#   From: 2010.06.25/outbox.cif.g09.slc.cpg/sg11_15_cif.got.tgz:28365.got - 2010.06.27 23:14:04.
