data_PCOD8076369
_publ_section_title
;
Structure prediction by ZEFSAII (Michael W. Deem and Ramdas Pophale) SiO2 
 PCOD8076369
Probable space group: P 21/M
;
_chemical_formula_sum "Si O2"
_cell_formula_units_Z 32
_cell_length_a 16.257730
_cell_length_b 18.353324
_cell_length_c 12.036880
_cell_angle_alpha 90.000000
_cell_angle_beta 26.049829
_cell_angle_gamma 90.000000
_cell_volume 1577.262839
_symmetry_space_group_name_H-M "P 21/M"
_symmetry_group_IT_number 11
_symmetry_cell_setting 'monoclinic'
loop_
_space_group_symop_operation_xyz
x,y,z
-x,1/2+y,-z
-x,-y,-z
x,1/2-y,z
loop_
_atom_site_type_symbol
_atom_site_label
_atom_site_fract_x
_atom_site_fract_y
_atom_site_fract_z
Si Si1 0.108904 0.022999 0.759596
Si Si2 0.412950 0.666356 0.604233
Si Si3 0.165089 0.584610 0.303039
Si Si4 0.490569 0.559628 0.314725
Si Si5 0.480223 0.332464 0.096239
Si Si6 0.213864 0.556979 0.990178
Si Si7 0.750010 0.578713 0.794303
Si Si8 0.303600 0.330402 0.543005
O O1 0.293164 0.974762 0.517070
O O2 0.146612 0.108837 0.726325
O O3 0.972519 0.012614 0.819249
O O4 0.000000 0.000000 0.000000
O O5 0.353190 0.750000 0.655089
O O6 0.462904 0.629076 0.426772
O O7 0.591079 0.662009 0.468394
O O8 0.242953 0.623073 0.868460
O O9 0.183793 0.588503 0.147956
O O10 0.219861 0.504526 0.280061
O O11 0.952576 0.607585 0.592053
O O12 0.310200 0.639711 0.184810
O O13 0.608029 0.496799 0.234132
O O14 0.599081 0.587585 0.074653
O O15 0.464244 0.250000 0.074253
O O16 0.320219 0.377845 0.227630
O O17 0.450453 0.341225 0.264120
O O18 0.210667 0.250000 0.646511
#
# Coordination Sequence:
#
# PCOD8076369 Si02
#       8
#     4   4   4   4   4   4   4   4
#     4  12  22  36  63  92 119 161 205 252 306 368
#     4  11  21  38  62  85 119 160 197 247 309 365
#     4  10  21  39  64  95 119 159 209 260 304 361
#     4  11  23  42  61  88 125 160 202 251 305 368
#     4  11  22  39  63  89 126 165 200 255 315 369
#     4  11  21  37  65  90 118 155 205 255 309 354
#     4  10  23  39  63  90 126 162 207 251 304 372
#     4  10  21  38  60  90 123 157 200 257 314 357
#
# _framework density 20.288311
#
# number of rings (size 3 to 8) (size 9 to 14) (size 15 to 20)
#    0.000    1.250    3.750    3.000    0.000    4.500 
#    0.000    0.000    0.000    1.500    0.000    0.000 
#    0.000    0.000    0.000    0.000    0.000    0.000 
#
# Total GULP energy -396854.183501 kJ/mol
# GULP energy per Si atom -12401.693234 kJ/mol
# Density = 2.024213 g / cm^3
# Si number density = 20.288311 Si / 1000 Ang^3
#
#
#
# Elastic Constant Matrix: (Units=GPa)
#
#
# Indices 1 2 3 4 5 6 
#
# 1 75.4922 39.2969 30.3545 0.0000 -16.9708 0.0000
# 2 39.2969 98.3433 47.3762 0.0000 -0.0246 0.0000
# 3 30.3545 47.3762 111.3307 0.0000 -15.7545 0.0000
# 4 0.0000 0.0000 0.0000 21.9460 0.0000 6.5476
# 5 -16.9708 -0.0246 -15.7545 0.0000 32.0727 0.0000
# 6 0.0000 0.0000 0.0000 6.5476 0.0000 22.1325
#
#
#
# Elastic Compliance Matrix: (Units=1/GPa)
#
#
# Indices 1 2 3 4 5 6 
#
# 1 0.019723 -0.007514 -0.000757 0.000000 0.010059 0.000000
# 2 -0.007514 0.015903 -0.005674 0.000000 -0.006751 0.000000
# 3 -0.000757 -0.005674 0.012408 0.000000 0.005690 0.000000
# 4 0.000000 0.000000 0.000000 0.049978 0.000000 -0.014785
# 5 0.010059 -0.006751 0.005690 0.000000 0.039292 0.000000
# 6 0.000000 0.000000 0.000000 -0.014785 0.000000 0.049556
#
#
# Mechanical properties :
#
#
# Convention : Reuss Voigt Hill
#
# Bulk Modulus (GPa) = 49.63999 57.69127 53.66563
# Shear Modulus (GPa) = 22.57700 26.43949 24.50824
#
# Velocity S-wave (km/s) = 3.33950 3.61389 3.47940
# Velocity P-wave (km/s) = 6.27615 6.77577 6.53074
#
# Compressibility (1/GPa) = 0.02014505
#
# Stress axis : x y z
#
# Youngs Moduli (GPa) = 50.70129 62.88223 80.59155
#
# Poissons Ratio (x) = 0.47251 0.06097
# Poissons Ratio (y) = 0.38098 0.45727
# Poissons Ratio (z) = 0.03836 0.35679
#
# Static dielectric constant tensor:
#      x y z
#    x 3.602050 0.000000 -0.081270 
#    y 0.000000 3.733380 0.000000 
#    z -0.081270 0.000000 3.659350 
# 
# 
# High freq. dielectric constant tensor:
#      x y z
#    x 1.791790 0.000000 -0.008530 
#    y 0.000000 1.783440 0.000000 
#    z -0.008530 0.000000 1.794020 
# 
# From -- ./inp_files/39987.got.cif
#   From: 2010.06.25/outbox.cif.g09.slc.cpg/sg11_20_cif.got.tgz:39987.got - 2010.06.27 23:14:04.
