data_PCOD8076289
_publ_section_title
;
Structure prediction by ZEFSAII (Michael W. Deem and Ramdas Pophale) SiO2 
 PCOD8076289
Probable space group: P 21/M
;
_chemical_formula_sum "Si O2"
_cell_formula_units_Z 28
_cell_length_a 16.179405
_cell_length_b 9.044329
_cell_length_c 12.307389
_cell_angle_alpha 90.000000
_cell_angle_beta 123.305400
_cell_angle_gamma 90.000000
_cell_volume 1505.165060
_symmetry_space_group_name_H-M "P 21/M"
_symmetry_group_IT_number 11
_symmetry_cell_setting 'monoclinic'
loop_
_space_group_symop_operation_xyz
x,y,z
-x,1/2+y,-z
-x,-y,-z
x,1/2-y,z
loop_
_atom_site_type_symbol
_atom_site_label
_atom_site_fract_x
_atom_site_fract_y
_atom_site_fract_z
Si Si1 0.712851 0.577501 0.025371
Si Si2 0.486390 0.918950 0.160193
Si Si3 0.123207 0.923208 0.992008
Si Si4 0.228213 0.074630 0.465794
Si Si5 0.301109 0.077759 0.744043
Si Si6 0.442149 0.415808 0.549503
Si Si7 0.924476 0.076878 0.798265
O O1 0.722226 0.750000 0.003170
O O2 0.776169 0.482660 0.987065
O O3 0.749220 0.546441 0.175751
O O4 0.599760 0.528537 0.937956
O O5 0.463961 0.750000 0.106672
O O6 0.587026 0.986213 0.180227
O O7 0.494840 0.925366 0.295787
O O8 0.113363 0.750000 0.962980
O O9 0.126061 0.958716 0.122386
O O10 0.032109 0.004315 0.869115
O O11 0.211443 0.250000 0.442498
O O12 0.231374 0.021817 0.594986
O O13 0.331203 0.022554 0.485998
O O14 0.139687 0.989641 0.344643
O O15 0.317920 0.250000 0.733435
O O16 0.500000 0.500000 0.500000
O O17 0.432658 0.250000 0.501086
O O18 0.937342 0.250000 0.789080
#
# Coordination Sequence:
#
# PCOD8076289 Si02
#       7
#     4   4   4   4   4   4   4
#     4  11  21  33  54  82 109 139 182 227 262 307
#     4   9  18  34  52  73 107 148 182 216 266 314
#     4  10  22  39  57  79 108 140 172 215 271 323
#     4   9  18  35  57  77 103 143 178 211 268 322
#     4   8  17  35  55  77 108 145 182 220 260 310
#     4   9  19  32  48  73 106 141 178 217 256 309
#     4  10  21  38  59  82 106 133 173 222 268 318
#
# _framework density 18.602611
#
# number of rings (size 3 to 8) (size 9 to 14) (size 15 to 20)
#    0.000    2.571    0.000    3.429    2.000    2.857 
#    0.000    5.000    0.000    0.000    0.000    0.000 
#    0.000    0.000    0.000    0.000    0.000    0.000 
#
# Total GULP energy -347142.080883 kJ/mol
# GULP energy per Si atom -12397.931460 kJ/mol
# Density = 1.856027 g / cm^3
# Si number density = 18.602611 Si / 1000 Ang^3
#
#
#
# Elastic Constant Matrix: (Units=GPa)
#
#
# Indices 1 2 3 4 5 6 
#
# 1 54.5704 22.7017 28.2650 0.0000 -2.9915 0.0000
# 2 22.7017 60.6515 33.7580 0.0000 2.5359 0.0000
# 3 28.2650 33.7580 95.9500 0.0000 15.3212 0.0000
# 4 0.0000 0.0000 0.0000 30.0814 0.0000 4.2609
# 5 -2.9915 2.5359 15.3212 0.0000 23.9021 0.0000
# 6 0.0000 0.0000 0.0000 4.2609 0.0000 27.5344
#
#
#
# Elastic Compliance Matrix: (Units=1/GPa)
#
#
# Indices 1 2 3 4 5 6 
#
# 1 0.024533 -0.005961 -0.006373 0.000000 0.007788 0.000000
# 2 -0.005961 0.022112 -0.006160 0.000000 0.000857 0.000000
# 3 -0.006373 -0.006160 0.016142 0.000000 -0.010491 0.000000
# 4 0.000000 0.000000 0.000000 0.033988 0.000000 -0.005260
# 5 0.007788 0.000857 -0.010491 0.000000 0.049446 0.000000
# 6 0.000000 0.000000 0.000000 -0.005260 0.000000 0.037132
#
#
# Mechanical properties :
#
#
# Convention : Reuss Voigt Hill
#
# Bulk Modulus (GPa) = 38.76335 42.29126 40.52730
# Shear Modulus (GPa) = 21.83968 24.73340 23.28654
#
# Velocity S-wave (km/s) = 3.43010 3.65028 3.54190
# Velocity P-wave (km/s) = 6.04734 6.36784 6.20966
#
# Compressibility (1/GPa) = 0.02579756
#
# Stress axis : x y z
#
# Youngs Moduli (GPa) = 40.76196 45.22482 61.94957
#
# Poissons Ratio (x) = 0.26958 0.39482
# Poissons Ratio (y) = 0.24298 0.38164
# Poissons Ratio (z) = 0.25979 0.27860
#
# Static dielectric constant tensor:
#      x y z
#    x 3.317550 0.000000 -0.086600 
#    y 0.000000 3.282010 0.000000 
#    z -0.086600 0.000000 3.513840 
# 
# 
# High freq. dielectric constant tensor:
#      x y z
#    x 1.712720 0.000000 -0.006060 
#    y 0.000000 1.710850 0.000000 
#    z -0.006060 0.000000 1.726550 
# 
# From -- ./inp_files/37433.got.cif
#   From: 2010.06.25/outbox.cif.g09.slc.cpg/sg11_19_cif.got.tgz:37433.got - 2010.06.27 23:14:04.
