data_PCOD8076860
_publ_section_title
;
Structure prediction by ZEFSAII (Michael W. Deem and Ramdas Pophale) SiO2 
 PCOD8076860
Probable space group: P 21/M
;
_chemical_formula_sum "Si O2"
_cell_formula_units_Z 32
_cell_length_a 30.155200
_cell_length_b 8.664652
_cell_length_c 12.582290
_cell_angle_alpha 90.000000
_cell_angle_beta 151.700909
_cell_angle_gamma 90.000000
_cell_volume 1558.545144
_symmetry_space_group_name_H-M "P 21/M"
_symmetry_group_IT_number 11
_symmetry_cell_setting 'monoclinic'
loop_
_space_group_symop_operation_xyz
x,y,z
-x,1/2+y,-z
-x,-y,-z
x,1/2-y,z
loop_
_atom_site_type_symbol
_atom_site_label
_atom_site_fract_x
_atom_site_fract_y
_atom_site_fract_z
Si Si1 0.863132 0.431190 0.963978
Si Si2 0.600808 0.933651 0.231372
Si Si3 0.904212 0.573107 0.831894
Si Si4 0.036647 0.068426 0.468996
Si Si5 0.245095 0.434785 0.858803
Si Si6 0.267276 0.426576 0.671606
Si Si7 0.326238 0.067696 0.385463
Si Si8 0.404237 0.567296 0.343089
O O1 0.845823 0.250000 0.937129
O O2 0.857828 0.482024 0.830802
O O3 0.781492 0.516737 0.857621
O O4 0.964169 0.479740 0.223426
O O5 0.600961 0.750000 0.228628
O O6 0.664383 0.004945 0.270729
O O7 0.639890 0.988716 0.427312
O O8 0.500000 0.000000 0.000000
O O9 0.917293 0.750000 0.894250
O O10 0.838981 0.558770 0.591517
O O11 0.000000 0.500000 0.000000
O O12 0.040469 0.250000 0.488979
O O13 0.140093 0.004981 0.660948
O O14 0.000000 0.000000 0.500000
O O15 0.249105 0.250000 0.871604
O O16 0.274690 0.499628 0.804787
O O17 0.315457 0.504703 0.091921
O O18 0.297502 0.250000 0.744906
O O19 0.334354 0.250000 0.386893
O O20 0.392851 0.984705 0.440885
O O21 0.500000 0.500000 0.500000
O O22 0.408339 0.750000 0.344147
#
# Coordination Sequence:
#
# PCOD8076860 Si02
#       8
#     4   4   4   4   4   4   4   4
#     4  11  22  38  61  93 127 164 208 255 307 370
#     4  10  22  40  63  93 125 161 204 254 311 373
#     4  11  21  37  59  88 125 167 210 254 305 366
#     4  10  22  38  59  88 123 164 209 258 309 365
#     4  10  21  41  66  91 123 165 210 258 314 370
#     4   9  19  39  63  88 124 166 204 250 311 371
#     4  11  23  43  67  95 129 165 208 259 313 374
#     4  12  27  46  67  94 125 162 209 262 316 374
#
# _framework density 20.531967999999999
#
# number of rings (size 3 to 8) (size 9 to 14) (size 15 to 20)
#    0.000    1.500    1.250    3.750    1.750    6.500 
#    0.000    2.500    0.000    0.000    0.000    0.000 
#    0.000    0.000    0.000    0.000    0.000    0.000 
#
# Total GULP energy -396863.118281 kJ/mol
# GULP energy per Si atom -12401.972446 kJ/mol
# Density = 2.048524 g / cm^3
# Si number density = 20.531968 Si / 1000 Ang^3
#
#
#
# Elastic Constant Matrix: (Units=GPa)
#
#
# Indices 1 2 3 4 5 6 
#
# 1 169.0991 34.4328 60.2948 0.0000 7.4731 0.0000
# 2 34.4328 49.7103 35.3115 0.0000 2.7207 0.0000
# 3 60.2948 35.3115 118.2674 0.0000 11.5130 0.0000
# 4 0.0000 0.0000 0.0000 33.5804 0.0000 3.7262
# 5 7.4731 2.7207 11.5130 0.0000 43.1797 0.0000
# 6 0.0000 0.0000 0.0000 3.7262 0.0000 34.2853
#
#
#
# Elastic Compliance Matrix: (Units=1/GPa)
#
#
# Indices 1 2 3 4 5 6 
#
# 1 0.007611 -0.003199 -0.002892 0.000000 -0.000345 0.000000
# 2 -0.003199 0.026884 -0.006452 0.000000 0.000580 0.000000
# 3 -0.002892 -0.006452 0.012081 0.000000 -0.002314 0.000000
# 4 0.000000 0.000000 0.000000 0.030143 0.000000 -0.003276
# 5 -0.000345 0.000580 -0.002314 0.000000 0.023799 0.000000
# 6 0.000000 0.000000 0.000000 -0.003276 0.000000 0.029523
#
#
# Mechanical properties :
#
#
# Convention : Reuss Voigt Hill
#
# Bulk Modulus (GPa) = 46.53215 66.35057 56.44136
# Shear Modulus (GPa) = 30.80862 36.01159 33.41010
#
# Velocity S-wave (km/s) = 3.87786 4.19254 4.03826
# Velocity P-wave (km/s) = 6.53933 7.47144 7.02087
#
# Compressibility (1/GPa) = 0.02149052
#
# Stress axis : x y z
#
# Youngs Moduli (GPa) = 131.38101 37.19651 82.77154
#
# Poissons Ratio (x) = 0.11900 0.23935
# Poissons Ratio (y) = 0.42032 0.53407
# Poissons Ratio (z) = 0.37991 0.24001
#
# Static dielectric constant tensor:
#      x y z
#    x 3.164810 0.000000 0.043960 
#    y 0.000000 3.565690 0.000000 
#    z 0.043960 0.000000 3.892920 
# 
# 
# High freq. dielectric constant tensor:
#      x y z
#    x 1.822020 0.000000 0.001170 
#    y 0.000000 1.785430 0.000000 
#    z 0.001170 0.000000 1.812150 
# 
# From -- ./inp_files/45251.got.cif
#   From: 2010.06.25/outbox.cif.g09.slc.cpg/sg11_23_cif.got.tgz:45251.got - 2010.06.27 23:14:04.
