data_PCOD8076250
_publ_section_title
;
Structure prediction by ZEFSAII (Michael W. Deem and Ramdas Pophale) SiO2 
 PCOD8076250
Probable space group: P 21/M
;
_chemical_formula_sum "Si O2"
_cell_formula_units_Z 32
_cell_length_a 8.016968
_cell_length_b 30.197972
_cell_length_c 10.750708
_cell_angle_alpha 90.000000
_cell_angle_beta 37.968729
_cell_angle_gamma 90.000000
_cell_volume 1601.265762
_symmetry_space_group_name_H-M "P 21/M"
_symmetry_group_IT_number 11
_symmetry_cell_setting 'monoclinic'
loop_
_space_group_symop_operation_xyz
x,y,z
-x,1/2+y,-z
-x,-y,-z
x,1/2-y,z
loop_
_atom_site_type_symbol
_atom_site_label
_atom_site_fract_x
_atom_site_fract_y
_atom_site_fract_z
Si Si1 0.660653 0.362873 0.484358
Si Si2 0.502383 0.096841 0.337703
Si Si3 0.246439 0.512828 0.939416
Si Si4 0.341596 0.842887 0.954785
Si Si5 0.470948 0.920643 0.207713
Si Si6 0.763504 0.841852 0.913201
Si Si7 0.814855 0.801116 0.152684
Si Si8 0.932647 0.424078 0.760280
O O1 0.707541 0.384252 0.320698
O O2 0.584267 0.401576 0.624339
O O3 0.420062 0.326676 0.632556
O O4 0.958947 0.341500 0.331657
O O5 0.596392 0.052714 0.216085
O O6 0.453469 0.137869 0.271146
O O7 0.248264 0.083126 0.568229
O O8 0.437039 0.470932 0.841558
O O9 0.139310 0.528369 0.137278
O O10 0.000000 0.500000 0.000000
O O11 0.521680 0.823469 0.963611
O O12 0.170638 0.885592 0.090860
O O13 0.118592 0.809178 0.029297
O O14 0.182787 0.920651 0.309830
O O15 0.685576 0.891539 0.002849
O O16 0.794020 0.811591 0.017608
O O17 0.750026 0.750000 0.209462
#
# Coordination Sequence:
#
# PCOD8076250 Si02
#       8
#     4   4   4   4   4   4   4   4
#     4  11  21  39  64  89 122 160 204 246 302 366
#     4  11  21  36  62  86 118 164 205 249 297 362
#     4  11  23  34  53  85 122 159 211 257 297 347
#     4  10  21  41  65  89 120 160 200 244 303 365
#     4  10  22  37  57  86 122 163 205 253 299 349
#     4  10  22  41  66  89 122 161 200 246 303 365
#     4  11  24  42  65  92 120 152 194 250 307 367
#     4  10  21  38  57  83 120 161 208 252 297 355
#
# _framework density 19.984190999999999
#
# number of rings (size 3 to 8) (size 9 to 14) (size 15 to 20)
#    0.000    1.500    2.500    2.625    3.500    4.500 
#    0.000    0.000    0.000    0.000    0.000    0.000 
#    0.000    0.000    0.000    0.000    0.000    0.000 
#
# Total GULP energy -396623.853794 kJ/mol
# GULP energy per Si atom -12394.495431 kJ/mol
# Density = 1.993871 g / cm^3
# Si number density = 19.984191 Si / 1000 Ang^3
#
#
#
# Elastic Constant Matrix: (Units=GPa)
#
#
# Indices 1 2 3 4 5 6 
#
# 1 116.8519 34.4694 23.3318 0.0000 1.3291 0.0000
# 2 34.4694 86.3122 9.2826 0.0000 2.3703 0.0000
# 3 23.3318 9.2826 80.6640 0.0000 -4.0143 0.0000
# 4 0.0000 0.0000 0.0000 12.9624 0.0000 -2.0590
# 5 1.3291 2.3703 -4.0143 0.0000 31.3710 0.0000
# 6 0.0000 0.0000 0.0000 -2.0590 0.0000 20.2468
#
#
#
# Elastic Compliance Matrix: (Units=1/GPa)
#
#
# Indices 1 2 3 4 5 6 
#
# 1 0.010185 -0.003782 -0.002534 0.000000 -0.000470 0.000000
# 2 -0.003782 0.013171 -0.000466 0.000000 -0.000895 0.000000
# 3 -0.002534 -0.000466 0.013275 0.000000 0.001841 0.000000
# 4 0.000000 0.000000 0.000000 0.078413 0.000000 0.007974
# 5 -0.000470 -0.000895 0.001841 0.000000 0.032200 0.000000
# 6 0.000000 0.000000 0.000000 0.007974 0.000000 0.050201
#
#
# Mechanical properties :
#
#
# Convention : Reuss Voigt Hill
#
# Bulk Modulus (GPa) = 43.35298 46.44395 44.89847
# Shear Modulus (GPa) = 22.86252 27.36566 25.11409
#
# Velocity S-wave (km/s) = 3.38602 3.70451 3.54884
# Velocity P-wave (km/s) = 6.08503 6.44893 6.26962
#
# Compressibility (1/GPa) = 0.02306646
#
# Stress axis : x y z
#
# Youngs Moduli (GPa) = 98.18577 75.92499 75.32741
#
# Poissons Ratio (x) = 0.28714 0.19089
# Poissons Ratio (y) = 0.37133 0.03512
# Poissons Ratio (z) = 0.24881 0.03540
#
# Static dielectric constant tensor:
#      x y z
#    x 3.738010 0.000000 0.023830 
#    y 0.000000 3.343740 0.000000 
#    z 0.023830 0.000000 3.595390 
# 
# 
# High freq. dielectric constant tensor:
#      x y z
#    x 1.795400 0.000000 0.000470 
#    y 0.000000 1.758680 0.000000 
#    z 0.000470 0.000000 1.782730 
# 
# From -- ./inp_files/19857.got.cif
#   From: 2010.06.25/outbox.cif.g09.slc.cpg/sg11_10_cif.got.tgz:19857.got - 2010.06.27 23:14:04.
