data_PCOD8076482
_publ_section_title
;
Structure prediction by ZEFSAII (Michael W. Deem and Ramdas Pophale) SiO2 
 PCOD8076482
Probable space group: P 21/M
;
_chemical_formula_sum "Si O2"
_cell_formula_units_Z 32
_cell_length_a 31.203273
_cell_length_b 8.808145
_cell_length_c 11.934949
_cell_angle_alpha 90.000000
_cell_angle_beta 28.769037
_cell_angle_gamma 90.000000
_cell_volume 1578.712422
_symmetry_space_group_name_H-M "P 21/M"
_symmetry_group_IT_number 11
_symmetry_cell_setting 'monoclinic'
loop_
_space_group_symop_operation_xyz
x,y,z
-x,1/2+y,-z
-x,-y,-z
x,1/2-y,z
loop_
_atom_site_type_symbol
_atom_site_label
_atom_site_fract_x
_atom_site_fract_y
_atom_site_fract_z
Si Si1 0.342267 0.074869 0.558334
Si Si2 0.011267 0.574869 0.795705
Si Si3 0.062517 0.428729 0.449668
Si Si4 0.309098 0.424553 0.377796
Si Si5 0.131646 0.925252 0.728423
Si Si6 0.545799 0.426820 0.094368
Si Si7 0.413587 0.926198 0.749395
Si Si8 0.748426 0.070945 0.029277
O O1 0.335763 0.250000 0.611022
O O2 0.305080 0.051094 0.519542
O O3 0.443909 0.018222 0.333746
O O4 0.281411 0.972618 0.777444
O O5 0.005027 0.750000 0.773393
O O6 0.025585 0.471296 0.655679
O O7 0.092594 0.546731 0.694405
O O8 0.918806 0.528368 0.065448
O O9 0.061053 0.250000 0.438300
O O10 0.000000 0.500000 0.500000
O O11 0.161833 0.487628 0.208392
O O12 0.293836 0.250000 0.380770
O O13 0.234336 0.526717 0.489940
O O14 0.405195 0.477235 0.113455
O O15 0.121682 0.750000 0.785715
O O16 0.550049 0.250000 0.052507
O O17 0.593967 0.461480 0.101727
O O18 0.424138 0.750000 0.702018
O O19 0.325390 0.987258 0.890106
O O20 0.500000 0.000000 0.500000
O O21 0.764267 0.250000 0.985542
#
# Coordination Sequence:
#
# PCOD8076482 Si02
#       8
#     4   4   4   4   4   4   4   4
#     4  10  22  41  62  86 123 168 210 256 310 371
#     4  10  22  43  68  93 125 160 204 258 311 373
#     4  12  27  46  69  96 129 168 209 260 320 381
#     4  11  24  38  59  91 124 160 210 263 309 365
#     4  10  22  41  66  93 123 164 207 254 314 374
#     4  10  21  39  61  87 123 165 208 255 314 372
#     4  10  21  38  63  92 125 165 209 260 313 374
#     4  11  24  41  64  96 128 164 212 262 315 381
#
# _framework density 20.269682
#
# number of rings (size 3 to 8) (size 9 to 14) (size 15 to 20)
#    0.000    1.500    1.250    3.000    3.500    4.000 
#    0.000    0.000    0.000    0.000    0.000    0.000 
#    0.000    0.000    0.000    0.000    0.000    0.000 
#
# Total GULP energy -397013.605585 kJ/mol
# GULP energy per Si atom -12406.675175 kJ/mol
# Density = 2.022355 g / cm^3
# Si number density = 20.269682 Si / 1000 Ang^3
#
#
#
# Elastic Constant Matrix: (Units=GPa)
#
#
# Indices 1 2 3 4 5 6 
#
# 1 82.3981 41.1248 28.6134 0.0000 -6.7575 0.0000
# 2 41.1248 89.6447 30.6651 0.0000 -1.6935 0.0000
# 3 28.6134 30.6651 75.5991 0.0000 -6.0134 0.0000
# 4 0.0000 0.0000 0.0000 39.9936 0.0000 0.3934
# 5 -6.7575 -1.6935 -6.0134 0.0000 32.6216 0.0000
# 6 0.0000 0.0000 0.0000 0.3934 0.0000 29.9941
#
#
#
# Elastic Compliance Matrix: (Units=1/GPa)
#
#
# Indices 1 2 3 4 5 6 
#
# 1 0.016785 -0.006442 -0.003542 0.000000 0.002490 0.000000
# 2 -0.006442 0.015427 -0.003920 0.000000 -0.001256 0.000000
# 3 -0.003542 -0.003920 0.016323 0.000000 0.002072 0.000000
# 4 0.000000 0.000000 0.000000 0.025007 0.000000 -0.000328
# 5 0.002490 -0.001256 0.002072 0.000000 0.031487 0.000000
# 6 0.000000 0.000000 0.000000 -0.000328 0.000000 0.033344
#
#
# Mechanical properties :
#
#
# Convention : Reuss Voigt Hill
#
# Bulk Modulus (GPa) = 48.24154 49.82765 49.03460
# Shear Modulus (GPa) = 28.88659 30.33775 29.61217
#
# Velocity S-wave (km/s) = 3.77916 3.87293 3.82633
# Velocity P-wave (km/s) = 6.54937 6.68095 6.61549
#
# Compressibility (1/GPa) = 0.02072902
#
# Stress axis : x y z
#
# Youngs Moduli (GPa) = 59.57533 64.81997 61.26324
#
# Poissons Ratio (x) = 0.41755 0.21700
# Poissons Ratio (y) = 0.38377 0.24013
# Poissons Ratio (z) = 0.21102 0.25407
#
# Static dielectric constant tensor:
#      x y z
#    x 3.813210 0.000000 -0.094600 
#    y 0.000000 3.689660 0.000000 
#    z -0.094600 0.000000 3.624060 
# 
# 
# High freq. dielectric constant tensor:
#      x y z
#    x 1.802780 0.000000 -0.002640 
#    y 0.000000 1.794620 0.000000 
#    z -0.002640 0.000000 1.797390 
# 
# From -- ./inp_files/45105.got.cif
#   From: 2010.06.25/outbox.cif.g09.slc.cpg/sg11_23_cif.got.tgz:45105.got - 2010.06.27 23:14:04.
