data_PCOD8076402
_publ_section_title
;
Structure prediction by ZEFSAII (Michael W. Deem and Ramdas Pophale) SiO2 
 PCOD8076402
Probable space group: P 21/M
;
_chemical_formula_sum "Si O2"
_cell_formula_units_Z 24
_cell_length_a 7.703815
_cell_length_b 20.461710
_cell_length_c 9.351602
_cell_angle_alpha 90.000000
_cell_angle_beta 50.752371
_cell_angle_gamma 90.000000
_cell_volume 1141.588769
_symmetry_space_group_name_H-M "P 21/M"
_symmetry_group_IT_number 11
_symmetry_cell_setting 'monoclinic'
loop_
_space_group_symop_operation_xyz
x,y,z
-x,1/2+y,-z
-x,-y,-z
x,1/2-y,z
loop_
_atom_site_type_symbol
_atom_site_label
_atom_site_fract_x
_atom_site_fract_y
_atom_site_fract_z
Si Si1 0.126182 0.987749 0.081685
Si Si2 0.424857 0.175459 0.669381
Si Si3 0.284809 0.123160 0.035491
Si Si4 0.692527 0.550868 0.446679
Si Si5 0.811923 0.321546 0.268894
Si Si6 0.525139 0.114298 0.185235
O O1 0.937382 0.981779 0.304371
O O2 0.308149 0.044764 0.017489
O O3 0.271468 0.922469 0.998164
O O4 0.000000 0.000000 0.000000
O O5 0.332688 0.250000 0.687120
O O6 0.293741 0.118011 0.654016
O O7 0.684374 0.172078 0.486573
O O8 0.414917 0.160840 0.842955
O O9 0.380491 0.149674 0.136493
O O10 0.017197 0.129548 0.159383
O O11 0.500000 0.500000 0.500000
O O12 0.640673 0.567048 0.638727
O O13 0.915035 0.250000 0.194088
O O14 0.631593 0.333348 0.237489
#
# Coordination Sequence:
#
# PCOD8076402 Si02
#       6
#     4   4   4   4   4   4
#     4  12  20  37  61  88 123 160 203 253 308 378
#     4  10  21  38  61  88 121 165 209 256 318 385
#     4  12  23  38  62  90 123 158 206 257 315 370
#     4  11  20  38  65  90 126 166 210 263 320 377
#     4  10  22  41  61  83 117 159 202 250 309 373
#     4  11  24  38  61  93 119 159 204 259 311 372
#
# _framework density 21.023333000000001
#
# number of rings (size 3 to 8) (size 9 to 14) (size 15 to 20)
#    0.000    1.000    5.000    2.000    0.000    3.333 
#    0.000    0.000    0.000    4.000    0.000    0.000 
#    0.000    0.000    0.000    0.000    0.000    0.000 
#
# Total GULP energy -297514.330876 kJ/mol
# GULP energy per Si atom -12396.430453 kJ/mol
# Density = 2.097548 g / cm^3
# Si number density = 21.023333 Si / 1000 Ang^3
#
#
#
# Elastic Constant Matrix: (Units=GPa)
#
#
# Indices 1 2 3 4 5 6 
#
# 1 86.0233 12.1925 44.6028 0.0000 19.0728 0.0000
# 2 12.1925 96.9546 30.5604 0.0000 0.6206 0.0000
# 3 44.6028 30.5604 142.0597 0.0000 -0.5056 0.0000
# 4 0.0000 0.0000 0.0000 27.7840 0.0000 -1.2794
# 5 19.0728 0.6206 -0.5056 0.0000 29.7859 0.0000
# 6 0.0000 0.0000 0.0000 -1.2794 0.0000 13.6051
#
#
#
# Elastic Compliance Matrix: (Units=1/GPa)
#
#
# Indices 1 2 3 4 5 6 
#
# 1 0.016792 -0.000395 -0.005226 0.000000 -0.010833 0.000000
# 2 -0.000395 0.011076 -0.002259 0.000000 -0.000016 0.000000
# 3 -0.005226 -0.002259 0.009179 0.000000 0.003549 0.000000
# 4 0.000000 0.000000 0.000000 0.036148 0.000000 0.003399
# 5 -0.010833 -0.000016 0.003549 0.000000 0.040570 0.000000
# 6 0.000000 0.000000 0.000000 0.003399 0.000000 0.073821
#
#
# Mechanical properties :
#
#
# Convention : Reuss Voigt Hill
#
# Bulk Modulus (GPa) = 46.97634 55.52766 51.25200
# Shear Modulus (GPa) = 23.75956 30.08047 26.92001
#
# Velocity S-wave (km/s) = 3.36542 3.78671 3.58227
# Velocity P-wave (km/s) = 6.12330 6.75194 6.44529
#
# Compressibility (1/GPa) = 0.02128731
#
# Stress axis : x y z
#
# Youngs Moduli (GPa) = 59.55151 90.28661 108.94926
#
# Poissons Ratio (x) = 0.03568 0.56935
# Poissons Ratio (y) = 0.02353 0.24608
# Poissons Ratio (z) = 0.31121 0.20393
#
# Static dielectric constant tensor:
#      x y z
#    x 3.591880 0.000000 -0.055400 
#    y 0.000000 4.006720 0.000000 
#    z -0.055400 0.000000 4.100320 
# 
# 
# High freq. dielectric constant tensor:
#      x y z
#    x 1.788100 0.000000 -0.008360 
#    y 0.000000 1.827920 0.000000 
#    z -0.008360 0.000000 1.841310 
# 
# From -- ./inp_files/14201.got.cif
#   From: 2010.06.25/outbox.cif.g09.slc.cpg/sg11_8_cif.got.tgz:14201.got - 2010.06.27 23:14:04.
