data_PCOD8076946
_publ_section_title
;
Structure prediction by ZEFSAII (Michael W. Deem and Ramdas Pophale) SiO2 
 PCOD8076946
Probable space group: P 21/M
;
_chemical_formula_sum "Si O2"
_cell_formula_units_Z 24
_cell_length_a 5.210194
_cell_length_b 19.098302
_cell_length_c 12.419135
_cell_angle_alpha 90.000000
_cell_angle_beta 65.361019
_cell_angle_gamma 90.000000
_cell_volume 1123.262538
_symmetry_space_group_name_H-M "P 21/M"
_symmetry_group_IT_number 11
_symmetry_cell_setting 'monoclinic'
loop_
_space_group_symop_operation_xyz
x,y,z
-x,1/2+y,-z
-x,-y,-z
x,1/2-y,z
loop_
_atom_site_type_symbol
_atom_site_label
_atom_site_fract_x
_atom_site_fract_y
_atom_site_fract_z
Si Si1 0.248250 0.542743 0.165159
Si Si2 0.240181 0.914294 0.543340
Si Si3 0.106767 0.389590 0.197720
Si Si4 0.628074 0.750000 0.875762
Si Si5 0.973378 0.750000 0.032411
Si Si6 0.141583 0.076912 0.576131
Si Si7 0.122174 0.100877 0.948359
O O1 0.282138 0.461040 0.189258
O O2 0.557941 0.574652 0.107816
O O3 0.052884 0.583261 0.284393
O O4 0.092702 0.549046 0.076086
O O5 0.554194 0.886150 0.459803
O O6 0.166570 0.889458 0.677186
O O7 0.020297 0.884281 0.493544
O O8 0.218273 0.997485 0.534421
O O9 0.295218 0.322317 0.199119
O O10 0.009697 0.389170 0.089999
O O11 0.305745 0.750000 0.960811
O O12 0.817006 0.750000 0.947445
O O13 0.887888 0.677763 0.108011
#
# Coordination Sequence:
#
# PCOD8076946 Si02
#       7
#     4   4   4   2   2   4   4
#     4  11  22  35  59  88 118 147 189 238 281 336
#     4   9  18  32  54  76 108 143 184 227 267 330
#     4  10  22  37  58  87 117 149 189 238 289 337
#     4  10  22  38  56  79 116 155 188 226 285 346
#     4  10  22  40  56  77 114 157 192 220 279 362
#     4   9  18  33  51  79 107 145 183 222 275 323
#     4  11  22  37  58  85 115 148 186 236 292 339
#
# _framework density 21.366333999999998
#
# number of rings (size 3 to 8) (size 9 to 14) (size 15 to 20)
#    0.000    2.000    0.000    4.000    0.000   10.667 
#    0.000    0.000    0.000    6.000    0.000    0.000 
#    0.000    0.000    0.000    0.000    0.000    0.000 
#
# Total GULP energy -297435.148662 kJ/mol
# GULP energy per Si atom -12393.131194 kJ/mol
# Density = 2.131770 g / cm^3
# Si number density = 21.366334 Si / 1000 Ang^3
#
#
#
# Elastic Constant Matrix: (Units=GPa)
#
#
# Indices 1 2 3 4 5 6 
#
# 1 177.9847 39.9209 58.1467 0.0000 -21.9163 0.0000
# 2 39.9209 99.0340 35.1032 0.0000 -14.3857 0.0000
# 3 58.1467 35.1032 121.6040 0.0000 -7.5450 0.0000
# 4 0.0000 0.0000 0.0000 4.6247 0.0000 -4.5419
# 5 -21.9163 -14.3857 -7.5450 0.0000 29.5214 0.0000
# 6 0.0000 0.0000 0.0000 -4.5419 0.0000 16.9744
#
#
#
# Elastic Compliance Matrix: (Units=1/GPa)
#
#
# Indices 1 2 3 4 5 6 
#
# 1 0.007364 -0.001358 -0.002877 0.000000 0.004070 0.000000
# 2 -0.001358 0.012188 -0.002604 0.000000 0.004266 0.000000
# 3 -0.002877 -0.002604 0.010303 0.000000 -0.000772 0.000000
# 4 0.000000 0.000000 0.000000 0.293303 0.000000 0.078480
# 5 0.004070 0.004266 -0.000772 0.000000 0.038777 0.000000
# 6 0.000000 0.000000 0.000000 0.078480 0.000000 0.079911
#
#
# Mechanical properties :
#
#
# Convention : Reuss Voigt Hill
#
# Bulk Modulus (GPa) = 61.81596 73.88492 67.85044
# Shear Modulus (GPa) = 10.84798 27.92091 19.38444
#
# Velocity S-wave (km/s) = 2.25569 3.61885 3.01531
# Velocity P-wave (km/s) = 5.98151 7.21918 6.62929
#
# Compressibility (1/GPa) = 0.01617705
#
# Stress axis : x y z
#
# Youngs Moduli (GPa) = 135.79665 82.05120 97.05992
#
# Poissons Ratio (x) = 0.11139 0.27922
# Poissons Ratio (y) = 0.18435 0.25278
# Poissons Ratio (z) = 0.39066 0.21369
#
# Static dielectric constant tensor:
#      x y z
#    x 3.941350 0.000000 -0.009660 
#    y 0.000000 4.415730 0.000000 
#    z -0.009660 0.000000 3.785340 
# 
# 
# High freq. dielectric constant tensor:
#      x y z
#    x 1.844660 0.000000 -0.008020 
#    y 0.000000 1.812030 0.000000 
#    z -0.008020 0.000000 1.824230 
# 
# From -- ./inp_files/29865.got.cif
#   From: 2010.06.25/outbox.cif.g09.slc.cpg/sg11_15_cif.got.tgz:29865.got - 2010.06.27 23:14:04.
