data_PCOD8076045
_publ_section_title
;
Structure prediction by ZEFSAII (Michael W. Deem and Ramdas Pophale) SiO2 
 PCOD8076045
Probable space group: P 21/M
;
_chemical_formula_sum "Si O2"
_cell_formula_units_Z 28
_cell_length_a 14.371985
_cell_length_b 9.156877
_cell_length_c 19.524231
_cell_angle_alpha 90.000000
_cell_angle_beta 147.229935
_cell_angle_gamma 90.000000
_cell_volume 1390.756838
_symmetry_space_group_name_H-M "P 21/M"
_symmetry_group_IT_number 11
_symmetry_cell_setting 'monoclinic'
loop_
_space_group_symop_operation_xyz
x,y,z
-x,1/2+y,-z
-x,-y,-z
x,1/2-y,z
loop_
_atom_site_type_symbol
_atom_site_label
_atom_site_fract_x
_atom_site_fract_y
_atom_site_fract_z
Si Si1 0.388743 0.078610 0.779452
Si Si2 0.884105 0.585625 0.272138
Si Si3 0.281852 0.082679 0.045873
Si Si4 0.336862 0.081975 0.368193
Si Si5 0.027056 0.582255 0.804084
Si Si6 0.173984 0.417554 0.126457
Si Si7 0.139361 0.583449 0.542771
O O1 0.401074 0.250000 0.773990
O O2 0.267205 0.041664 0.768798
O O3 0.575089 0.009664 0.906698
O O4 0.317497 0.001254 0.665893
O O5 0.851166 0.750000 0.224714
O O6 0.884964 0.472497 0.211090
O O7 0.073502 0.578703 0.424013
O O8 0.291553 0.250000 0.027673
O O9 0.301150 0.070684 0.139897
O O10 0.099395 0.012916 0.911794
O O11 0.390650 0.250000 0.393403
O O12 0.275858 0.019801 0.255920
O O13 0.178907 0.062952 0.323581
O O14 0.500000 0.000000 0.500000
O O15 0.079039 0.750000 0.846766
O O16 0.122889 0.250000 0.110283
O O17 0.000000 0.500000 0.000000
O O18 0.157435 0.750000 0.579521
O O19 0.000000 0.500000 0.500000
#
# Coordination Sequence:
#
# PCOD8076045 Si02
#       7
#     4   4   4   4   4   4   4
#     4  10  21  37  57  84 119 157 199 250 299 351
#     4   9  20  37  57  82 116 159 200 241 297 357
#     4  11  23  38  61  89 116 155 202 248 303 364
#     4  10  23  42  63  92 126 157 198 249 304 366
#     4  11  23  39  60  86 118 156 199 249 303 361
#     4  10  21  40  65  90 119 156 200 248 303 365
#     4   9  17  32  54  79 110 149 194 243 294 351
#
# _framework density 20.132923000000002
#
# number of rings (size 3 to 8) (size 9 to 14) (size 15 to 20)
#    0.000    2.000    1.429    2.571    0.000    7.429 
#    0.000    4.286    0.000    0.000    0.000    0.000 
#    0.000    0.000    0.000    0.000    0.000    0.000 
#
# Total GULP energy -347099.623835 kJ/mol
# GULP energy per Si atom -12396.415137 kJ/mol
# Density = 2.008710 g / cm^3
# Si number density = 20.132923 Si / 1000 Ang^3
#
#
#
# Elastic Constant Matrix: (Units=GPa)
#
#
# Indices 1 2 3 4 5 6 
#
# 1 88.0106 49.8296 42.3543 0.0000 -4.8852 0.0000
# 2 49.8296 129.7210 60.3959 0.0000 0.5904 0.0000
# 3 42.3543 60.3959 124.4873 0.0000 -2.2112 0.0000
# 4 0.0000 0.0000 0.0000 42.6072 0.0000 0.3541
# 5 -4.8852 0.5904 -2.2112 0.0000 28.7931 0.0000
# 6 0.0000 0.0000 0.0000 0.3541 0.0000 24.9839
#
#
#
# Elastic Compliance Matrix: (Units=1/GPa)
#
#
# Indices 1 2 3 4 5 6 
#
# 1 0.015547 -0.004575 -0.003026 0.000000 0.002499 0.000000
# 2 -0.004575 0.011314 -0.003956 0.000000 -0.001312 0.000000
# 3 -0.003026 -0.003956 0.010989 0.000000 0.000412 0.000000
# 4 0.000000 0.000000 0.000000 0.023473 0.000000 -0.000333
# 5 0.002499 -0.001312 0.000412 0.000000 0.035213 0.000000
# 6 0.000000 0.000000 0.000000 -0.000333 0.000000 0.040030
#
#
# Mechanical properties :
#
#
# Convention : Reuss Voigt Hill
#
# Bulk Modulus (GPa) = 67.85503 71.93093 69.89298
# Shear Modulus (GPa) = 30.37819 31.91946 31.14883
#
# Velocity S-wave (km/s) = 3.88865 3.98607 3.93766
# Velocity P-wave (km/s) = 7.34430 7.54921 7.44746
#
# Compressibility (1/GPa) = 0.01473730
#
# Stress axis : x y z
#
# Youngs Moduli (GPa) = 64.32008 88.38679 91.00072
#
# Poissons Ratio (x) = 0.40435 0.27535
# Poissons Ratio (y) = 0.29425 0.35999
# Poissons Ratio (z) = 0.19462 0.34964
#
# Static dielectric constant tensor:
#      x y z
#    x 3.537050 0.000000 -0.110580 
#    y 0.000000 3.764150 0.000000 
#    z -0.110580 0.000000 3.792470 
# 
# 
# High freq. dielectric constant tensor:
#      x y z
#    x 1.773660 0.000000 -0.002130 
#    y 0.000000 1.790850 0.000000 
#    z -0.002130 0.000000 1.786440 
# 
# From -- ./inp_files/65472.got.cif
#   From: 2010.06.25/outbox.cif.g09.slc.cpg/sg11_33_cif.got.tgz:65472.got - 2010.06.27 23:14:04.
