data_PCOD8076048
_publ_section_title
;
Structure prediction by ZEFSAII (Michael W. Deem and Ramdas Pophale) SiO2 
 PCOD8076048
Probable space group: P 21/M
;
_chemical_formula_sum "Si O2"
_cell_formula_units_Z 28
_cell_length_a 11.013661
_cell_length_b 8.814009
_cell_length_c 15.274768
_cell_angle_alpha 90.000000
_cell_angle_beta 113.813539
_cell_angle_gamma 90.000000
_cell_volume 1356.552139
_symmetry_space_group_name_H-M "P 21/M"
_symmetry_group_IT_number 11
_symmetry_cell_setting 'monoclinic'
loop_
_space_group_symop_operation_xyz
x,y,z
-x,1/2+y,-z
-x,-y,-z
x,1/2-y,z
loop_
_atom_site_type_symbol
_atom_site_label
_atom_site_fract_x
_atom_site_fract_y
_atom_site_fract_z
Si Si1 0.292492 0.916143 0.931441
Si Si2 0.999757 0.583462 0.908677
Si Si3 0.220312 0.929461 0.246526
Si Si4 0.852891 0.569567 0.453027
Si Si5 0.352290 0.070168 0.453395
Si Si6 0.310085 0.428257 0.757201
Si Si7 0.400213 0.570091 0.140716
O O1 0.349304 0.750000 0.919724
O O2 0.149448 0.890728 0.928243
O O3 0.275455 0.026475 0.845137
O O4 0.379734 0.992954 0.035411
O O5 0.931444 0.750000 0.896557
O O6 0.930365 0.483543 0.811881
O O7 0.000000 0.500000 0.000000
O O8 0.229887 0.750000 0.266247
O O9 0.290806 0.984356 0.177505
O O10 0.285211 0.017632 0.344866
O O11 0.868403 0.750000 0.459358
O O12 0.749278 0.517531 0.498889
O O13 0.790869 0.505553 0.344175
O O14 0.000000 0.500000 0.500000
O O15 0.369427 0.250000 0.461364
O O16 0.500000 0.000000 0.500000
O O17 0.303679 0.250000 0.747234
O O18 0.459015 0.486004 0.780513
O O19 0.393475 0.750000 0.130428
#
# Coordination Sequence:
#
# PCOD8076048 Si02
#       7
#     4   4   4   4   4   4   4
#     4  10  21  37  57  84 120 159 195 240 300 359
#     4  11  22  38  58  86 123 161 204 252 305 368
#     4  11  22  39  64  91 123 164 204 251 311 371
#     4  10  24  44  64  89 124 165 211 264 321 378
#     4  11  24  44  68  97 128 164 212 268 325 384
#     4  10  21  38  61  86 113 152 202 247 296 364
#     4   9  18  37  60  85 121 159 192 238 304 363
#
# _framework density 20.640563
#
# number of rings (size 3 to 8) (size 9 to 14) (size 15 to 20)
#    0.000    1.714    1.429    2.571    2.000    5.143 
#    0.000    2.857    0.000    0.000    0.000    0.000 
#    0.000    0.000    0.000    0.000    0.000    0.000 
#
# Total GULP energy -347017.989893 kJ/mol
# GULP energy per Si atom -12393.499639 kJ/mol
# Density = 2.059358 g / cm^3
# Si number density = 20.640563 Si / 1000 Ang^3
#
#
#
# Elastic Constant Matrix: (Units=GPa)
#
#
# Indices 1 2 3 4 5 6 
#
# 1 89.5591 31.5994 49.2109 0.0000 7.4209 0.0000
# 2 31.5994 49.0787 26.4239 0.0000 5.0999 0.0000
# 3 49.2109 26.4239 175.5374 0.0000 14.3364 0.0000
# 4 0.0000 0.0000 0.0000 34.7172 0.0000 1.0010
# 5 7.4209 5.0999 14.3364 0.0000 38.8969 0.0000
# 6 0.0000 0.0000 0.0000 1.0010 0.0000 28.5403
#
#
#
# Elastic Compliance Matrix: (Units=1/GPa)
#
#
# Indices 1 2 3 4 5 6 
#
# 1 0.015949 -0.008504 -0.003128 0.000000 -0.000775 0.000000
# 2 -0.008504 0.026821 -0.001545 0.000000 -0.001325 0.000000
# 3 -0.003128 -0.001545 0.006950 0.000000 -0.001762 0.000000
# 4 0.000000 0.000000 0.000000 0.028833 0.000000 -0.001011
# 5 -0.000775 -0.001325 -0.001762 0.000000 0.026680 0.000000
# 6 0.000000 0.000000 0.000000 -0.001011 0.000000 0.035074
#
#
# Mechanical properties :
#
#
# Convention : Reuss Voigt Hill
#
# Bulk Modulus (GPa) = 42.79816 58.73820 50.76818
# Shear Modulus (GPa) = 28.66147 34.22694 31.44420
#
# Velocity S-wave (km/s) = 3.73043 4.07656 3.90733
# Velocity P-wave (km/s) = 6.27175 7.11880 6.70865
#
# Compressibility (1/GPa) = 0.02336549
#
# Stress axis : x y z
#
# Youngs Moduli (GPa) = 62.69838 37.28484 143.88155
#
# Poissons Ratio (x) = 0.31709 0.45004
# Poissons Ratio (y) = 0.53322 0.22229
# Poissons Ratio (z) = 0.19611 0.05760
#
# Static dielectric constant tensor:
#      x y z
#    x 3.028460 0.000000 0.608820 
#    y 0.000000 2.435350 0.000000 
#    z 0.608820 0.000000 3.998990 
# 
# 
# High freq. dielectric constant tensor:
#      x y z
#    x 1.812540 0.000000 0.009310 
#    y 0.000000 1.791700 0.000000 
#    z 0.009310 0.000000 1.824790 
# 
# From -- ./inp_files/37917.got.cif
#   From: 2010.06.25/outbox.cif.g09.slc.cpg/sg11_19_cif.got.tgz:37917.got - 2010.06.27 23:14:04.
