data_PCOD8076212
_publ_section_title
;
Structure prediction by ZEFSAII (Michael W. Deem and Ramdas Pophale) SiO2 
 PCOD8076212
Probable space group: P 21/M
;
_chemical_formula_sum "Si O2"
_cell_formula_units_Z 32
_cell_length_a 9.360112
_cell_length_b 13.705644
_cell_length_c 24.296425
_cell_angle_alpha 90.000000
_cell_angle_beta 151.186611
_cell_angle_gamma 90.000000
_cell_volume 1502.216253
_symmetry_space_group_name_H-M "P 21/M"
_symmetry_group_IT_number 11
_symmetry_cell_setting 'monoclinic'
loop_
_space_group_symop_operation_xyz
x,y,z
-x,1/2+y,-z
-x,-y,-z
x,1/2-y,z
loop_
_atom_site_type_symbol
_atom_site_label
_atom_site_fract_x
_atom_site_fract_y
_atom_site_fract_z
Si Si1 0.787513 0.457016 0.651298
Si Si2 0.852302 0.642959 0.317960
Si Si3 0.764087 0.558176 0.991699
Si Si4 0.877265 0.361358 0.245312
Si Si5 0.213560 0.861725 0.057712
Si Si6 0.801268 0.645983 0.541379
Si Si7 0.181818 0.404365 0.571424
Si Si8 0.844868 0.365522 0.782446
O O1 0.433857 0.440733 0.525707
O O2 0.913914 0.386298 0.741789
O O3 0.956296 0.434071 0.651383
O O4 0.856401 0.570678 0.689201
O O5 0.931399 0.750000 0.322358
O O6 0.503839 0.621501 0.192828
O O7 0.929690 0.640549 0.408956
O O8 0.931965 0.617392 0.000826
O O9 0.893481 0.586017 0.094495
O O10 0.427760 0.592822 0.877139
O O11 0.784061 0.440578 0.991032
O O12 0.909894 0.250000 0.234911
O O13 0.907235 0.367533 0.322279
O O14 0.195683 0.750000 0.029016
O O15 0.650742 0.750000 0.506953
O O16 0.892746 0.657677 0.508402
O O17 0.536952 0.418591 0.694370
O O18 0.000000 0.500000 0.500000
O O19 0.821770 0.250000 0.786069
#
# Coordination Sequence:
#
# PCOD8076212 Si02
#       8
#     4   4   4   4   4   4   4   4
#     4  11  22  40  63  91 123 165 213 265 314 372
#     4  11  20  37  63  96 126 157 210 267 313 368
#     4  11  22  40  65  91 129 171 213 255 320 378
#     4  11  23  39  60  89 126 166 211 259 323 388
#     4  10  21  37  63  94 127 164 212 265 313 368
#     4  10  22  41  63  89 124 166 210 260 317 385
#     4  11  22  35  61  92 126 160 206 258 313 362
#     4  11  23  43  67  93 126 171 217 257 312 386
#
# _framework density 21.301859
#
# number of rings (size 3 to 8) (size 9 to 14) (size 15 to 20)
#    0.000    1.250    2.500    5.250    0.000    1.500 
#    0.000    0.625    0.000    7.500    0.000    0.000 
#    0.000    0.000    0.000    0.000    0.000    0.000 
#
# Total GULP energy -396608.544232 kJ/mol
# GULP energy per Si atom -12394.017007 kJ/mol
# Density = 2.125337 g / cm^3
# Si number density = 21.301859 Si / 1000 Ang^3
#
#
#
# Elastic Constant Matrix: (Units=GPa)
#
#
# Indices 1 2 3 4 5 6 
#
# 1 75.2334 29.1007 21.1856 0.0000 -5.0753 0.0000
# 2 29.1007 146.8667 42.2383 0.0000 11.1396 0.0000
# 3 21.1856 42.2383 113.9521 0.0000 -10.7498 0.0000
# 4 0.0000 0.0000 0.0000 30.5407 0.0000 1.3673
# 5 -5.0753 11.1396 -10.7498 0.0000 25.8865 0.0000
# 6 0.0000 0.0000 0.0000 1.3673 0.0000 27.2110
#
#
#
# Elastic Compliance Matrix: (Units=1/GPa)
#
#
# Indices 1 2 3 4 5 6 
#
# 1 0.015030 -0.002848 -0.001400 0.000000 0.003591 0.000000
# 2 -0.002848 0.008735 -0.003243 0.000000 -0.005664 0.000000
# 3 -0.001400 -0.003243 0.010765 0.000000 0.005591 0.000000
# 4 0.000000 0.000000 0.000000 0.032817 0.000000 -0.001649
# 5 0.003591 -0.005664 0.005591 0.000000 0.044093 0.000000
# 6 0.000000 0.000000 0.000000 -0.001649 0.000000 0.036833
#
#
# Mechanical properties :
#
#
# Convention : Reuss Voigt Hill
#
# Bulk Modulus (GPa) = 51.15201 57.90015 54.52608
# Shear Modulus (GPa) = 29.45134 32.96282 31.20708
#
# Velocity S-wave (km/s) = 3.72233 3.93799 3.83168
# Velocity P-wave (km/s) = 6.52222 6.92220 6.72518
#
# Compressibility (1/GPa) = 0.01954957
#
# Stress axis : x y z
#
# Youngs Moduli (GPa) = 66.53357 114.47687 92.89050
#
# Poissons Ratio (x) = 0.32601 0.13004
# Poissons Ratio (y) = 0.18948 0.30122
# Poissons Ratio (z) = 0.09315 0.37122
#
# Static dielectric constant tensor:
#      x y z
#    x 7.801250 0.000000 -1.930870 
#    y 0.000000 4.234210 0.000000 
#    z -1.930870 0.000000 4.640450 
# 
# 
# High freq. dielectric constant tensor:
#      x y z
#    x 1.810150 0.000000 -0.010650 
#    y 0.000000 1.849630 0.000000 
#    z -0.010650 0.000000 1.837720 
# 
# From -- ./inp_files/68154.got.cif
#   From: 2010.06.25/outbox.cif.g09.slc.cpg/sg11_35_cif.got.tgz:68154.got - 2010.06.27 23:14:04.
