data_PCOD8076564
_publ_section_title
;
Structure prediction by ZEFSAII (Michael W. Deem and Ramdas Pophale) SiO2 
 PCOD8076564
Probable space group: P 21/M
;
_chemical_formula_sum "Si O2"
_cell_formula_units_Z 28
_cell_length_a 12.532742
_cell_length_b 8.982910
_cell_length_c 17.197300
_cell_angle_alpha 90.000000
_cell_angle_beta 133.235568
_cell_angle_gamma 90.000000
_cell_volume 1410.518945
_symmetry_space_group_name_H-M "P 21/M"
_symmetry_group_IT_number 11
_symmetry_cell_setting 'monoclinic'
loop_
_space_group_symop_operation_xyz
x,y,z
-x,1/2+y,-z
-x,-y,-z
x,1/2-y,z
loop_
_atom_site_type_symbol
_atom_site_label
_atom_site_fract_x
_atom_site_fract_y
_atom_site_fract_z
Si Si1 0.639196 0.421647 0.741614
Si Si2 0.844258 0.074143 0.426307
Si Si3 0.643430 0.925921 0.908830
Si Si4 0.678363 0.920479 0.478225
Si Si5 0.825218 0.577915 0.711999
Si Si6 0.837487 0.075375 0.125177
Si Si7 0.331553 0.925859 0.809295
O O1 0.664578 0.250000 0.775265
O O2 0.625587 0.513065 0.813642
O O3 0.494305 0.446036 0.617708
O O4 0.776663 0.479929 0.761009
O O5 0.862002 0.250000 0.431510
O O6 0.750722 0.010850 0.307438
O O7 0.764818 0.030685 0.465715
O O8 0.000000 0.000000 0.500000
O O9 0.659733 0.750000 0.911515
O O10 0.501362 0.973344 0.888800
O O11 0.785875 0.994335 0.020906
O O12 0.722525 0.750000 0.481295
O O13 0.723454 0.962293 0.588101
O O14 0.808535 0.750000 0.726878
O O15 0.992809 0.539202 0.775136
O O16 0.810240 0.250000 0.101190
O O17 0.744215 0.009257 0.150979
O O18 0.314624 0.750000 0.801374
#
# Coordination Sequence:
#
# PCOD8076564 Si02
#       7
#     4   4   4   4   4   4   4
#     4  11  23  39  62  90 120 153 200 251 294 351
#     4  11  21  35  57  87 123 161 197 238 291 353
#     4  11  22  39  62  88 118 155 199 243 296 357
#     4  10  21  39  61  88 119 155 197 244 297 355
#     4  10  22  40  62  86 120 160 197 242 301 360
#     4  10  21  39  61  86 117 155 197 244 296 349
#     4   9  19  37  60  85 117 155 194 238 294 355
#
# _framework density 19.850850000000001
#
# number of rings (size 3 to 8) (size 9 to 14) (size 15 to 20)
#    0.000    1.714    1.429    3.000    0.000    4.571 
#    0.000    3.571    0.000    0.000    0.000    0.000 
#    0.000    0.000    0.000    0.000    0.000    0.000 
#
# Total GULP energy -347321.583034 kJ/mol
# GULP energy per Si atom -12404.342251 kJ/mol
# Density = 1.980567 g / cm^3
# Si number density = 19.850850 Si / 1000 Ang^3
#
#
#
# Elastic Constant Matrix: (Units=GPa)
#
#
# Indices 1 2 3 4 5 6 
#
# 1 113.0868 44.3340 41.6826 0.0000 -11.0831 0.0000
# 2 44.3340 70.6423 39.0714 0.0000 -0.8505 0.0000
# 3 41.6826 39.0714 110.3562 0.0000 0.4985 0.0000
# 4 0.0000 0.0000 0.0000 28.6573 0.0000 -3.8075
# 5 -11.0831 -0.8505 0.4985 0.0000 23.2559 0.0000
# 6 0.0000 0.0000 0.0000 -3.8075 0.0000 32.7731
#
#
#
# Elastic Compliance Matrix: (Units=1/GPa)
#
#
# Indices 1 2 3 4 5 6 
#
# 1 0.012990 -0.006654 -0.002578 0.000000 0.006002 0.000000
# 2 -0.006654 0.021026 -0.004920 0.000000 -0.002297 0.000000
# 3 -0.002578 -0.004920 0.011785 0.000000 -0.001661 0.000000
# 4 0.000000 0.000000 0.000000 0.035442 0.000000 0.004118
# 5 0.006002 -0.002297 -0.001661 0.000000 0.045812 0.000000
# 6 0.000000 0.000000 0.000000 0.004118 0.000000 0.030991
#
#
# Mechanical properties :
#
#
# Convention : Reuss Voigt Hill
#
# Bulk Modulus (GPa) = 57.15662 60.47346 58.81504
# Shear Modulus (GPa) = 26.01701 28.20375 27.11038
#
# Velocity S-wave (km/s) = 3.62418 3.77342 3.69955
# Velocity P-wave (km/s) = 6.80944 7.03669 6.92400
#
# Compressibility (1/GPa) = 0.01749579
#
# Stress axis : x y z
#
# Youngs Moduli (GPa) = 76.98338 47.56086 84.85610
#
# Poissons Ratio (x) = 0.31649 0.21872
# Poissons Ratio (y) = 0.51227 0.41752
# Poissons Ratio (z) = 0.19843 0.23401
#
# Static dielectric constant tensor:
#      x y z
#    x 3.289110 0.000000 0.095860 
#    y 0.000000 3.450910 0.000000 
#    z 0.095860 0.000000 3.684600 
# 
# 
# High freq. dielectric constant tensor:
#      x y z
#    x 1.780250 0.000000 0.001260 
#    y 0.000000 1.760870 0.000000 
#    z 0.001260 0.000000 1.784140 
# 
# From -- ./inp_files/49456.got.cif
#   From: 2010.06.25/outbox.cif.g09.slc.cpg/sg11_25_cif.got.tgz:49456.got - 2010.06.27 23:14:04.
