data_PCOD8076238
_publ_section_title
;
Structure prediction by ZEFSAII (Michael W. Deem and Ramdas Pophale) SiO2 
 PCOD8076238
Probable space group: P 21/M
;
_chemical_formula_sum "Si O2"
_cell_formula_units_Z 24
_cell_length_a 15.259420
_cell_length_b 9.299867
_cell_length_c 17.462694
_cell_angle_alpha 90.000000
_cell_angle_beta 149.270603
_cell_angle_gamma 90.000000
_cell_volume 1266.290434
_symmetry_space_group_name_H-M "P 21/M"
_symmetry_group_IT_number 11
_symmetry_cell_setting 'monoclinic'
loop_
_space_group_symop_operation_xyz
x,y,z
-x,1/2+y,-z
-x,-y,-z
x,1/2-y,z
loop_
_atom_site_type_symbol
_atom_site_label
_atom_site_fract_x
_atom_site_fract_y
_atom_site_fract_z
Si Si1 0.866189 0.915677 0.348364
Si Si2 0.668396 0.582040 0.849422
Si Si3 0.366027 0.086467 0.691860
Si Si4 0.998196 0.917802 0.850148
Si Si5 0.975451 0.916598 0.655762
Si Si6 0.359029 0.416374 0.347190
O O1 0.921678 0.750000 0.382087
O O2 0.684120 0.927638 0.255654
O O3 0.871079 0.990705 0.268461
O O4 0.000000 0.000000 0.500000
O O5 0.685768 0.750000 0.879170
O O6 0.524917 0.517649 0.797341
O O7 0.614157 0.550591 0.721765
O O8 0.849081 0.509553 0.000939
O O9 0.421080 0.250000 0.714612
O O10 0.207669 0.041474 0.518393
O O11 0.038661 0.750000 0.892322
O O12 0.970709 0.955662 0.740884
O O13 0.829529 0.966562 0.769066
O O14 0.016026 0.750000 0.671287
O O15 0.500000 0.500000 0.500000
O O16 0.382767 0.250000 0.384606
#
# Coordination Sequence:
#
# PCOD8076238 Si02
#       6
#     4   4   4   4   4   4
#     4   9  17  30  51  78 107 139 176 220 268 314
#     4  11  23  36  53  81 111 139 177 222 263 307
#     4   9  18  34  55  78 106 142 179 215 264 322
#     4  10  21  38  57  77 108 147 178 210 263 325
#     4   9  18  33  55  81 105 136 181 224 263 313
#     4  10  22  39  59  83 108 137 176 219 263 313
#
# _framework density 18.952998999999998
#
# number of rings (size 3 to 8) (size 9 to 14) (size 15 to 20)
#    0.000    2.333    0.000    3.500    0.000    7.333 
#    0.000    0.833    0.000    0.000    0.000    0.000 
#    0.000    0.000    0.000    0.000    0.000    0.000 
#
# Total GULP energy -297597.883465 kJ/mol
# GULP energy per Si atom -12399.911811 kJ/mol
# Density = 1.890986 g / cm^3
# Si number density = 18.952999 Si / 1000 Ang^3
#
#
#
# Elastic Constant Matrix: (Units=GPa)
#
#
# Indices 1 2 3 4 5 6 
#
# 1 94.5470 51.3568 22.2248 0.0000 25.8327 0.0000
# 2 51.3568 91.0316 46.1996 0.0000 16.8634 0.0000
# 3 22.2248 46.1996 79.2088 0.0000 22.8646 0.0000
# 4 0.0000 0.0000 0.0000 33.3272 0.0000 3.0139
# 5 25.8327 16.8634 22.8646 0.0000 20.8128 0.0000
# 6 0.0000 0.0000 0.0000 3.0139 0.0000 32.3075
#
#
#
# Elastic Compliance Matrix: (Units=1/GPa)
#
#
# Indices 1 2 3 4 5 6 
#
# 1 0.022753 -0.012086 0.008772 0.000000 -0.028086 0.000000
# 2 -0.012086 0.022240 -0.012754 0.000000 0.010992 0.000000
# 3 0.008772 -0.012754 0.026011 0.000000 -0.029130 0.000000
# 4 0.000000 0.000000 0.000000 0.030261 0.000000 -0.002823
# 5 -0.028086 0.010992 -0.029130 0.000000 0.106003 0.000000
# 6 0.000000 0.000000 0.000000 -0.002823 0.000000 0.031216
#
#
# Mechanical properties :
#
#
# Convention : Reuss Voigt Hill
#
# Bulk Modulus (GPa) = 25.72687 56.03886 40.88287
# Shear Modulus (GPa) = 17.63205 26.95657 22.29431
#
# Velocity S-wave (km/s) = 3.05340 3.77541 3.43344
# Velocity P-wave (km/s) = 5.10240 6.97398 6.11028
#
# Compressibility (1/GPa) = 0.03886986
#
# Stress axis : x y z
#
# Youngs Moduli (GPa) = 43.94958 44.96405 38.44551
#
# Poissons Ratio (x) = 0.54343 -0.33726
# Poissons Ratio (y) = 0.53117 0.49032
# Poissons Ratio (z) = -0.38554 0.57346
#
# Static dielectric constant tensor:
#      x y z
#    x 4.022180 0.000000 0.016690 
#    y 0.000000 3.572940 0.000000 
#    z 0.016690 0.000000 3.204570 
# 
# 
# High freq. dielectric constant tensor:
#      x y z
#    x 1.755620 0.000000 0.002950 
#    y 0.000000 1.738730 0.000000 
#    z 0.002950 0.000000 1.710980 
# 
# From -- ./inp_files/20540.got.cif
#   From: 2010.06.25/outbox.cif.g09.slc.cpg/sg11_11_cif.got.tgz:20540.got - 2010.06.27 23:14:04.
