data_PCOD8076063
_publ_section_title
;
Structure prediction by ZEFSAII (Michael W. Deem and Ramdas Pophale) SiO2 
 PCOD8076063
Probable space group: P 21/M
;
_chemical_formula_sum "Si O2"
_cell_formula_units_Z 24
_cell_length_a 8.844877
_cell_length_b 18.064340
_cell_length_c 15.279010
_cell_angle_alpha 90.000000
_cell_angle_beta 32.303724
_cell_angle_gamma 90.000000
_cell_volume 1304.612343
_symmetry_space_group_name_H-M "P 21/M"
_symmetry_group_IT_number 11
_symmetry_cell_setting 'monoclinic'
loop_
_space_group_symop_operation_xyz
x,y,z
-x,1/2+y,-z
-x,-y,-z
x,1/2-y,z
loop_
_atom_site_type_symbol
_atom_site_label
_atom_site_fract_x
_atom_site_fract_y
_atom_site_fract_z
Si Si1 0.699013 0.538188 0.653860
Si Si2 0.351442 0.165695 0.458293
Si Si3 0.631717 0.947559 0.313400
Si Si4 0.025390 0.664555 0.188693
Si Si5 0.578450 0.574163 0.911646
Si Si6 0.810748 0.085902 0.331957
O O1 0.715487 0.613741 0.590687
O O2 0.453812 0.483181 0.737412
O O3 0.613651 0.556070 0.793203
O O4 0.000000 0.500000 0.500000
O O5 0.342774 0.250000 0.429894
O O6 0.120413 0.150135 0.646318
O O7 0.661897 0.148174 0.345194
O O8 0.850976 0.879094 0.197943
O O9 0.341412 0.920136 0.499763
O O10 0.794880 0.006194 0.294121
O O11 0.022444 0.750000 0.163448
O O12 0.344901 0.636918 0.039039
O O13 0.865641 0.608277 0.810839
O O14 0.500000 0.500000 0.000000
#
# Coordination Sequence:
#
# PCOD8076063 Si02
#       6
#     4   4   4   4   4   4
#     4  11  21  35  61  88 112 147 197 244 274 330
#     4   9  20  40  61  80 111 155 192 229 284 343
#     4   9  17  36  57  82 108 147 193 229 273 341
#     4  10  21  37  58  82 117 152 183 231 295 346
#     4  12  22  35  57  90 119 145 187 241 294 336
#     4   9  17  33  60  83 109 145 190 230 274 344
#
# _framework density 18.396267999999999
#
# number of rings (size 3 to 8) (size 9 to 14) (size 15 to 20)
#    0.000    2.000    3.333    2.000    0.000    2.000 
#    0.000    0.833    0.000    1.000    0.000    0.000 
#    0.000    0.000    0.000    0.000    0.000    0.000 
#
# Total GULP energy -297607.063028 kJ/mol
# GULP energy per Si atom -12400.294293 kJ/mol
# Density = 1.835440 g / cm^3
# Si number density = 18.396268 Si / 1000 Ang^3
#
#
#
# Elastic Constant Matrix: (Units=GPa)
#
#
# Indices 1 2 3 4 5 6 
#
# 1 109.9947 59.7219 63.3155 0.0000 -13.3291 0.0000
# 2 59.7219 129.8862 56.5023 0.0000 -8.1839 0.0000
# 3 63.3155 56.5023 100.0423 0.0000 -22.2456 0.0000
# 4 0.0000 0.0000 0.0000 25.8623 0.0000 -6.0436
# 5 -13.3291 -8.1839 -22.2456 0.0000 39.1716 0.0000
# 6 0.0000 0.0000 0.0000 -6.0436 0.0000 24.8655
#
#
#
# Elastic Compliance Matrix: (Units=1/GPa)
#
#
# Indices 1 2 3 4 5 6 
#
# 1 0.015611 -0.003825 -0.007687 0.000000 0.000147 0.000000
# 2 -0.003825 0.011202 -0.004207 0.000000 -0.001350 0.000000
# 3 -0.007687 -0.004207 0.018838 0.000000 0.007204 0.000000
# 4 0.000000 0.000000 0.000000 0.040995 0.000000 0.009964
# 5 0.000147 -0.001350 0.007204 0.000000 0.029388 0.000000
# 6 0.000000 0.000000 0.000000 0.009964 0.000000 0.042638
#
#
# Mechanical properties :
#
#
# Convention : Reuss Voigt Hill
#
# Bulk Modulus (GPa) = 70.34687 77.66696 74.00691
# Shear Modulus (GPa) = 25.66121 28.67210 27.16666
#
# Velocity S-wave (km/s) = 3.73891 3.95217 3.84702
# Velocity P-wave (km/s) = 7.54732 7.94586 7.74915
#
# Compressibility (1/GPa) = 0.01421527
#
# Stress axis : x y z
#
# Youngs Moduli (GPa) = 64.05938 89.26601 53.08316
#
# Poissons Ratio (x) = 0.34140 0.40804
# Poissons Ratio (y) = 0.24500 0.22330
# Poissons Ratio (z) = 0.49242 0.37551
#
# Static dielectric constant tensor:
#      x y z
#    x 3.814530 0.000000 0.106570 
#    y 0.000000 3.422350 0.000000 
#    z 0.106570 0.000000 3.582790 
# 
# 
# High freq. dielectric constant tensor:
#      x y z
#    x 1.711020 0.000000 -0.014270 
#    y 0.000000 1.707250 0.000000 
#    z -0.014270 0.000000 1.708270 
# 
# From -- ./inp_files/13931.got.cif
#   From: 2010.06.25/outbox.cif.g09.slc.cpg/sg11_7_cif.got.tgz:13931.got - 2010.06.27 23:14:04.
