data_PCOD8076623
_publ_section_title
;
Structure prediction by ZEFSAII (Michael W. Deem and Ramdas Pophale) SiO2 
 PCOD8076623
Probable space group: P 21/M
;
_chemical_formula_sum "Si O2"
_cell_formula_units_Z 28
_cell_length_a 14.129243
_cell_length_b 19.660317
_cell_length_c 8.801219
_cell_angle_alpha 90.000000
_cell_angle_beta 33.826493
_cell_angle_gamma 90.000000
_cell_volume 1360.998657
_symmetry_space_group_name_H-M "P 21/M"
_symmetry_group_IT_number 11
_symmetry_cell_setting 'monoclinic'
loop_
_space_group_symop_operation_xyz
x,y,z
-x,1/2+y,-z
-x,-y,-z
x,1/2-y,z
loop_
_atom_site_type_symbol
_atom_site_label
_atom_site_fract_x
_atom_site_fract_y
_atom_site_fract_z
Si Si1 0.112794 0.406567 0.957499
Si Si2 0.382943 0.172034 0.427813
Si Si3 0.666038 0.968318 0.850100
Si Si4 0.265674 0.596777 0.075994
Si Si5 0.009987 0.548654 0.194313
Si Si6 0.712577 0.823904 0.788401
Si Si7 0.971296 0.174397 0.415057
O O1 0.296782 0.378591 0.663364
O O2 0.001470 0.418056 0.955720
O O3 0.113117 0.477362 0.048573
O O4 0.041841 0.347370 0.158590
O O5 0.389140 0.250000 0.478348
O O6 0.280333 0.169512 0.404815
O O7 0.571526 0.142793 0.167704
O O8 0.615249 0.891945 0.976237
O O9 0.826684 0.962721 0.520196
O O10 0.705477 0.016050 0.940241
O O11 0.500000 0.000000 0.000000
O O12 0.129315 0.602341 0.122846
O O13 0.184228 0.624964 0.339670
O O14 0.627228 0.750000 0.943595
O O15 0.895768 0.827684 0.622565
O O16 0.899334 0.250000 0.492850
#
# Coordination Sequence:
#
# PCOD8076623 Si02
#       7
#     4   4   4   4   4   4   4
#     4  11  22  41  61  91 130 166 210 259 322 390
#     4  11  23  41  62  90 128 171 211 257 319 388
#     4  12  20  38  64  96 124 161 212 271 315 369
#     4  12  22  40  66  95 124 163 220 270 304 385
#     4  11  23  39  65  94 125 168 214 263 325 381
#     4  10  21  39  62  90 122 166 214 255 318 385
#     4  11  22  38  64  93 124 166 212 267 321 370
#
# _framework density 20.573128000000001
#
# number of rings (size 3 to 8) (size 9 to 14) (size 15 to 20)
#    0.000    0.857    5.714    2.143    0.000    0.571 
#    0.000    6.429    0.000    0.000    0.000    0.000 
#    0.000    0.000    0.000    0.000    0.000    0.000 
#
# Total GULP energy -346867.341713 kJ/mol
# GULP energy per Si atom -12388.119347 kJ/mol
# Density = 2.052630 g / cm^3
# Si number density = 20.573128 Si / 1000 Ang^3
#
#
#
# Elastic Constant Matrix: (Units=GPa)
#
#
# Indices 1 2 3 4 5 6 
#
# 1 76.1594 35.0572 45.8105 0.0000 -4.0560 0.0000
# 2 35.0572 159.7589 31.7066 0.0000 -12.8708 0.0000
# 3 45.8105 31.7066 87.7348 0.0000 -12.9166 0.0000
# 4 0.0000 0.0000 0.0000 26.7200 0.0000 0.0700
# 5 -4.0560 -12.8708 -12.9166 0.0000 18.7172 0.0000
# 6 0.0000 0.0000 0.0000 0.0700 0.0000 28.0016
#
#
#
# Elastic Compliance Matrix: (Units=1/GPa)
#
#
# Indices 1 2 3 4 5 6 
#
# 1 0.020371 -0.002797 -0.010306 0.000000 -0.004621 0.000000
# 2 -0.002797 0.007314 -0.000592 0.000000 0.004015 0.000000
# 3 -0.010306 -0.000592 0.018482 0.000000 0.010114 0.000000
# 4 0.000000 0.000000 0.000000 0.037425 0.000000 -0.000094
# 5 -0.004621 0.004015 0.010114 0.000000 0.062166 0.000000
# 6 0.000000 0.000000 0.000000 -0.000094 0.000000 0.035712
#
#
# Mechanical properties :
#
#
# Convention : Reuss Voigt Hill
#
# Bulk Modulus (GPa) = 53.25518 60.97794 57.11656
# Shear Modulus (GPa) = 23.24280 28.75968 26.00124
#
# Velocity S-wave (km/s) = 3.36484 3.74294 3.55892
# Velocity P-wave (km/s) = 6.40611 6.95582 6.68661
#
# Compressibility (1/GPa) = 0.01877751
#
# Stress axis : x y z
#
# Youngs Moduli (GPa) = 49.08937 136.72205 54.10612
#
# Poissons Ratio (x) = 0.38242 0.55763
# Poissons Ratio (y) = 0.13731 0.03201
# Poissons Ratio (z) = 0.50592 0.08089
#
# Static dielectric constant tensor:
#      x y z
#    x 3.796620 0.000000 0.058580 
#    y 0.000000 4.443150 0.000000 
#    z 0.058580 0.000000 3.479090 
# 
# 
# High freq. dielectric constant tensor:
#      x y z
#    x 1.803440 0.000000 -0.001500 
#    y 0.000000 1.833400 0.000000 
#    z -0.001500 0.000000 1.772820 
# 
# From -- ./inp_files/23182.got.cif
#   From: 2010.06.25/outbox.cif.g09.slc.cpg/sg11_12_cif.got.tgz:23182.got - 2010.06.27 23:14:04.
