data_PCOD8076686
_publ_section_title
;
Structure prediction by ZEFSAII (Michael W. Deem and Ramdas Pophale) SiO2 
 PCOD8076686
Probable space group: P 21/M
;
_chemical_formula_sum "Si O2"
_cell_formula_units_Z 24
_cell_length_a 13.821205
_cell_length_b 8.690051
_cell_length_c 17.147908
_cell_angle_alpha 90.000000
_cell_angle_beta 143.539240
_cell_angle_gamma 90.000000
_cell_volume 1223.952965
_symmetry_space_group_name_H-M "P 21/M"
_symmetry_group_IT_number 11
_symmetry_cell_setting 'monoclinic'
loop_
_space_group_symop_operation_xyz
x,y,z
-x,1/2+y,-z
-x,-y,-z
x,1/2-y,z
loop_
_atom_site_type_symbol
_atom_site_label
_atom_site_fract_x
_atom_site_fract_y
_atom_site_fract_z
Si Si1 0.526052 0.568016 0.779853
Si Si2 0.174370 0.068620 0.130753
Si Si3 0.068957 0.569882 0.623094
Si Si4 0.580497 0.932038 0.128796
Si Si5 0.672991 0.424693 0.622512
Si Si6 0.213822 0.575762 0.477312
O O1 0.527437 0.750000 0.792933
O O2 0.691141 0.510951 0.844562
O O3 0.515233 0.488122 0.856623
O O4 0.374376 0.518213 0.627166
O O5 0.162857 0.250000 0.120004
O O6 0.222847 0.019381 0.248552
O O7 0.000000 0.000000 0.000000
O O8 0.102489 0.750000 0.635854
O O9 0.234571 0.485892 0.751139
O O10 0.000000 0.500000 0.500000
O O11 0.936026 0.537504 0.603265
O O12 0.572096 0.750000 0.120073
O O13 0.500000 0.000000 0.000000
O O14 0.500000 0.500000 0.500000
O O15 0.652224 0.250000 0.638054
O O16 0.764937 0.431322 0.600722
O O17 0.172642 0.750000 0.477339
#
# Coordination Sequence:
#
# PCOD8076686 Si02
#       6
#     4   4   4   4   4   4
#     4  10  21  41  66  91 127 170 211 258 318 379
#     4  11  24  43  65  94 130 171 212 262 319 377
#     4  12  24  40  64  95 127 164 210 261 312 372
#     4  12  26  44  67  95 128 168 211 262 319 380
#     4  11  22  39  64  94 127 166 210 261 312 370
#     4  10  21  39  64  94 129 169 212 260 316 372
#
# _framework density 19.608598000000001
#
# number of rings (size 3 to 8) (size 9 to 14) (size 15 to 20)
#    0.000    1.000    3.333    4.000    0.000    4.000 
#    0.000    1.667    0.000    0.000    0.000    0.000 
#    0.000    0.000    0.000    0.000    0.000    0.000 
#
# Total GULP energy -297700.680408 kJ/mol
# GULP energy per Si atom -12404.195017 kJ/mol
# Density = 1.956397 g / cm^3
# Si number density = 19.608598 Si / 1000 Ang^3
#
#
#
# Elastic Constant Matrix: (Units=GPa)
#
#
# Indices 1 2 3 4 5 6 
#
# 1 135.6812 55.1113 74.2876 0.0000 3.5262 0.0000
# 2 55.1113 86.4321 41.7658 0.0000 -2.3480 0.0000
# 3 74.2876 41.7658 162.1051 0.0000 -2.2831 0.0000
# 4 0.0000 0.0000 0.0000 38.0247 0.0000 -0.3366
# 5 3.5262 -2.3480 -2.2831 0.0000 35.7253 0.0000
# 6 0.0000 0.0000 0.0000 -0.3366 0.0000 37.5649
#
#
#
# Elastic Compliance Matrix: (Units=1/GPa)
#
#
# Indices 1 2 3 4 5 6 
#
# 1 0.011945 -0.005720 -0.004026 0.000000 -0.001812 0.000000
# 2 -0.005720 0.015970 -0.001472 0.000000 0.001520 0.000000
# 3 -0.004026 -0.001472 0.008405 0.000000 0.000838 0.000000
# 4 0.000000 0.000000 0.000000 0.026301 0.000000 0.000236
# 5 -0.001812 0.001520 0.000838 0.000000 0.028324 0.000000
# 6 0.000000 0.000000 0.000000 0.000236 0.000000 0.026623
#
#
# Mechanical properties :
#
#
# Convention : Reuss Voigt Hill
#
# Bulk Modulus (GPa) = 72.02607 80.72753 76.37680
# Shear Modulus (GPa) = 34.57104 36.46656 35.51880
#
# Velocity S-wave (km/s) = 4.20343 4.31713 4.26066
# Velocity P-wave (km/s) = 7.76982 8.13074 7.95233
#
# Compressibility (1/GPa) = 0.01388386
#
# Stress axis : x y z
#
# Youngs Moduli (GPa) = 83.71745 62.61886 118.98179
#
# Poissons Ratio (x) = 0.35820 0.47898
# Poissons Ratio (y) = 0.47889 0.17510
# Poissons Ratio (z) = 0.33702 0.09215
#
# Static dielectric constant tensor:
#      x y z
#    x 3.728440 0.000000 0.069640 
#    y 0.000000 4.158000 0.000000 
#    z 0.069640 0.000000 3.481190 
# 
# 
# High freq. dielectric constant tensor:
#      x y z
#    x 1.779670 0.000000 0.000710 
#    y 0.000000 1.771900 0.000000 
#    z 0.000710 0.000000 1.767560 
# 
# From -- ./inp_files/46566.got.cif
#   From: 2010.06.25/outbox.cif.g09.slc.cpg/sg11_24_cif.got.tgz:46566.got - 2010.06.27 23:14:04.
