data_PCOD8076479
_publ_section_title
;
Structure prediction by ZEFSAII (Michael W. Deem and Ramdas Pophale) SiO2 
 PCOD8076479
Probable space group: P 21/M
;
_chemical_formula_sum "Si O2"
_cell_formula_units_Z 28
_cell_length_a 15.459052
_cell_length_b 9.014278
_cell_length_c 11.761906
_cell_angle_alpha 90.000000
_cell_angle_beta 120.618466
_cell_angle_gamma 90.000000
_cell_volume 1410.527995
_symmetry_space_group_name_H-M "P 21/M"
_symmetry_group_IT_number 11
_symmetry_cell_setting 'monoclinic'
loop_
_space_group_symop_operation_xyz
x,y,z
-x,1/2+y,-z
-x,-y,-z
x,1/2-y,z
loop_
_atom_site_type_symbol
_atom_site_label
_atom_site_fract_x
_atom_site_fract_y
_atom_site_fract_z
Si Si1 0.659244 0.920816 0.597172
Si Si2 0.842348 0.423765 0.619805
Si Si3 0.973070 0.577246 0.099458
Si Si4 0.212947 0.424169 0.876280
Si Si5 0.425334 0.920251 0.034533
Si Si6 0.472281 0.917227 0.321546
Si Si7 0.892295 0.574770 0.428923
O O1 0.692573 0.750000 0.627997
O O2 0.583548 0.950255 0.442380
O O3 0.755523 0.024056 0.646421
O O4 0.607027 0.967373 0.679934
O O5 0.833138 0.250000 0.587898
O O6 0.830338 0.514201 0.494877
O O7 0.947767 0.463321 0.749286
O O8 0.976031 0.750000 0.075525
O O9 0.863972 0.529296 0.074360
O O10 0.000000 0.500000 0.000000
O O11 0.234963 0.250000 0.895039
O O12 0.167340 0.469384 0.724274
O O13 0.315417 0.510321 0.963350
O O14 0.415055 0.750000 0.991326
O O15 0.476886 0.938433 0.190810
O O16 0.500000 0.000000 0.000000
O O17 0.439772 0.750000 0.333751
O O18 0.906417 0.750000 0.447565
O O19 0.000000 0.500000 0.500000
#
# Coordination Sequence:
#
# PCOD8076479 Si02
#       7
#     4   4   4   4   4   4   4
#     4  10  21  38  63  92 119 156 201 249 306 363
#     4  11  23  40  61  91 126 159 199 249 305 362
#     4  10  23  42  62  89 127 166 203 249 303 361
#     4  10  23  44  64  88 125 164 204 257 310 359
#     4  11  25  43  64  91 123 163 209 256 310 368
#     4   9  21  42  62  85 121 158 198 253 309 360
#     4  11  22  40  64  89 121 158 200 249 302 359
#
# _framework density 19.850724
#
# number of rings (size 3 to 8) (size 9 to 14) (size 15 to 20)
#    0.000    1.714    1.429    1.714    4.000    4.571 
#    0.000    0.000    0.000    0.000    0.000    0.000 
#    0.000    0.000    0.000    0.000    0.000    0.000 
#
# Total GULP energy -347317.121762 kJ/mol
# GULP energy per Si atom -12404.182920 kJ/mol
# Density = 1.980554 g / cm^3
# Si number density = 19.850724 Si / 1000 Ang^3
#
#
#
# Elastic Constant Matrix: (Units=GPa)
#
#
# Indices 1 2 3 4 5 6 
#
# 1 131.9510 52.9896 48.4389 0.0000 0.8585 0.0000
# 2 52.9896 79.4178 48.1511 0.0000 -0.8371 0.0000
# 3 48.4389 48.1511 71.5961 0.0000 -11.2537 0.0000
# 4 0.0000 0.0000 0.0000 33.2281 0.0000 -2.0927
# 5 0.8585 -0.8371 -11.2537 0.0000 33.3251 0.0000
# 6 0.0000 0.0000 0.0000 -2.0927 0.0000 43.3676
#
#
#
# Elastic Compliance Matrix: (Units=1/GPa)
#
#
# Indices 1 2 3 4 5 6 
#
# 1 0.011197 -0.004568 -0.004822 0.000000 -0.002032 0.000000
# 2 -0.004568 0.023795 -0.013517 0.000000 -0.003849 0.000000
# 3 -0.004822 -0.013517 0.027760 0.000000 0.009159 0.000000
# 4 0.000000 0.000000 0.000000 0.030187 0.000000 0.001457
# 5 -0.002032 -0.003849 0.009159 0.000000 0.033056 0.000000
# 6 0.000000 0.000000 0.000000 0.001457 0.000000 0.023129
#
#
# Mechanical properties :
#
#
# Convention : Reuss Voigt Hill
#
# Bulk Modulus (GPa) = 59.04498 64.68046 61.86272
# Shear Modulus (GPa) = 24.92731 30.87651 27.90191
#
# Velocity S-wave (km/s) = 3.54748 3.94818 3.75318
# Velocity P-wave (km/s) = 6.82558 7.31015 7.07202
#
# Compressibility (1/GPa) = 0.01693624
#
# Stress axis : x y z
#
# Youngs Moduli (GPa) = 89.31319 42.02625 36.02314
#
# Poissons Ratio (x) = 0.19200 0.17370
# Poissons Ratio (y) = 0.40803 0.48692
# Poissons Ratio (z) = 0.43066 0.56807
#
# Static dielectric constant tensor:
#      x y z
#    x 3.652480 0.000000 -0.003530 
#    y 0.000000 3.681260 0.000000 
#    z -0.003530 0.000000 3.769550 
# 
# 
# High freq. dielectric constant tensor:
#      x y z
#    x 1.783520 0.000000 -0.002770 
#    y 0.000000 1.778840 0.000000 
#    z -0.002770 0.000000 1.779060 
# 
# From -- ./inp_files/37933.got.cif
#   From: 2010.06.25/outbox.cif.g09.slc.cpg/sg11_19_cif.got.tgz:37933.got - 2010.06.27 23:14:04.
