data_PCOD8076516
_publ_section_title
;
Structure prediction by ZEFSAII (Michael W. Deem and Ramdas Pophale) SiO2 
 PCOD8076516
Probable space group: P 21/M
;
_chemical_formula_sum "Si O2"
_cell_formula_units_Z 18
_cell_length_a 10.994535
_cell_length_b 15.205929
_cell_length_c 8.247141
_cell_angle_alpha 90.000000
_cell_angle_beta 136.633770
_cell_angle_gamma 90.000000
_cell_volume 946.748130
_symmetry_space_group_name_H-M "P 21/M"
_symmetry_group_IT_number 11
_symmetry_cell_setting 'monoclinic'
loop_
_space_group_symop_operation_xyz
x,y,z
-x,1/2+y,-z
-x,-y,-z
x,1/2-y,z
loop_
_atom_site_type_symbol
_atom_site_label
_atom_site_fract_x
_atom_site_fract_y
_atom_site_fract_z
Si Si1 0.682988 0.250000 0.792609
Si Si2 0.376940 0.250000 0.258340
Si Si3 0.362520 0.601140 0.993093
Si Si4 0.010342 0.347623 0.469355
Si Si5 0.341165 0.402868 0.971512
Si Si6 0.925303 0.750000 0.771786
O O1 0.575198 0.250000 0.521471
O O2 0.635572 0.163675 0.850023
O O3 0.890869 0.250000 0.948617
O O4 0.347422 0.337999 0.128732
O O5 0.241291 0.250000 0.274746
O O6 0.521752 0.630961 0.030741
O O7 0.181708 0.607513 0.714630
O O8 0.389527 0.500761 0.078238
O O9 0.994459 0.250000 0.532798
O O10 0.077853 0.336645 0.347747
O O11 0.144753 0.405285 0.704675
#
# Coordination Sequence:
#
# PCOD8076516 Si02
#       6
#     2   2   4   4   4   2
#     4  10  21  39  57  73 115 156 180 214 272 336
#     4  12  22  34  54  84 116 142 178 228 272 322
#     4  10  21  39  59  81 109 147 186 223 275 327
#     4   9  18  37  61  76 104 149 185 222 274 320
#     4  11  22  34  58  89 110 137 185 236 273 316
#     4   8  19  35  55  77 103 152 186 206 276 330
#
# _framework density 19.012449
#
# number of rings (size 3 to 8) (size 9 to 14) (size 15 to 20)
#    0.667    1.333    2.222    2.667    0.000    2.667 
#    0.000    4.444    0.000    0.000    0.000    0.000 
#    0.000    0.000    0.000    0.000    0.000    0.000 
#
# Total GULP energy -223161.053166 kJ/mol
# GULP energy per Si atom -12397.836287 kJ/mol
# Density = 1.896918 g / cm^3
# Si number density = 19.012449 Si / 1000 Ang^3
#
#
#
# Elastic Constant Matrix: (Units=GPa)
#
#
# Indices 1 2 3 4 5 6 
#
# 1 17.9832 11.6091 13.7845 0.0000 1.9434 0.0000
# 2 11.6091 79.2943 10.5482 0.0000 -5.4209 0.0000
# 3 13.7845 10.5482 123.0264 0.0000 7.5246 0.0000
# 4 0.0000 0.0000 0.0000 11.9244 0.0000 4.3380
# 5 1.9434 -5.4209 7.5246 0.0000 17.1833 0.0000
# 6 0.0000 0.0000 0.0000 4.3380 0.0000 15.6314
#
#
#
# Elastic Compliance Matrix: (Units=1/GPa)
#
#
# Indices 1 2 3 4 5 6 
#
# 1 0.067440 -0.009583 -0.006251 0.000000 -0.007913 0.000000
# 2 -0.009583 0.014487 -0.000528 0.000000 0.005885 0.000000
# 3 -0.006251 -0.000528 0.009084 0.000000 -0.003438 0.000000
# 4 0.000000 0.000000 0.000000 0.093279 0.000000 -0.025886
# 5 -0.007913 0.005885 -0.003438 0.000000 0.062453 0.000000
# 6 0.000000 0.000000 0.000000 -0.025886 0.000000 0.071158
#
#
# Mechanical properties :
#
#
# Convention : Reuss Voigt Hill
#
# Bulk Modulus (GPa) = 17.15644 32.46527 24.81085
# Shear Modulus (GPa) = 13.51154 21.23863 17.37508
#
# Velocity S-wave (km/s) = 2.66873 3.34592 3.02632
# Velocity P-wave (km/s) = 4.30575 5.66037 5.02888
#
# Compressibility (1/GPa) = 0.05828716
#
# Stress axis : x y z
#
# Youngs Moduli (GPa) = 14.82796 69.02790 110.08064
#
# Poissons Ratio (x) = 0.66150 0.68808
# Poissons Ratio (y) = 0.14210 0.05816
# Poissons Ratio (z) = 0.09268 0.03647
#
# Static dielectric constant tensor:
#      x y z
#    x 3.243500 0.000000 0.215900 
#    y 0.000000 3.375510 0.000000 
#    z 0.215900 0.000000 3.465500 
# 
# 
# High freq. dielectric constant tensor:
#      x y z
#    x 1.721370 0.000000 0.022820 
#    y 0.000000 1.737520 0.000000 
#    z 0.022820 0.000000 1.741710 
# 
# From -- ./inp_files/18456.got.cif
#   From: 2010.06.25/outbox.cif.g09.slc.cpg/sg11_10_cif.got.tgz:18456.got - 2010.06.27 23:14:04.
