data_PCOD8076909
_publ_section_title
;
Structure prediction by ZEFSAII (Michael W. Deem and Ramdas Pophale) SiO2 
 PCOD8076909
Probable space group: P 21/M
;
_chemical_formula_sum "Si O2"
_cell_formula_units_Z 28
_cell_length_a 17.697169
_cell_length_b 14.753630
_cell_length_c 5.597723
_cell_angle_alpha 90.000000
_cell_angle_beta 63.097498
_cell_angle_gamma 90.000000
_cell_volume 1303.379041
_symmetry_space_group_name_H-M "P 21/M"
_symmetry_group_IT_number 11
_symmetry_cell_setting 'monoclinic'
loop_
_space_group_symop_operation_xyz
x,y,z
-x,1/2+y,-z
-x,-y,-z
x,1/2-y,z
loop_
_atom_site_type_symbol
_atom_site_label
_atom_site_fract_x
_atom_site_fract_y
_atom_site_fract_z
Si Si1 0.525091 0.647620 0.542206
Si Si2 0.396031 0.413056 0.064293
Si Si3 0.772427 0.002792 0.211364
Si Si4 0.203325 0.648923 0.447236
Si Si5 0.099967 0.498368 0.354977
Si Si6 0.648847 0.412017 0.046739
Si Si7 0.781152 0.645070 0.574560
O O1 0.552816 0.750000 0.463607
O O2 0.551053 0.597470 0.259743
O O3 0.423174 0.640203 0.705478
O O4 0.561289 0.617325 0.748362
O O5 0.387199 0.522227 0.111777
O O6 0.306201 0.360905 0.151656
O O7 0.758965 0.907346 0.361865
O O8 0.764187 0.095463 0.370208
O O9 0.697400 0.010247 0.129495
O O10 0.866374 0.000635 0.963043
O O11 0.171428 0.750000 0.557431
O O12 0.127117 0.590907 0.446182
O O13 0.282769 0.658740 0.152521
O O14 0.139926 0.408385 0.419735
O O15 0.000000 0.500000 0.500000
O O16 0.807172 0.750000 0.495043
#
# Coordination Sequence:
#
# PCOD8076909 Si02
#       7
#     4   4   4   4   4   4   4
#     4  12  27  41  63  99 136 181 237 289 335 398
#     4  12  24  44  64  95 135 184 229 284 338 401
#     4  10  21  43  66  94 129 171 220 270 342 402
#     4  10  22  40  66  97 130 169 221 276 335 404
#     4  10  23  44  67  94 132 169 214 273 342 415
#     4  11  23  42  65  91 130 178 225 273 343 396
#     4  11  23  41  66  96 131 174 223 273 339 407
#
# _framework density 21.482621999999999
#
# number of rings (size 3 to 8) (size 9 to 14) (size 15 to 20)
#    0.000    1.143    4.286    3.429    2.000    6.286 
#    0.000    1.429    0.000    0.000    0.000    0.000 
#    0.000    0.000    0.000    0.000    0.000    0.000 
#
# Total GULP energy -346934.656870 kJ/mol
# GULP energy per Si atom -12390.523460 kJ/mol
# Density = 2.143373 g / cm^3
# Si number density = 21.482622 Si / 1000 Ang^3
#
#
#
# Elastic Constant Matrix: (Units=GPa)
#
#
# Indices 1 2 3 4 5 6 
#
# 1 90.2758 21.3971 56.2882 0.0000 -21.5757 0.0000
# 2 21.3971 152.0643 25.3781 0.0000 3.7632 0.0000
# 3 56.2882 25.3781 100.0250 0.0000 0.0853 0.0000
# 4 0.0000 0.0000 0.0000 20.1744 0.0000 -4.2549
# 5 -21.5757 3.7632 0.0853 0.0000 34.7650 0.0000
# 6 0.0000 0.0000 0.0000 -4.2549 0.0000 12.8996
#
#
#
# Elastic Compliance Matrix: (Units=1/GPa)
#
#
# Indices 1 2 3 4 5 6 
#
# 1 0.022454 -0.001460 -0.012277 0.000000 0.014123 0.000000
# 2 -0.001460 0.006981 -0.000948 0.000000 -0.001659 0.000000
# 3 -0.012277 -0.000948 0.017153 0.000000 -0.007559 0.000000
# 4 0.000000 0.000000 0.000000 0.053274 0.000000 0.017572
# 5 0.014123 -0.001659 -0.007559 0.000000 0.037728 0.000000
# 6 0.000000 0.000000 0.000000 0.017572 0.000000 0.083318
#
#
# Mechanical properties :
#
#
# Convention : Reuss Voigt Hill
#
# Bulk Modulus (GPa) = 58.08145 60.94353 59.51249
# Shear Modulus (GPa) = 19.52992 29.52127 24.52559
#
# Velocity S-wave (km/s) = 3.01841 3.71103 3.38249
# Velocity P-wave (km/s) = 6.26441 6.84052 6.55879
#
# Compressibility (1/GPa) = 0.01721720
#
# Stress axis : x y z
#
# Youngs Moduli (GPa) = 44.53614 143.24780 58.29746
#
# Poissons Ratio (x) = 0.20915 0.71573
# Poissons Ratio (y) = 0.06502 0.05527
# Poissons Ratio (z) = 0.54678 0.13582
#
# Static dielectric constant tensor:
#      x y z
#    x 3.706270 0.000000 0.068520 
#    y 0.000000 3.826100 0.000000 
#    z 0.068520 0.000000 4.053820 
# 
# 
# High freq. dielectric constant tensor:
#      x y z
#    x 1.832530 0.000000 0.003440 
#    y 0.000000 1.842740 0.000000 
#    z 0.003440 0.000000 1.848770 
# 
# From -- ./inp_files/8008.got.cif
#   From: 2010.06.25/outbox.cif.g09.slc.cpg/sg11_5_cif.got.tgz:8008.got - 2010.06.27 23:14:04.
