data_PCOD8076412
_publ_section_title
;
Structure prediction by ZEFSAII (Michael W. Deem and Ramdas Pophale) SiO2 
 PCOD8076412
Probable space group: P 21/M
;
_chemical_formula_sum "Si O2"
_cell_formula_units_Z 32
_cell_length_a 25.985859
_cell_length_b 8.576301
_cell_length_c 20.121545
_cell_angle_alpha 90.000000
_cell_angle_beta 21.105248
_cell_angle_gamma 90.000000
_cell_volume 1614.730851
_symmetry_space_group_name_H-M "P 21/M"
_symmetry_group_IT_number 11
_symmetry_cell_setting 'monoclinic'
loop_
_space_group_symop_operation_xyz
x,y,z
-x,1/2+y,-z
-x,-y,-z
x,1/2-y,z
loop_
_atom_site_type_symbol
_atom_site_label
_atom_site_fract_x
_atom_site_fract_y
_atom_site_fract_z
Si Si1 0.325767 0.933258 0.377985
Si Si2 0.642740 0.567577 0.039103
Si Si3 0.156692 0.566628 0.312695
Si Si4 0.633295 0.066392 0.193093
Si Si5 0.651926 0.433275 0.799328
Si Si6 0.876985 0.567025 0.271324
Si Si7 0.321548 0.065422 0.608802
Si Si8 0.186730 0.066667 0.907816
O O1 0.301108 0.750000 0.420194
O O2 0.483768 0.984632 0.210180
O O3 0.301769 0.980977 0.330492
O O4 0.211645 0.034118 0.555476
O O5 0.664297 0.750000 0.002650
O O6 0.673985 0.522159 0.077024
O O7 0.757030 0.479895 0.856538
O O8 0.146463 0.750000 0.328641
O O9 0.233588 0.499872 0.286182
O O10 0.000000 0.500000 0.500000
O O11 0.627909 0.250000 0.185870
O O12 0.480647 0.002033 0.403057
O O13 0.754425 0.027881 0.100527
O O14 0.638920 0.250000 0.820932
O O15 0.500000 0.500000 0.000000
O O16 0.911672 0.750000 0.224330
O O17 0.786032 0.504388 0.318196
O O18 0.020585 0.467874 0.099304
O O19 0.321706 0.250000 0.607423
O O20 0.269999 0.004314 0.742412
O O21 0.210353 0.250000 0.890257
#
# Coordination Sequence:
#
# PCOD8076412 Si02
#       8
#     4   4   4   4   4   4   4   4
#     4  10  21  38  61  90 121 156 201 252 302 360
#     4  11  22  39  64  91 122 160 200 248 305 366
#     4  11  24  41  63  91 126 165 204 250 304 360
#     4  11  22  40  63  90 122 159 203 251 302 365
#     4  10  21  38  62  90 119 154 197 245 295 349
#     4  11  22  39  61  89 121 160 204 252 306 361
#     4   9  20  38  62  88 119 157 204 254 304 362
#     4  11  23  40  59  87 124 161 201 253 308 363
#
# _framework density 19.817544999999999
#
# number of rings (size 3 to 8) (size 9 to 14) (size 15 to 20)
#    0.000    1.500    2.500    2.625    0.000    2.500 
#    0.000    7.500    0.000    0.000    0.000    0.000 
#    0.000    0.000    0.000    0.000    0.000    0.000 
#
# Total GULP energy -396968.376008 kJ/mol
# GULP energy per Si atom -12405.261750 kJ/mol
# Density = 1.977244 g / cm^3
# Si number density = 19.817545 Si / 1000 Ang^3
#
#
#
# Elastic Constant Matrix: (Units=GPa)
#
#
# Indices 1 2 3 4 5 6 
#
# 1 137.1702 15.9286 36.3805 0.0000 5.4727 0.0000
# 2 15.9286 33.5474 17.3472 0.0000 -1.3283 0.0000
# 3 36.3805 17.3472 75.3670 0.0000 4.1819 0.0000
# 4 0.0000 0.0000 0.0000 28.3876 0.0000 -1.0199
# 5 5.4727 -1.3283 4.1819 0.0000 37.1750 0.0000
# 6 0.0000 0.0000 0.0000 -1.0199 0.0000 24.4270
#
#
#
# Elastic Compliance Matrix: (Units=1/GPa)
#
#
# Indices 1 2 3 4 5 6 
#
# 1 0.008530 -0.002253 -0.003547 0.000000 -0.000937 0.000000
# 2 -0.002253 0.034594 -0.007006 0.000000 0.002356 0.000000
# 3 -0.003547 -0.007006 0.016682 0.000000 -0.001605 0.000000
# 4 0.000000 0.000000 0.000000 0.035280 0.000000 0.001473
# 5 -0.000937 0.002356 -0.001605 0.000000 0.027302 0.000000
# 6 0.000000 0.000000 0.000000 0.001473 0.000000 0.041000
#
#
# Mechanical properties :
#
#
# Convention : Reuss Voigt Hill
#
# Bulk Modulus (GPa) = 29.24409 42.82189 36.03299
# Shear Modulus (GPa) = 24.95036 29.75980 27.35508
#
# Velocity S-wave (km/s) = 3.55209 3.87937 3.71933
# Velocity P-wave (km/s) = 5.62244 6.45918 6.05528
#
# Compressibility (1/GPa) = 0.03419494
#
# Stress axis : x y z
#
# Youngs Moduli (GPa) = 117.23387 28.90654 59.94461
#
# Poissons Ratio (x) = 0.06513 0.21262
# Poissons Ratio (y) = 0.26414 0.41995
# Poissons Ratio (z) = 0.41582 0.20251
#
# Static dielectric constant tensor:
#      x y z
#    x 3.842130 0.000000 0.005370 
#    y 0.000000 3.460720 0.000000 
#    z 0.005370 0.000000 3.680370 
# 
# 
# High freq. dielectric constant tensor:
#      x y z
#    x 1.788770 0.000000 0.003510 
#    y 0.000000 1.764640 0.000000 
#    z 0.003510 0.000000 1.778230 
# 
# From -- ./inp_files/66917.got.cif
#   From: 2010.06.25/outbox.cif.g09.slc.cpg/sg11_34_cif.got.tgz:66917.got - 2010.06.27 23:14:04.
