data_PCOD8076350
_publ_section_title
;
Structure prediction by ZEFSAII (Michael W. Deem and Ramdas Pophale) SiO2 
 PCOD8076350
Probable space group: P 21/M
;
_chemical_formula_sum "Si O2"
_cell_formula_units_Z 32
_cell_length_a 24.978543
_cell_length_b 8.770993
_cell_length_c 14.585505
_cell_angle_alpha 90.000000
_cell_angle_beta 30.956936
_cell_angle_gamma 90.000000
_cell_volume 1643.739370
_symmetry_space_group_name_H-M "P 21/M"
_symmetry_group_IT_number 11
_symmetry_cell_setting 'monoclinic'
loop_
_space_group_symop_operation_xyz
x,y,z
-x,1/2+y,-z
-x,-y,-z
x,1/2-y,z
loop_
_atom_site_type_symbol
_atom_site_label
_atom_site_fract_x
_atom_site_fract_y
_atom_site_fract_z
Si Si1 0.610420 0.925442 0.839057
Si Si2 0.773311 0.576145 0.447994
Si Si3 0.722478 0.072312 0.337993
Si Si4 0.489871 0.069807 0.414373
Si Si5 0.159725 0.072125 0.996221
Si Si6 0.943095 0.928124 0.351322
Si Si7 0.774769 0.569378 0.737728
Si Si8 0.695163 0.928999 0.047825
O O1 0.593688 0.750000 0.885182
O O2 0.666635 0.950191 0.659571
O O3 0.679536 0.999970 0.818604
O O4 0.500000 0.000000 0.000000
O O5 0.780485 0.750000 0.402583
O O6 0.772146 0.463897 0.363547
O O7 0.871226 0.538257 0.368789
O O8 0.697816 0.250000 0.366044
O O9 0.616422 0.980072 0.477970
O O10 0.809585 0.026129 0.136690
O O11 0.489819 0.250000 0.424460
O O12 0.500000 0.000000 0.500000
O O13 0.585785 0.016814 0.210501
O O14 0.166769 0.250000 0.962246
O O15 0.239062 0.027674 0.960001
O O16 0.044333 0.031406 0.196858
O O17 0.973089 0.750000 0.311352
O O18 0.883881 0.981922 0.531534
O O19 0.770453 0.750000 0.733900
O O20 0.762316 0.516238 0.861040
O O21 0.671410 0.750000 0.076999
#
# Coordination Sequence:
#
# PCOD8076350 Si02
#       8
#     4   4   4   4   4   4   4   4
#     4   9  18  33  54  81 113 149 189 237 290 344
#     4   9  20  39  59  83 117 153 193 244 297 346
#     4  12  25  40  61  87 116 155 199 242 294 356
#     4  12  24  40  61  86 120 157 195 242 292 345
#     4  11  23  38  59  86 119 154 194 247 296 347
#     4   9  19  39  64  85 115 156 196 243 294 347
#     4   8  17  36  59  83 114 153 194 236 288 345
#     4  10  21  38  60  87 119 157 198 239 290 347
#
# _framework density 19.467806
#
# number of rings (size 3 to 8) (size 9 to 14) (size 15 to 20)
#    0.000    2.000    1.250    4.125    1.750    2.500 
#    0.000    2.500    0.000    0.000    0.000    0.000 
#    0.000    0.000    0.000    0.000    0.000    0.000 
#
# Total GULP energy -396835.339770 kJ/mol
# GULP energy per Si atom -12401.104368 kJ/mol
# Density = 1.942350 g / cm^3
# Si number density = 19.467806 Si / 1000 Ang^3
#
#
#
# Elastic Constant Matrix: (Units=GPa)
#
#
# Indices 1 2 3 4 5 6 
#
# 1 47.1676 32.9570 27.4452 0.0000 19.0715 0.0000
# 2 32.9570 75.3483 40.3472 0.0000 7.9652 0.0000
# 3 27.4452 40.3472 122.7106 0.0000 -0.5589 0.0000
# 4 0.0000 0.0000 0.0000 35.3577 0.0000 -4.7367
# 5 19.0715 7.9652 -0.5589 0.0000 30.5165 0.0000
# 6 0.0000 0.0000 0.0000 -4.7367 0.0000 20.6445
#
#
#
# Elastic Compliance Matrix: (Units=1/GPa)
#
#
# Indices 1 2 3 4 5 6 
#
# 1 0.043386 -0.013620 -0.005333 0.000000 -0.023657 0.000000
# 2 -0.013620 0.020969 -0.003835 0.000000 0.002969 0.000000
# 3 -0.005333 -0.003835 0.010624 0.000000 0.004528 0.000000
# 4 0.000000 0.000000 0.000000 0.029179 0.000000 0.006695
# 5 -0.023657 0.002969 0.004528 0.000000 0.046862 0.000000
# 6 0.000000 0.000000 0.000000 0.006695 0.000000 0.049975
#
#
# Mechanical properties :
#
#
# Convention : Reuss Voigt Hill
#
# Bulk Modulus (GPa) = 34.01095 49.63612 41.82353
# Shear Modulus (GPa) = 19.50291 26.93555 23.21923
#
# Velocity S-wave (km/s) = 3.16856 3.72371 3.45729
# Velocity P-wave (km/s) = 5.55830 6.63625 6.12105
#
# Compressibility (1/GPa) = 0.02940230
#
# Stress axis : x y z
#
# Youngs Moduli (GPa) = 23.04869 47.69005 94.13091
#
# Poissons Ratio (x) = 0.64956 0.50201
# Poissons Ratio (y) = 0.31393 0.36096
# Poissons Ratio (z) = 0.12292 0.18288
#
# Static dielectric constant tensor:
#      x y z
#    x 3.498670 0.000000 0.091900 
#    y 0.000000 3.409810 0.000000 
#    z 0.091900 0.000000 3.708590 
# 
# 
# High freq. dielectric constant tensor:
#      x y z
#    x 1.759600 0.000000 0.003900 
#    y 0.000000 1.742060 0.000000 
#    z 0.003900 0.000000 1.768700 
# 
# From -- ./inp_files/51748.got.cif
#   From: 2010.06.25/outbox.cif.g09.slc.cpg/sg11_26_cif.got.tgz:51748.got - 2010.06.27 23:14:04.
