data_PCOD8076135
_publ_section_title
;
Structure prediction by ZEFSAII (Michael W. Deem and Ramdas Pophale) SiO2 
 PCOD8076135
Probable space group: P 21/M
;
_chemical_formula_sum "Si O2"
_cell_formula_units_Z 20
_cell_length_a 10.185501
_cell_length_b 8.674933
_cell_length_c 11.472858
_cell_angle_alpha 90.000000
_cell_angle_beta 90.659705
_cell_angle_gamma 90.000000
_cell_volume 1013.657773
_symmetry_space_group_name_H-M "P 21/M"
_symmetry_group_IT_number 11
_symmetry_cell_setting 'monoclinic'
loop_
_space_group_symop_operation_xyz
x,y,z
-x,1/2+y,-z
-x,-y,-z
x,1/2-y,z
loop_
_atom_site_type_symbol
_atom_site_label
_atom_site_fract_x
_atom_site_fract_y
_atom_site_fract_z
Si Si1 0.745080 0.070843 0.754455
Si Si2 0.145888 0.930072 0.993232
Si Si3 0.003125 0.431418 0.625742
Si Si4 0.254887 0.066955 0.765485
Si Si5 0.501848 0.431271 0.370256
O O1 0.714586 0.250000 0.728982
O O2 0.875776 0.012972 0.692517
O O3 0.629640 0.967880 0.701765
O O4 0.768370 0.040236 0.890622
O O5 0.127626 0.750000 0.969216
O O6 0.236148 0.007124 0.896031
O O7 0.000000 0.000000 0.000000
O O8 0.009227 0.250000 0.618379
O O9 0.130311 0.494548 0.692741
O O10 0.000000 0.500000 0.500000
O O11 0.266244 0.250000 0.767608
O O12 0.381891 0.998986 0.705645
O O13 0.500000 0.500000 0.500000
O O14 0.519522 0.250000 0.382924
#
# Coordination Sequence:
#
# PCOD8076135 Si02
#       5
#     4   4   4   4   4
#     4  10  22  42  64  90 126 168 212 262 314 375
#     4  11  22  40  66  96 130 168 212 264 319 376
#     4  10  21  37  59  89 121 158 208 259 312 371
#     4  11  23  42  65  93 127 168 212 263 319 377
#     4  12  26  44  65  94 128 170 214 261 320 382
#
# _framework density 19.730523999999999
#
# number of rings (size 3 to 8) (size 9 to 14) (size 15 to 20)
#    0.000    1.200    2.000    4.200    0.000    8.000 
#    0.000    0.000    0.000    0.000    0.000    0.000 
#    0.000    0.000    0.000    0.000    0.000    0.000 
#
# Total GULP energy -248050.354544 kJ/mol
# GULP energy per Si atom -12402.517727 kJ/mol
# Density = 1.968562 g / cm^3
# Si number density = 19.730524 Si / 1000 Ang^3
#
#
#
# Elastic Constant Matrix: (Units=GPa)
#
#
# Indices 1 2 3 4 5 6 
#
# 1 172.5500 62.6076 98.8571 0.0000 -18.7372 0.0000
# 2 62.6076 103.4813 66.3261 0.0000 -6.8818 0.0000
# 3 98.8571 66.3261 174.7492 0.0000 -22.1496 0.0000
# 4 0.0000 0.0000 0.0000 36.2297 0.0000 15.5645
# 5 -18.7372 -6.8818 -22.1496 0.0000 45.8122 0.0000
# 6 0.0000 0.0000 0.0000 15.5645 0.0000 -33.9152
#
#
#
# Elastic Compliance Matrix: (Units=1/GPa)
#
#
# Indices 1 2 3 4 5 6 
#
# 1 0.009298 -0.003007 -0.003935 0.000000 0.001449 0.000000
# 2 -0.003007 0.013751 -0.003635 0.000000 -0.000922 0.000000
# 3 -0.003935 -0.003635 0.009646 0.000000 0.002508 0.000000
# 4 0.000000 0.000000 0.000000 0.023056 0.000000 0.010581
# 5 0.001449 -0.000922 0.002508 0.000000 0.023495 0.000000
# 6 0.000000 0.000000 0.000000 0.010581 0.000000 -0.024629
#
#
# Mechanical properties :
#
#
# Convention : Reuss Voigt Hill
#
# Bulk Modulus (GPa) = 86.64413 100.70688 93.67551
# Shear Modulus (GPa) = 62.79858 24.49131 43.64495
#
# Velocity S-wave (km/s) = 5.64776 3.52702 4.70835
# Velocity P-wave (km/s) = 9.30262 8.23034 8.78286
#
# Compressibility (1/GPa) = 0.01154146
#
# Stress axis : x y z
#
# Youngs Moduli (GPa) = 107.54591 72.71939 103.66666
#
# Poissons Ratio (x) = 0.21867 0.40795
# Poissons Ratio (y) = 0.32339 0.37684
# Poissons Ratio (z) = 0.42322 0.26434
#
# Static dielectric constant tensor:
#      x y z
#    x 3.764550 0.000000 -0.007400 
#    y 0.000000 3.632450 0.000000 
#    z -0.007400 0.000000 3.778220 
# 
# 
# High freq. dielectric constant tensor:
#      x y z
#    x 1.779970 0.000000 -0.001780 
#    y 0.000000 1.773570 0.000000 
#    z -0.001780 0.000000 1.789370 
# 
# From -- ./inp_files/15877.got.cif
#   From: 2010.06.25/outbox.cif.g09.slc.cpg/sg11_8_cif.got.tgz:15877.got - 2010.06.27 23:14:04.
