data_PCOD8076313
_publ_section_title
;
Structure prediction by ZEFSAII (Michael W. Deem and Ramdas Pophale) SiO2 
 PCOD8076313
Probable space group: P 21/M
;
_chemical_formula_sum "Si O2"
_cell_formula_units_Z 32
_cell_length_a 32.377257
_cell_length_b 8.727978
_cell_length_c 12.940712
_cell_angle_alpha 90.000000
_cell_angle_beta 154.678980
_cell_angle_gamma 90.000000
_cell_volume 1564.013400
_symmetry_space_group_name_H-M "P 21/M"
_symmetry_group_IT_number 11
_symmetry_cell_setting 'monoclinic'
loop_
_space_group_symop_operation_xyz
x,y,z
-x,1/2+y,-z
-x,-y,-z
x,1/2-y,z
loop_
_atom_site_type_symbol
_atom_site_label
_atom_site_fract_x
_atom_site_fract_y
_atom_site_fract_z
Si Si1 0.268423 0.568258 0.969352
Si Si2 0.093739 0.920032 0.969813
Si Si3 0.063993 0.074746 0.557085
Si Si4 0.096661 0.074361 0.180238
Si Si5 0.592371 0.068669 0.535630
Si Si6 0.295024 0.568250 0.641501
Si Si7 0.624865 0.930494 0.978009
Si Si8 0.306367 0.575747 0.434287
O O1 0.270916 0.750000 0.967507
O O2 0.162089 0.516585 0.761312
O O3 0.344139 0.504327 0.225783
O O4 0.295998 0.501216 0.919875
O O5 0.093279 0.750000 0.022129
O O6 0.999932 0.936573 0.689234
O O7 0.196089 0.935839 0.141822
O O8 0.092963 0.057610 0.048888
O O9 0.087968 0.250000 0.639805
O O10 0.000000 0.000000 0.500000
O O11 0.104098 0.250000 0.230800
O O12 0.188016 0.984373 0.433254
O O13 0.000000 0.000000 0.000000
O O14 0.607166 0.250000 0.563479
O O15 0.481351 0.023960 0.303447
O O16 0.628011 0.996302 0.506063
O O17 0.301602 0.750000 0.660558
O O18 0.317866 0.504584 0.576469
O O19 0.367595 0.496171 0.888803
O O20 0.640174 0.750000 0.016816
O O21 0.339857 0.750000 0.521370
#
# Coordination Sequence:
#
# PCOD8076313 Si02
#       8
#     4   4   4   4   4   4   4   4
#     4  11  23  40  62  87 120 160 205 254 307 363
#     4   9  19  36  57  82 116 156 195 237 291 351
#     4  11  23  39  61  90 124 159 200 247 300 358
#     4  11  22  36  57  83 115 152 194 240 289 351
#     4   9  19  37  62  88 115 155 202 252 311 367
#     4  10  21  38  59  86 120 157 198 244 303 364
#     4  11  23  39  60  87 121 159 203 253 306 363
#     4   8  15  33  60  86 114 150 194 243 296 358
#
# _framework density 20.460182
#
# number of rings (size 3 to 8) (size 9 to 14) (size 15 to 20)
#    0.000    2.000    0.000    4.500    1.750    3.500 
#    0.000    1.875    0.000    9.000    0.000    0.000 
#    0.000    0.000    0.000    0.000    0.000    0.000 
#
# Total GULP energy -396659.776828 kJ/mol
# GULP energy per Si atom -12395.618026 kJ/mol
# Density = 2.041361 g / cm^3
# Si number density = 20.460182 Si / 1000 Ang^3
#
#
#
# Elastic Constant Matrix: (Units=GPa)
#
#
# Indices 1 2 3 4 5 6 
#
# 1 101.2233 29.2269 36.8735 0.0000 5.0963 0.0000
# 2 29.2269 82.7497 32.4668 0.0000 0.5399 0.0000
# 3 36.8735 32.4668 104.8876 0.0000 -2.7643 0.0000
# 4 0.0000 0.0000 0.0000 29.2912 0.0000 -0.2173
# 5 5.0963 0.5399 -2.7643 0.0000 31.7131 0.0000
# 6 0.0000 0.0000 0.0000 -0.2173 0.0000 23.7290
#
#
#
# Elastic Compliance Matrix: (Units=1/GPa)
#
#
# Indices 1 2 3 4 5 6 
#
# 1 0.012069 -0.002915 -0.003398 0.000000 -0.002186 0.000000
# 2 -0.002915 0.014471 -0.003457 0.000000 -0.000079 0.000000
# 3 -0.003398 -0.003457 0.011842 0.000000 0.001637 0.000000
# 4 0.000000 0.000000 0.000000 0.034142 0.000000 0.000313
# 5 -0.002186 -0.000079 0.001637 0.000000 0.032028 0.000000
# 6 0.000000 0.000000 0.000000 0.000313 0.000000 0.042145
#
#
# Mechanical properties :
#
#
# Convention : Reuss Voigt Hill
#
# Bulk Modulus (GPa) = 53.07338 53.99943 53.53641
# Shear Modulus (GPa) = 28.98261 29.63290 29.30776
#
# Velocity S-wave (km/s) = 3.76777 3.80981 3.78885
# Velocity P-wave (km/s) = 6.70256 6.76776 6.73524
#
# Compressibility (1/GPa) = 0.01884184
#
# Stress axis : x y z
#
# Youngs Moduli (GPa) = 82.85862 69.10391 84.44738
#
# Poissons Ratio (x) = 0.20145 0.28696
# Poissons Ratio (y) = 0.24155 0.29190
# Poissons Ratio (z) = 0.28156 0.23886
#
# Static dielectric constant tensor:
#      x y z
#    x 3.734410 0.000000 -0.015890 
#    y 0.000000 3.616100 0.000000 
#    z -0.015890 0.000000 4.102340 
# 
# 
# High freq. dielectric constant tensor:
#      x y z
#    x 1.804270 0.000000 0.002210 
#    y 0.000000 1.778850 0.000000 
#    z 0.002210 0.000000 1.806760 
# 
# From -- ./inp_files/45327.got.cif
#   From: 2010.06.25/outbox.cif.g09.slc.cpg/sg11_23_cif.got.tgz:45327.got - 2010.06.27 23:14:04.
