data_PCOD8076963
_publ_section_title
;
Structure prediction by ZEFSAII (Michael W. Deem and Ramdas Pophale) SiO2 
 PCOD8076963
Probable space group: P 21/M
;
_chemical_formula_sum "Si O2"
_cell_formula_units_Z 32
_cell_length_a 12.018705
_cell_length_b 9.356471
_cell_length_c 19.094924
_cell_angle_alpha 90.000000
_cell_angle_beta 49.973107
_cell_angle_gamma 90.000000
_cell_volume 1644.260122
_symmetry_space_group_name_H-M "P 21/M"
_symmetry_group_IT_number 11
_symmetry_cell_setting 'monoclinic'
loop_
_space_group_symop_operation_xyz
x,y,z
-x,1/2+y,-z
-x,-y,-z
x,1/2-y,z
loop_
_atom_site_type_symbol
_atom_site_label
_atom_site_fract_x
_atom_site_fract_y
_atom_site_fract_z
Si Si1 0.403019 0.584346 0.093768
Si Si2 0.431453 0.916926 0.870608
Si Si3 0.068547 0.583074 0.629392
Si Si4 0.899417 0.082455 0.222892
Si Si5 0.096981 0.584346 0.406232
Si Si6 0.827556 0.412210 0.920962
Si Si7 0.672444 0.087790 0.579038
Si Si8 0.399417 0.917545 0.722892
O O1 0.450079 0.750000 0.079003
O O2 0.429188 0.508549 0.158318
O O3 0.238649 0.571641 0.131075
O O4 0.500000 0.500000 0.000000
O O5 0.468818 0.750000 0.864091
O O6 0.400473 0.960253 0.803726
O O7 0.289469 0.958501 0.973133
O O8 0.031182 0.750000 0.635909
O O9 0.099527 0.539747 0.696274
O O10 0.210531 0.541499 0.526867
O O11 0.929188 0.491451 0.658318
O O12 0.916322 0.250000 0.204968
O O13 0.750000 0.026083 0.250000
O O14 0.031954 0.010431 0.128098
O O15 0.049921 0.750000 0.420997
O O16 0.261351 0.571641 0.368925
O O17 0.000000 0.500000 0.500000
O O18 0.875863 0.250000 0.914902
O O19 0.624137 0.250000 0.585098
O O20 0.531954 0.989569 0.628098
O O21 0.416322 0.750000 0.704968
#
# Coordination Sequence:
#
# PCOD8076963 Si02
#       8
#     4   4   4   4   4   4   4   4
#     4   9  17  31  53  81 110 137 169 210 259 315
#     4   9  19  36  55  77 108 141 172 212 263 314
#     4   9  19  36  55  77 108 141 172 212 263 314
#     4  10  22  38  54  75 104 139 181 223 260 305
#     4   9  17  31  53  81 110 137 169 210 259 315
#     4   9  19  35  54  77 106 137 169 213 265 314
#     4   9  19  35  54  77 106 137 169 213 265 314
#     4  10  22  38  54  75 104 139 181 223 260 305
#
# _framework density 19.461642000000001
#
# number of rings (size 3 to 8) (size 9 to 14) (size 15 to 20)
#    0.000    2.750    0.000    2.250    0.000    8.500 
#    0.000    5.000    0.000    0.000    0.000    0.000 
#    0.000    0.000    0.000    0.000    0.000    0.000 
#
# Total GULP energy -396681.581206 kJ/mol
# GULP energy per Si atom -12396.299413 kJ/mol
# Density = 1.941735 g / cm^3
# Si number density = 19.461642 Si / 1000 Ang^3
#
#
#
# Elastic Constant Matrix: (Units=GPa)
#
#
# Indices 1 2 3 4 5 6 
#
# 1 62.2779 21.3541 1.6447 0.0000 -3.2805 0.0000
# 2 21.3541 53.4837 6.7545 0.0000 -5.4584 0.0000
# 3 1.6447 6.7545 38.8962 0.0000 -3.8460 0.0000
# 4 0.0000 0.0000 0.0000 23.5864 0.0000 -7.3633
# 5 -3.2805 -5.4584 -3.8460 0.0000 31.1186 0.0000
# 6 0.0000 0.0000 0.0000 -7.3633 0.0000 33.9939
#
#
#
# Elastic Compliance Matrix: (Units=1/GPa)
#
#
# Indices 1 2 3 4 5 6 
#
# 1 0.018630 -0.007437 0.000576 0.000000 0.000731 0.000000
# 2 -0.007437 0.022362 -0.003299 0.000000 0.002731 0.000000
# 3 0.000576 -0.003299 0.026531 0.000000 0.002761 0.000000
# 4 0.000000 0.000000 0.000000 0.045472 0.000000 0.009850
# 5 0.000731 0.002731 0.002761 0.000000 0.033032 0.000000
# 6 0.000000 0.000000 0.000000 0.009850 0.000000 0.031551
#
#
# Mechanical properties :
#
#
# Convention : Reuss Voigt Hill
#
# Bulk Modulus (GPa) = 21.18460 23.79604 22.49032
# Shear Modulus (GPa) = 23.40479 26.06676 24.73578
#
# Velocity S-wave (km/s) = 3.47163 3.66374 3.56898
# Velocity P-wave (km/s) = 5.19409 5.49099 5.34460
#
# Compressibility (1/GPa) = 0.04720410
#
# Stress axis : x y z
#
# Youngs Moduli (GPa) = 53.67628 44.71927 37.69182
#
# Poissons Ratio (x) = 0.33256 -0.02171
# Poissons Ratio (y) = 0.39916 0.12434
# Poissons Ratio (z) = -0.03091 0.14752
#
# Static dielectric constant tensor:
#      x y z
#    x 4.034610 0.000000 0.149330 
#    y 0.000000 3.568420 0.000000 
#    z 0.149330 0.000000 3.286780 
# 
# 
# High freq. dielectric constant tensor:
#      x y z
#    x 1.758370 0.000000 0.005220 
#    y 0.000000 1.754500 0.000000 
#    z 0.005220 0.000000 1.742040 
# 
# From -- ./inp_files/23301.got.cif
#   From: 2010.06.25/outbox.cif.g09.slc.cpg/sg11_12_cif.got.tgz:23301.got - 2010.06.27 23:14:04.
