data_PCOD8076111
_publ_section_title
;
Structure prediction by ZEFSAII (Michael W. Deem and Ramdas Pophale) SiO2 
 PCOD8076111
Probable space group: P 21/M
;
_chemical_formula_sum "Si O2"
_cell_formula_units_Z 24
_cell_length_a 8.571119
_cell_length_b 16.207914
_cell_length_c 14.969220
_cell_angle_alpha 90.000000
_cell_angle_beta 145.494353
_cell_angle_gamma 90.000000
_cell_volume 1178.023948
_symmetry_space_group_name_H-M "P 21/M"
_symmetry_group_IT_number 11
_symmetry_cell_setting 'monoclinic'
loop_
_space_group_symop_operation_xyz
x,y,z
-x,1/2+y,-z
-x,-y,-z
x,1/2-y,z
loop_
_atom_site_type_symbol
_atom_site_label
_atom_site_fract_x
_atom_site_fract_y
_atom_site_fract_z
Si Si1 0.273044 0.845987 0.755168
Si Si2 0.175369 0.653636 0.356823
Si Si3 0.801270 0.067102 0.451652
Si Si4 0.823793 0.574265 0.831781
Si Si5 0.220130 0.343552 0.364606
Si Si6 0.850097 0.585316 0.042650
O O1 0.333376 0.750000 0.806403
O O2 0.213448 0.854310 0.621715
O O3 0.015200 0.886338 0.687008
O O4 0.524828 0.904326 0.904440
O O5 0.183000 0.750000 0.387639
O O6 0.077530 0.599597 0.396391
O O7 0.478338 0.620375 0.471719
O O8 0.988362 0.642986 0.181859
O O9 0.484880 0.034104 0.311153
O O10 0.000000 0.000000 0.500000
O O11 0.836133 0.648812 0.767585
O O12 0.043960 0.508063 0.898605
O O13 0.916770 0.611660 0.971322
O O14 0.211074 0.250000 0.390133
#
# Coordination Sequence:
#
# PCOD8076111 Si02
#       6
#     4   4   4   4   4   4
#     4  10  21  39  59  84 117 156 193 232 289 356
#     4  10  21  38  60  85 113 152 197 243 286 342
#     4  10  22  37  60  87 116 156 194 242 293 344
#     4   9  21  39  56  85 119 155 193 233 289 359
#     4   9  20  37  60  84 112 153 196 235 284 348
#     4  10  21  37  59  84 117 150 188 244 287 342
#
# _framework density 20.373100999999998
#
# number of rings (size 3 to 8) (size 9 to 14) (size 15 to 20)
#    0.000    2.333    0.000    1.000    4.667    6.667 
#    6.000    0.000    0.000    0.000    0.000    0.000 
#    0.000    0.000    0.000    0.000    0.000    0.000 
#
# Total GULP energy -297375.957241 kJ/mol
# GULP energy per Si atom -12390.664885 kJ/mol
# Density = 2.032673 g / cm^3
# Si number density = 20.373101 Si / 1000 Ang^3
#
#
#
# Elastic Constant Matrix: (Units=GPa)
#
#
# Indices 1 2 3 4 5 6 
#
# 1 114.4197 35.3802 64.4461 0.0000 7.7742 0.0000
# 2 35.3802 50.4551 29.5801 0.0000 8.5345 0.0000
# 3 64.4461 29.5801 102.6813 0.0000 -7.0417 0.0000
# 4 0.0000 0.0000 0.0000 23.1579 0.0000 -3.1798
# 5 7.7742 8.5345 -7.0417 0.0000 41.1037 0.0000
# 6 0.0000 0.0000 0.0000 -3.1798 0.0000 36.5660
#
#
#
# Elastic Compliance Matrix: (Units=1/GPa)
#
#
# Indices 1 2 3 4 5 6 
#
# 1 0.015253 -0.005311 -0.008263 0.000000 -0.003198 0.000000
# 2 -0.005311 0.027368 -0.004930 0.000000 -0.005523 0.000000
# 3 -0.008263 -0.004930 0.016719 0.000000 0.005451 0.000000
# 4 0.000000 0.000000 0.000000 0.043704 0.000000 0.003800
# 5 -0.003198 -0.005523 0.005451 0.000000 0.027014 0.000000
# 6 0.000000 0.000000 0.000000 0.003800 0.000000 0.027678
#
#
# Mechanical properties :
#
#
# Convention : Reuss Voigt Hill
#
# Bulk Modulus (GPa) = 44.77575 58.48543 51.63059
# Shear Modulus (GPa) = 24.72969 29.37550 27.05260
#
# Velocity S-wave (km/s) = 3.48780 3.80132 3.64793
# Velocity P-wave (km/s) = 6.18428 6.93082 6.56816
#
# Compressibility (1/GPa) = 0.02233352
#
# Stress axis : x y z
#
# Youngs Moduli (GPa) = 65.56034 36.53936 59.81322
#
# Poissons Ratio (x) = 0.19405 0.49422
# Poissons Ratio (y) = 0.34817 0.29485
# Poissons Ratio (z) = 0.54171 0.18012
#
# Static dielectric constant tensor:
#      x y z
#    x 3.949150 0.000000 0.077370 
#    y 0.000000 3.336970 0.000000 
#    z 0.077370 0.000000 3.791810 
# 
# 
# High freq. dielectric constant tensor:
#      x y z
#    x 1.808440 0.000000 -0.002820 
#    y 0.000000 1.771080 0.000000 
#    z -0.002820 0.000000 1.795380 
# 
# From -- ./inp_files/14406.got.cif
#   From: 2010.06.25/outbox.cif.g09.slc.cpg/sg11_8_cif.got.tgz:14406.got - 2010.06.27 23:14:04.
