data_PCOD8076229
_publ_section_title
;
Structure prediction by ZEFSAII (Michael W. Deem and Ramdas Pophale) SiO2 
 PCOD8076229
Probable space group: P 21/M
;
_chemical_formula_sum "Si O2"
_cell_formula_units_Z 32
_cell_length_a 12.801328
_cell_length_b 8.898655
_cell_length_c 30.779588
_cell_angle_alpha 90.000000
_cell_angle_beta 153.508205
_cell_angle_gamma 90.000000
_cell_volume 1564.029257
_symmetry_space_group_name_H-M "P 21/M"
_symmetry_group_IT_number 11
_symmetry_cell_setting 'monoclinic'
loop_
_space_group_symop_operation_xyz
x,y,z
-x,1/2+y,-z
-x,-y,-z
x,1/2-y,z
loop_
_atom_site_type_symbol
_atom_site_label
_atom_site_fract_x
_atom_site_fract_y
_atom_site_fract_z
Si Si1 0.333701 0.073808 0.767202
Si Si2 0.686908 0.574370 0.417985
Si Si3 0.268568 0.426962 0.307027
Si Si4 0.072047 0.918789 0.898316
Si Si5 0.520529 0.424998 0.053359
Si Si6 0.950174 0.573987 0.257474
Si Si7 0.149060 0.583417 0.020681
Si Si8 0.221496 0.925461 0.635436
O O1 0.326490 0.250000 0.754518
O O2 0.105811 0.033710 0.712791
O O3 0.579280 0.024331 0.882102
O O4 0.318531 0.983742 0.716948
O O5 0.635854 0.750000 0.396259
O O6 0.518985 0.501392 0.391713
O O7 0.642587 0.504332 0.353849
O O8 0.947210 0.536924 0.530734
O O9 0.299131 0.250000 0.322556
O O10 0.110277 0.471083 0.206188
O O11 0.165213 0.486586 0.314511
O O12 0.164537 0.750000 0.920133
O O13 0.987576 0.915481 0.916775
O O14 0.266323 0.047122 0.978253
O O15 0.591872 0.250000 0.080159
O O16 0.713987 0.526311 0.146933
O O17 0.500000 0.500000 0.000000
O O18 0.996725 0.750000 0.268539
O O19 0.176945 0.750000 0.049041
O O20 0.000000 0.500000 0.000000
O O21 0.271812 0.750000 0.650087
#
# Coordination Sequence:
#
# PCOD8076229 Si02
#       8
#     4   4   4   4   4   4   4   4
#     4  10  22  40  62  87 120 162 202 244 300 361
#     4  10  22  42  66  92 122 153 192 245 305 364
#     4  11  23  37  60  92 123 157 200 251 303 354
#     4  10  21  38  55  78 116 156 197 244 292 345
#     4  12  22  33  53  79 110 152 200 244 287 339
#     4  11  22  39  59  83 120 162 202 248 300 356
#     4  10  22  39  55  81 120 159 199 244 293 347
#     4  10  22  41  67  94 119 152 196 248 301 357
#
# _framework density 20.459975
#
# number of rings (size 3 to 8) (size 9 to 14) (size 15 to 20)
#    0.000    1.500    2.500    2.625    1.750    4.000 
#    0.000    0.625    0.000    0.000    0.000    0.000 
#    0.000    0.000    0.000    0.000    0.000    0.000 
#
# Total GULP energy -396451.038661 kJ/mol
# GULP energy per Si atom -12389.094958 kJ/mol
# Density = 2.041341 g / cm^3
# Si number density = 20.459975 Si / 1000 Ang^3
#
#
#
# Elastic Constant Matrix: (Units=GPa)
#
#
# Indices 1 2 3 4 5 6 
#
# 1 111.8220 40.5817 15.6850 0.0000 18.6934 0.0000
# 2 40.5817 54.0565 16.6458 0.0000 8.0480 0.0000
# 3 15.6850 16.6458 33.8551 0.0000 3.8483 0.0000
# 4 0.0000 0.0000 0.0000 28.5903 0.0000 3.0285
# 5 18.6934 8.0480 3.8483 0.0000 36.3888 0.0000
# 6 0.0000 0.0000 0.0000 3.0285 0.0000 38.0700
#
#
#
# Elastic Compliance Matrix: (Units=1/GPa)
#
#
# Indices 1 2 3 4 5 6 
#
# 1 0.013063 -0.008736 -0.001228 0.000000 -0.004648 0.000000
# 2 -0.008736 0.028155 -0.009715 0.000000 -0.000712 0.000000
# 3 -0.001228 -0.009715 0.034988 0.000000 -0.000921 0.000000
# 4 0.000000 0.000000 0.000000 0.035274 0.000000 -0.002806
# 5 -0.004648 -0.000712 -0.000921 0.000000 0.030124 0.000000
# 6 0.000000 0.000000 0.000000 -0.002806 0.000000 0.026491
#
#
# Mechanical properties :
#
#
# Convention : Reuss Voigt Hill
#
# Bulk Modulus (GPa) = 27.13909 38.39539 32.76724
# Shear Modulus (GPa) = 22.75468 29.06456 25.90962
#
# Velocity S-wave (km/s) = 3.33852 3.77312 3.56245
# Velocity P-wave (km/s) = 5.30605 6.14725 5.74208
#
# Compressibility (1/GPa) = 0.03684723
#
# Stress axis : x y z
#
# Youngs Moduli (GPa) = 76.55437 35.51745 28.58131
#
# Poissons Ratio (x) = 0.31029 0.03510
# Poissons Ratio (y) = 0.66880 0.27767
# Poissons Ratio (z) = 0.09402 0.34505
#
# Static dielectric constant tensor:
#      x y z
#    x 3.852410 0.000000 0.118340 
#    y 0.000000 3.073500 0.000000 
#    z 0.118340 0.000000 3.548600 
# 
# 
# High freq. dielectric constant tensor:
#      x y z
#    x 1.813420 0.000000 0.001250 
#    y 0.000000 1.801800 0.000000 
#    z 0.001250 0.000000 1.775770 
# 
# From -- ./inp_files/73183.got.cif
#   From: 2010.06.25/outbox.cif.g09.slc.cpg/sg11_37_cif.got.tgz:73183.got - 2010.06.27 23:14:04.
