data_PCOD8076039
_publ_section_title
;
Structure prediction by ZEFSAII (Michael W. Deem and Ramdas Pophale) SiO2 
 PCOD8076039
Probable space group: P 21/M
;
_chemical_formula_sum "Si O2"
_cell_formula_units_Z 28
_cell_length_a 10.873652
_cell_length_b 8.963727
_cell_length_c 15.157456
_cell_angle_alpha 90.000000
_cell_angle_beta 65.989836
_cell_angle_gamma 90.000000
_cell_volume 1349.541426
_symmetry_space_group_name_H-M "P 21/M"
_symmetry_group_IT_number 11
_symmetry_cell_setting 'monoclinic'
loop_
_space_group_symop_operation_xyz
x,y,z
-x,1/2+y,-z
-x,-y,-z
x,1/2-y,z
loop_
_atom_site_type_symbol
_atom_site_label
_atom_site_fract_x
_atom_site_fract_y
_atom_site_fract_z
Si Si1 0.613749 0.419805 0.139194
Si Si2 0.646469 0.573732 0.451317
Si Si3 0.320684 0.418072 0.049396
Si Si4 0.788456 0.574465 0.230845
Si Si5 0.852271 0.571720 0.545505
Si Si6 0.317419 0.080177 0.243110
Si Si7 0.984069 0.584403 0.914337
O O1 0.665964 0.250000 0.119886
O O2 0.716563 0.521840 0.162300
O O3 0.471378 0.428579 0.231887
O O4 0.594595 0.481054 0.044287
O O5 0.500000 0.500000 0.500000
O O6 0.625623 0.750000 0.463367
O O7 0.708068 0.522191 0.340248
O O8 0.753842 0.520738 0.494344
O O9 0.383266 0.250000 0.036696
O O10 0.313175 0.496718 0.148003
O O11 0.170702 0.409174 0.060129
O O12 0.804878 0.750000 0.223436
O O13 0.936231 0.500497 0.187522
O O14 0.866907 0.750000 0.540521
O O15 0.781312 0.508710 0.655346
O O16 0.000000 0.500000 0.500000
O O17 0.270318 0.250000 0.244158
O O18 0.044769 0.750000 0.905407
O O19 0.000000 0.500000 0.000000
#
# Coordination Sequence:
#
# PCOD8076039 Si02
#       7
#     4   4   4   4   4   4   4
#     4  11  21  36  60  88 116 153 195 238 291 352
#     4  10  23  42  65  93 124 160 205 259 310 362
#     4  10  21  37  57  83 117 154 190 235 290 349
#     4  11  23  38  58  85 121 157 194 244 296 349
#     4  10  22  42  64  89 122 158 202 254 304 362
#     4   9  20  38  60  84 115 153 192 236 291 353
#     4  11  22  36  57  84 117 155 196 240 291 349
#
# _framework density 20.747788
#
# number of rings (size 3 to 8) (size 9 to 14) (size 15 to 20)
#    0.000    1.714    1.429    2.571    2.000    3.429 
#    0.000    2.857    0.000    0.000    0.000    0.000 
#    0.000    0.000    0.000    0.000    0.000    0.000 
#
# Total GULP energy -347101.661495 kJ/mol
# GULP energy per Si atom -12396.487911 kJ/mol
# Density = 2.070057 g / cm^3
# Si number density = 20.747788 Si / 1000 Ang^3
#
#
#
# Elastic Constant Matrix: (Units=GPa)
#
#
# Indices 1 2 3 4 5 6 
#
# 1 80.8612 20.9294 42.2337 0.0000 -3.2220 0.0000
# 2 20.9294 72.7407 46.7919 0.0000 -8.2992 0.0000
# 3 42.2337 46.7919 160.5238 0.0000 -11.5430 0.0000
# 4 0.0000 0.0000 0.0000 27.3549 0.0000 -9.7938
# 5 -3.2220 -8.2992 -11.5430 0.0000 38.9950 0.0000
# 6 0.0000 0.0000 0.0000 -9.7938 0.0000 26.1339
#
#
#
# Elastic Compliance Matrix: (Units=1/GPa)
#
#
# Indices 1 2 3 4 5 6 
#
# 1 0.014602 -0.002147 -0.003231 0.000000 -0.000207 0.000000
# 2 -0.002147 0.017420 -0.004352 0.000000 0.002242 0.000000
# 3 -0.003231 -0.004352 0.008442 0.000000 0.001306 0.000000
# 4 0.000000 0.000000 0.000000 0.042222 0.000000 0.015823
# 5 -0.000207 0.002242 0.001306 0.000000 0.026491 0.000000
# 6 0.000000 0.000000 0.000000 0.015823 0.000000 0.044194
#
#
# Mechanical properties :
#
#
# Convention : Reuss Voigt Hill
#
# Bulk Modulus (GPa) = 47.60679 59.33728 53.47204
# Shear Modulus (GPa) = 27.80381 32.10813 29.95597
#
# Velocity S-wave (km/s) = 3.66469 3.93815 3.80388
# Velocity P-wave (km/s) = 6.39546 7.02425 6.71722
#
# Compressibility (1/GPa) = 0.02100541
#
# Stress axis : x y z
#
# Youngs Moduli (GPa) = 68.48514 57.40407 118.45370
#
# Poissons Ratio (x) = 0.12322 0.38271
# Poissons Ratio (y) = 0.14701 0.51551
# Poissons Ratio (z) = 0.22127 0.24982
#
# Static dielectric constant tensor:
#      x y z
#    x 3.798620 0.000000 -0.188710 
#    y 0.000000 3.519020 0.000000 
#    z -0.188710 0.000000 4.142210 
# 
# 
# High freq. dielectric constant tensor:
#      x y z
#    x 1.822030 0.000000 -0.007280 
#    y 0.000000 1.791290 0.000000 
#    z -0.007280 0.000000 1.826130 
# 
# From -- ./inp_files/37901.got.cif
#   From: 2010.06.25/outbox.cif.g09.slc.cpg/sg11_19_cif.got.tgz:37901.got - 2010.06.27 23:14:04.
