data_PCOD8076070
_publ_section_title
;
Structure prediction by ZEFSAII (Michael W. Deem and Ramdas Pophale) SiO2 
 PCOD8076070
Probable space group: P 21/M
;
_chemical_formula_sum "Si O2"
_cell_formula_units_Z 20
_cell_length_a 18.436891
_cell_length_b 9.075751
_cell_length_c 5.255279
_cell_angle_alpha 90.000000
_cell_angle_beta 87.313204
_cell_angle_gamma 90.000000
_cell_volume 878.391970
_symmetry_space_group_name_H-M "P 21/M"
_symmetry_group_IT_number 11
_symmetry_cell_setting 'monoclinic'
loop_
_space_group_symop_operation_xyz
x,y,z
-x,1/2+y,-z
-x,-y,-z
x,1/2-y,z
loop_
_atom_site_type_symbol
_atom_site_label
_atom_site_fract_x
_atom_site_fract_y
_atom_site_fract_z
Si Si1 0.388723 0.091203 0.953025
Si Si2 0.813457 0.078367 0.790698
Si Si3 0.539003 0.092534 0.701004
Si Si4 0.034906 0.072190 0.244335
Si Si5 0.277232 0.919596 0.688233
O O1 0.350982 0.250000 0.011825
O O2 0.474744 0.119441 0.914157
O O3 0.351087 0.014311 0.714254
O O4 0.387219 0.981896 0.197375
O O5 0.837641 0.250000 0.766020
O O6 0.762578 0.033037 0.563008
O O7 0.880864 0.968671 0.768479
O O8 0.773345 0.046119 0.061153
O O9 0.565691 0.250000 0.589031
O O10 0.500000 0.000000 0.500000
O O11 0.024145 0.250000 0.245766
O O12 0.000000 0.000000 0.500000
O O13 0.000000 0.000000 0.000000
O O14 0.299342 0.750000 0.677936
#
# Coordination Sequence:
#
# PCOD8076070 Si02
#       5
#     4   4   4   4   4
#     4  10  22  38  56  83 115 154 202 256 310 368
#     4  10  22  41  63  92 129 168 212 259 313 377
#     4  10  21  37  58  83 113 150 198 256 313 371
#     4  12  25  43  70 102 136 176 219 269 325 383
#     4  10  22  39  61  89 124 168 209 255 314 376
#
# _framework density 22.768878000000001
#
# number of rings (size 3 to 8) (size 9 to 14) (size 15 to 20)
#    0.000    1.600    0.000    4.200    2.800    5.600 
#    0.000    0.000    0.000    0.000    0.000    0.000 
#    0.000    0.000    0.000    0.000    0.000    0.000 
#
# Total GULP energy -247849.253443 kJ/mol
# GULP energy per Si atom -12392.462672 kJ/mol
# Density = 2.271705 g / cm^3
# Si number density = 22.768878 Si / 1000 Ang^3
#
#
#
# Elastic Constant Matrix: (Units=GPa)
#
#
# Indices 1 2 3 4 5 6 
#
# 1 92.1321 28.7090 26.4597 0.0000 16.1500 0.0000
# 2 28.7090 172.3964 44.8388 0.0000 31.7930 0.0000
# 3 26.4597 44.8388 119.6449 0.0000 19.7994 0.0000
# 4 0.0000 0.0000 0.0000 31.2190 0.0000 11.5502
# 5 16.1500 31.7930 19.7994 0.0000 38.6422 0.0000
# 6 0.0000 0.0000 0.0000 11.5502 0.0000 34.4734
#
#
#
# Elastic Compliance Matrix: (Units=1/GPa)
#
#
# Indices 1 2 3 4 5 6 
#
# 1 0.012264 -0.000944 -0.001791 0.000000 -0.003432 0.000000
# 2 -0.000944 0.007277 -0.001741 0.000000 -0.004701 0.000000
# 3 -0.001791 -0.001741 0.009884 0.000000 -0.002884 0.000000
# 4 0.000000 0.000000 0.000000 0.036564 0.000000 -0.012251
# 5 -0.003432 -0.004701 -0.002884 0.000000 0.032658 0.000000
# 6 0.000000 0.000000 0.000000 -0.012251 0.000000 0.033112
#
#
# Mechanical properties :
#
#
# Convention : Reuss Voigt Hill
#
# Bulk Modulus (GPa) = 48.84024 64.90981 56.87503
# Shear Modulus (GPa) = 33.89037 39.81133 36.85085
#
# Velocity S-wave (km/s) = 3.86223 4.18604 4.02739
# Velocity P-wave (km/s) = 6.43320 7.20652 6.83081
#
# Compressibility (1/GPa) = 0.02047492
#
# Stress axis : x y z
#
# Youngs Moduli (GPa) = 81.54065 137.41051 101.17768
#
# Poissons Ratio (x) = 0.12968 0.18117
# Poissons Ratio (y) = 0.07695 0.17612
# Poissons Ratio (z) = 0.14601 0.23918
#
# Static dielectric constant tensor:
#      x y z
#    x 4.701770 0.000000 -0.118010 
#    y 0.000000 4.659250 0.000000 
#    z -0.118010 0.000000 4.303620 
# 
# 
# High freq. dielectric constant tensor:
#      x y z
#    x 1.891580 0.000000 0.006820 
#    y 0.000000 1.907770 0.000000 
#    z 0.006820 0.000000 1.911090 
# 
# From -- ./inp_files/7477.got.cif
#   From: 2010.06.25/outbox.cif.g09.slc.cpg/sg11_4_cif.got.tgz:7477.got - 2010.06.27 23:14:04.
