data_PCOD8076966
_publ_section_title
;
Structure prediction by ZEFSAII (Michael W. Deem and Ramdas Pophale) SiO2 
 PCOD8076966
Probable space group: P 21/M
;
_chemical_formula_sum "Si O2"
_cell_formula_units_Z 32
_cell_length_a 23.477275
_cell_length_b 13.466457
_cell_length_c 9.650069
_cell_angle_alpha 90.000000
_cell_angle_beta 148.922271
_cell_angle_gamma 90.000000
_cell_volume 1574.888599
_symmetry_space_group_name_H-M "P 21/M"
_symmetry_group_IT_number 11
_symmetry_cell_setting 'monoclinic'
loop_
_space_group_symop_operation_xyz
x,y,z
-x,1/2+y,-z
-x,-y,-z
x,1/2-y,z
loop_
_atom_site_type_symbol
_atom_site_label
_atom_site_fract_x
_atom_site_fract_y
_atom_site_fract_z
Si Si1 0.406086 0.632715 0.302472
Si Si2 0.169012 0.366613 0.788466
Si Si3 0.378776 0.366466 0.387830
Si Si4 0.224580 0.540805 0.737871
Si Si5 0.929116 0.133592 0.368761
Si Si6 0.555978 0.864497 0.175943
Si Si7 0.323740 0.548385 0.658147
Si Si8 0.742647 0.133392 0.761971
O O1 0.386810 0.750000 0.241516
O O2 0.533489 0.599900 0.547711
O O3 0.365130 0.602059 0.370870
O O4 0.336794 0.577922 0.040784
O O5 0.169205 0.250000 0.756449
O O6 0.205518 0.423053 0.724640
O O7 0.051669 0.409527 0.596220
O O8 0.255876 0.398647 0.089113
O O9 0.385788 0.250000 0.415080
O O10 0.413224 0.407725 0.608584
O O11 0.119625 0.596311 0.586904
O O12 0.234879 0.562490 0.595997
O O13 0.941660 0.250000 0.408764
O O14 0.850492 0.105554 0.076143
O O15 0.590207 0.750000 0.222102
O O16 0.627065 0.936520 0.224685
O O17 0.425117 0.874161 0.878606
O O18 0.257330 0.569783 0.378288
O O19 0.740444 0.250000 0.721549
#
# Coordination Sequence:
#
# PCOD8076966 Si02
#       8
#     4   4   4   4   4   4   4   4
#     4   9  18  34  57  88 116 144 186 240 293 331
#     4  10  22  38  59  85 114 151 195 235 288 345
#     4   9  18  34  58  84 111 149 190 235 282 336
#     4  11  21  35  59  88 113 147 188 241 287 330
#     4   9  20  40  63  86 112 145 192 247 292 331
#     4  10  22  38  54  80 127 162 185 228 285 349
#     4  11  23  36  56  90 116 157 196 226 285 345
#     4   9  19  35  59  85 114 149 187 240 291 337
#
# _framework density 20.318898000000001
#
# number of rings (size 3 to 8) (size 9 to 14) (size 15 to 20)
#    0.000    2.250    1.250    1.875    3.500    4.500 
#    0.000    1.875    0.000    0.000    0.000    0.000 
#    0.000    0.000    0.000    0.000    0.000    0.000 
#
# Total GULP energy -396705.065846 kJ/mol
# GULP energy per Si atom -12397.033308 kJ/mol
# Density = 2.027265 g / cm^3
# Si number density = 20.318898 Si / 1000 Ang^3
#
#
#
# Elastic Constant Matrix: (Units=GPa)
#
#
# Indices 1 2 3 4 5 6 
#
# 1 142.6489 31.6931 68.5604 0.0000 -3.3308 0.0000
# 2 31.6931 37.8135 23.1755 0.0000 -7.4967 0.0000
# 3 68.5604 23.1755 98.5478 0.0000 9.8557 0.0000
# 4 0.0000 0.0000 0.0000 17.9575 0.0000 -4.4548
# 5 -3.3308 -7.4967 9.8557 0.0000 28.4865 0.0000
# 6 0.0000 0.0000 0.0000 -4.4548 0.0000 21.7985
#
#
#
# Elastic Compliance Matrix: (Units=1/GPa)
#
#
# Indices 1 2 3 4 5 6 
#
# 1 0.011595 -0.004795 -0.007198 0.000000 0.002584 0.000000
# 2 -0.004795 0.036632 -0.006409 0.000000 0.011297 0.000000
# 3 -0.007198 -0.006409 0.017521 0.000000 -0.008590 0.000000
# 4 0.000000 0.000000 0.000000 0.058661 0.000000 0.011988
# 5 0.002584 0.011297 -0.008590 0.000000 0.041351 0.000000
# 6 0.000000 0.000000 0.000000 0.011988 0.000000 0.048325
#
#
# Mechanical properties :
#
#
# Convention : Reuss Voigt Hill
#
# Bulk Modulus (GPa) = 34.54751 58.42981 46.48866
# Shear Modulus (GPa) = 19.19119 24.02059 21.60589
#
# Velocity S-wave (km/s) = 3.07661 3.44201 3.26443
# Velocity P-wave (km/s) = 5.44612 6.67948 6.09408
#
# Compressibility (1/GPa) = 0.02894565
#
# Stress axis : x y z
#
# Youngs Moduli (GPa) = 86.24220 27.29874 57.07393
#
# Poissons Ratio (x) = 0.13089 0.41081
# Poissons Ratio (y) = 0.41351 0.36577
# Poissons Ratio (z) = 0.62075 0.17495
#
# Static dielectric constant tensor:
#      x y z
#    x 3.710310 0.000000 0.154660 
#    y 0.000000 3.827540 0.000000 
#    z 0.154660 0.000000 3.723690 
# 
# 
# High freq. dielectric constant tensor:
#      x y z
#    x 1.778790 0.000000 0.008910 
#    y 0.000000 1.816250 0.000000 
#    z 0.008910 0.000000 1.773710 
# 
# From -- ./inp_files/22204.got.cif
#   From: 2010.06.25/outbox.cif.g09.slc.cpg/sg11_12_cif.got.tgz:22204.got - 2010.06.27 23:14:04.
