data_PCOD8076357
_publ_section_title
;
Structure prediction by ZEFSAII (Michael W. Deem and Ramdas Pophale) SiO2 
 PCOD8076357
Probable space group: P 21/M
;
_chemical_formula_sum "Si O2"
_cell_formula_units_Z 32
_cell_length_a 7.431206
_cell_length_b 23.208454
_cell_length_c 12.358542
_cell_angle_alpha 90.000000
_cell_angle_beta 48.197578
_cell_angle_gamma 90.000000
_cell_volume 1588.875985
_symmetry_space_group_name_H-M "P 21/M"
_symmetry_group_IT_number 11
_symmetry_cell_setting 'monoclinic'
loop_
_space_group_symop_operation_xyz
x,y,z
-x,1/2+y,-z
-x,-y,-z
x,1/2-y,z
loop_
_atom_site_type_symbol
_atom_site_label
_atom_site_fract_x
_atom_site_fract_y
_atom_site_fract_z
Si Si1 0.264879 0.885445 0.568214
Si Si2 0.197202 0.075418 0.141245
Si Si3 0.122667 0.685164 0.423237
Si Si4 0.600627 0.105989 0.831326
Si Si5 0.462187 0.467958 0.686729
Si Si6 0.464717 0.582844 0.794381
Si Si7 0.425564 0.183864 0.399255
Si Si8 0.094067 0.550525 0.112863
O O1 0.124188 0.854059 0.528539
O O2 0.382789 0.944982 0.477323
O O3 0.464213 0.842040 0.534999
O O4 0.073359 0.900369 0.739257
O O5 0.316912 0.070634 0.211011
O O6 0.194396 0.013777 0.085187
O O7 0.358696 0.116409 0.999210
O O8 0.183059 0.750000 0.433055
O O9 0.326263 0.665331 0.256203
O O10 0.861570 0.679847 0.473242
O O11 0.565702 0.056577 0.756750
O O12 0.821817 0.087836 0.819067
O O13 0.482218 0.537424 0.686933
O O14 0.191234 0.445868 0.780405
O O15 0.483213 0.647246 0.740377
O O16 0.206781 0.575398 0.956623
O O17 0.509164 0.250000 0.349389
#
# Coordination Sequence:
#
# PCOD8076357 Si02
#       8
#     4   4   4   4   4   4   4   4
#     4  11  24  39  63  94 123 156 205 251 304 365
#     4  11  21  39  61  92 127 161 192 245 308 366
#     4  10  22  43  64  84 116 159 204 258 302 350
#     4  10  21  38  60  88 121 157 202 243 300 365
#     4  11  22  36  63  93 123 163 198 245 306 367
#     4  11  21  39  61  91 125 162 202 248 304 366
#     4  11  24  42  63  85 118 163 205 251 302 353
#     4  11  21  37  60  89 130 162 192 245 303 366
#
# _framework density 20.140024
#
# number of rings (size 3 to 8) (size 9 to 14) (size 15 to 20)
#    0.000    1.250    3.750    3.000    1.750    3.500 
#    0.000    3.750    0.000    0.750    0.000    0.000 
#    0.000    0.000    0.000    0.000    0.000    0.000 
#
# Total GULP energy -396923.114881 kJ/mol
# GULP energy per Si atom -12403.847340 kJ/mol
# Density = 2.009418 g / cm^3
# Si number density = 20.140024 Si / 1000 Ang^3
#
#
#
# Elastic Constant Matrix: (Units=GPa)
#
#
# Indices 1 2 3 4 5 6 
#
# 1 49.7573 13.1191 19.2893 0.0000 2.8002 0.0000
# 2 13.1191 102.4658 48.7189 0.0000 1.8400 0.0000
# 3 19.2893 48.7189 119.5696 0.0000 -0.8532 0.0000
# 4 0.0000 0.0000 0.0000 25.4000 0.0000 0.9358
# 5 2.8002 1.8400 -0.8532 0.0000 25.8108 0.0000
# 6 0.0000 0.0000 0.0000 0.9358 0.0000 28.0433
#
#
#
# Elastic Compliance Matrix: (Units=1/GPa)
#
#
# Indices 1 2 3 4 5 6 
#
# 1 0.021736 -0.001321 -0.002985 0.000000 -0.002363 0.000000
# 2 -0.001321 0.012212 -0.004769 0.000000 -0.000885 0.000000
# 3 -0.002985 -0.004769 0.010795 0.000000 0.001021 0.000000
# 4 0.000000 0.000000 0.000000 0.039419 0.000000 -0.001315
# 5 -0.002363 -0.000885 0.001021 0.000000 0.039097 0.000000
# 6 0.000000 0.000000 0.000000 -0.001315 0.000000 0.035703
#
#
# Mechanical properties :
#
#
# Convention : Reuss Voigt Hill
#
# Bulk Modulus (GPa) = 37.60416 48.22748 42.91582
# Shear Modulus (GPa) = 26.88519 28.56185 27.72352
#
# Velocity S-wave (km/s) = 3.65761 3.76994 3.71420
# Velocity P-wave (km/s) = 6.04561 6.55347 6.30465
#
# Compressibility (1/GPa) = 0.02659280
#
# Stress axis : x y z
#
# Youngs Moduli (GPa) = 46.00648 81.88758 92.63313
#
# Poissons Ratio (x) = 0.10819 0.27651
# Poissons Ratio (y) = 0.06079 0.44176
# Poissons Ratio (z) = 0.13733 0.39052
#
# Static dielectric constant tensor:
#      x y z
#    x 3.810290 0.000000 -0.002900 
#    y 0.000000 3.549150 0.000000 
#    z -0.002900 0.000000 3.597560 
# 
# 
# High freq. dielectric constant tensor:
#      x y z
#    x 1.806570 0.000000 0.000120 
#    y 0.000000 1.764660 0.000000 
#    z 0.000120 0.000000 1.784090 
# 
# From -- ./inp_files/48243.got.cif
#   From: 2010.06.25/outbox.cif.g09.slc.cpg/sg11_25_cif.got.tgz:48243.got - 2010.06.27 23:14:04.
