data_PCOD8076310
_publ_section_title
;
Structure prediction by ZEFSAII (Michael W. Deem and Ramdas Pophale) SiO2 
 PCOD8076310
Probable space group: P 21/M
;
_chemical_formula_sum "Si O2"
_cell_formula_units_Z 32
_cell_length_a 9.762510
_cell_length_b 11.240367
_cell_length_c 14.897014
_cell_angle_alpha 90.000000
_cell_angle_beta 97.782292
_cell_angle_gamma 90.000000
_cell_volume 1619.655718
_symmetry_space_group_name_H-M "P 21/M"
_symmetry_group_IT_number 11
_symmetry_cell_setting 'monoclinic'
loop_
_space_group_symop_operation_xyz
x,y,z
-x,1/2+y,-z
-x,-y,-z
x,1/2-y,z
loop_
_atom_site_type_symbol
_atom_site_label
_atom_site_fract_x
_atom_site_fract_y
_atom_site_fract_z
Si Si1 0.862871 0.886769 0.415367
Si Si2 0.204473 0.383288 0.232287
Si Si3 0.451710 0.037749 0.136108
Si Si4 0.152372 0.526069 0.405318
Si Si5 0.397673 0.116562 0.710995
Si Si6 0.330490 0.878473 0.975761
Si Si7 0.978554 0.388476 0.064652
Si Si8 0.437907 0.881295 0.449165
O O1 0.825775 0.750000 0.420421
O O2 0.867321 0.932021 0.517202
O O3 0.738840 0.945080 0.345671
O O4 0.008092 0.906022 0.377929
O O5 0.190004 0.250000 0.266555
O O6 0.351634 0.393492 0.194992
O O7 0.200108 0.466569 0.317739
O O8 0.077169 0.415478 0.156885
O O9 0.555131 0.950039 0.196146
O O10 0.353957 0.972894 0.055925
O O11 0.553008 0.124199 0.090859
O O12 0.272285 0.617886 0.443628
O O13 0.362302 0.250000 0.738599
O O14 0.522261 0.113572 0.651242
O O15 0.334535 0.750000 0.023554
O O16 0.180336 0.898360 0.917522
O O17 0.007344 0.250000 0.031129
O O18 0.000000 0.500000 0.000000
O O19 0.486705 0.750000 0.492761
O O20 0.500000 0.000000 0.500000
#
# Coordination Sequence:
#
# PCOD8076310 Si02
#       8
#     4   4   4   4   4   4   4   4
#     4  10  22  40  60  84 121 162 200 249 306 363
#     4  11  23  38  61  91 122 158 207 261 311 367
#     4  11  21  38  62  87 123 152 206 245 315 369
#     4  11  22  39  62  87 122 160 207 250 305 368
#     4  10  21  38  59  86 119 154 199 252 304 362
#     4  10  22  39  61  86 121 162 200 251 310 371
#     4  10  21  41  62  89 125 162 204 252 308 368
#     4  11  22  39  62  92 124 162 207 255 307 365
#
# _framework density 19.757285
#
# number of rings (size 3 to 8) (size 9 to 14) (size 15 to 20)
#    0.000    1.500    3.750    1.500    1.750    0.500 
#    0.000    1.875    0.000    0.000    0.000    0.000 
#    0.000    0.000    0.000    0.000    0.000    0.000 
#
# Total GULP energy -396554.600646 kJ/mol
# GULP energy per Si atom -12392.331270 kJ/mol
# Density = 1.971232 g / cm^3
# Si number density = 19.757285 Si / 1000 Ang^3
#
#
#
# Elastic Constant Matrix: (Units=GPa)
#
#
# Indices 1 2 3 4 5 6 
#
# 1 131.6576 19.9755 23.2194 0.0000 4.6664 0.0000
# 2 19.9755 94.6449 25.2558 0.0000 5.8083 0.0000
# 3 23.2194 25.2558 67.5943 0.0000 4.3894 0.0000
# 4 0.0000 0.0000 0.0000 4.4250 0.0000 8.0766
# 5 4.6664 5.8083 4.3894 0.0000 34.1572 0.0000
# 6 0.0000 0.0000 0.0000 8.0766 0.0000 26.3835
#
#
#
# Elastic Compliance Matrix: (Units=1/GPa)
#
#
# Indices 1 2 3 4 5 6 
#
# 1 0.008198 -0.001056 -0.002380 0.000000 -0.000635 0.000000
# 2 -0.001056 0.011943 -0.004011 0.000000 -0.001371 0.000000
# 3 -0.002380 -0.004011 0.017188 0.000000 -0.001202 0.000000
# 4 0.000000 0.000000 0.000000 0.512152 0.000000 -0.156781
# 5 -0.000635 -0.001371 -0.001202 0.000000 0.029751 0.000000
# 6 0.000000 0.000000 0.000000 -0.156781 0.000000 0.085897
#
#
# Mechanical properties :
#
#
# Convention : Reuss Voigt Hill
#
# Bulk Modulus (GPa) = 44.57233 47.86648 46.21941
# Shear Modulus (GPa) = 7.27272 28.02285 17.64778
#
# Velocity S-wave (km/s) = 1.92068 3.77019 2.99194
# Velocity P-wave (km/s) = 5.24668 6.57513 5.94811
#
# Compressibility (1/GPa) = 0.02243544
#
# Stress axis : x y z
#
# Youngs Moduli (GPa) = 121.98121 83.73049 58.17900
#
# Poissons Ratio (x) = 0.08843 0.13848
# Poissons Ratio (y) = 0.12883 0.23333
# Poissons Ratio (z) = 0.29035 0.33581
#
# Static dielectric constant tensor:
#      x y z
#    x 3.949590 0.000000 0.099330 
#    y 0.000000 3.694030 0.000000 
#    z 0.099330 0.000000 3.380540 
# 
# 
# High freq. dielectric constant tensor:
#      x y z
#    x 1.790630 0.000000 0.006260 
#    y 0.000000 1.771260 0.000000 
#    z 0.006260 0.000000 1.750780 
# 
# From -- ./inp_files/47209.got.cif
#   From: 2010.06.25/outbox.cif.g09.slc.cpg/sg11_24_cif.got.tgz:47209.got - 2010.06.27 23:14:04.
