data_PCOD8076953
_publ_section_title
;
Structure prediction by ZEFSAII (Michael W. Deem and Ramdas Pophale) SiO2 
 PCOD8076953
Probable space group: P 21/M
;
_chemical_formula_sum "Si O2"
_cell_formula_units_Z 28
_cell_length_a 7.644727
_cell_length_b 17.482406
_cell_length_c 15.488697
_cell_angle_alpha 90.000000
_cell_angle_beta 44.418186
_cell_angle_gamma 90.000000
_cell_volume 1448.798229
_symmetry_space_group_name_H-M "P 21/M"
_symmetry_group_IT_number 11
_symmetry_cell_setting 'monoclinic'
loop_
_space_group_symop_operation_xyz
x,y,z
-x,1/2+y,-z
-x,-y,-z
x,1/2-y,z
loop_
_atom_site_type_symbol
_atom_site_label
_atom_site_fract_x
_atom_site_fract_y
_atom_site_fract_z
Si Si1 0.447035 0.837411 0.338806
Si Si2 0.482898 0.161854 0.352670
Si Si3 0.367678 0.057714 0.874815
Si Si4 0.203849 0.164010 0.625143
Si Si5 0.117378 0.980044 0.240858
Si Si6 0.090271 0.943093 0.851554
Si Si7 0.029985 0.074755 0.432612
O O1 0.394558 0.750000 0.336125
O O2 0.518982 0.876148 0.223947
O O3 0.671095 0.849035 0.326613
O O4 0.197242 0.869395 0.469219
O O5 0.492162 0.250000 0.320879
O O6 0.410016 0.152343 0.478307
O O7 0.759034 0.126537 0.244229
O O8 0.287498 0.117903 0.361081
O O9 0.582765 0.026132 0.862594
O O10 0.278504 0.988228 0.846784
O O11 0.140149 0.090836 0.011949
O O12 0.090035 0.250000 0.658828
O O13 0.987622 0.101779 0.689319
O O14 0.020332 0.998493 0.179854
O O15 0.025740 0.048656 0.334781
O O16 0.000000 0.000000 0.500000
#
# Coordination Sequence:
#
# PCOD8076953 Si02
#       7
#     4   4   4   4   4   4   4
#     4  11  22  39  61  91 127 161 202 253 311 369
#     4  11  22  40  60  88 130 163 201 257 311 371
#     4  11  23  41  63  91 118 163 211 253 297 361
#     4  10  22  37  61  95 127 160 199 253 319 373
#     4  12  22  39  67  91 126 158 205 263 307 362
#     4  11  24  41  63  88 122 163 213 248 300 362
#     4  12  21  35  62  96 120 157 205 249 314 369
#
# _framework density 19.326362
#
# number of rings (size 3 to 8) (size 9 to 14) (size 15 to 20)
#    0.000    0.857    5.714    1.714    0.000    3.429 
#    0.000    0.714    0.000    0.000    0.000    0.000 
#    0.000    0.000    0.000    0.000    0.000    0.000 
#
# Total GULP energy -347296.237603 kJ/mol
# GULP energy per Si atom -12403.437057 kJ/mol
# Density = 1.928237 g / cm^3
# Si number density = 19.326362 Si / 1000 Ang^3
#
#
#
# Elastic Constant Matrix: (Units=GPa)
#
#
# Indices 1 2 3 4 5 6 
#
# 1 85.8843 44.2611 40.1072 0.0000 -15.2932 0.0000
# 2 44.2611 97.4829 58.7531 0.0000 -19.1865 0.0000
# 3 40.1072 58.7531 93.8410 0.0000 -10.6711 0.0000
# 4 0.0000 0.0000 0.0000 22.9204 0.0000 -2.6930
# 5 -15.2932 -19.1865 -10.6711 0.0000 27.2114 0.0000
# 6 0.0000 0.0000 0.0000 -2.6930 0.0000 29.5815
#
#
#
# Elastic Compliance Matrix: (Units=1/GPa)
#
#
# Indices 1 2 3 4 5 6 
#
# 1 0.016465 -0.004212 -0.003858 0.000000 0.004771 0.000000
# 2 -0.004212 0.019365 -0.009462 0.000000 0.007576 0.000000
# 3 -0.003858 -0.009462 0.018028 0.000000 -0.001770 0.000000
# 4 0.000000 0.000000 0.000000 0.044101 0.000000 0.004015
# 5 0.004771 0.007576 -0.001770 0.000000 0.044078 0.000000
# 6 0.000000 0.000000 0.000000 0.004015 0.000000 0.034170
#
#
# Mechanical properties :
#
#
# Convention : Reuss Voigt Hill
#
# Bulk Modulus (GPa) = 53.20771 62.60565 57.90668
# Shear Modulus (GPa) = 22.98466 24.88178 23.93322
#
# Velocity S-wave (km/s) = 3.45235 3.59200 3.52287
# Velocity P-wave (km/s) = 6.59413 7.04752 6.82459
#
# Compressibility (1/GPa) = 0.01879427
#
# Stress axis : x y z
#
# Youngs Moduli (GPa) = 60.73401 51.64043 55.46891
#
# Poissons Ratio (x) = 0.21750 0.21398
# Poissons Ratio (y) = 0.25580 0.52487
# Poissons Ratio (z) = 0.23429 0.48864
#
# Static dielectric constant tensor:
#      x y z
#    x 3.578920 0.000000 -0.031250 
#    y 0.000000 3.564570 0.000000 
#    z -0.031250 0.000000 3.511370 
# 
# 
# High freq. dielectric constant tensor:
#      x y z
#    x 1.763910 0.000000 -0.002380 
#    y 0.000000 1.749930 0.000000 
#    z -0.002380 0.000000 1.749340 
# 
# From -- ./inp_files/58104.got.cif
#   From: 2010.06.25/outbox.cif.g09.slc.cpg/sg11_30_cif.got.tgz:58104.got - 2010.06.27 23:14:04.
