data_PCOD8076180
_publ_section_title
;
Structure prediction by ZEFSAII (Michael W. Deem and Ramdas Pophale) SiO2 
 PCOD8076180
Probable space group: P 21/M
;
_chemical_formula_sum "Si O2"
_cell_formula_units_Z 28
_cell_length_a 4.930180
_cell_length_b 31.233173
_cell_length_c 9.116280
_cell_angle_alpha 90.000000
_cell_angle_beta 79.657684
_cell_angle_gamma 90.000000
_cell_volume 1380.964396
_symmetry_space_group_name_H-M "P 21/M"
_symmetry_group_IT_number 11
_symmetry_cell_setting 'monoclinic'
loop_
_space_group_symop_operation_xyz
x,y,z
-x,1/2+y,-z
-x,-y,-z
x,1/2-y,z
loop_
_atom_site_type_symbol
_atom_site_label
_atom_site_fract_x
_atom_site_fract_y
_atom_site_fract_z
Si Si1 0.225248 0.343222 0.974055
Si Si2 0.347547 0.035991 0.604689
Si Si3 0.409102 0.977556 0.860521
Si Si4 0.798227 0.341592 0.761018
Si Si5 0.075461 0.420873 0.191382
Si Si6 0.182663 0.750000 0.231686
Si Si7 0.248594 0.250000 0.979591
Si Si8 0.135212 0.587020 0.470529
O O1 0.483835 0.349841 0.839945
O O2 0.228079 0.296776 0.062405
O O3 0.960056 0.346236 0.897093
O O4 0.208766 0.380769 0.094793
O O5 0.541461 0.077501 0.581610
O O6 0.047562 0.047328 0.570363
O O7 0.500000 0.000000 0.500000
O O8 0.314095 0.017229 0.769958
O O9 0.144070 0.945667 0.892486
O O10 0.675601 0.951415 0.778327
O O11 0.500000 0.000000 0.000000
O O12 0.842956 0.294775 0.678593
O O13 0.920845 0.372268 0.625190
O O14 0.924120 0.404092 0.352807
O O15 0.471940 0.750000 0.129830
O O16 0.975885 0.750000 0.120802
#
# Coordination Sequence:
#
# PCOD8076180 Si02
#       8
#     4   4   4   4   4   2   2   4
#     4  10  21  37  61  87 119 149 194 238 286 340
#     4  12  23  43  61  79 114 160 197 232 289 355
#     4  12  27  41  60  84 115 152 200 246 292 334
#     4  10  21  37  61  90 113 155 192 237 283 348
#     4  12  24  42  57  88 121 151 190 249 292 340
#     4   8  16  34  57  84 119 142 190 235 279 334
#     4   8  16  34  57  84 113 154 184 227 287 348
#     4  12  24  39  62  86 117 154 197 235 294 347
#
# _framework density 20.275687999999999
#
# number of rings (size 3 to 8) (size 9 to 14) (size 15 to 20)
#    0.000    1.143    2.857    3.429    6.000    0.000 
#    0.000    0.714    0.000    0.000    0.000   16.000 
#    0.000    0.000    0.000    0.000    0.000    0.000 
#
# Total GULP energy -346900.766807 kJ/mol
# GULP energy per Si atom -12389.313100 kJ/mol
# Density = 2.022954 g / cm^3
# Si number density = 20.275688 Si / 1000 Ang^3
#
#
#
# Elastic Constant Matrix: (Units=GPa)
#
#
# Indices 1 2 3 4 5 6 
#
# 1 89.8537 12.9540 1.0626 0.0000 -3.9072 0.0000
# 2 12.9540 123.8594 50.2768 0.0000 -2.9588 0.0000
# 3 1.0626 50.2768 77.8018 0.0000 5.9755 0.0000
# 4 0.0000 0.0000 0.0000 25.6933 0.0000 -4.7710
# 5 -3.9072 -2.9588 5.9755 0.0000 23.9703 0.0000
# 6 0.0000 0.0000 0.0000 -4.7710 0.0000 29.0296
#
#
#
# Elastic Compliance Matrix: (Units=1/GPa)
#
#
# Indices 1 2 3 4 5 6 
#
# 1 0.011392 -0.001416 0.000642 0.000000 0.001522 0.000000
# 2 -0.001416 0.011363 -0.007558 0.000000 0.003056 0.000000
# 3 0.000642 -0.007558 0.018140 0.000000 -0.005350 0.000000
# 4 0.000000 0.000000 0.000000 0.040146 0.000000 0.006598
# 5 0.001522 0.003056 -0.005350 0.000000 0.043677 0.000000
# 6 0.000000 0.000000 0.000000 0.006598 0.000000 0.035532
#
#
# Mechanical properties :
#
#
# Convention : Reuss Voigt Hill
#
# Bulk Modulus (GPa) = 41.26935 46.67798 43.97367
# Shear Modulus (GPa) = 27.02856 30.88674 28.95765
#
# Velocity S-wave (km/s) = 3.65506 3.90723 3.78325
# Velocity P-wave (km/s) = 6.18150 6.58991 6.38897
#
# Compressibility (1/GPa) = 0.02423106
#
# Stress axis : x y z
#
# Youngs Moduli (GPa) = 87.78162 88.00679 55.12824
#
# Poissons Ratio (x) = 0.12461 -0.03542
# Poissons Ratio (y) = 0.12429 0.41667
# Poissons Ratio (z) = -0.05640 0.66517
#
# Static dielectric constant tensor:
#      x y z
#    x 4.029870 0.000000 0.045980 
#    y 0.000000 4.183990 0.000000 
#    z 0.045980 0.000000 3.219950 
# 
# 
# High freq. dielectric constant tensor:
#      x y z
#    x 1.819030 0.000000 -0.002870 
#    y 0.000000 1.805080 0.000000 
#    z -0.002870 0.000000 1.751330 
# 
# From -- ./inp_files/10718.got.cif
#   From: 2010.06.25/outbox.cif.g09.slc.cpg/sg11_6_cif.got.tgz:10718.got - 2010.06.27 23:14:04.
