data_PCOD8076607
_publ_section_title
;
Structure prediction by ZEFSAII (Michael W. Deem and Ramdas Pophale) SiO2 
 PCOD8076607
Probable space group: P 21/M
;
_chemical_formula_sum "Si O2"
_cell_formula_units_Z 32
_cell_length_a 8.502652
_cell_length_b 24.334293
_cell_length_c 13.794675
_cell_angle_alpha 90.000000
_cell_angle_beta 34.182001
_cell_angle_gamma 90.000000
_cell_volume 1603.557488
_symmetry_space_group_name_H-M "P 21/M"
_symmetry_group_IT_number 11
_symmetry_cell_setting 'monoclinic'
loop_
_space_group_symop_operation_xyz
x,y,z
-x,1/2+y,-z
-x,-y,-z
x,1/2-y,z
loop_
_atom_site_type_symbol
_atom_site_label
_atom_site_fract_x
_atom_site_fract_y
_atom_site_fract_z
Si Si1 0.228982 0.534297 0.437869
Si Si2 0.029398 0.932051 0.175019
Si Si3 0.640114 0.571901 0.536958
Si Si4 0.261696 0.403239 0.867757
Si Si5 0.965262 0.061422 0.194034
Si Si6 0.880426 0.866681 0.591123
Si Si7 0.570716 0.630462 0.933017
Si Si8 0.616058 0.185870 0.778532
O O1 0.349467 0.495237 0.460212
O O2 0.483518 0.554125 0.240130
O O3 0.000000 0.500000 0.500000
O O4 0.071690 0.589367 0.553916
O O5 0.902872 0.908506 0.339642
O O6 0.833662 0.904279 0.194061
O O7 0.347451 0.912608 0.004031
O O8 0.017001 0.997483 0.183670
O O9 0.351681 0.582361 0.625941
O O10 0.665170 0.602682 0.627505
O O11 0.368553 0.342742 0.843181
O O12 0.002659 0.424967 0.061579
O O13 0.183856 0.096688 0.142255
O O14 0.700699 0.838085 0.770618
O O15 0.079302 0.827163 0.425130
O O16 0.417892 0.669715 0.089734
O O17 0.565659 0.250000 0.795955
#
# Coordination Sequence:
#
# PCOD8076607 Si02
#       8
#     4   4   4   4   4   4   4   4
#     4   9  19  31  54  84 124 166 202 239 290 356
#     4  12  22  35  57  91 133 170 203 241 298 367
#     4  11  21  35  55  88 130 172 201 241 288 362
#     4  10  22  37  57  87 122 164 208 253 304 364
#     4  11  23  34  55  91 131 172 204 240 296 365
#     4  10  21  39  62  87 122 160 204 252 307 361
#     4  11  24  39  62  93 123 162 206 252 303 373
#     4  10  23  46  66  88 116 151 206 270 319 360
#
# _framework density 19.955628000000001
#
# number of rings (size 3 to 8) (size 9 to 14) (size 15 to 20)
#    0.000    1.500    2.500    2.625    8.750    0.500 
#    0.000    0.625    0.000    6.000    0.000    0.000 
#    0.000    0.000    0.000    0.000    0.000    0.000 
#
# Total GULP energy -396439.884948 kJ/mol
# GULP energy per Si atom -12388.746405 kJ/mol
# Density = 1.991021 g / cm^3
# Si number density = 19.955628 Si / 1000 Ang^3
#
#
#
# Elastic Constant Matrix: (Units=GPa)
#
#
# Indices 1 2 3 4 5 6 
#
# 1 65.5337 26.4794 39.7714 0.0000 0.6235 0.0000
# 2 26.4794 75.0295 31.2693 0.0000 5.2834 0.0000
# 3 39.7714 31.2693 128.5360 0.0000 16.0483 0.0000
# 4 0.0000 0.0000 0.0000 16.1920 0.0000 -0.2710
# 5 0.6235 5.2834 16.0483 0.0000 47.8252 0.0000
# 6 0.0000 0.0000 0.0000 -0.2710 0.0000 9.7794
#
#
#
# Elastic Compliance Matrix: (Units=1/GPa)
#
#
# Indices 1 2 3 4 5 6 
#
# 1 0.020593 -0.005176 -0.005376 0.000000 0.002107 0.000000
# 2 -0.005176 0.016142 -0.002204 0.000000 -0.000976 0.000000
# 3 -0.005376 -0.002204 0.010375 0.000000 -0.003168 0.000000
# 4 0.000000 0.000000 0.000000 0.061788 0.000000 0.001712
# 5 0.002107 -0.000976 -0.003168 0.000000 0.022053 0.000000
# 6 0.000000 0.000000 0.000000 0.001712 0.000000 0.102303
#
#
# Mechanical properties :
#
#
# Convention : Reuss Voigt Hill
#
# Bulk Modulus (GPa) = 46.29700 51.57106 48.93403
# Shear Modulus (GPa) = 18.79960 26.19794 22.49877
#
# Velocity S-wave (km/s) = 3.07265 3.62720 3.36138
# Velocity P-wave (km/s) = 5.98653 6.59099 6.29602
#
# Compressibility (1/GPa) = 0.02159967
#
# Stress axis : x y z
#
# Youngs Moduli (GPa) = 48.56006 61.95116 96.38646
#
# Poissons Ratio (x) = 0.32064 0.51816
# Poissons Ratio (y) = 0.25133 0.21239
# Poissons Ratio (z) = 0.26105 0.13651
#
# Static dielectric constant tensor:
#      x y z
#    x 3.675360 0.000000 0.092720 
#    y 0.000000 3.267150 0.000000 
#    z 0.092720 0.000000 4.048400 
# 
# 
# High freq. dielectric constant tensor:
#      x y z
#    x 1.784350 0.000000 0.002780 
#    y 0.000000 1.722020 0.000000 
#    z 0.002780 0.000000 1.803270 
# 
# From -- ./inp_files/23389.got.cif
#   From: 2010.06.25/outbox.cif.g09.slc.cpg/sg11_12_cif.got.tgz:23389.got - 2010.06.27 23:14:04.
