data_PCOD8076705
_publ_section_title
;
Structure prediction by ZEFSAII (Michael W. Deem and Ramdas Pophale) SiO2 
 PCOD8076705
Probable space group: P 21/M
;
_chemical_formula_sum "Si O2"
_cell_formula_units_Z 32
_cell_length_a 24.775356
_cell_length_b 13.880830
_cell_length_c 9.465925
_cell_angle_alpha 90.000000
_cell_angle_beta 151.453916
_cell_angle_gamma 90.000000
_cell_volume 1555.621846
_symmetry_space_group_name_H-M "P 21/M"
_symmetry_group_IT_number 11
_symmetry_cell_setting 'monoclinic'
loop_
_space_group_symop_operation_xyz
x,y,z
-x,1/2+y,-z
-x,-y,-z
x,1/2-y,z
loop_
_atom_site_type_symbol
_atom_site_label
_atom_site_fract_x
_atom_site_fract_y
_atom_site_fract_z
Si Si1 0.171662 0.638590 0.630941
Si Si2 0.807970 0.139827 0.010577
Si Si3 0.966812 0.521083 0.079553
Si Si4 0.430308 0.138073 0.560613
Si Si5 0.289847 0.361395 0.960901
Si Si6 0.722599 0.981911 0.596441
Si Si7 0.345824 0.977764 0.868305
Si Si8 0.038518 0.358882 0.426694
O O1 0.160830 0.750000 0.574426
O O2 0.232575 0.618488 0.922362
O O3 0.243593 0.592786 0.670823
O O4 0.046499 0.595643 0.342742
O O5 0.779115 0.250000 0.900443
O O6 0.946392 0.127548 0.340901
O O7 0.742223 0.070887 0.750195
O O8 0.977086 0.413824 0.161039
O O9 0.840378 0.560144 0.809188
O O10 0.000000 0.500000 0.000000
O O11 0.460707 0.250000 0.658291
O O12 0.381664 0.123475 0.292640
O O13 0.339390 0.105078 0.467356
O O14 0.538409 0.070231 0.817126
O O15 0.284380 0.250000 0.901420
O O16 0.325093 0.421707 0.903432
O O17 0.167684 0.396366 0.746545
O O18 0.649760 0.011229 0.291225
O O19 0.047641 0.250000 0.398429
#
# Coordination Sequence:
#
# PCOD8076705 Si02
#       8
#     4   4   4   4   4   4   4   4
#     4  11  23  38  62  91 127 169 210 259 313 373
#     4   9  21  38  60  95 129 168 211 251 313 378
#     4  11  21  38  58  95 128 158 199 252 316 383
#     4  11  26  44  64  91 122 169 218 263 313 366
#     4  10  21  39  66  95 125 164 212 262 316 370
#     4  11  24  40  67  90 127 165 208 259 315 373
#     4  12  23  45  64  91 129 166 214 261 316 369
#     4   9  18  34  58  86 124 162 198 249 306 375
#
# _framework density 20.570550999999998
#
# number of rings (size 3 to 8) (size 9 to 14) (size 15 to 20)
#    0.000    1.500    2.500    1.875    1.750    3.500 
#    0.000    1.875    0.000    0.000    0.000    0.000 
#    0.000    0.000    0.000    0.000    0.000    0.000 
#
# Total GULP energy -396599.734024 kJ/mol
# GULP energy per Si atom -12393.741688 kJ/mol
# Density = 2.052373 g / cm^3
# Si number density = 20.570551 Si / 1000 Ang^3
#
#
#
# Elastic Constant Matrix: (Units=GPa)
#
#
# Indices 1 2 3 4 5 6 
#
# 1 71.7589 34.4530 14.8531 0.0000 -7.2965 0.0000
# 2 34.4530 84.0367 32.4475 0.0000 -5.6793 0.0000
# 3 14.8531 32.4475 84.4649 0.0000 2.3463 0.0000
# 4 0.0000 0.0000 0.0000 16.5743 0.0000 3.4938
# 5 -7.2965 -5.6793 2.3463 0.0000 40.0074 0.0000
# 6 0.0000 0.0000 0.0000 3.4938 0.0000 29.4051
#
#
#
# Elastic Compliance Matrix: (Units=1/GPa)
#
#
# Indices 1 2 3 4 5 6 
#
# 1 0.017560 -0.006845 -0.000521 0.000000 0.002261 0.000000
# 2 -0.006845 0.016855 -0.005312 0.000000 0.001456 0.000000
# 3 -0.000521 -0.005312 0.014018 0.000000 -0.001671 0.000000
# 4 0.000000 0.000000 0.000000 0.061884 0.000000 -0.007353
# 5 0.002261 0.001456 -0.001671 0.000000 0.025712 0.000000
# 6 0.000000 0.000000 0.000000 -0.007353 0.000000 0.034881
#
#
# Mechanical properties :
#
#
# Convention : Reuss Voigt Hill
#
# Bulk Modulus (GPa) = 43.33326 44.86309 44.09817
# Shear Modulus (GPa) = 24.51472 27.76448 26.13960
#
# Velocity S-wave (km/s) = 3.45590 3.67784 3.56860
# Velocity P-wave (km/s) = 6.08570 6.31602 6.20193
#
# Compressibility (1/GPa) = 0.02307696
#
# Stress axis : x y z
#
# Youngs Moduli (GPa) = 56.94822 59.32903 71.33773
#
# Poissons Ratio (x) = 0.40611 0.03718
# Poissons Ratio (y) = 0.38981 0.37893
# Poissons Ratio (z) = 0.02968 0.31514
#
# Static dielectric constant tensor:
#      x y z
#    x 3.799480 0.000000 0.238380 
#    y 0.000000 3.940720 0.000000 
#    z 0.238380 0.000000 4.025270 
# 
# 
# High freq. dielectric constant tensor:
#      x y z
#    x 1.807450 0.000000 0.003570 
#    y 0.000000 1.810310 0.000000 
#    z 0.003570 0.000000 1.799980 
# 
# From -- ./inp_files/22193.got.cif
#   From: 2010.06.25/outbox.cif.g09.slc.cpg/sg11_12_cif.got.tgz:22193.got - 2010.06.27 23:14:04.
