data_PCOD8076931
_publ_section_title
;
Structure prediction by ZEFSAII (Michael W. Deem and Ramdas Pophale) SiO2 
 PCOD8076931
Probable space group: P 21/M
;
_chemical_formula_sum "Si O2"
_cell_formula_units_Z 28
_cell_length_a 29.849545
_cell_length_b 8.869213
_cell_length_c 9.155915
_cell_angle_alpha 90.000000
_cell_angle_beta 139.151513
_cell_angle_gamma 90.000000
_cell_volume 1585.414388
_symmetry_space_group_name_H-M "P 21/M"
_symmetry_group_IT_number 11
_symmetry_cell_setting 'monoclinic'
loop_
_space_group_symop_operation_xyz
x,y,z
-x,1/2+y,-z
-x,-y,-z
x,1/2-y,z
loop_
_atom_site_type_symbol
_atom_site_label
_atom_site_fract_x
_atom_site_fract_y
_atom_site_fract_z
Si Si1 0.561193 0.430429 0.242214
Si Si2 0.202854 0.419951 0.853917
Si Si3 0.438250 0.429663 0.437637
Si Si4 0.691837 0.426722 0.382554
Si Si5 0.927317 0.575414 0.312060
Si Si6 0.684526 0.427132 0.034706
Si Si7 0.802578 0.920231 0.835199
O O1 0.554915 0.250000 0.234312
O O2 0.559765 0.500610 0.397750
O O3 0.630948 0.483956 0.335762
O O4 0.500000 0.500000 0.000000
O O5 0.213269 0.250000 0.819054
O O6 0.121000 0.458199 0.664751
O O7 0.239394 0.539782 0.838764
O O8 0.234343 0.430352 0.096405
O O9 0.500000 0.500000 0.500000
O O10 0.446033 0.250000 0.464993
O O11 0.367602 0.473758 0.187083
O O12 0.693255 0.250000 0.379847
O O13 0.680162 0.486178 0.189837
O O14 0.765143 0.477492 0.624646
O O15 0.942456 0.750000 0.340010
O O16 0.000000 0.500000 0.500000
O O17 0.882471 0.528491 0.056974
O O18 0.667835 0.250000 0.978676
O O19 0.799471 0.750000 0.768604
#
# Coordination Sequence:
#
# PCOD8076931 Si02
#       7
#     4   4   4   4   4   4   4
#     4  11  23  40  60  83 111 146 186 229 280 333
#     4   8  17  33  51  77 108 138 177 220 266 321
#     4  12  25  41  60  82 109 143 185 233 282 336
#     4  10  22  36  52  77 109 141 180 225 269 323
#     4   8  16  30  51  81 111 138 176 223 270 326
#     4  11  22  36  54  80 111 143 183 228 273 329
#     4   8  17  32  51  76 105 135 175 218 263 319
#
# _framework density 17.660999
#
# number of rings (size 3 to 8) (size 9 to 14) (size 15 to 20)
#    0.857    1.429    0.000    3.857    0.000    7.429 
#    0.000    0.000    0.000    0.857    0.000    0.000 
#    0.000    0.000    0.000    0.000    0.000    0.000 
#
# Total GULP energy -346930.545890 kJ/mol
# GULP energy per Si atom -12390.376639 kJ/mol
# Density = 1.762080 g / cm^3
# Si number density = 17.660999 Si / 1000 Ang^3
#
#
#
# Elastic Constant Matrix: (Units=GPa)
#
#
# Indices 1 2 3 4 5 6 
#
# 1 103.3666 47.1018 76.5962 0.0000 -1.7495 0.0000
# 2 47.1018 65.7428 46.2596 0.0000 2.5786 0.0000
# 3 76.5962 46.2596 133.9171 0.0000 4.3726 0.0000
# 4 0.0000 0.0000 0.0000 35.9646 0.0000 2.9955
# 5 -1.7495 2.5786 4.3726 0.0000 30.2846 0.0000
# 6 0.0000 0.0000 0.0000 2.9955 0.0000 30.0421
#
#
#
# Elastic Compliance Matrix: (Units=1/GPa)
#
#
# Indices 1 2 3 4 5 6 
#
# 1 0.019896 -0.008320 -0.008607 0.000000 0.003101 0.000000
# 2 -0.008320 0.023590 -0.003324 0.000000 -0.002009 0.000000
# 3 -0.008607 -0.003324 0.013610 0.000000 -0.002179 0.000000
# 4 0.000000 0.000000 0.000000 0.028038 0.000000 -0.002796
# 5 0.003101 -0.002009 -0.002179 0.000000 0.033685 0.000000
# 6 0.000000 0.000000 0.000000 -0.002796 0.000000 0.033565
#
#
# Mechanical properties :
#
#
# Convention : Reuss Voigt Hill
#
# Bulk Modulus (GPa) = 60.26753 71.43798 65.85276
# Shear Modulus (GPa) = 25.19944 28.12951 26.66448
#
# Velocity S-wave (km/s) = 3.78145 3.99525 3.88982
# Velocity P-wave (km/s) = 7.29826 7.86258 7.58567
#
# Compressibility (1/GPa) = 0.01659268
#
# Stress axis : x y z
#
# Youngs Moduli (GPa) = 50.26156 42.39163 73.47653
#
# Poissons Ratio (x) = 0.35269 0.63242
# Poissons Ratio (y) = 0.41817 0.24426
# Poissons Ratio (z) = 0.43261 0.14093
#
# Static dielectric constant tensor:
#      x y z
#    x 3.610290 0.000000 0.188800 
#    y 0.000000 3.195050 0.000000 
#    z 0.188800 0.000000 3.793410 
# 
# 
# High freq. dielectric constant tensor:
#      x y z
#    x 1.674410 0.000000 0.004000 
#    y 0.000000 1.684710 0.000000 
#    z 0.004000 0.000000 1.677530 
# 
# From -- ./inp_files/29124.got.cif
#   From: 2010.06.25/outbox.cif.g09.slc.cpg/sg11_15_cif.got.tgz:29124.got - 2010.06.27 23:14:04.
