data_PCOD8076689
_publ_section_title
;
Structure prediction by ZEFSAII (Michael W. Deem and Ramdas Pophale) SiO2 
 PCOD8076689
Probable space group: P 21/M
;
_chemical_formula_sum "Si O2"
_cell_formula_units_Z 28
_cell_length_a 9.207564
_cell_length_b 22.219629
_cell_length_c 9.506234
_cell_angle_alpha 90.000000
_cell_angle_beta 134.548069
_cell_angle_gamma 90.000000
_cell_volume 1386.033575
_symmetry_space_group_name_H-M "P 21/M"
_symmetry_group_IT_number 11
_symmetry_cell_setting 'monoclinic'
loop_
_space_group_symop_operation_xyz
x,y,z
-x,1/2+y,-z
-x,-y,-z
x,1/2-y,z
loop_
_atom_site_type_symbol
_atom_site_label
_atom_site_fract_x
_atom_site_fract_y
_atom_site_fract_z
Si Si1 0.604590 0.016771 0.716069
Si Si2 0.962427 0.681509 0.534345
Si Si3 0.696029 0.595919 0.959970
Si Si4 0.648414 0.179467 0.391257
Si Si5 0.789738 0.182321 0.032369
Si Si6 0.142648 0.626190 0.205486
Si Si7 0.407995 0.401827 0.802244
O O1 0.788950 0.062119 0.810639
O O2 0.438062 0.044810 0.710068
O O3 0.500000 0.000000 0.500000
O O4 0.697702 0.957612 0.849361
O O5 0.891225 0.750000 0.459333
O O6 0.780643 0.637750 0.374307
O O7 0.159512 0.666228 0.576210
O O8 0.019437 0.670334 0.735538
O O9 0.549590 0.649602 0.811720
O O10 0.632602 0.571123 0.070524
O O11 0.922933 0.622261 0.128131
O O12 0.605020 0.250000 0.379253
O O13 0.689750 0.149719 0.570606
O O14 0.708574 0.250000 0.998521
O O15 0.870555 0.173869 0.929682
O O16 0.607861 0.138319 0.947002
#
# Coordination Sequence:
#
# PCOD8076689 Si02
#       7
#     4   4   4   4   4   4   4
#     4  11  25  45  66  91 129 168 216 276 321 372
#     4  10  21  39  64  96 128 164 210 259 317 383
#     4  12  24  44  65  95 126 171 216 259 324 377
#     4  11  23  40  65  99 133 163 208 265 314 384
#     4  10  22  39  61  94 129 163 207 262 320 382
#     4  11  24  43  66  92 132 168 215 265 323 382
#     4  11  23  41  67  91 126 171 213 264 316 385
#
# _framework density 20.201530000000002
#
# number of rings (size 3 to 8) (size 9 to 14) (size 15 to 20)
#    0.000    1.143    4.286    1.714    2.000    1.714 
#    0.000    4.286    0.000    0.000    0.000    0.000 
#    0.000    0.000    0.000    0.000    0.000    0.000 
#
# Total GULP energy -347324.821565 kJ/mol
# GULP energy per Si atom -12404.457913 kJ/mol
# Density = 2.015555 g / cm^3
# Si number density = 20.201530 Si / 1000 Ang^3
#
#
#
# Elastic Constant Matrix: (Units=GPa)
#
#
# Indices 1 2 3 4 5 6 
#
# 1 94.1635 20.2380 38.9620 0.0000 -7.7386 0.0000
# 2 20.2380 71.5501 36.4364 0.0000 4.5641 0.0000
# 3 38.9620 36.4364 110.5104 0.0000 -14.0114 0.0000
# 4 0.0000 0.0000 0.0000 34.9153 0.0000 -3.9860
# 5 -7.7386 4.5641 -14.0114 0.0000 43.5008 0.0000
# 6 0.0000 0.0000 0.0000 -3.9860 0.0000 36.4633
#
#
#
# Elastic Compliance Matrix: (Units=1/GPa)
#
#
# Indices 1 2 3 4 5 6 
#
# 1 0.012638 -0.001760 -0.003719 0.000000 0.001235 0.000000
# 2 -0.001760 0.017632 -0.005700 0.000000 -0.003999 0.000000
# 3 -0.003719 -0.005700 0.012752 0.000000 0.004044 0.000000
# 4 0.000000 0.000000 0.000000 0.029003 0.000000 0.003170
# 5 0.001235 -0.003999 0.004044 0.000000 0.024930 0.000000
# 6 0.000000 0.000000 0.000000 0.003170 0.000000 0.027771
#
#
# Mechanical properties :
#
#
# Convention : Reuss Voigt Hill
#
# Bulk Modulus (GPa) = 48.39130 51.94408 50.16769
# Shear Modulus (GPa) = 32.47349 35.01507 33.74428
#
# Velocity S-wave (km/s) = 4.01368 4.16779 4.09146
# Velocity P-wave (km/s) = 6.74432 6.99496 6.87078
#
# Compressibility (1/GPa) = 0.02066487
#
# Stress axis : x y z
#
# Youngs Moduli (GPa) = 79.12420 56.71611 78.41795
#
# Poissons Ratio (x) = 0.09980 0.29164
# Poissons Ratio (y) = 0.13923 0.44698
# Poissons Ratio (z) = 0.29427 0.32328
#
# Static dielectric constant tensor:
#      x y z
#    x 3.785200 0.000000 -0.226850 
#    y 0.000000 3.788700 0.000000 
#    z -0.226850 0.000000 3.769350 
# 
# 
# High freq. dielectric constant tensor:
#      x y z
#    x 1.792820 0.000000 -0.012670 
#    y 0.000000 1.789330 0.000000 
#    z -0.012670 0.000000 1.803160 
# 
# From -- ./inp_files/14511.got.cif
#   From: 2010.06.25/outbox.cif.g09.slc.cpg/sg11_8_cif.got.tgz:14511.got - 2010.06.27 23:14:04.
