data_PCOD8076862
_publ_section_title
;
Structure prediction by ZEFSAII (Michael W. Deem and Ramdas Pophale) SiO2 
 PCOD8076862
Probable space group: P 21/M
;
_chemical_formula_sum "Si O2"
_cell_formula_units_Z 24
_cell_length_a 11.231420
_cell_length_b 13.535766
_cell_length_c 11.470103
_cell_angle_alpha 90.000000
_cell_angle_beta 44.482560
_cell_angle_gamma 90.000000
_cell_volume 1221.833596
_symmetry_space_group_name_H-M "P 21/M"
_symmetry_group_IT_number 11
_symmetry_cell_setting 'monoclinic'
loop_
_space_group_symop_operation_xyz
x,y,z
-x,1/2+y,-z
-x,-y,-z
x,1/2-y,z
loop_
_atom_site_type_symbol
_atom_site_label
_atom_site_fract_x
_atom_site_fract_y
_atom_site_fract_z
Si Si1 0.695466 0.528523 0.858854
Si Si2 0.575367 0.024502 0.323291
Si Si3 0.714576 0.865070 0.605346
Si Si4 0.259005 0.365514 0.936916
Si Si5 0.058916 0.636286 0.234388
Si Si6 0.911395 0.364384 0.057149
O O1 0.746985 0.578465 0.702451
O O2 0.802564 0.428304 0.795275
O O3 0.500000 0.500000 0.000000
O O4 0.740341 0.606375 0.928251
O O5 0.457087 0.099338 0.335439
O O6 0.755473 0.075705 0.218765
O O7 0.500000 0.000000 0.500000
O O8 0.594380 0.924251 0.234869
O O9 0.694605 0.750000 0.646582
O O10 0.870765 0.887762 0.410825
O O11 0.295459 0.250000 0.895016
O O12 0.078327 0.397500 0.009968
O O13 0.106798 0.750000 0.224461
O O14 0.063426 0.610079 0.095566
O O15 0.874510 0.250000 0.102795
#
# Coordination Sequence:
#
# PCOD8076862 Si02
#       6
#     4   4   4   4   4   4
#     4  12  23  42  66  92 127 173 211 258 314 374
#     4  12  24  39  67  94 127 166 209 266 318 377
#     4  11  24  43  64  95 130 167 210 258 315 382
#     4  11  24  41  63  93 130 167 212 264 315 372
#     4  10  22  41  69  95 126 166 211 259 312 376
#     4  10  21  41  66  93 124 165 208 258 318 378
#
# _framework density 19.642610999999999
#
# number of rings (size 3 to 8) (size 9 to 14) (size 15 to 20)
#    0.000    1.000    3.333    3.000    2.333    5.333 
#    0.000    0.000    0.000    0.000    0.000    0.000 
#    0.000    0.000    0.000    0.000    0.000    0.000 
#
# Total GULP energy -297766.190322 kJ/mol
# GULP energy per Si atom -12406.924597 kJ/mol
# Density = 1.959790 g / cm^3
# Si number density = 19.642611 Si / 1000 Ang^3
#
#
#
# Elastic Constant Matrix: (Units=GPa)
#
#
# Indices 1 2 3 4 5 6 
#
# 1 112.6888 52.2773 42.8324 0.0000 0.9803 0.0000
# 2 52.2773 96.5151 54.3940 0.0000 -12.5596 0.0000
# 3 42.8324 54.3940 127.9844 0.0000 6.6290 0.0000
# 4 0.0000 0.0000 0.0000 36.7865 0.0000 -3.0086
# 5 0.9803 -12.5596 6.6290 0.0000 39.4775 0.0000
# 6 0.0000 0.0000 0.0000 -3.0086 0.0000 42.7642
#
#
#
# Elastic Compliance Matrix: (Units=1/GPa)
#
#
# Indices 1 2 3 4 5 6 
#
# 1 0.012260 -0.006113 -0.001400 0.000000 -0.002014 0.000000
# 2 -0.006113 0.017895 -0.005914 0.000000 0.006838 0.000000
# 3 -0.001400 -0.005914 0.010987 0.000000 -0.003691 0.000000
# 4 0.000000 0.000000 0.000000 0.027341 0.000000 0.001924
# 5 -0.002014 0.006838 -0.003691 0.000000 0.028176 0.000000
# 6 0.000000 0.000000 0.000000 0.001924 0.000000 0.023519
#
#
# Mechanical properties :
#
#
# Convention : Reuss Voigt Hill
#
# Bulk Modulus (GPa) = 69.99595 70.68841 70.34218
# Shear Modulus (GPa) = 32.93899 36.31794 34.62847
#
# Velocity S-wave (km/s) = 4.09946 4.30459 4.20328
# Velocity P-wave (km/s) = 7.62362 7.79560 7.71009
#
# Compressibility (1/GPa) = 0.01428654
#
# Stress axis : x y z
#
# Youngs Moduli (GPa) = 81.56686 55.88131 91.01922
#
# Poissons Ratio (x) = 0.34162 0.12747
# Poissons Ratio (y) = 0.49865 0.53826
# Poissons Ratio (z) = 0.11423 0.33047
#
# Static dielectric constant tensor:
#      x y z
#    x 3.708630 0.000000 0.019260 
#    y 0.000000 3.827780 0.000000 
#    z 0.019260 0.000000 3.720520 
# 
# 
# High freq. dielectric constant tensor:
#      x y z
#    x 1.773280 0.000000 0.000080 
#    y 0.000000 1.783440 0.000000 
#    z 0.000080 0.000000 1.771610 
# 
# From -- ./inp_files/35389.got.cif
#   From: 2010.06.25/outbox.cif.g09.slc.cpg/sg11_18_cif.got.tgz:35389.got - 2010.06.27 23:14:04.
