data_PCOD8076304
_publ_section_title
;
Structure prediction by ZEFSAII (Michael W. Deem and Ramdas Pophale) SiO2 
 PCOD8076304
Probable space group: P 21/M
;
_chemical_formula_sum "Si O2"
_cell_formula_units_Z 32
_cell_length_a 12.235756
_cell_length_b 8.687862
_cell_length_c 21.925549
_cell_angle_alpha 90.000000
_cell_angle_beta 136.307074
_cell_angle_gamma 90.000000
_cell_volume 1610.060582
_symmetry_space_group_name_H-M "P 21/M"
_symmetry_group_IT_number 11
_symmetry_cell_setting 'monoclinic'
loop_
_space_group_symop_operation_xyz
x,y,z
-x,1/2+y,-z
-x,-y,-z
x,1/2-y,z
loop_
_atom_site_type_symbol
_atom_site_label
_atom_site_fract_x
_atom_site_fract_y
_atom_site_fract_z
Si Si1 0.667286 0.068072 0.586308
Si Si2 0.661444 0.072467 0.139147
Si Si3 0.698178 0.928753 0.026685
Si Si4 0.622542 0.567704 0.352905
Si Si5 0.713317 0.066921 0.741610
Si Si6 0.848278 0.568448 0.551175
Si Si7 0.010041 0.068141 0.937261
Si Si8 0.183039 0.069612 0.683575
O O1 0.652339 0.250000 0.579148
O O2 0.715749 0.008761 0.672945
O O3 0.500000 0.000000 0.500000
O O4 0.804526 0.012950 0.596755
O O5 0.701075 0.250000 0.167889
O O6 0.724186 0.028735 0.097669
O O7 0.751944 0.966720 0.223505
O O8 0.474899 0.039003 0.070473
O O9 0.719109 0.750000 0.052581
O O10 0.825671 0.982070 0.028029
O O11 0.620683 0.750000 0.356333
O O12 0.445229 0.502591 0.289672
O O13 0.733486 0.504709 0.451915
O O14 0.688276 0.513801 0.314130
O O15 0.715279 0.250000 0.743943
O O16 0.865489 0.001340 0.838582
O O17 0.831781 0.750000 0.552690
O O18 0.025586 0.524407 0.605219
O O19 0.998517 0.250000 0.937815
O O20 0.000000 0.000000 0.000000
O O21 0.146751 0.250000 0.663441
#
# Coordination Sequence:
#
# PCOD8076304 Si02
#       8
#     4   4   4   4   4   4   4   4
#     4  11  21  37  62  90 121 160 203 247 299 358
#     4  10  21  38  59  85 116 152 194 245 301 348
#     4   9  20  39  60  84 118 154 193 239 295 356
#     4   9  19  37  59  83 115 155 197 242 290 353
#     4   9  19  37  60  86 117 157 197 236 294 357
#     4  11  22  39  60  85 122 156 197 251 298 346
#     4  10  22  39  62  89 120 156 194 243 296 355
#     4  11  23  37  59  87 115 152 202 244 295 361
#
# _framework density 19.875029999999999
#
# number of rings (size 3 to 8) (size 9 to 14) (size 15 to 20)
#    0.000    2.000    1.250    1.875    3.500    1.000 
#    0.000    3.125    0.000    0.000    0.000    0.000 
#    0.000    0.000    0.000    0.000    0.000    0.000 
#
# Total GULP energy -396900.248563 kJ/mol
# GULP energy per Si atom -12403.132768 kJ/mol
# Density = 1.982979 g / cm^3
# Si number density = 19.875030 Si / 1000 Ang^3
#
#
#
# Elastic Constant Matrix: (Units=GPa)
#
#
# Indices 1 2 3 4 5 6 
#
# 1 141.4494 24.8258 52.8222 0.0000 -1.9945 0.0000
# 2 24.8258 39.7323 24.0708 0.0000 -2.7565 0.0000
# 3 52.8222 24.0708 123.4963 0.0000 -2.8187 0.0000
# 4 0.0000 0.0000 0.0000 26.0810 0.0000 -1.5224
# 5 -1.9945 -2.7565 -2.8187 0.0000 31.3686 0.0000
# 6 0.0000 0.0000 0.0000 -1.5224 0.0000 29.3808
#
#
#
# Elastic Compliance Matrix: (Units=1/GPa)
#
#
# Indices 1 2 3 4 5 6 
#
# 1 0.008863 -0.003677 -0.003075 0.000000 -0.000036 0.000000
# 2 -0.003677 0.030191 -0.004265 0.000000 0.002036 0.000000
# 3 -0.003075 -0.004265 0.010252 0.000000 0.000351 0.000000
# 4 0.000000 0.000000 0.000000 0.038458 0.000000 0.001993
# 5 -0.000036 0.002036 0.000351 0.000000 0.032087 0.000000
# 6 0.000000 0.000000 0.000000 0.001993 0.000000 0.034139
#
#
# Mechanical properties :
#
#
# Convention : Reuss Voigt Hill
#
# Bulk Modulus (GPa) = 36.66882 56.45727 46.56305
# Shear Modulus (GPa) = 27.01003 30.89669 28.95336
#
# Velocity S-wave (km/s) = 3.69045 3.94705 3.82091
# Velocity P-wave (km/s) = 6.05384 7.01713 6.55321
#
# Compressibility (1/GPa) = 0.02727112
#
# Stress axis : x y z
#
# Youngs Moduli (GPa) = 112.83051 33.12203 97.54217
#
# Poissons Ratio (x) = 0.12180 0.29993
# Poissons Ratio (y) = 0.41492 0.41604
# Poissons Ratio (z) = 0.34694 0.14127
#
# Static dielectric constant tensor:
#      x y z
#    x 3.894620 0.000000 0.073010 
#    y 0.000000 3.361960 0.000000 
#    z 0.073010 0.000000 3.764210 
# 
# 
# High freq. dielectric constant tensor:
#      x y z
#    x 1.789660 0.000000 0.000660 
#    y 0.000000 1.751500 0.000000 
#    z 0.000660 0.000000 1.781470 
# 
# From -- ./inp_files/64447.got.cif
#   From: 2010.06.25/outbox.cif.g09.slc.cpg/sg11_33_cif.got.tgz:64447.got - 2010.06.27 23:14:04.
