data_PCOD8076855
_publ_section_title
;
Structure prediction by ZEFSAII (Michael W. Deem and Ramdas Pophale) SiO2 
 PCOD8076855
Probable space group: P 21/M
;
_chemical_formula_sum "Si O2"
_cell_formula_units_Z 28
_cell_length_a 8.666163
_cell_length_b 14.238557
_cell_length_c 12.914729
_cell_angle_alpha 90.000000
_cell_angle_beta 119.524805
_cell_angle_gamma 90.000000
_cell_volume 1386.655170
_symmetry_space_group_name_H-M "P 21/M"
_symmetry_group_IT_number 11
_symmetry_cell_setting 'monoclinic'
loop_
_space_group_symop_operation_xyz
x,y,z
-x,1/2+y,-z
-x,-y,-z
x,1/2-y,z
loop_
_atom_site_type_symbol
_atom_site_label
_atom_site_fract_x
_atom_site_fract_y
_atom_site_fract_z
Si Si1 0.858027 0.855516 0.082991
Si Si2 0.772053 0.858090 0.825768
Si Si3 0.207660 0.643476 0.305839
Si Si4 0.355745 0.494965 0.863384
Si Si5 0.054321 0.858068 0.752546
Si Si6 0.137362 0.495942 0.452714
Si Si7 0.503767 0.485314 0.688271
O O1 0.787062 0.750000 0.071067
O O2 0.070064 0.859972 0.164460
O O3 0.779610 0.913685 0.151853
O O4 0.798565 0.894922 0.951691
O O5 0.708483 0.750000 0.800676
O O6 0.622683 0.920486 0.720421
O O7 0.963599 0.868701 0.834955
O O8 0.240728 0.750000 0.354056
O O9 0.124741 0.586401 0.374577
O O10 0.388764 0.602316 0.320874
O O11 0.246255 0.591921 0.814902
O O12 0.446767 0.466215 0.786659
O O13 0.500000 0.500000 0.000000
O O14 0.087208 0.750000 0.733460
O O15 0.913929 0.901731 0.625723
O O16 0.336371 0.494494 0.559034
O O17 0.000000 0.500000 0.500000
#
# Coordination Sequence:
#
# PCOD8076855 Si02
#       7
#     4   4   4   4   4   4   4
#     4  10  21  41  65  94 131 171 214 264 329 393
#     4  10  22  40  67  97 128 171 220 272 327 388
#     4  11  25  43  67  97 130 172 218 270 329 388
#     4  12  24  40  67  97 133 172 208 272 330 384
#     4  11  25  45  68  95 129 174 223 266 324 392
#     4  12  24  46  67  94 131 173 220 267 326 386
#     4  12  24  41  67  95 132 169 221 271 323 390
#
# _framework density 20.192474000000001
#
# number of rings (size 3 to 8) (size 9 to 14) (size 15 to 20)
#    0.000    0.857    5.714    0.429    2.000    4.571 
#    0.000    0.000    0.000    0.000    0.000    0.000 
#    0.000    0.000    0.000    0.000    0.000    0.000 
#
# Total GULP energy -347240.813963 kJ/mol
# GULP energy per Si atom -12401.457642 kJ/mol
# Density = 2.014651 g / cm^3
# Si number density = 20.192474 Si / 1000 Ang^3
#
#
#
# Elastic Constant Matrix: (Units=GPa)
#
#
# Indices 1 2 3 4 5 6 
#
# 1 116.0205 59.7673 39.3890 0.0000 -4.9628 0.0000
# 2 59.7673 134.6355 58.6087 0.0000 -2.5822 0.0000
# 3 39.3890 58.6087 115.2014 0.0000 13.4394 0.0000
# 4 0.0000 0.0000 0.0000 26.0914 0.0000 1.5238
# 5 -4.9628 -2.5822 13.4394 0.0000 45.3577 0.0000
# 6 0.0000 0.0000 0.0000 1.5238 0.0000 18.8088
#
#
#
# Elastic Compliance Matrix: (Units=1/GPa)
#
#
# Indices 1 2 3 4 5 6 
#
# 1 0.011539 -0.004229 -0.001982 0.000000 0.001609 0.000000
# 2 -0.004229 0.011278 -0.004467 0.000000 0.001503 0.000000
# 3 -0.001982 -0.004467 0.012104 0.000000 -0.004058 0.000000
# 4 0.000000 0.000000 0.000000 0.038509 0.000000 -0.003120
# 5 0.001609 0.001503 -0.004058 0.000000 0.023511 0.000000
# 6 0.000000 0.000000 0.000000 -0.003120 0.000000 0.053419
#
#
# Mechanical properties :
#
#
# Convention : Reuss Voigt Hill
#
# Bulk Modulus (GPa) = 73.71423 75.70971 74.71197
# Shear Modulus (GPa) = 28.37063 31.92439 30.14751
#
# Velocity S-wave (km/s) = 3.75241 3.98050 3.86814
# Velocity P-wave (km/s) = 7.44038 7.66167 7.55184
#
# Compressibility (1/GPa) = 0.01356590
#
# Stress axis : x y z
#
# Youngs Moduli (GPa) = 86.66017 88.66609 82.61714
#
# Poissons Ratio (x) = 0.37497 0.16372
# Poissons Ratio (y) = 0.36649 0.36907
# Poissons Ratio (z) = 0.17173 0.39609
#
# Static dielectric constant tensor:
#      x y z
#    x 3.629620 0.000000 -0.209570 
#    y 0.000000 3.817660 0.000000 
#    z -0.209570 0.000000 3.743420 
# 
# 
# High freq. dielectric constant tensor:
#      x y z
#    x 1.797400 0.000000 0.000760 
#    y 0.000000 1.787920 0.000000 
#    z 0.000760 0.000000 1.798250 
# 
# From -- ./inp_files/17692.got.cif
#   From: 2010.06.25/outbox.cif.g09.slc.cpg/sg11_9_cif.got.tgz:17692.got - 2010.06.27 23:14:04.
