data_PCOD8076828
_publ_section_title
;
Structure prediction by ZEFSAII (Michael W. Deem and Ramdas Pophale) SiO2 
 PCOD8076828
Probable space group: P 21/M
;
_chemical_formula_sum "Si O2"
_cell_formula_units_Z 32
_cell_length_a 12.590307
_cell_length_b 13.319021
_cell_length_c 19.413637
_cell_angle_alpha 90.000000
_cell_angle_beta 152.621101
_cell_angle_gamma 90.000000
_cell_volume 1497.108374
_symmetry_space_group_name_H-M "P 21/M"
_symmetry_group_IT_number 11
_symmetry_cell_setting 'monoclinic'
loop_
_space_group_symop_operation_xyz
x,y,z
-x,1/2+y,-z
-x,-y,-z
x,1/2-y,z
loop_
_atom_site_type_symbol
_atom_site_label
_atom_site_fract_x
_atom_site_fract_y
_atom_site_fract_z
Si Si1 0.263914 0.475210 0.160223
Si Si2 0.908969 0.133045 0.606670
Si Si3 0.665567 0.869950 0.393057
Si Si4 0.868473 0.633588 0.656760
Si Si5 0.259582 0.477736 0.896332
Si Si6 0.430124 0.133252 0.126146
Si Si7 0.426399 0.133379 0.383309
Si Si8 0.085023 0.631772 0.542847
O O1 0.422806 0.574285 0.241602
O O2 0.329955 0.389451 0.143793
O O3 0.281076 0.431271 0.246270
O O4 0.000000 0.500000 0.000000
O O5 0.917204 0.250000 0.600236
O O6 0.694551 0.101102 0.531668
O O7 0.882399 0.083733 0.514907
O O8 0.140866 0.102228 0.778099
O O9 0.621909 0.750000 0.365511
O O10 0.777977 0.902095 0.530509
O O11 0.844474 0.906859 0.436815
O O12 0.935635 0.750000 0.694937
O O13 0.662262 0.609943 0.591192
O O14 0.102551 0.576711 0.812382
O O15 0.500000 0.500000 0.000000
O O16 0.296811 0.432710 0.993389
O O17 0.391781 0.250000 0.086957
O O18 0.701993 0.104527 0.284119
O O19 0.394841 0.250000 0.346736
O O20 0.073233 0.750000 0.529373
#
# Coordination Sequence:
#
# PCOD8076828 Si02
#       8
#     4   4   4   4   4   4   4   4
#     4  12  25  39  62  94 132 173 217 266 329 398
#     4  10  21  40  68  97 124 168 221 271 318 382
#     4  10  23  42  66  96 128 171 222 276 326 384
#     4  10  23  44  67  92 129 175 223 275 328 384
#     4  12  26  40  62  99 136 176 213 264 331 399
#     4  11  24  43  65  95 135 173 214 271 336 390
#     4  10  21  42  67  90 120 167 226 277 323 381
#     4   9  19  40  69  94 125 168 217 267 320 382
#
# _framework density 21.374537
#
# number of rings (size 3 to 8) (size 9 to 14) (size 15 to 20)
#    0.000    1.500    1.250    3.000    1.750    6.500 
#    0.000    1.875    0.000    0.000    0.000    0.000 
#    0.000    0.000    0.000    0.000    0.000    0.000 
#
# Total GULP energy -396900.578537 kJ/mol
# GULP energy per Si atom -12403.143079 kJ/mol
# Density = 2.132589 g / cm^3
# Si number density = 21.374537 Si / 1000 Ang^3
#
#
#
# Elastic Constant Matrix: (Units=GPa)
#
#
# Indices 1 2 3 4 5 6 
#
# 1 138.2840 49.1061 72.6044 0.0000 8.7181 0.0000
# 2 49.1061 57.4989 38.4903 0.0000 7.6621 0.0000
# 3 72.6044 38.4903 144.3644 0.0000 14.6959 0.0000
# 4 0.0000 0.0000 0.0000 42.5834 0.0000 -0.5094
# 5 8.7181 7.6621 14.6959 0.0000 45.5734 0.0000
# 6 0.0000 0.0000 0.0000 -0.5094 0.0000 29.8394
#
#
#
# Elastic Compliance Matrix: (Units=1/GPa)
#
#
# Indices 1 2 3 4 5 6 
#
# 1 0.012047 -0.007609 -0.004059 0.000000 0.000284 0.000000
# 2 -0.007609 0.026120 -0.002935 0.000000 -0.001989 0.000000
# 3 -0.004059 -0.002935 0.009948 0.000000 -0.001938 0.000000
# 4 0.000000 0.000000 0.000000 0.023488 0.000000 0.000401
# 5 0.000284 -0.001989 -0.001938 0.000000 0.022848 0.000000
# 6 0.000000 0.000000 0.000000 0.000401 0.000000 0.033520
#
#
# Mechanical properties :
#
#
# Convention : Reuss Voigt Hill
#
# Bulk Modulus (GPa) = 52.88422 73.39433 63.13928
# Shear Modulus (GPa) = 30.58519 35.59568 33.09043
#
# Velocity S-wave (km/s) = 3.78685 4.08527 3.93889
# Velocity P-wave (km/s) = 6.62689 7.52758 7.09155
#
# Compressibility (1/GPa) = 0.01890923
#
# Stress axis : x y z
#
# Youngs Moduli (GPa) = 83.01048 38.28527 100.52428
#
# Poissons Ratio (x) = 0.29132 0.40800
# Poissons Ratio (y) = 0.63164 0.29500
# Poissons Ratio (z) = 0.33691 0.11235
#
# Static dielectric constant tensor:
#      x y z
#    x 3.969600 0.000000 0.063990 
#    y 0.000000 3.950550 0.000000 
#    z 0.063990 0.000000 3.844590 
# 
# 
# High freq. dielectric constant tensor:
#      x y z
#    x 1.850560 0.000000 -0.000460 
#    y 0.000000 1.857390 0.000000 
#    z -0.000460 0.000000 1.831910 
# 
# From -- ./inp_files/59522.got.cif
#   From: 2010.06.25/outbox.cif.g09.slc.cpg/sg11_30_cif.got.tgz:59522.got - 2010.06.27 23:14:04.
