data_PCOD8076188
_publ_section_title
;
Structure prediction by ZEFSAII (Michael W. Deem and Ramdas Pophale) SiO2 
 PCOD8076188
Probable space group: P 21/M
;
_chemical_formula_sum "Si O2"
_cell_formula_units_Z 28
_cell_length_a 6.653634
_cell_length_b 14.327879
_cell_length_c 18.428946
_cell_angle_alpha 90.000000
_cell_angle_beta 128.029708
_cell_angle_gamma 90.000000
_cell_volume 1383.876799
_symmetry_space_group_name_H-M "P 21/M"
_symmetry_group_IT_number 11
_symmetry_cell_setting 'monoclinic'
loop_
_space_group_symop_operation_xyz
x,y,z
-x,1/2+y,-z
-x,-y,-z
x,1/2-y,z
loop_
_atom_site_type_symbol
_atom_site_label
_atom_site_fract_x
_atom_site_fract_y
_atom_site_fract_z
Si Si1 0.527601 0.356220 0.197990
Si Si2 0.863920 0.027544 0.376851
Si Si3 0.939462 0.853504 0.150874
Si Si4 0.045077 0.024249 0.092601
Si Si5 0.094414 0.855378 0.344791
Si Si6 0.390517 0.448361 0.545458
Si Si7 0.401568 0.646991 0.956343
O O1 0.535963 0.250000 0.228244
O O2 0.753596 0.414259 0.285521
O O3 0.257991 0.400322 0.158426
O O4 0.549826 0.362214 0.117504
O O5 0.103919 0.087432 0.462201
O O6 0.647200 0.012946 0.390723
O O7 0.976123 0.927039 0.376555
O O8 0.043243 0.750000 0.154606
O O9 0.933760 0.868819 0.235592
O O10 0.657136 0.868011 0.058144
O O11 0.119713 0.929470 0.151967
O O12 0.782705 0.064740 0.063081
O O13 0.000000 0.000000 0.000000
O O14 0.062913 0.750000 0.368103
O O15 0.395964 0.869664 0.392085
O O16 0.500000 0.500000 0.500000
O O17 0.288761 0.750000 0.948762
#
# Coordination Sequence:
#
# PCOD8076188 Si02
#       7
#     4   4   4   4   4   4   4
#     4  11  24  41  61  90 122 159 207 253 297 360
#     4  10  21  39  65  89 122 160 200 249 308 369
#     4  10  21  38  58  85 122 161 201 246 295 352
#     4  12  23  35  61  83 117 162 205 247 298 345
#     4  10  21  37  61  90 123 158 202 251 300 361
#     4   9  20  41  63  89 121 157 195 249 307 366
#     4  10  22  40  58  84 124 160 200 248 294 348
#
# _framework density 20.233014000000001
#
# number of rings (size 3 to 8) (size 9 to 14) (size 15 to 20)
#    0.000    1.714    1.429    2.571    2.000    2.857 
#    0.000    6.429    0.000    0.000    0.000    0.000 
#    0.000    0.000    0.000    0.000    0.000    0.000 
#
# Total GULP energy -347068.565240 kJ/mol
# GULP energy per Si atom -12395.305901 kJ/mol
# Density = 2.018696 g / cm^3
# Si number density = 20.233014 Si / 1000 Ang^3
#
#
#
# Elastic Constant Matrix: (Units=GPa)
#
#
# Indices 1 2 3 4 5 6 
#
# 1 91.4569 53.1892 28.7936 0.0000 -5.6862 0.0000
# 2 53.1892 127.4274 39.6912 0.0000 0.4643 0.0000
# 3 28.7936 39.6912 115.2593 0.0000 8.8884 0.0000
# 4 0.0000 0.0000 0.0000 15.3501 0.0000 -5.4177
# 5 -5.6862 0.4643 8.8884 0.0000 21.6739 0.0000
# 6 0.0000 0.0000 0.0000 -5.4177 0.0000 30.1431
#
#
#
# Elastic Compliance Matrix: (Units=1/GPa)
#
#
# Indices 1 2 3 4 5 6 
#
# 1 0.015264 -0.005691 -0.002242 0.000000 0.005046 0.000000
# 2 -0.005691 0.010937 -0.002284 0.000000 -0.000791 0.000000
# 3 -0.002242 -0.002284 0.010393 0.000000 -0.004802 0.000000
# 4 0.000000 0.000000 0.000000 0.069558 0.000000 0.012502
# 5 0.005046 -0.000791 -0.004802 0.000000 0.049448 0.000000
# 6 0.000000 0.000000 0.000000 0.012502 0.000000 0.035422
#
#
# Mechanical properties :
#
#
# Convention : Reuss Voigt Hill
#
# Bulk Modulus (GPa) = 61.88305 64.16572 63.02438
# Shear Modulus (GPa) = 23.05807 27.59806 25.32806
#
# Velocity S-wave (km/s) = 3.37950 3.69726 3.54194
# Velocity P-wave (km/s) = 6.77345 7.07167 6.92416
#
# Compressibility (1/GPa) = 0.01615951
#
# Stress axis : x y z
#
# Youngs Moduli (GPa) = 65.51530 91.43008 96.21867
#
# Poissons Ratio (x) = 0.52033 0.21576
# Poissons Ratio (y) = 0.37285 0.21974
# Poissons Ratio (z) = 0.14691 0.20880
#
# Static dielectric constant tensor:
#      x y z
#    x 3.634680 0.000000 0.110090 
#    y 0.000000 3.938780 0.000000 
#    z 0.110090 0.000000 3.947200 
# 
# 
# High freq. dielectric constant tensor:
#      x y z
#    x 1.780040 0.000000 -0.000550 
#    y 0.000000 1.788490 0.000000 
#    z -0.000550 0.000000 1.807260 
# 
# From -- ./inp_files/8149.got.cif
#   From: 2010.06.25/outbox.cif.g09.slc.cpg/sg11_5_cif.got.tgz:8149.got - 2010.06.27 23:14:04.
