data_PCOD8076327
_publ_section_title
;
Structure prediction by ZEFSAII (Michael W. Deem and Ramdas Pophale) SiO2 
 PCOD8076327
Probable space group: P 21/M
;
_chemical_formula_sum "Si O2"
_cell_formula_units_Z 28
_cell_length_a 13.717717
_cell_length_b 8.855112
_cell_length_c 20.659575
_cell_angle_alpha 90.000000
_cell_angle_beta 144.308589
_cell_angle_gamma 90.000000
_cell_volume 1464.125140
_symmetry_space_group_name_H-M "P 21/M"
_symmetry_group_IT_number 11
_symmetry_cell_setting 'monoclinic'
loop_
_space_group_symop_operation_xyz
x,y,z
-x,1/2+y,-z
-x,-y,-z
x,1/2-y,z
loop_
_atom_site_type_symbol
_atom_site_label
_atom_site_fract_x
_atom_site_fract_y
_atom_site_fract_z
Si Si1 0.299727 0.922966 0.806601
Si Si2 0.509110 0.072879 0.270950
Si Si3 0.658338 0.576456 0.951613
Si Si4 0.102212 0.576298 0.828225
Si Si5 0.829913 0.927675 0.385785
Si Si6 0.514897 0.426432 0.609520
Si Si7 0.248409 0.926255 0.380760
O O1 0.269645 0.750000 0.768194
O O2 0.495777 0.960870 0.907374
O O3 0.238253 0.951968 0.845793
O O4 0.197287 0.031180 0.703810
O O5 0.543540 0.250000 0.294122
O O6 0.378046 0.036974 0.142922
O O7 0.683382 0.991060 0.351728
O O8 0.433518 0.010907 0.296891
O O9 0.711039 0.750000 0.988099
O O10 0.812458 0.474785 0.058695
O O11 0.048013 0.750000 0.804274
O O12 0.941581 0.476965 0.726419
O O13 0.838451 0.750000 0.398999
O O14 0.000000 0.000000 0.500000
O O15 0.498665 0.250000 0.614400
O O16 0.660508 0.465117 0.637367
O O17 0.337416 0.485831 0.487361
O O18 0.257953 0.750000 0.401751
#
# Coordination Sequence:
#
# PCOD8076327 Si02
#       7
#     4   4   4   4   4   4   4
#     4   9  20  37  54  78 113 151 189 232 279 331
#     4  10  21  38  60  83 111 149 186 228 285 341
#     4   9  19  37  57  80 113 150 189 230 279 338
#     4  11  22  35  57  85 115 148 190 238 282 330
#     4  11  22  35  53  79 113 149 188 233 275 332
#     4  10  21  39  62  86 112 145 186 234 285 339
#     4  10  22  39  59  84 115 148 186 232 283 339
#
# _framework density 19.124048999999999
#
# number of rings (size 3 to 8) (size 9 to 14) (size 15 to 20)
#    0.000    2.000    0.000    4.286    2.000    5.714 
#    0.000    0.714    0.000    0.000    0.000    0.000 
#    0.000    0.000    0.000    0.000    0.000    0.000 
#
# Total GULP energy -347317.361322 kJ/mol
# GULP energy per Si atom -12404.191476 kJ/mol
# Density = 1.908052 g / cm^3
# Si number density = 19.124049 Si / 1000 Ang^3
#
#
#
# Elastic Constant Matrix: (Units=GPa)
#
#
# Indices 1 2 3 4 5 6 
#
# 1 63.9560 31.2183 34.3074 0.0000 -17.3980 0.0000
# 2 31.2183 91.7124 29.5592 0.0000 -9.2877 0.0000
# 3 34.3074 29.5592 79.7531 0.0000 -6.3278 0.0000
# 4 0.0000 0.0000 0.0000 37.8981 0.0000 -2.5752
# 5 -17.3980 -9.2877 -6.3278 0.0000 25.0099 0.0000
# 6 0.0000 0.0000 0.0000 -2.5752 0.0000 32.2838
#
#
#
# Elastic Compliance Matrix: (Units=1/GPa)
#
#
# Indices 1 2 3 4 5 6 
#
# 1 0.026457 -0.004817 -0.008447 0.000000 0.014478 0.000000
# 2 -0.004817 0.013569 -0.002881 0.000000 0.000959 0.000000
# 3 -0.008447 -0.002881 0.017031 0.000000 -0.002637 0.000000
# 4 0.000000 0.000000 0.000000 0.026530 0.000000 0.002116
# 5 0.014478 0.000959 -0.002637 0.000000 0.049745 0.000000
# 6 0.000000 0.000000 0.000000 0.002116 0.000000 0.031144
#
#
# Mechanical properties :
#
#
# Convention : Reuss Voigt Hill
#
# Bulk Modulus (GPa) = 40.37612 47.28790 43.83201
# Shear Modulus (GPa) = 24.38775 28.39414 26.39094
#
# Velocity S-wave (km/s) = 3.57492 3.85741 3.71885
# Velocity P-wave (km/s) = 6.18051 6.67982 6.43501
#
# Compressibility (1/GPa) = 0.02476712
#
# Stress axis : x y z
#
# Youngs Moduli (GPa) = 37.79768 73.69743 58.71722
#
# Poissons Ratio (x) = 0.35500 0.49597
# Poissons Ratio (y) = 0.18207 0.16916
# Poissons Ratio (z) = 0.31927 0.21231
#
# Static dielectric constant tensor:
#      x y z
#    x 3.655040 0.000000 -0.326010 
#    y 0.000000 3.759520 0.000000 
#    z -0.326010 0.000000 3.611500 
# 
# 
# High freq. dielectric constant tensor:
#      x y z
#    x 1.733990 0.000000 -0.009320 
#    y 0.000000 1.754080 0.000000 
#    z -0.009320 0.000000 1.743740 
# 
# From -- ./inp_files/38464.got.cif
#   From: 2010.06.25/outbox.cif.g09.slc.cpg/sg11_20_cif.got.tgz:38464.got - 2010.06.27 23:14:04.
