data_PCOD8076128
_publ_section_title
;
Structure prediction by ZEFSAII (Michael W. Deem and Ramdas Pophale) SiO2 
 PCOD8076128
Probable space group: P 21/M
;
_chemical_formula_sum "Si O2"
_cell_formula_units_Z 32
_cell_length_a 12.805035
_cell_length_b 8.844329
_cell_length_c 31.046354
_cell_angle_alpha 90.000000
_cell_angle_beta 154.383664
_cell_angle_gamma 90.000000
_cell_volume 1520.143387
_symmetry_space_group_name_H-M "P 21/M"
_symmetry_group_IT_number 11
_symmetry_cell_setting 'monoclinic'
loop_
_space_group_symop_operation_xyz
x,y,z
-x,1/2+y,-z
-x,-y,-z
x,1/2-y,z
loop_
_atom_site_type_symbol
_atom_site_label
_atom_site_fract_x
_atom_site_fract_y
_atom_site_fract_z
Si Si1 0.628322 0.071280 0.007940
Si Si2 0.505589 0.914206 0.129167
Si Si3 0.040367 0.416032 0.058588
Si Si4 0.190749 0.072759 0.421906
Si Si5 0.766270 0.930435 0.309502
Si Si6 0.423374 0.927587 0.256869
Si Si7 0.161228 0.427548 0.232838
Si Si8 0.746396 0.072619 0.642717
O O1 0.593819 0.250000 0.996045
O O2 0.914962 0.031932 0.115708
O O3 0.470975 0.002773 0.908527
O O4 0.500000 0.000000 0.000000
O O5 0.635507 0.750000 0.177276
O O6 0.599545 0.996345 0.207640
O O7 0.220747 0.886951 0.019773
O O8 0.168552 0.250000 0.102061
O O9 0.189131 0.531635 0.142586
O O10 0.000000 0.500000 0.000000
O O11 0.143537 0.250000 0.401435
O O12 0.463757 0.032739 0.535437
O O13 0.120627 0.998849 0.349679
O O14 0.029890 0.001438 0.400480
O O15 0.774839 0.750000 0.312101
O O16 0.655751 0.981901 0.314665
O O17 0.435746 0.750000 0.270153
O O18 0.393343 0.010314 0.291916
O O19 0.196703 0.250000 0.251893
O O20 0.146918 0.502886 0.274318
O O21 0.794546 0.250000 0.660117
#
# Coordination Sequence:
#
# PCOD8076128 Si02
#       8
#     4   4   4   4   4   4   4   4
#     4  10  22  38  54  79 117 157 196 241 289 343
#     4   9  18  35  53  75 112 155 194 234 285 340
#     4  11  19  33  53  76 110 152 197 243 286 336
#     4  10  22  41  65  94 121 146 190 247 299 356
#     4  10  21  37  59  87 121 159 198 244 299 353
#     4  11  22  37  57  85 119 159 204 246 295 358
#     4  11  23  40  62  88 120 158 201 248 295 351
#     4  10  22  42  67  91 118 153 191 240 301 361
#
# _framework density 21.050644999999999
#
# number of rings (size 3 to 8) (size 9 to 14) (size 15 to 20)
#    0.000    1.750    2.500    1.875    1.750    3.500 
#    0.000    0.625    0.000    0.000    0.000    0.000 
#    0.000    0.000    0.000    0.000    0.000    0.000 
#
# Total GULP energy -396443.716536 kJ/mol
# GULP energy per Si atom -12388.866142 kJ/mol
# Density = 2.100273 g / cm^3
# Si number density = 21.050645 Si / 1000 Ang^3
#
#
#
# Elastic Constant Matrix: (Units=GPa)
#
#
# Indices 1 2 3 4 5 6 
#
# 1 106.4626 28.2419 -2.4969 0.0000 9.2202 0.0000
# 2 28.2419 53.5204 10.5859 0.0000 4.5710 0.0000
# 3 -2.4969 10.5859 23.3103 0.0000 1.0974 0.0000
# 4 0.0000 0.0000 0.0000 27.0719 0.0000 0.5417
# 5 9.2202 4.5710 1.0974 0.0000 34.9346 0.0000
# 6 0.0000 0.0000 0.0000 0.5417 0.0000 35.7639
#
#
#
# Elastic Compliance Matrix: (Units=1/GPa)
#
#
# Indices 1 2 3 4 5 6 
#
# 1 0.011480 -0.006732 0.004394 0.000000 -0.002287 0.000000
# 2 -0.006732 0.024678 -0.011877 0.000000 -0.001079 0.000000
# 3 0.004394 -0.011877 0.048818 0.000000 -0.001139 0.000000
# 4 0.000000 0.000000 0.000000 0.036950 0.000000 -0.000560
# 5 -0.002287 -0.001079 -0.001139 0.000000 0.029406 0.000000
# 6 0.000000 0.000000 0.000000 -0.000560 0.000000 0.027970
#
#
# Mechanical properties :
#
#
# Convention : Reuss Voigt Hill
#
# Bulk Modulus (GPa) = 17.68457 28.43946 23.06201
# Shear Modulus (GPa) = 22.06744 29.35158 25.70951
#
# Velocity S-wave (km/s) = 3.24126 3.73813 3.49853
# Velocity P-wave (km/s) = 4.73571 5.67193 5.22483
#
# Compressibility (1/GPa) = 0.05654648
#
# Stress axis : x y z
#
# Youngs Moduli (GPa) = 87.10940 40.52195 20.48441
#
# Poissons Ratio (x) = 0.27278 -0.09002
# Poissons Ratio (y) = 0.58638 0.24330
# Poissons Ratio (z) = -0.38279 0.48129
#
# Static dielectric constant tensor:
#      x y z
#    x 4.046400 0.000000 0.010340 
#    y 0.000000 3.429890 0.000000 
#    z 0.010340 0.000000 3.648580 
# 
# 
# High freq. dielectric constant tensor:
#      x y z
#    x 1.844610 0.000000 -0.001890 
#    y 0.000000 1.810410 0.000000 
#    z -0.001890 0.000000 1.802280 
# 
# From -- ./inp_files/73176.got.cif
#   From: 2010.06.25/outbox.cif.g09.slc.cpg/sg11_37_cif.got.tgz:73176.got - 2010.06.27 23:14:04.
