data_PCOD8076136
_publ_section_title
;
Structure prediction by ZEFSAII (Michael W. Deem and Ramdas Pophale) SiO2 
 PCOD8076136
Probable space group: P 21/M
;
_chemical_formula_sum "Si O2"
_cell_formula_units_Z 32
_cell_length_a 15.264614
_cell_length_b 9.075631
_cell_length_c 10.900321
_cell_angle_alpha 90.000000
_cell_angle_beta 80.007458
_cell_angle_gamma 90.000000
_cell_volume 1487.179421
_symmetry_space_group_name_H-M "P 21/M"
_symmetry_group_IT_number 11
_symmetry_cell_setting 'monoclinic'
loop_
_space_group_symop_operation_xyz
x,y,z
-x,1/2+y,-z
-x,-y,-z
x,1/2-y,z
loop_
_atom_site_type_symbol
_atom_site_label
_atom_site_fract_x
_atom_site_fract_y
_atom_site_fract_z
Si Si1 0.956347 0.076770 0.126957
Si Si2 0.262023 0.416985 0.071418
Si Si3 0.222286 0.085958 0.817309
Si Si4 0.908051 0.414786 0.511254
Si Si5 0.551359 0.576554 0.875906
Si Si6 0.100320 0.586048 0.213829
Si Si7 0.444647 0.425080 0.404289
Si Si8 0.257301 0.082789 0.543764
O O1 0.968032 0.250000 0.116024
O O2 0.853802 0.036748 0.164497
O O3 0.010818 0.013417 0.230415
O O4 0.000000 0.000000 0.000000
O O5 0.235418 0.250000 0.112005
O O6 0.345463 0.466939 0.132067
O O7 0.177719 0.519357 0.112552
O O8 0.285603 0.432640 0.920836
O O9 0.178432 0.250000 0.829677
O O10 0.283183 0.068911 0.681548
O O11 0.925023 0.250000 0.454952
O O12 0.865343 0.407260 0.656341
O O13 0.833657 0.492570 0.447795
O O14 0.000000 0.500000 0.500000
O O15 0.536998 0.750000 0.895746
O O16 0.524618 0.528642 0.742269
O O17 0.500000 0.500000 0.000000
O O18 0.079303 0.750000 0.168524
O O19 0.500000 0.500000 0.500000
O O20 0.453016 0.250000 0.419028
O O21 0.341487 0.475012 0.445597
O O22 0.235962 0.250000 0.510284
#
# Coordination Sequence:
#
# PCOD8076136 Si02
#       8
#     4   4   4   4   4   4   4   4
#     4  12  23  36  55  83 120 162 205 253 307 365
#     4  10  21  38  62  89 119 158 204 252 311 373
#     4  10  21  37  59  89 121 159 207 257 309 366
#     4  11  24  40  60  88 122 162 208 257 310 372
#     4  10  23  42  66  98 130 164 209 259 314 382
#     4  11  23  38  58  85 118 155 202 254 305 363
#     4  10  23  43  68  99 132 170 216 264 322 388
#     4  10  22  41  65  91 125 165 211 264 315 375
#
# _framework density 21.517240999999999
#
# number of rings (size 3 to 8) (size 9 to 14) (size 15 to 20)
#    0.000    1.500    1.250    3.375    1.750    8.000 
#    0.000    0.000    0.000    0.000    0.000    0.000 
#    0.000    0.000    0.000    0.000    0.000    0.000 
#
# Total GULP energy -396669.290202 kJ/mol
# GULP energy per Si atom -12395.915319 kJ/mol
# Density = 2.146827 g / cm^3
# Si number density = 21.517241 Si / 1000 Ang^3
#
#
#
# Elastic Constant Matrix: (Units=GPa)
#
#
# Indices 1 2 3 4 5 6 
#
# 1 90.5727 44.6339 40.4357 0.0000 7.3963 0.0000
# 2 44.6339 117.3342 35.1584 0.0000 3.4277 0.0000
# 3 40.4357 35.1584 128.5372 0.0000 8.1577 0.0000
# 4 0.0000 0.0000 0.0000 30.1014 0.0000 1.1507
# 5 7.3963 3.4277 8.1577 0.0000 35.3743 0.0000
# 6 0.0000 0.0000 0.0000 1.1507 0.0000 33.9808
#
#
#
# Elastic Compliance Matrix: (Units=1/GPa)
#
#
# Indices 1 2 3 4 5 6 
#
# 1 0.014966 -0.004643 -0.003316 0.000000 -0.001914 0.000000
# 2 -0.004643 0.010728 -0.001491 0.000000 0.000275 0.000000
# 3 -0.003316 -0.001491 0.009314 0.000000 -0.001310 0.000000
# 4 0.000000 0.000000 0.000000 0.033264 0.000000 -0.001126
# 5 -0.001914 0.000275 -0.001310 0.000000 0.028945 0.000000
# 6 0.000000 0.000000 0.000000 -0.001126 0.000000 0.029467
#
#
# Mechanical properties :
#
#
# Convention : Reuss Voigt Hill
#
# Bulk Modulus (GPa) = 62.08831 64.09998 63.09415
# Shear Modulus (GPa) = 33.12268 34.30572 33.71420
#
# Velocity S-wave (km/s) = 3.92772 3.99725 3.96263
# Velocity P-wave (km/s) = 7.03471 7.15253 7.09386
#
# Compressibility (1/GPa) = 0.01610609
#
# Stress axis : x y z
#
# Youngs Moduli (GPa) = 66.81781 93.21612 107.36355
#
# Poissons Ratio (x) = 0.43284 0.35607
# Poissons Ratio (y) = 0.31026 0.16009
# Poissons Ratio (z) = 0.22160 0.13899
#
# Static dielectric constant tensor:
#      x y z
#    x 3.711130 0.000000 0.196150 
#    y 0.000000 3.957870 0.000000 
#    z 0.196150 0.000000 4.332270 
# 
# 
# High freq. dielectric constant tensor:
#      x y z
#    x 1.825070 0.000000 0.006440 
#    y 0.000000 1.837100 0.000000 
#    z 0.006440 0.000000 1.868790 
# 
# From -- ./inp_files/38221.got.cif
#   From: 2010.06.25/outbox.cif.g09.slc.cpg/sg11_20_cif.got.tgz:38221.got - 2010.06.27 23:14:04.
