data_PCOD8076778
_publ_section_title
;
Structure prediction by ZEFSAII (Michael W. Deem and Ramdas Pophale) SiO2 
 PCOD8076778
Probable space group: P 21/M
;
_chemical_formula_sum "Si O2"
_cell_formula_units_Z 24
_cell_length_a 9.252189
_cell_length_b 13.761127
_cell_length_c 14.151314
_cell_angle_alpha 90.000000
_cell_angle_beta 139.007895
_cell_angle_gamma 90.000000
_cell_volume 1181.868974
_symmetry_space_group_name_H-M "P 21/M"
_symmetry_group_IT_number 11
_symmetry_cell_setting 'monoclinic'
loop_
_space_group_symop_operation_xyz
x,y,z
-x,1/2+y,-z
-x,-y,-z
x,1/2-y,z
loop_
_atom_site_type_symbol
_atom_site_label
_atom_site_fract_x
_atom_site_fract_y
_atom_site_fract_z
Si Si1 0.524864 0.859522 0.168027
Si Si2 0.931681 0.136554 0.743777
Si Si3 0.986722 0.408768 0.562504
Si Si4 0.567008 0.860783 0.984079
Si Si5 0.464561 0.642214 0.733845
Si Si6 0.231800 0.978618 0.163967
O O1 0.440510 0.750000 0.120122
O O2 0.503126 0.911035 0.052937
O O3 0.370632 0.912291 0.163736
O O4 0.779188 0.855194 0.327667
O O5 0.855517 0.250000 0.691761
O O6 0.928670 0.074963 0.644582
O O7 0.780632 0.078282 0.743163
O O8 0.173649 0.134876 0.906753
O O9 0.782952 0.345558 0.424818
O O10 0.000000 0.500000 0.500000
O O11 0.487870 0.750000 0.954022
O O12 0.454217 0.906627 0.834646
O O13 0.570167 0.750000 0.790943
O O14 0.625993 0.576987 0.748352
O O15 0.000000 0.000000 0.000000
#
# Coordination Sequence:
#
# PCOD8076778 Si02
#       6
#     4   4   4   4   4   4
#     4  10  21  40  64  91 123 162 209 256 307 377
#     4  10  21  40  64  91 129 170 203 245 318 389
#     4  11  22  41  66  93 117 159 209 260 309 370
#     4   8  17  35  62  88 116 160 205 248 308 364
#     4  11  22  39  61  89 126 162 205 265 319 355
#     4  12  24  37  62  96 123 165 211 257 304 372
#
# _framework density 20.306819999999998
#
# number of rings (size 3 to 8) (size 9 to 14) (size 15 to 20)
#    0.000    1.667    3.333    3.000    0.000    3.333 
#    0.000    0.000    0.000    2.000    0.000    0.000 
#    0.000    0.000    0.000    0.000    0.000    0.000 
#
# Total GULP energy -297358.520587 kJ/mol
# GULP energy per Si atom -12389.938358 kJ/mol
# Density = 2.026060 g / cm^3
# Si number density = 20.306820 Si / 1000 Ang^3
#
#
#
# Elastic Constant Matrix: (Units=GPa)
#
#
# Indices 1 2 3 4 5 6 
#
# 1 167.1975 67.7625 52.3356 0.0000 -13.6355 0.0000
# 2 67.7625 73.0823 19.3371 0.0000 -9.3965 0.0000
# 3 52.3356 19.3371 115.5515 0.0000 -5.5332 0.0000
# 4 0.0000 0.0000 0.0000 21.6589 0.0000 -9.3560
# 5 -13.6355 -9.3965 -5.5332 0.0000 33.2687 0.0000
# 6 0.0000 0.0000 0.0000 -9.3560 0.0000 14.5435
#
#
#
# Elastic Compliance Matrix: (Units=1/GPa)
#
#
# Indices 1 2 3 4 5 6 
#
# 1 0.010735 -0.008907 -0.003308 0.000000 0.001334 0.000000
# 2 -0.008907 0.022167 0.000453 0.000000 0.002686 0.000000
# 3 -0.003308 0.000453 0.010098 0.000000 0.000452 0.000000
# 4 0.000000 0.000000 0.000000 0.063938 0.000000 0.041132
# 5 0.001334 0.002686 0.000452 0.000000 0.031439 0.000000
# 6 0.000000 0.000000 0.000000 0.041132 0.000000 0.095220
#
#
# Mechanical properties :
#
#
# Convention : Reuss Voigt Hill
#
# Bulk Modulus (GPa) = 51.34174 70.52242 60.93208
# Shear Modulus (GPa) = 18.96726 28.32062 23.64394
#
# Velocity S-wave (km/s) = 3.05951 3.73853 3.41594
# Velocity P-wave (km/s) = 6.14969 7.31022 6.75493
#
# Compressibility (1/GPa) = 0.01947733
#
# Stress axis : x y z
#
# Youngs Moduli (GPa) = 93.15454 45.11207 99.02895
#
# Poissons Ratio (x) = 0.40180 0.32755
# Poissons Ratio (y) = 0.82970 -0.04487
# Poissons Ratio (z) = 0.30812 -0.02044
#
# Static dielectric constant tensor:
#      x y z
#    x 4.337870 0.000000 -0.005070 
#    y 0.000000 3.677010 0.000000 
#    z -0.005070 0.000000 3.849400 
# 
# 
# High freq. dielectric constant tensor:
#      x y z
#    x 1.788530 0.000000 -0.013080 
#    y 0.000000 1.795230 0.000000 
#    z -0.013080 0.000000 1.791310 
# 
# From -- ./inp_files/47707.got.cif
#   From: 2010.06.25/outbox.cif.g09.slc.cpg/sg11_24_cif.got.tgz:47707.got - 2010.06.27 23:14:04.
