data_PCOD8076685
_publ_section_title
;
Structure prediction by ZEFSAII (Michael W. Deem and Ramdas Pophale) SiO2 
 PCOD8076685
Probable space group: P 21/M
;
_chemical_formula_sum "Si O2"
_cell_formula_units_Z 28
_cell_length_a 11.976846
_cell_length_b 14.752544
_cell_length_c 8.303929
_cell_angle_alpha 90.000000
_cell_angle_beta 67.685192
_cell_angle_gamma 90.000000
_cell_volume 1357.335307
_symmetry_space_group_name_H-M "P 21/M"
_symmetry_group_IT_number 11
_symmetry_cell_setting 'monoclinic'
loop_
_space_group_symop_operation_xyz
x,y,z
-x,1/2+y,-z
-x,-y,-z
x,1/2-y,z
loop_
_atom_site_type_symbol
_atom_site_label
_atom_site_fract_x
_atom_site_fract_y
_atom_site_fract_z
Si Si1 0.875266 0.512586 0.653586
Si Si2 0.690867 0.854272 0.227085
Si Si3 0.200184 0.644977 0.788931
Si Si4 0.518666 0.072506 0.850929
Si Si5 0.745028 0.351672 0.885090
Si Si6 0.924035 0.645494 0.910045
Si Si7 0.683399 0.997466 0.500152
O O1 0.841974 0.417224 0.752344
O O2 0.881762 0.591308 0.778820
O O3 0.776755 0.542472 0.577800
O O4 0.000000 0.500000 0.500000
O O5 0.673455 0.750000 0.287071
O O6 0.605991 0.876048 0.119424
O O7 0.651524 0.916800 0.396691
O O8 0.830290 0.875403 0.105976
O O9 0.213873 0.750000 0.730528
O O10 0.260135 0.585246 0.617748
O O11 0.059108 0.618735 0.890290
O O12 0.268956 0.623799 0.918268
O O13 0.617164 0.142870 0.864583
O O14 0.562634 0.026039 0.660621
O O15 0.500000 0.000000 0.000000
O O16 0.796219 0.250000 0.840583
O O17 0.916685 0.750000 0.865107
#
# Coordination Sequence:
#
# PCOD8076685 Si02
#       7
#     4   4   4   4   4   4   4
#     4  11  22  36  58  90 123 164 201 251 309 368
#     4  11  24  41  63  91 126 168 207 251 309 372
#     4  10  21  39  64  94 123 157 205 259 315 369
#     4  11  23  44  65  90 123 163 212 260 312 368
#     4  10  23  40  62  90 121 163 207 255 309 366
#     4  10  22  40  61  89 126 165 202 251 313 376
#     4  11  23  39  64  92 123 159 210 258 310 363
#
# _framework density 20.628654000000001
#
# number of rings (size 3 to 8) (size 9 to 14) (size 15 to 20)
#    0.000    1.429    1.429    4.286    2.000    5.143 
#    0.000    2.857    0.000    0.000    0.000    0.000 
#    0.000    0.000    0.000    0.000    0.000    0.000 
#
# Total GULP energy -347304.210447 kJ/mol
# GULP energy per Si atom -12403.721802 kJ/mol
# Density = 2.058170 g / cm^3
# Si number density = 20.628654 Si / 1000 Ang^3
#
#
#
# Elastic Constant Matrix: (Units=GPa)
#
#
# Indices 1 2 3 4 5 6 
#
# 1 66.5424 38.0572 38.5377 0.0000 0.0677 0.0000
# 2 38.0572 92.2961 57.8680 0.0000 4.2532 0.0000
# 3 38.5377 57.8680 114.4803 0.0000 -0.2325 0.0000
# 4 0.0000 0.0000 0.0000 18.6750 0.0000 8.8711
# 5 0.0677 4.2532 -0.2325 0.0000 40.0073 0.0000
# 6 0.0000 0.0000 0.0000 8.8711 0.0000 31.0061
#
#
#
# Elastic Compliance Matrix: (Units=1/GPa)
#
#
# Indices 1 2 3 4 5 6 
#
# 1 0.020806 -0.006172 -0.003883 0.000000 0.000598 0.000000
# 2 -0.006172 0.017814 -0.006931 0.000000 -0.001924 0.000000
# 3 -0.003883 -0.006931 0.013547 0.000000 0.000822 0.000000
# 4 0.000000 0.000000 0.000000 0.061970 0.000000 -0.017730
# 5 0.000598 -0.001924 0.000822 0.000000 0.025204 0.000000
# 6 0.000000 0.000000 0.000000 -0.017730 0.000000 0.037324
#
#
# Mechanical properties :
#
#
# Convention : Reuss Voigt Hill
#
# Bulk Modulus (GPa) = 54.95831 60.24940 57.60385
# Shear Modulus (GPa) = 23.07316 27.19476 25.13396
#
# Velocity S-wave (km/s) = 3.34803 3.63478 3.49435
# Velocity P-wave (km/s) = 6.45332 6.84730 6.65323
#
# Compressibility (1/GPa) = 0.01819561
#
# Stress axis : x y z
#
# Youngs Moduli (GPa) = 48.06256 56.13602 73.81564
#
# Poissons Ratio (x) = 0.34649 0.28661
# Poissons Ratio (y) = 0.29666 0.51160
# Poissons Ratio (z) = 0.18662 0.38906
#
# Static dielectric constant tensor:
#      x y z
#    x 4.105880 0.000000 0.009120 
#    y 0.000000 3.689020 0.000000 
#    z 0.009120 0.000000 3.737110 
# 
# 
# High freq. dielectric constant tensor:
#      x y z
#    x 1.819490 0.000000 0.004470 
#    y 0.000000 1.809510 0.000000 
#    z 0.004470 0.000000 1.808230 
# 
# From -- ./inp_files/17676.got.cif
#   From: 2010.06.25/outbox.cif.g09.slc.cpg/sg11_9_cif.got.tgz:17676.got - 2010.06.27 23:14:04.
