data_PCOD8076792
_publ_section_title
;
Structure prediction by ZEFSAII (Michael W. Deem and Ramdas Pophale) SiO2 
 PCOD8076792
Probable space group: P 21/M
;
_chemical_formula_sum "Si O2"
_cell_formula_units_Z 24
_cell_length_a 22.165831
_cell_length_b 8.801114
_cell_length_c 9.736911
_cell_angle_alpha 90.000000
_cell_angle_beta 39.641030
_cell_angle_gamma 90.000000
_cell_volume 1211.844599
_symmetry_space_group_name_H-M "P 21/M"
_symmetry_group_IT_number 11
_symmetry_cell_setting 'monoclinic'
loop_
_space_group_symop_operation_xyz
x,y,z
-x,1/2+y,-z
-x,-y,-z
x,1/2-y,z
loop_
_atom_site_type_symbol
_atom_site_label
_atom_site_fract_x
_atom_site_fract_y
_atom_site_fract_z
Si Si1 0.892029 0.425192 0.819711
Si Si2 0.767002 0.928859 0.534524
Si Si3 0.462934 0.076271 0.428482
Si Si4 0.084863 0.925672 0.532793
Si Si5 0.731695 0.427890 0.311648
Si Si6 0.422782 0.923686 0.039905
O O1 0.921580 0.250000 0.789651
O O2 0.874208 0.458999 0.690679
O O3 0.974823 0.530904 0.733115
O O4 0.796065 0.465965 0.067286
O O5 0.756427 0.750000 0.541477
O O6 0.860143 0.971305 0.455522
O O7 0.777722 0.996046 0.363942
O O8 0.676575 0.993325 0.772150
O O9 0.435542 0.250000 0.506165
O O10 0.500000 0.000000 0.500000
O O11 0.372247 0.991080 0.529622
O O12 0.546742 0.064932 0.171411
O O13 0.097070 0.750000 0.551551
O O14 0.724137 0.250000 0.351154
O O15 0.411107 0.750000 0.107399
O O16 0.500000 0.000000 0.000000
#
# Coordination Sequence:
#
# PCOD8076792 Si02
#       6
#     4   4   4   4   4   4
#     4   9  21  41  64  91 122 156 198 249 304 363
#     4  12  25  40  61  91 124 162 206 251 302 364
#     4  11  25  42  62  91 125 161 205 250 301 361
#     4  10  21  40  65  92 121 157 200 249 304 364
#     4  11  23  41  64  90 123 161 203 254 306 359
#     4  11  23  41  64  89 122 162 204 250 300 357
#
# _framework density 19.804521000000001
#
# number of rings (size 3 to 8) (size 9 to 14) (size 15 to 20)
#    0.000    1.333    1.667    3.500    2.333    4.667 
#    0.000    0.000    0.000    0.000    0.000    0.000 
#    0.000    0.000    0.000    0.000    0.000    0.000 
#
# Total GULP energy -297754.420561 kJ/mol
# GULP energy per Si atom -12406.434190 kJ/mol
# Density = 1.975944 g / cm^3
# Si number density = 19.804521 Si / 1000 Ang^3
#
#
#
# Elastic Constant Matrix: (Units=GPa)
#
#
# Indices 1 2 3 4 5 6 
#
# 1 93.2179 39.2830 12.9823 0.0000 15.5156 0.0000
# 2 39.2830 134.9461 36.2300 0.0000 8.0602 0.0000
# 3 12.9823 36.2300 77.8461 0.0000 6.9434 0.0000
# 4 0.0000 0.0000 0.0000 31.2868 0.0000 -3.1170
# 5 15.5156 8.0602 6.9434 0.0000 26.4241 0.0000
# 6 0.0000 0.0000 0.0000 -3.1170 0.0000 40.0371
#
#
#
# Elastic Compliance Matrix: (Units=1/GPa)
#
#
# Indices 1 2 3 4 5 6 
#
# 1 0.013316 -0.003472 -0.000002 0.000000 -0.006759 0.000000
# 2 -0.003472 0.009439 -0.003829 0.000000 0.000166 0.000000
# 3 -0.000002 -0.003829 0.014872 0.000000 -0.002739 0.000000
# 4 0.000000 0.000000 0.000000 0.032212 0.000000 0.002508
# 5 -0.006759 0.000166 -0.002739 0.000000 0.042482 0.000000
# 6 0.000000 0.000000 0.000000 0.002508 0.000000 0.025172
#
#
# Mechanical properties :
#
#
# Convention : Reuss Voigt Hill
#
# Bulk Modulus (GPa) = 43.43648 53.66675 48.55161
# Shear Modulus (GPa) = 31.29426 34.05059 32.67243
#
# Velocity S-wave (km/s) = 3.97943 4.15098 4.06611
# Velocity P-wave (km/s) = 6.56466 7.08034 6.82737
#
# Compressibility (1/GPa) = 0.02302213
#
# Stress axis : x y z
#
# Youngs Moduli (GPa) = 75.09745 105.94180 67.23860
#
# Poissons Ratio (x) = 0.36784 0.00013
# Poissons Ratio (y) = 0.26074 0.25744
# Poissons Ratio (z) = 0.00014 0.40563
#
# Static dielectric constant tensor:
#      x y z
#    x 3.229150 0.000000 -0.003620 
#    y 0.000000 3.786660 0.000000 
#    z -0.003620 0.000000 3.825300 
# 
# 
# High freq. dielectric constant tensor:
#      x y z
#    x 1.775540 0.000000 0.004040 
#    y 0.000000 1.787200 0.000000 
#    z 0.004040 0.000000 1.780200 
# 
# From -- ./inp_files/25743.got.cif
#   From: 2010.06.25/outbox.cif.g09.slc.cpg/sg11_13_cif.got.tgz:25743.got - 2010.06.27 23:14:04.
