data_PCOD8076339
_publ_section_title
;
Structure prediction by ZEFSAII (Michael W. Deem and Ramdas Pophale) SiO2 
 PCOD8076339
Probable space group: P 21/M
;
_chemical_formula_sum "Si O2"
_cell_formula_units_Z 32
_cell_length_a 22.168695
_cell_length_b 8.857751
_cell_length_c 13.868933
_cell_angle_alpha 90.000000
_cell_angle_beta 36.661190
_cell_angle_gamma 90.000000
_cell_volume 1626.074970
_symmetry_space_group_name_H-M "P 21/M"
_symmetry_group_IT_number 11
_symmetry_cell_setting 'monoclinic'
loop_
_space_group_symop_operation_xyz
x,y,z
-x,1/2+y,-z
-x,-y,-z
x,1/2-y,z
loop_
_atom_site_type_symbol
_atom_site_label
_atom_site_fract_x
_atom_site_fract_y
_atom_site_fract_z
Si Si1 0.308279 0.572043 0.835062
Si Si2 0.226168 0.078892 0.277165
Si Si3 0.915593 0.927867 0.174587
Si Si4 0.053287 0.425037 0.645773
Si Si5 0.142965 0.423790 0.176551
Si Si6 0.293228 0.070902 0.647380
Si Si7 0.500112 0.070637 0.292161
Si Si8 0.436057 0.927435 0.997993
O O1 0.308133 0.750000 0.818874
O O2 0.288739 0.491304 0.760121
O O3 0.414223 0.514219 0.743359
O O4 0.219395 0.530169 0.021628
O O5 0.268111 0.250000 0.224676
O O6 0.159228 0.047325 0.456987
O O7 0.157954 0.050780 0.270789
O O8 0.318803 0.964641 0.160815
O O9 0.922728 0.750000 0.153426
O O10 0.933583 0.977573 0.261108
O O11 0.805269 0.985818 0.283623
O O12 0.000000 0.000000 0.000000
O O13 0.020673 0.250000 0.680353
O O14 0.970415 0.529342 0.702421
O O15 0.160708 0.250000 0.124246
O O16 0.297692 0.250000 0.646937
O O17 0.392092 0.007479 0.465638
O O18 0.500711 0.250000 0.287945
O O19 0.524174 0.006816 0.155003
O O20 0.451063 0.750000 0.983114
O O21 0.500000 0.000000 0.000000
#
# Coordination Sequence:
#
# PCOD8076339 Si02
#       8
#     4   4   4   4   4   4   4   4
#     4  11  21  37  59  87 119 155 195 240 296 356
#     4  10  22  40  62  89 120 155 199 246 296 354
#     4  10  22  39  60  83 113 151 193 237 287 349
#     4  10  22  39  61  87 116 156 200 245 297 355
#     4  11  22  37  59  89 121 155 195 246 297 351
#     4  10  21  38  60  86 113 151 198 245 297 350
#     4   9  20  38  61  86 116 154 196 241 295 353
#     4  11  23  40  63  90 123 162 198 242 295 352
#
# _framework density 19.679290000000002
#
# number of rings (size 3 to 8) (size 9 to 14) (size 15 to 20)
#    0.000    1.750    1.250    2.625    1.750    4.000 
#    0.000    1.875    0.000    0.000    0.000    0.000 
#    0.000    0.000    0.000    0.000    0.000    0.000 
#
# Total GULP energy -396941.988149 kJ/mol
# GULP energy per Si atom -12404.437130 kJ/mol
# Density = 1.963450 g / cm^3
# Si number density = 19.679290 Si / 1000 Ang^3
#
#
#
# Elastic Constant Matrix: (Units=GPa)
#
#
# Indices 1 2 3 4 5 6 
#
# 1 137.3427 33.3201 46.1033 0.0000 2.5815 0.0000
# 2 33.3201 27.1274 21.8531 0.0000 -5.0652 0.0000
# 3 46.1033 21.8531 116.1433 0.0000 7.4491 0.0000
# 4 0.0000 0.0000 0.0000 31.1496 0.0000 -2.7160
# 5 2.5815 -5.0652 7.4491 0.0000 36.6932 0.0000
# 6 0.0000 0.0000 0.0000 -2.7160 0.0000 30.6385
#
#
#
# Elastic Compliance Matrix: (Units=1/GPa)
#
#
# Indices 1 2 3 4 5 6 
#
# 1 0.010940 -0.012300 -0.001895 0.000000 -0.002083 0.000000
# 2 -0.012300 0.059573 -0.007001 0.000000 0.010510 0.000000
# 3 -0.001895 -0.007001 0.010874 0.000000 -0.003041 0.000000
# 4 0.000000 0.000000 0.000000 0.032353 0.000000 0.002868
# 5 -0.002083 0.010510 -0.003041 0.000000 0.029468 0.000000
# 6 0.000000 0.000000 0.000000 0.002868 0.000000 0.032893
#
#
# Mechanical properties :
#
#
# Convention : Reuss Voigt Hill
#
# Bulk Modulus (GPa) = 25.64324 53.68516 39.66420
# Shear Modulus (GPa) = 21.59899 31.65207 26.62553
#
# Velocity S-wave (km/s) = 3.31652 4.01483 3.68227
# Velocity P-wave (km/s) = 5.26542 6.98792 6.18691
#
# Compressibility (1/GPa) = 0.03899664
#
# Stress axis : x y z
#
# Youngs Moduli (GPa) = 91.40428 16.78604 91.95902
#
# Poissons Ratio (x) = 0.20648 0.17424
# Poissons Ratio (y) = 1.12431 0.64376
# Poissons Ratio (z) = 0.17319 0.11751
#
# Static dielectric constant tensor:
#      x y z
#    x 3.823320 0.000000 -0.036390 
#    y 0.000000 3.494390 0.000000 
#    z -0.036390 0.000000 3.811870 
# 
# 
# High freq. dielectric constant tensor:
#      x y z
#    x 1.781980 0.000000 0.001600 
#    y 0.000000 1.750800 0.000000 
#    z 0.001600 0.000000 1.779830 
# 
# From -- ./inp_files/55606.got.cif
#   From: 2010.06.25/outbox.cif.g09.slc.cpg/sg11_28_cif.got.tgz:55606.got - 2010.06.27 23:14:04.
