data_PCOD8076672
_publ_section_title
;
Structure prediction by ZEFSAII (Michael W. Deem and Ramdas Pophale) SiO2 
 PCOD8076672
Probable space group: P 21/M
;
_chemical_formula_sum "Si O2"
_cell_formula_units_Z 24
_cell_length_a 9.781311
_cell_length_b 8.708082
_cell_length_c 14.099498
_cell_angle_alpha 90.000000
_cell_angle_beta 100.282420
_cell_angle_gamma 90.000000
_cell_volume 1181.657945
_symmetry_space_group_name_H-M "P 21/M"
_symmetry_group_IT_number 11
_symmetry_cell_setting 'monoclinic'
loop_
_space_group_symop_operation_xyz
x,y,z
-x,1/2+y,-z
-x,-y,-z
x,1/2-y,z
loop_
_atom_site_type_symbol
_atom_site_label
_atom_site_fract_x
_atom_site_fract_y
_atom_site_fract_z
Si Si1 0.875991 0.430360 0.924808
Si Si2 0.048159 0.571266 0.278164
Si Si3 0.292604 0.427452 0.418623
Si Si4 0.348675 0.069389 0.979075
Si Si5 0.408777 0.572779 0.614379
Si Si6 0.239058 0.928164 0.776661
O O1 0.872589 0.250000 0.941540
O O2 0.895059 0.474087 0.817954
O O3 0.731722 0.503612 0.940225
O O4 0.000000 0.500000 0.000000
O O5 0.012096 0.750000 0.280774
O O6 0.164504 0.529741 0.369017
O O7 0.909786 0.475307 0.284156
O O8 0.251314 0.250000 0.405255
O O9 0.323314 0.467078 0.531540
O O10 0.427719 0.466348 0.371390
O O11 0.358307 0.250000 0.990120
O O12 0.268123 0.027952 0.873091
O O13 0.500000 0.000000 0.000000
O O14 0.382308 0.750000 0.583612
O O15 0.357634 0.536598 0.713953
O O16 0.238677 0.750000 0.805093
#
# Coordination Sequence:
#
# PCOD8076672 Si02
#       6
#     4   4   4   4   4   4
#     4  11  23  41  64  91 124 165 206 253 306 361
#     4  11  24  40  61  91 124 162 205 250 303 365
#     4  10  21  39  64  92 120 158 202 249 305 365
#     4  12  26  43  63  91 126 164 208 255 306 366
#     4   9  21  41  63  90 122 156 198 251 307 365
#     4  11  23  41  64  91 123 160 204 255 308 364
#
# _framework density 20.310447
#
# number of rings (size 3 to 8) (size 9 to 14) (size 15 to 20)
#    0.000    1.333    1.667    3.500    2.333    4.667 
#    0.000    0.000    0.000    0.000    0.000    0.000 
#    0.000    0.000    0.000    0.000    0.000    0.000 
#
# Total GULP energy -297773.437881 kJ/mol
# GULP energy per Si atom -12407.226578 kJ/mol
# Density = 2.026422 g / cm^3
# Si number density = 20.310447 Si / 1000 Ang^3
#
#
#
# Elastic Constant Matrix: (Units=GPa)
#
#
# Indices 1 2 3 4 5 6 
#
# 1 94.4981 24.5485 5.9612 0.0000 2.6940 0.0000
# 2 24.5485 87.1753 14.6677 0.0000 -7.0270 0.0000
# 3 5.9612 14.6677 39.8354 0.0000 1.6122 0.0000
# 4 0.0000 0.0000 0.0000 35.0931 0.0000 3.5189
# 5 2.6940 -7.0270 1.6122 0.0000 36.5126 0.0000
# 6 0.0000 0.0000 0.0000 3.5189 0.0000 36.8027
#
#
#
# Elastic Compliance Matrix: (Units=1/GPa)
#
#
# Indices 1 2 3 4 5 6 
#
# 1 0.011505 -0.003281 -0.000454 0.000000 -0.001460 0.000000
# 2 -0.003281 0.013407 -0.004568 0.000000 0.003024 0.000000
# 3 -0.000454 -0.004568 0.026936 0.000000 -0.002035 0.000000
# 4 0.000000 0.000000 0.000000 0.028771 0.000000 -0.002751
# 5 -0.001460 0.003024 -0.002035 0.000000 0.028167 0.000000
# 6 0.000000 0.000000 0.000000 -0.002751 0.000000 0.027435
#
#
# Mechanical properties :
#
#
# Convention : Reuss Voigt Hill
#
# Bulk Modulus (GPa) = 28.37621 34.65152 31.51386
# Shear Modulus (GPa) = 30.38110 33.43709 31.90910
#
# Velocity S-wave (km/s) = 3.87180 4.06186 3.96797
# Velocity P-wave (km/s) = 5.83004 6.25270 6.04507
#
# Compressibility (1/GPa) = 0.03524079
#
# Stress axis : x y z
#
# Youngs Moduli (GPa) = 86.91987 74.58536 37.12544
#
# Poissons Ratio (x) = 0.24471 0.01687
# Poissons Ratio (y) = 0.28518 0.16959
# Poissons Ratio (z) = 0.03950 0.34072
#
# Static dielectric constant tensor:
#      x y z
#    x 6.219510 0.000000 -15.163360 
#    y 0.000000 3.665630 0.000000 
#    z -15.163360 0.000000 100.500030 
# 
# 
# High freq. dielectric constant tensor:
#      x y z
#    x 1.805710 0.000000 -0.003180 
#    y 0.000000 1.804020 0.000000 
#    z -0.003180 0.000000 1.789570 
# 
# From -- ./inp_files/46608.got.cif
#   From: 2010.06.25/outbox.cif.g09.slc.cpg/sg11_24_cif.got.tgz:46608.got - 2010.06.27 23:14:04.
