data_PCOD8076363
_publ_section_title
;
Structure prediction by ZEFSAII (Michael W. Deem and Ramdas Pophale) SiO2 
 PCOD8076363
Probable space group: P 21/M
;
_chemical_formula_sum "Si O2"
_cell_formula_units_Z 32
_cell_length_a 12.371254
_cell_length_b 8.850801
_cell_length_c 19.558022
_cell_angle_alpha 90.000000
_cell_angle_beta 48.995492
_cell_angle_gamma 90.000000
_cell_volume 1616.111748
_symmetry_space_group_name_H-M "P 21/M"
_symmetry_group_IT_number 11
_symmetry_cell_setting 'monoclinic'
loop_
_space_group_symop_operation_xyz
x,y,z
-x,1/2+y,-z
-x,-y,-z
x,1/2-y,z
loop_
_atom_site_type_symbol
_atom_site_label
_atom_site_fract_x
_atom_site_fract_y
_atom_site_fract_z
Si Si1 0.038101 0.077953 0.053641
Si Si2 0.117773 0.079455 0.663893
Si Si3 0.403066 0.427664 0.481621
Si Si4 0.474848 0.571746 0.713703
Si Si5 0.323669 0.421539 0.006698
Si Si6 0.799671 0.579323 0.222081
Si Si7 0.420454 0.569438 0.190065
Si Si8 0.814401 0.570223 0.797160
O O1 0.985335 0.250000 0.075930
O O2 0.206842 0.066631 0.995394
O O3 0.958585 0.986204 0.145860
O O4 0.000000 0.000000 0.000000
O O5 0.060348 0.250000 0.676759
O O6 0.233418 0.031045 0.558389
O O7 0.219115 0.072034 0.688982
O O8 0.981948 0.969927 0.722803
O O9 0.500000 0.500000 0.500000
O O10 0.427194 0.250000 0.477973
O O11 0.446577 0.484110 0.387981
O O12 0.486127 0.750000 0.720267
O O13 0.309753 0.524091 0.774626
O O14 0.544395 0.489237 0.749255
O O15 0.358522 0.250000 0.010861
O O16 0.261469 0.496542 0.102169
O O17 0.466692 0.494604 0.914247
O O18 0.786913 0.750000 0.199217
O O19 0.420867 0.750000 0.191280
O O20 0.265442 0.504711 0.234064
O O21 0.803403 0.750000 0.799264
#
# Coordination Sequence:
#
# PCOD8076363 Si02
#       8
#     4   4   4   4   4   4   4   4
#     4  11  21  35  53  81 120 160 201 244 298 358
#     4  10  21  38  60  89 120 153 194 242 296 357
#     4  10  21  38  62  91 123 155 195 244 300 361
#     4  11  23  39  61  90 122 158 199 248 300 359
#     4   9  20  37  58  83 115 154 198 245 292 347
#     4  11  21  35  57  85 120 158 196 241 297 357
#     4  11  23  41  62  86 119 159 200 247 301 358
#     4  11  22  40  63  88 118 155 202 252 297 350
#
# _framework density 19.800609999999999
#
# number of rings (size 3 to 8) (size 9 to 14) (size 15 to 20)
#    0.000    1.500    2.500    3.000    0.000    2.500 
#    0.000    4.375    0.000    0.000    0.000    0.000 
#    0.000    0.000    0.000    0.000    0.000    0.000 
#
# Total GULP energy -396719.494585 kJ/mol
# GULP energy per Si atom -12397.484206 kJ/mol
# Density = 1.975554 g / cm^3
# Si number density = 19.800610 Si / 1000 Ang^3
#
#
#
# Elastic Constant Matrix: (Units=GPa)
#
#
# Indices 1 2 3 4 5 6 
#
# 1 114.5579 40.0378 43.9020 0.0000 -2.1935 0.0000
# 2 40.0378 79.0844 34.3869 0.0000 -0.3249 0.0000
# 3 43.9020 34.3869 101.9241 0.0000 -3.3099 0.0000
# 4 0.0000 0.0000 0.0000 27.5510 0.0000 -0.7402
# 5 -2.1935 -0.3249 -3.3099 0.0000 19.0782 0.0000
# 6 0.0000 0.0000 0.0000 -0.7402 0.0000 35.0924
#
#
#
# Elastic Compliance Matrix: (Units=1/GPa)
#
#
# Indices 1 2 3 4 5 6 
#
# 1 0.011607 -0.004346 -0.003512 0.000000 0.000651 0.000000
# 2 -0.004346 0.016453 -0.003707 0.000000 -0.000863 0.000000
# 3 -0.003512 -0.003707 0.012630 0.000000 0.001724 0.000000
# 4 0.000000 0.000000 0.000000 0.036317 0.000000 0.000766
# 5 0.000651 -0.000863 0.001724 0.000000 0.052775 0.000000
# 6 0.000000 0.000000 0.000000 0.000766 0.000000 0.028512
#
#
# Mechanical properties :
#
#
# Convention : Reuss Voigt Hill
#
# Bulk Modulus (GPa) = 56.94661 59.13554 58.04108
# Shear Modulus (GPa) = 26.69821 28.16029 27.42925
#
# Velocity S-wave (km/s) = 3.67598 3.77529 3.72596
# Velocity P-wave (km/s) = 6.84394 6.99529 6.92003
#
# Compressibility (1/GPa) = 0.01756031
#
# Stress axis : x y z
#
# Youngs Moduli (GPa) = 86.15829 60.77769 79.17349
#
# Poissons Ratio (x) = 0.26416 0.27804
# Poissons Ratio (y) = 0.37447 0.29349
# Poissons Ratio (z) = 0.30257 0.22530
#
# Static dielectric constant tensor:
#      x y z
#    x 3.445960 0.000000 0.011710 
#    y 0.000000 3.304690 0.000000 
#    z 0.011710 0.000000 4.235820 
# 
# 
# High freq. dielectric constant tensor:
#      x y z
#    x 1.767520 0.000000 -0.002530 
#    y 0.000000 1.765200 0.000000 
#    z -0.002530 0.000000 1.776410 
# 
# From -- ./inp_files/45332.got.cif
#   From: 2010.06.25/outbox.cif.g09.slc.cpg/sg11_23_cif.got.tgz:45332.got - 2010.06.27 23:14:04.
