data_PCOD8076829
_publ_section_title
;
Structure prediction by ZEFSAII (Michael W. Deem and Ramdas Pophale) SiO2 
 PCOD8076829
Probable space group: P 21/M
;
_chemical_formula_sum "Si O2"
_cell_formula_units_Z 28
_cell_length_a 8.958721
_cell_length_b 14.785533
_cell_length_c 11.067264
_cell_angle_alpha 90.000000
_cell_angle_beta 120.587983
_cell_angle_gamma 90.000000
_cell_volume 1261.973197
_symmetry_space_group_name_H-M "P 21/M"
_symmetry_group_IT_number 11
_symmetry_cell_setting 'monoclinic'
loop_
_space_group_symop_operation_xyz
x,y,z
-x,1/2+y,-z
-x,-y,-z
x,1/2-y,z
loop_
_atom_site_type_symbol
_atom_site_label
_atom_site_fract_x
_atom_site_fract_y
_atom_site_fract_z
Si Si1 0.149608 0.522478 0.967473
Si Si2 0.417765 0.979762 0.265109
Si Si3 0.032184 0.582011 0.672040
Si Si4 0.363918 0.646277 0.669426
Si Si5 0.820659 0.415526 0.629739
Si Si6 0.268835 0.151098 0.602383
Si Si7 0.156982 0.151733 0.831077
O O1 0.068693 0.589245 0.832561
O O2 0.229088 0.430920 0.939703
O O3 0.314233 0.563726 0.108039
O O4 0.000000 0.500000 0.000000
O O5 0.296294 0.977911 0.332393
O O6 0.590434 0.925020 0.369639
O O7 0.464078 0.084281 0.253989
O O8 0.219332 0.599899 0.692778
O O9 0.953297 0.482347 0.611034
O O10 0.891141 0.650832 0.559172
O O11 0.404437 0.750000 0.724461
O O12 0.296044 0.645408 0.504445
O O13 0.946350 0.349107 0.756630
O O14 0.355443 0.250000 0.624185
O O15 0.204905 0.136985 0.711546
O O16 0.223894 0.250000 0.905248
#
# Coordination Sequence:
#
# PCOD8076829 Si02
#       7
#     4   4   4   4   4   4   4
#     4  11  24  44  66  94 134 182 222 266 340 403
#     4  12  25  44  66 101 142 178 218 277 337 400
#     4  11  22  43  71  94 127 175 224 274 326 399
#     4  12  25  41  68 104 136 173 224 282 336 393
#     4  11  21  40  69  96 132 172 223 278 334 384
#     4  11  24  43  71 105 134 170 226 285 337 392
#     4  10  21  40  69  95 125 175 230 273 323 399
#
# _framework density 22.187476
#
# number of rings (size 3 to 8) (size 9 to 14) (size 15 to 20)
#    0.000    0.857    5.714    3.429    0.000    4.000 
#    0.000    5.000    0.000    0.000    0.000    0.000 
#    0.000    0.000    0.000    0.000    0.000    0.000 
#
# Total GULP energy -346935.536156 kJ/mol
# GULP energy per Si atom -12390.554863 kJ/mol
# Density = 2.213698 g / cm^3
# Si number density = 22.187476 Si / 1000 Ang^3
#
#
#
# Elastic Constant Matrix: (Units=GPa)
#
#
# Indices 1 2 3 4 5 6 
#
# 1 98.0601 41.7833 20.6693 0.0000 -10.1325 0.0000
# 2 41.7833 109.2547 0.8055 0.0000 -14.9677 0.0000
# 3 20.6693 0.8055 86.8114 0.0000 -10.3464 0.0000
# 4 0.0000 0.0000 0.0000 16.5409 0.0000 0.9317
# 5 -10.1325 -14.9677 -10.3464 0.0000 27.0595 0.0000
# 6 0.0000 0.0000 0.0000 0.9317 0.0000 17.7090
#
#
#
# Elastic Compliance Matrix: (Units=1/GPa)
#
#
# Indices 1 2 3 4 5 6 
#
# 1 0.012964 -0.004787 -0.002912 0.000000 0.001093 0.000000
# 2 -0.004787 0.011700 0.001665 0.000000 0.005316 0.000000
# 3 -0.002912 0.001665 0.012758 0.000000 0.004709 0.000000
# 4 0.000000 0.000000 0.000000 0.060636 0.000000 -0.003190
# 5 0.001093 0.005316 0.004709 0.000000 0.042106 0.000000
# 6 0.000000 0.000000 0.000000 -0.003190 0.000000 0.056636
#
#
# Mechanical properties :
#
#
# Convention : Reuss Voigt Hill
#
# Bulk Modulus (GPa) = 39.44175 46.73803 43.08989
# Shear Modulus (GPa) = 23.00761 27.65310 25.33036
#
# Velocity S-wave (km/s) = 3.22369 3.53418 3.38250
# Velocity P-wave (km/s) = 5.62773 6.14530 5.89220
#
# Compressibility (1/GPa) = 0.02535384
#
# Stress axis : x y z
#
# Youngs Moduli (GPa) = 77.13535 85.47359 78.38044
#
# Poissons Ratio (x) = 0.40914 0.22824
# Poissons Ratio (y) = 0.36923 -0.13048
# Poissons Ratio (z) = 0.22462 -0.14229
#
# Static dielectric constant tensor:
#      x y z
#    x 3.979870 0.000000 0.055340 
#    y 0.000000 3.951140 0.000000 
#    z 0.055340 0.000000 4.269480 
# 
# 
# High freq. dielectric constant tensor:
#      x y z
#    x 1.870500 0.000000 0.000190 
#    y 0.000000 1.853730 0.000000 
#    z 0.000190 0.000000 1.873960 
# 
# From -- ./inp_files/31945.got.cif
#   From: 2010.06.25/outbox.cif.g09.slc.cpg/sg11_16_cif.got.tgz:31945.got - 2010.06.27 23:14:04.
