data_PCOD8076608
_publ_section_title
;
Structure prediction by ZEFSAII (Michael W. Deem and Ramdas Pophale) SiO2 
 PCOD8076608
Probable space group: P 21/M
;
_chemical_formula_sum "Si O2"
_cell_formula_units_Z 28
_cell_length_a 9.106317
_cell_length_b 9.047636
_cell_length_c 26.726495
_cell_angle_alpha 90.000000
_cell_angle_beta 141.312366
_cell_angle_gamma 90.000000
_cell_volume 1376.421565
_symmetry_space_group_name_H-M "P 21/M"
_symmetry_group_IT_number 11
_symmetry_cell_setting 'monoclinic'
loop_
_space_group_symop_operation_xyz
x,y,z
-x,1/2+y,-z
-x,-y,-z
x,1/2-y,z
loop_
_atom_site_type_symbol
_atom_site_label
_atom_site_fract_x
_atom_site_fract_y
_atom_site_fract_z
Si Si1 0.856912 0.580238 0.301775
Si Si2 0.182248 0.422649 0.011276
Si Si3 0.237631 0.086575 0.564647
Si Si4 0.564516 0.079440 0.738141
Si Si5 0.281540 0.415339 0.462814
Si Si6 0.947133 0.424556 0.123623
Si Si7 0.278278 0.579540 0.831422
O O1 0.934251 0.750000 0.318707
O O2 0.598918 0.562666 0.256669
O O3 0.859173 0.513820 0.246765
O O4 0.039600 0.497769 0.386370
O O5 0.117823 0.250000 0.990616
O O6 0.176725 0.492707 0.954944
O O7 0.444468 0.447299 0.101198
O O8 0.000000 0.500000 0.000000
O O9 0.180117 0.250000 0.570107
O O10 0.428106 0.017536 0.653013
O O11 0.340229 0.090742 0.536806
O O12 0.000000 0.000000 0.500000
O O13 0.645029 0.250000 0.752710
O O14 0.783628 0.973036 0.803022
O O15 0.500000 0.500000 0.500000
O O16 0.265868 0.250000 0.436444
O O17 0.933272 0.250000 0.110743
O O18 0.811842 0.471904 0.138107
O O19 0.214295 0.750000 0.805995
#
# Coordination Sequence:
#
# PCOD8076608 Si02
#       7
#     4   4   4   4   4   4   4
#     4  11  23  40  63  89 120 161 205 253 307 363
#     4  11  23  42  68  95 126 162 203 250 300 360
#     4  10  21  39  62  88 119 158 205 255 308 363
#     4  10  22  40  61  89 123 159 205 255 305 364
#     4  11  24  40  61  89 123 162 205 255 310 367
#     4  11  24  41  63  93 125 161 203 248 304 361
#     4  10  24  43  62  90 127 163 202 250 302 361
#
# _framework density 20.342604000000001
#
# number of rings (size 3 to 8) (size 9 to 14) (size 15 to 20)
#    0.000    1.429    1.429    3.000    2.000    6.857 
#    0.000    0.000    0.000    0.000    0.000    0.000 
#    0.000    0.000    0.000    0.000    0.000    0.000 
#
# Total GULP energy -347298.935149 kJ/mol
# GULP energy per Si atom -12403.533398 kJ/mol
# Density = 2.029630 g / cm^3
# Si number density = 20.342604 Si / 1000 Ang^3
#
#
#
# Elastic Constant Matrix: (Units=GPa)
#
#
# Indices 1 2 3 4 5 6 
#
# 1 94.8732 39.0672 11.4998 0.0000 -8.8712 0.0000
# 2 39.0672 102.9700 31.0524 0.0000 -6.4882 0.0000
# 3 11.4998 31.0524 73.0699 0.0000 -16.8085 0.0000
# 4 0.0000 0.0000 0.0000 37.9093 0.0000 0.2878
# 5 -8.8712 -6.4882 -16.8085 0.0000 40.3369 0.0000
# 6 0.0000 0.0000 0.0000 0.2878 0.0000 34.4078
#
#
#
# Elastic Compliance Matrix: (Units=1/GPa)
#
#
# Indices 1 2 3 4 5 6 
#
# 1 0.012674 -0.004842 0.000581 0.000000 0.002251 0.000000
# 2 -0.004842 0.012990 -0.005002 0.000000 -0.001060 0.000000
# 3 0.000581 -0.005002 0.017214 0.000000 0.006496 0.000000
# 4 0.000000 0.000000 0.000000 0.026380 0.000000 -0.000221
# 5 0.002251 -0.001060 0.006496 0.000000 0.027823 0.000000
# 6 0.000000 0.000000 0.000000 -0.000221 0.000000 0.029065
#
#
# Mechanical properties :
#
#
# Convention : Reuss Voigt Hill
#
# Bulk Modulus (GPa) = 41.06457 48.23910 44.65184
# Shear Modulus (GPa) = 32.72433 35.15038 33.93736
#
# Velocity S-wave (km/s) = 4.01516 4.16133 4.08890
# Velocity P-wave (km/s) = 6.45954 6.84498 6.65505
#
# Compressibility (1/GPa) = 0.02435189
#
# Stress axis : x y z
#
# Youngs Moduli (GPa) = 78.89994 76.98011 58.09124
#
# Poissons Ratio (x) = 0.37274 -0.03373
# Poissons Ratio (y) = 0.38203 0.29059
# Poissons Ratio (z) = -0.04582 0.38507
#
# Static dielectric constant tensor:
#      x y z
#    x 3.876160 0.000000 -0.220460 
#    y 0.000000 3.850860 0.000000 
#    z -0.220460 0.000000 4.285000 
# 
# 
# High freq. dielectric constant tensor:
#      x y z
#    x 1.802450 0.000000 -0.006810 
#    y 0.000000 1.799990 0.000000 
#    z -0.006810 0.000000 1.804600 
# 
# From -- ./inp_files/28133.got.cif
#   From: 2010.06.25/outbox.cif.g09.slc.cpg/sg11_15_cif.got.tgz:28133.got - 2010.06.27 23:14:04.
