data_PCOD8076635
_publ_section_title
;
Structure prediction by ZEFSAII (Michael W. Deem and Ramdas Pophale) SiO2 
 PCOD8076635
Probable space group: P 21/M
;
_chemical_formula_sum "Si O2"
_cell_formula_units_Z 28
_cell_length_a 20.306901
_cell_length_b 8.883293
_cell_length_c 14.433464
_cell_angle_alpha 90.000000
_cell_angle_beta 32.066953
_cell_angle_gamma 90.000000
_cell_volume 1382.321384
_symmetry_space_group_name_H-M "P 21/M"
_symmetry_group_IT_number 11
_symmetry_cell_setting 'monoclinic'
loop_
_space_group_symop_operation_xyz
x,y,z
-x,1/2+y,-z
-x,-y,-z
x,1/2-y,z
loop_
_atom_site_type_symbol
_atom_site_label
_atom_site_fract_x
_atom_site_fract_y
_atom_site_fract_z
Si Si1 0.287009 0.075519 0.587463
Si Si2 0.544716 0.921244 0.277979
Si Si3 0.230957 0.076069 0.862844
Si Si4 0.930985 0.427212 0.796732
Si Si5 0.632582 0.423356 0.844246
Si Si6 0.257775 0.423761 0.113402
Si Si7 0.181080 0.577109 0.538653
O O1 0.273754 0.250000 0.577396
O O2 0.229067 0.040568 0.756716
O O3 0.431438 0.035266 0.414252
O O4 0.209448 0.977288 0.608244
O O5 0.495629 0.750000 0.344815
O O6 0.633625 0.963253 0.257837
O O7 0.618196 0.943457 0.094757
O O8 0.201268 0.250000 0.920603
O O9 0.126266 0.975981 0.036295
O O10 0.922404 0.250000 0.796632
O O11 0.858903 0.501484 0.797523
O O12 0.072811 0.478789 0.622460
O O13 0.614058 0.250000 0.892361
O O14 0.722570 0.498137 0.811850
O O15 0.694951 0.442898 0.669609
O O16 0.500000 0.500000 0.000000
O O17 0.226148 0.250000 0.167161
O O18 0.138229 0.750000 0.593427
#
# Coordination Sequence:
#
# PCOD8076635 Si02
#       7
#     4   4   4   4   4   4   4
#     4  11  22  35  56  86 117 153 197 243 290 340
#     4   9  18  34  56  84 118 154 190 231 288 350
#     4   9  20  38  58  83 118 156 193 237 290 346
#     4  11  23  40  63  89 114 147 196 244 286 340
#     4  11  24  41  63  91 120 154 194 236 287 344
#     4  10  21  39  63  88 119 157 191 235 293 346
#     4  11  25  43  60  81 116 157 193 236 290 345
#
# _framework density 20.255782
#
# number of rings (size 3 to 8) (size 9 to 14) (size 15 to 20)
#    0.000    1.714    0.000    5.143    0.000   10.857 
#    0.000    0.000    0.000    0.000    0.000    0.000 
#    0.000    0.000    0.000    0.000    0.000    0.000 
#
# Total GULP energy -347378.475344 kJ/mol
# GULP energy per Si atom -12406.374119 kJ/mol
# Density = 2.020968 g / cm^3
# Si number density = 20.255782 Si / 1000 Ang^3
#
#
#
# Elastic Constant Matrix: (Units=GPa)
#
#
# Indices 1 2 3 4 5 6 
#
# 1 117.3515 54.2899 35.4802 0.0000 4.4247 0.0000
# 2 54.2899 129.7663 40.3176 0.0000 -0.4620 0.0000
# 3 35.4802 40.3176 56.2119 0.0000 -13.3808 0.0000
# 4 0.0000 0.0000 0.0000 34.4216 0.0000 -3.4190
# 5 4.4247 -0.4620 -13.3808 0.0000 29.9161 0.0000
# 6 0.0000 0.0000 0.0000 -3.4190 0.0000 39.6603
#
#
#
# Elastic Compliance Matrix: (Units=1/GPa)
#
#
# Indices 1 2 3 4 5 6 
#
# 1 0.012100 -0.003026 -0.006607 0.000000 -0.004792 0.000000
# 2 -0.003026 0.010990 -0.006519 0.000000 -0.002299 0.000000
# 3 -0.006607 -0.006519 0.030043 0.000000 0.014314 0.000000
# 4 0.000000 0.000000 0.000000 0.029302 0.000000 0.002526
# 5 -0.004792 -0.002299 0.014314 0.000000 0.040502 0.000000
# 6 0.000000 0.000000 0.000000 0.002526 0.000000 0.025432
#
#
# Mechanical properties :
#
#
# Convention : Reuss Voigt Hill
#
# Bulk Modulus (GPa) = 48.01371 62.61166 55.31269
# Shear Modulus (GPa) = 26.65000 32.34907 29.49954
#
# Velocity S-wave (km/s) = 3.63116 4.00062 3.82036
# Velocity P-wave (km/s) = 6.42927 7.23309 6.84299
#
# Compressibility (1/GPa) = 0.02082738
#
# Stress axis : x y z
#
# Youngs Moduli (GPa) = 82.64616 90.99530 33.28525
#
# Poissons Ratio (x) = 0.27539 0.21992
# Poissons Ratio (y) = 0.25012 0.21699
# Poissons Ratio (z) = 0.54605 0.59321
#
# Static dielectric constant tensor:
#      x y z
#    x 3.712460 0.000000 0.054700 
#    y 0.000000 3.749870 0.000000 
#    z 0.054700 0.000000 3.527050 
# 
# 
# High freq. dielectric constant tensor:
#      x y z
#    x 1.800400 0.000000 0.001560 
#    y 0.000000 1.799140 0.000000 
#    z 0.001560 0.000000 1.785460 
# 
# From -- ./inp_files/54520.got.cif
#   From: 2010.06.25/outbox.cif.g09.slc.cpg/sg11_28_cif.got.tgz:54520.got - 2010.06.27 23:14:04.
