data_PCOD8076588
_publ_section_title
;
Structure prediction by ZEFSAII (Michael W. Deem and Ramdas Pophale) SiO2 
 PCOD8076588
Probable space group: P 21/M
;
_chemical_formula_sum "Si O2"
_cell_formula_units_Z 32
_cell_length_a 21.552284
_cell_length_b 14.060407
_cell_length_c 15.566307
_cell_angle_alpha 90.000000
_cell_angle_beta 161.461975
_cell_angle_gamma 90.000000
_cell_volume 1499.732123
_symmetry_space_group_name_H-M "P 21/M"
_symmetry_group_IT_number 11
_symmetry_cell_setting 'monoclinic'
loop_
_space_group_symop_operation_xyz
x,y,z
-x,1/2+y,-z
-x,-y,-z
x,1/2-y,z
loop_
_atom_site_type_symbol
_atom_site_label
_atom_site_fract_x
_atom_site_fract_y
_atom_site_fract_z
Si Si1 0.314447 0.859127 0.568756
Si Si2 0.386643 0.359855 0.361846
Si Si3 0.761955 0.858878 0.542170
Si Si4 0.650798 0.640617 0.882779
Si Si5 0.594828 0.142374 0.803936
Si Si6 0.984299 0.971183 0.075272
Si Si7 0.064194 0.991753 0.683595
Si Si8 0.311267 0.018974 0.699665
O O1 0.338890 0.750000 0.626755
O O2 0.494353 0.896011 0.746939
O O3 0.117330 0.876755 0.257192
O O4 0.285827 0.921342 0.615186
O O5 0.314959 0.250000 0.280622
O O6 0.439912 0.377341 0.331608
O O7 0.567597 0.378768 0.665462
O O8 0.227965 0.440222 0.173639
O O9 0.838226 0.750000 0.639068
O O10 0.618871 0.875235 0.434882
O O11 0.941148 0.934799 0.775521
O O12 0.648281 0.887420 0.305749
O O13 0.696352 0.750000 0.955916
O O14 0.857198 0.590545 0.173405
O O15 0.661052 0.250000 0.906108
O O16 0.759160 0.081275 0.066845
O O17 0.000000 0.000000 0.000000
O O18 0.000000 0.000000 0.500000
O O19 0.873874 0.958970 0.484174
O O20 0.500000 0.000000 0.000000
#
# Coordination Sequence:
#
# PCOD8076588 Si02
#       8
#     4   4   4   4   4   4   4   4
#     4  10  22  41  63  91 127 163 207 260 310 370
#     4  10  21  40  64  94 132 172 216 263 314 375
#     4  10  21  39  61  91 132 170 210 258 311 372
#     4  10  22  41  65  94 127 166 212 262 314 372
#     4  10  22  42  65  92 127 170 211 257 316 374
#     4  11  20  34  60  91 125 170 211 253 300 369
#     4  12  25  43  67  91 122 163 209 267 315 379
#     4  11  24  43  66  92 121 160 208 260 320 381
#
# _framework density 21.337145
#
# number of rings (size 3 to 8) (size 9 to 14) (size 15 to 20)
#    0.000    1.500    1.250    4.875    0.000    4.000 
#    4.500    0.000    0.000    0.000    0.000    0.000 
#    0.000    0.000    0.000    0.000    0.000    0.000 
#
# Total GULP energy -396545.894662 kJ/mol
# GULP energy per Si atom -12392.059208 kJ/mol
# Density = 2.128858 g / cm^3
# Si number density = 21.337145 Si / 1000 Ang^3
#
#
#
# Elastic Constant Matrix: (Units=GPa)
#
#
# Indices 1 2 3 4 5 6 
#
# 1 99.7976 32.9792 28.4642 0.0000 -17.3453 0.0000
# 2 32.9792 121.7879 42.9217 0.0000 -3.6963 0.0000
# 3 28.4642 42.9217 99.5884 0.0000 -17.7191 0.0000
# 4 0.0000 0.0000 0.0000 27.6431 0.0000 1.5097
# 5 -17.3453 -3.6963 -17.7191 0.0000 39.2698 0.0000
# 6 0.0000 0.0000 0.0000 1.5097 0.0000 26.8307
#
#
#
# Elastic Compliance Matrix: (Units=1/GPa)
#
#
# Indices 1 2 3 4 5 6 
#
# 1 0.012083 -0.002590 -0.001556 0.000000 0.004391 0.000000
# 2 -0.002590 0.010277 -0.004045 0.000000 -0.002002 0.000000
# 3 -0.001556 -0.004045 0.013090 0.000000 0.004839 0.000000
# 4 0.000000 0.000000 0.000000 0.036287 0.000000 -0.002042
# 5 0.004391 -0.002002 0.004839 0.000000 0.029399 0.000000
# 6 0.000000 0.000000 0.000000 -0.002042 0.000000 0.037386
#
#
# Mechanical properties :
#
#
# Convention : Reuss Voigt Hill
#
# Bulk Modulus (GPa) = 52.44414 58.87824 55.66119
# Shear Modulus (GPa) = 31.00543 33.20264 32.10404
#
# Velocity S-wave (km/s) = 3.81612 3.94902 3.88314
# Velocity P-wave (km/s) = 6.63695 6.96040 6.80060
#
# Compressibility (1/GPa) = 0.01906791
#
# Stress axis : x y z
#
# Youngs Moduli (GPa) = 82.75872 97.30106 76.39185
#
# Poissons Ratio (x) = 0.25205 0.11886
# Poissons Ratio (y) = 0.21438 0.30903
# Poissons Ratio (z) = 0.12876 0.39361
#
# Static dielectric constant tensor:
#      x y z
#    x 3.452890 0.000000 -0.335380 
#    y 0.000000 3.893340 0.000000 
#    z -0.335380 0.000000 3.709500 
# 
# 
# High freq. dielectric constant tensor:
#      x y z
#    x 1.844150 0.000000 -0.009700 
#    y 0.000000 1.846190 0.000000 
#    z -0.009700 0.000000 1.827680 
# 
# From -- ./inp_files/55020.got.cif
#   From: 2010.06.25/outbox.cif.g09.slc.cpg/sg11_28_cif.got.tgz:55020.got - 2010.06.27 23:14:04.
