data_PCOD8076483
_publ_section_title
;
Structure prediction by ZEFSAII (Michael W. Deem and Ramdas Pophale) SiO2 
 PCOD8076483
Probable space group: P 21/M
;
_chemical_formula_sum "Si O2"
_cell_formula_units_Z 32
_cell_length_a 11.470151
_cell_length_b 17.876068
_cell_length_c 15.605323
_cell_angle_alpha 90.000000
_cell_angle_beta 152.530951
_cell_angle_gamma 90.000000
_cell_volume 1475.939401
_symmetry_space_group_name_H-M "P 21/M"
_symmetry_group_IT_number 11
_symmetry_cell_setting 'monoclinic'
loop_
_space_group_symop_operation_xyz
x,y,z
-x,1/2+y,-z
-x,-y,-z
x,1/2-y,z
loop_
_atom_site_type_symbol
_atom_site_label
_atom_site_fract_x
_atom_site_fract_y
_atom_site_fract_z
Si Si1 0.988293 0.338982 0.006088
Si Si2 0.882965 0.941927 0.758127
Si Si3 0.372404 0.333558 0.121402
Si Si4 0.949614 0.333815 0.706595
Si Si5 0.670120 0.436135 0.069168
Si Si6 0.155390 0.837488 0.665215
Si Si7 0.354944 0.909764 0.351565
Si Si8 0.231847 0.336647 0.726068
O O1 0.992101 0.250000 0.020381
O O2 0.000441 0.377210 0.106092
O O3 0.226600 0.371224 0.106115
O O4 0.735417 0.358715 0.786774
O O5 0.659661 0.910169 0.551305
O O6 0.117013 0.972334 0.853551
O O7 0.766804 0.008089 0.740075
O O8 0.429333 0.250000 0.189091
O O9 0.638314 0.370242 0.268477
O O10 0.203558 0.335349 0.926927
O O11 0.841519 0.250000 0.627585
O O12 0.731604 0.381272 0.610565
O O13 0.028682 0.365467 0.664802
O O14 0.827596 0.386799 0.239205
O O15 0.500000 0.500000 0.000000
O O16 0.489944 0.382498 0.896562
O O17 0.210424 0.750000 0.722252
O O18 0.883057 0.847538 0.443648
O O19 0.292996 0.250000 0.785040
#
# Coordination Sequence:
#
# PCOD8076483 Si02
#       8
#     4   4   4   4   4   4   4   4
#     4  10  22  40  66  98 126 159 204 258 317 373
#     4  11  26  42  63  91 125 169 211 252 312 384
#     4   8  15  31  58  91 122 149 192 250 302 355
#     4   9  16  32  63  94 122 157 204 258 307 360
#     4  12  26  44  62  88 128 171 214 256 309 372
#     4  10  21  39  64  94 123 161 209 262 312 361
#     4  10  22  44  63  90 128 167 204 255 316 372
#     4  10  21  38  63  93 123 162 211 262 311 362
#
# _framework density 21.681107000000001
#
# number of rings (size 3 to 8) (size 9 to 14) (size 15 to 20)
#    0.000    2.000    1.250    2.625    3.500    3.500 
#    0.000    1.250    0.000    0.000    0.000    0.000 
#    0.000    0.000    0.000    0.000    0.000    0.000 
#
# Total GULP energy -396684.730538 kJ/mol
# GULP energy per Si atom -12396.397829 kJ/mol
# Density = 2.163176 g / cm^3
# Si number density = 21.681107 Si / 1000 Ang^3
#
#
#
# Elastic Constant Matrix: (Units=GPa)
#
#
# Indices 1 2 3 4 5 6 
#
# 1 69.6781 21.6831 42.6226 0.0000 3.9933 0.0000
# 2 21.6831 69.7919 38.6121 0.0000 -6.7360 0.0000
# 3 42.6226 38.6121 102.6647 0.0000 -1.6244 0.0000
# 4 0.0000 0.0000 0.0000 24.0735 0.0000 -0.8119
# 5 3.9933 -6.7360 -1.6244 0.0000 29.5726 0.0000
# 6 0.0000 0.0000 0.0000 -0.8119 0.0000 30.2957
#
#
#
# Elastic Compliance Matrix: (Units=1/GPa)
#
#
# Indices 1 2 3 4 5 6 
#
# 1 0.019828 -0.002431 -0.007375 0.000000 -0.003636 0.000000
# 2 -0.002431 0.018816 -0.006000 0.000000 0.004285 0.000000
# 3 -0.007375 -0.006000 0.015066 0.000000 0.000457 0.000000
# 4 0.000000 0.000000 0.000000 0.041577 0.000000 0.001114
# 5 -0.003636 0.004285 0.000457 0.000000 0.035307 0.000000
# 6 0.000000 0.000000 0.000000 0.001114 0.000000 0.033038
#
#
# Mechanical properties :
#
#
# Convention : Reuss Voigt Hill
#
# Bulk Modulus (GPa) = 45.25128 49.77446 47.51287
# Shear Modulus (GPa) = 24.67789 26.06950 25.37370
#
# Velocity S-wave (km/s) = 3.37741 3.47133 3.42470
# Velocity P-wave (km/s) = 6.01048 6.25094 6.13189
#
# Compressibility (1/GPa) = 0.02209882
#
# Stress axis : x y z
#
# Youngs Moduli (GPa) = 50.43374 53.14499 66.37423
#
# Poissons Ratio (x) = 0.12919 0.48952
# Poissons Ratio (y) = 0.12260 0.39823
# Poissons Ratio (z) = 0.37196 0.31886
#
# Static dielectric constant tensor:
#      x y z
#    x 3.811460 0.000000 0.047440 
#    y 0.000000 3.794830 0.000000 
#    z 0.047440 0.000000 3.853000 
# 
# 
# High freq. dielectric constant tensor:
#      x y z
#    x 1.835430 0.000000 0.001270 
#    y 0.000000 1.836430 0.000000 
#    z 0.001270 0.000000 1.852640 
# 
# From -- ./inp_files/50727.got.cif
#   From: 2010.06.25/outbox.cif.g09.slc.cpg/sg11_26_cif.got.tgz:50727.got - 2010.06.27 23:14:04.
