data_PCOD8076080
_publ_section_title
;
Structure prediction by ZEFSAII (Michael W. Deem and Ramdas Pophale) SiO2 
 PCOD8076080
Probable space group: P 21/M
;
_chemical_formula_sum "Si O2"
_cell_formula_units_Z 32
_cell_length_a 9.811847
_cell_length_b 11.100927
_cell_length_c 31.712112
_cell_angle_alpha 90.000000
_cell_angle_beta 27.786924
_cell_angle_gamma 90.000000
_cell_volume 1610.249761
_symmetry_space_group_name_H-M "P 21/M"
_symmetry_group_IT_number 11
_symmetry_cell_setting 'monoclinic'
loop_
_space_group_symop_operation_xyz
x,y,z
-x,1/2+y,-z
-x,-y,-z
x,1/2-y,z
loop_
_atom_site_type_symbol
_atom_site_label
_atom_site_fract_x
_atom_site_fract_y
_atom_site_fract_z
Si Si1 0.608250 0.384620 0.647448
Si Si2 0.254662 0.885136 0.969628
Si Si3 0.187077 0.386258 0.531149
Si Si4 0.701626 0.035894 0.134674
Si Si5 0.877323 0.385368 0.700140
Si Si6 0.313753 0.615897 0.769925
Si Si7 0.683739 0.966883 0.354071
Si Si8 0.873610 0.886431 0.822429
O O1 0.512752 0.250000 0.690949
O O2 0.492240 0.497910 0.706383
O O3 0.506396 0.389867 0.626923
O O4 0.960214 0.392444 0.553999
O O5 0.236874 0.750000 0.991246
O O6 0.249162 0.885003 0.920331
O O7 0.554433 0.948374 0.904808
O O8 0.976183 0.948738 0.065862
O O9 0.293107 0.250000 0.510194
O O10 0.469672 0.464562 0.444358
O O11 0.027281 0.437168 0.616754
O O12 0.696059 0.120545 0.177011
O O13 0.400298 0.964477 0.211628
O O14 0.767540 0.250000 0.721964
O O15 0.109479 0.382308 0.674707
O O16 0.438264 0.750000 0.721709
O O17 0.988338 0.602908 0.839120
O O18 0.882239 0.060197 0.274779
O O19 0.834032 0.750000 0.818059
#
# Coordination Sequence:
#
# PCOD8076080 Si02
#       8
#     4   4   4   4   4   4   4   4
#     4  10  21  38  61  88 122 158 198 244 294 351
#     4  10  21  37  59  86 113 151 196 241 296 357
#     4  10  21  37  58  84 116 156 199 244 297 351
#     4  11  21  37  60  84 116 152 196 242 295 347
#     4  11  22  37  56  83 119 156 196 247 296 347
#     4  10  21  38  62  89 121 155 198 246 294 350
#     4  11  20  36  58  84 117 157 199 240 290 347
#     4   9  19  36  57  84 117 151 193 244 296 346
#
# _framework density 19.872693999999999
#
# number of rings (size 3 to 8) (size 9 to 14) (size 15 to 20)
#    0.000    1.750    2.500    2.250    0.000    1.500 
#    0.000    1.250    0.000    0.000    0.000    0.000 
#    0.000    0.000    0.000    0.000    0.000    0.000 
#
# Total GULP energy -396600.457790 kJ/mol
# GULP energy per Si atom -12393.764306 kJ/mol
# Density = 1.982746 g / cm^3
# Si number density = 19.872694 Si / 1000 Ang^3
#
#
#
# Elastic Constant Matrix: (Units=GPa)
#
#
# Indices 1 2 3 4 5 6 
#
# 1 91.3601 9.6181 14.8410 0.0000 -9.2134 0.0000
# 2 9.6181 91.6136 29.1560 0.0000 -3.5984 0.0000
# 3 14.8410 29.1560 78.9713 0.0000 -12.5082 0.0000
# 4 0.0000 0.0000 0.0000 15.3311 0.0000 -4.1703
# 5 -9.2134 -3.5984 -12.5082 0.0000 28.5927 0.0000
# 6 0.0000 0.0000 0.0000 -4.1703 0.0000 24.6678
#
#
#
# Elastic Compliance Matrix: (Units=1/GPa)
#
#
# Indices 1 2 3 4 5 6 
#
# 1 0.011552 -0.000629 -0.001463 0.000000 0.003003 0.000000
# 2 -0.000629 0.012409 -0.004564 0.000000 -0.000638 0.000000
# 3 -0.001463 -0.004564 0.015533 0.000000 0.005749 0.000000
# 4 0.000000 0.000000 0.000000 0.068371 0.000000 0.011559
# 5 0.003003 -0.000638 0.005749 0.000000 0.038377 0.000000
# 6 0.000000 0.000000 0.000000 0.011559 0.000000 0.042493
#
#
# Mechanical properties :
#
#
# Convention : Reuss Voigt Hill
#
# Bulk Modulus (GPa) = 38.19400 41.01947 39.60673
# Shear Modulus (GPa) = 23.72192 27.60699 25.66446
#
# Velocity S-wave (km/s) = 3.45874 3.73123 3.59756
# Velocity P-wave (km/s) = 5.93393 6.26488 6.10165
#
# Compressibility (1/GPa) = 0.02618212
#
# Stress axis : x y z
#
# Youngs Moduli (GPa) = 86.56141 80.58699 64.37712
#
# Poissons Ratio (x) = 0.05071 0.09419
# Poissons Ratio (y) = 0.05447 0.29382
# Poissons Ratio (z) = 0.12664 0.36781
#
# Static dielectric constant tensor:
#      x y z
#    x 3.904640 0.000000 -0.194060 
#    y 0.000000 3.543110 0.000000 
#    z -0.194060 0.000000 3.444720 
# 
# 
# High freq. dielectric constant tensor:
#      x y z
#    x 1.791590 0.000000 -0.013600 
#    y 0.000000 1.769290 0.000000 
#    z -0.013600 0.000000 1.756620 
# 
# From -- ./inp_files/29251.got.cif
#   From: 2010.06.25/outbox.cif.g09.slc.cpg/sg11_15_cif.got.tgz:29251.got - 2010.06.27 23:14:04.
