data_PCOD8076657
_publ_section_title
;
Structure prediction by ZEFSAII (Michael W. Deem and Ramdas Pophale) SiO2 
 PCOD8076657
Probable space group: P 21/M
;
_chemical_formula_sum "Si O2"
_cell_formula_units_Z 28
_cell_length_a 15.547329
_cell_length_b 8.742214
_cell_length_c 11.745159
_cell_angle_alpha 90.000000
_cell_angle_beta 120.599830
_cell_angle_gamma 90.000000
_cell_volume 1374.073276
_symmetry_space_group_name_H-M "P 21/M"
_symmetry_group_IT_number 11
_symmetry_cell_setting 'monoclinic'
loop_
_space_group_symop_operation_xyz
x,y,z
-x,1/2+y,-z
-x,-y,-z
x,1/2-y,z
loop_
_atom_site_type_symbol
_atom_site_label
_atom_site_fract_x
_atom_site_fract_y
_atom_site_fract_z
Si Si1 0.351521 0.426913 0.119877
Si Si2 0.147631 0.075754 0.095196
Si Si3 0.534233 0.430122 0.403894
Si Si4 0.977503 0.423886 0.805916
Si Si5 0.608930 0.430169 0.082409
Si Si6 0.070691 0.072135 0.454671
Si Si7 0.702352 0.568072 0.370062
O O1 0.350528 0.250000 0.081140
O O2 0.262128 0.462100 0.146407
O O3 0.453701 0.469769 0.252197
O O4 0.335229 0.531212 0.997798
O O5 0.134200 0.250000 0.128900
O O6 0.082989 0.048494 0.938318
O O7 0.113569 0.962257 0.171112
O O8 0.500000 0.500000 0.500000
O O9 0.546443 0.250000 0.427989
O O10 0.638509 0.501977 0.432543
O O11 0.965585 0.250000 0.756458
O O12 0.976079 0.535816 0.698693
O O13 0.602588 0.250000 0.098369
O O14 0.666733 0.504938 0.225507
O O15 0.500000 0.500000 0.000000
O O16 0.070910 0.250000 0.477201
O O17 0.184123 0.010401 0.537498
O O18 0.000000 0.000000 0.500000
O O19 0.692976 0.750000 0.365405
#
# Coordination Sequence:
#
# PCOD8076657 Si02
#       7
#     4   4   4   4   4   4   4
#     4  10  22  40  63  91 124 165 209 251 310 372
#     4   9  20  39  63  90 124 163 202 253 311 369
#     4  11  24  41  64  94 131 170 211 259 311 376
#     4  10  21  39  63  92 124 160 206 258 312 368
#     4  12  24  40  64  93 125 161 205 255 308 366
#     4  11  26  45  66  91 125 167 211 260 317 379
#     4  11  25  45  67  91 125 169 212 260 319 376
#
# _framework density 20.377369000000002
#
# number of rings (size 3 to 8) (size 9 to 14) (size 15 to 20)
#    0.000    1.429    1.429    3.000    4.000    4.000 
#    0.000    0.000    0.000    0.000    0.000    0.000 
#    0.000    0.000    0.000    0.000    0.000    0.000 
#
# Total GULP energy -347342.447965 kJ/mol
# GULP energy per Si atom -12405.087427 kJ/mol
# Density = 2.033099 g / cm^3
# Si number density = 20.377369 Si / 1000 Ang^3
#
#
#
# Elastic Constant Matrix: (Units=GPa)
#
#
# Indices 1 2 3 4 5 6 
#
# 1 140.3761 48.7922 48.3722 0.0000 4.8158 0.0000
# 2 48.7922 80.5235 41.6916 0.0000 0.6783 0.0000
# 3 48.3722 41.6916 81.3182 0.0000 -13.7663 0.0000
# 4 0.0000 0.0000 0.0000 36.4016 0.0000 -6.3162
# 5 4.8158 0.6783 -13.7663 0.0000 29.3221 0.0000
# 6 0.0000 0.0000 0.0000 -6.3162 0.0000 37.5810
#
#
#
# Elastic Compliance Matrix: (Units=1/GPa)
#
#
# Indices 1 2 3 4 5 6 
#
# 1 0.010191 -0.003628 -0.004858 0.000000 -0.003870 0.000000
# 2 -0.003628 0.018856 -0.008129 0.000000 -0.003657 0.000000
# 3 -0.004858 -0.008129 0.021207 0.000000 0.010942 0.000000
# 4 0.000000 0.000000 0.000000 0.028297 0.000000 0.004756
# 5 -0.003870 -0.003657 0.010942 0.000000 0.039961 0.000000
# 6 0.000000 0.000000 0.000000 0.004756 0.000000 0.027409
#
#
# Mechanical properties :
#
#
# Convention : Reuss Voigt Hill
#
# Bulk Modulus (GPa) = 58.73188 64.43664 61.58426
# Shear Modulus (GPa) = 27.05268 31.55172 29.30220
#
# Velocity S-wave (km/s) = 3.64756 3.93920 3.79618
# Velocity P-wave (km/s) = 6.82819 7.23741 7.03578
#
# Compressibility (1/GPa) = 0.01702653
#
# Stress axis : x y z
#
# Youngs Moduli (GPa) = 98.12313 53.03249 47.15439
#
# Poissons Ratio (x) = 0.19238 0.22906
# Poissons Ratio (y) = 0.35595 0.38331
# Poissons Ratio (z) = 0.47665 0.43109
#
# Static dielectric constant tensor:
#      x y z
#    x 3.856660 0.000000 0.028430 
#    y 0.000000 3.816330 0.000000 
#    z 0.028430 0.000000 4.158100 
# 
# 
# High freq. dielectric constant tensor:
#      x y z
#    x 1.808320 0.000000 -0.002490 
#    y 0.000000 1.800390 0.000000 
#    z -0.002490 0.000000 1.800540 
# 
# From -- ./inp_files/38420.got.cif
#   From: 2010.06.25/outbox.cif.g09.slc.cpg/sg11_20_cif.got.tgz:38420.got - 2010.06.27 23:14:04.
