data_PCOD8076318
_publ_section_title
;
Structure prediction by ZEFSAII (Michael W. Deem and Ramdas Pophale) SiO2 
 PCOD8076318
Probable space group: P 21/M
;
_chemical_formula_sum "Si O2"
_cell_formula_units_Z 32
_cell_length_a 20.752301
_cell_length_b 8.723795
_cell_length_c 26.048580
_cell_angle_alpha 90.000000
_cell_angle_beta 20.742666
_cell_angle_gamma 90.000000
_cell_volume 1670.202664
_symmetry_space_group_name_H-M "P 21/M"
_symmetry_group_IT_number 11
_symmetry_cell_setting 'monoclinic'
loop_
_space_group_symop_operation_xyz
x,y,z
-x,1/2+y,-z
-x,-y,-z
x,1/2-y,z
loop_
_atom_site_type_symbol
_atom_site_label
_atom_site_fract_x
_atom_site_fract_y
_atom_site_fract_z
Si Si1 0.742736 0.072941 0.458957
Si Si2 0.302979 0.929489 0.151039
Si Si3 0.497346 0.428645 0.446451
Si Si4 0.805167 0.426520 0.139099
Si Si5 0.161437 0.425175 0.157718
Si Si6 0.516862 0.929076 0.158135
Si Si7 0.520465 0.432036 0.267581
Si Si8 0.185813 0.068580 0.341933
O O1 0.692806 0.250000 0.503823
O O2 0.956615 0.047236 0.292592
O O3 0.659216 0.011442 0.468697
O O4 0.666385 0.981763 0.565211
O O5 0.315830 0.750000 0.153244
O O6 0.196604 0.958756 0.177852
O O7 0.199281 0.013796 0.273706
O O8 0.500000 0.000000 0.000000
O O9 0.500000 0.500000 0.500000
O O10 0.450680 0.250000 0.483723
O O11 0.692588 0.457452 0.274816
O O12 0.839068 0.250000 0.104406
O O13 0.690481 0.489711 0.175790
O O14 0.000000 0.500000 0.000000
O O15 0.192960 0.250000 0.152621
O O16 0.294703 0.464410 0.011320
O O17 0.472205 0.750000 0.192694
O O18 0.537011 0.990226 0.200401
O O19 0.353816 0.012793 0.250751
O O20 0.518306 0.250000 0.263125
O O21 0.178840 0.250000 0.349587
O O22 0.000000 0.000000 0.500000
#
# Coordination Sequence:
#
# PCOD8076318 Si02
#       8
#     4   4   4   4   4   4   4   4
#     4  10  21  39  62  89 119 156 200 245 296 356
#     4  12  24  41  65  91 122 160 202 250 305 360
#     4  10  21  38  59  87 121 156 196 244 295 352
#     4   9  20  37  58  85 117 154 197 244 292 348
#     4  10  23  41  62  88 121 157 201 249 301 359
#     4  11  23  41  63  88 120 158 200 248 300 355
#     4  10  22  40  59  85 122 159 198 246 297 356
#     4  12  26  44  65  91 122 158 202 252 304 362
#
# _framework density 19.159351000000001
#
# number of rings (size 3 to 8) (size 9 to 14) (size 15 to 20)
#    0.000    1.500    1.250    4.500    1.750    5.500 
#    0.000    3.750    0.000    0.000    0.000    0.000 
#    0.000    0.000    0.000    0.000    0.000    0.000 
#
# Total GULP energy -396905.461956 kJ/mol
# GULP energy per Si atom -12403.295686 kJ/mol
# Density = 1.911574 g / cm^3
# Si number density = 19.159351 Si / 1000 Ang^3
#
#
#
# Elastic Constant Matrix: (Units=GPa)
#
#
# Indices 1 2 3 4 5 6 
#
# 1 128.4854 52.5751 63.1783 0.0000 17.9164 0.0000
# 2 52.5751 118.1750 62.1109 0.0000 1.6464 0.0000
# 3 63.1783 62.1109 148.0185 0.0000 0.3731 0.0000
# 4 0.0000 0.0000 0.0000 31.7491 0.0000 -0.6290
# 5 17.9164 1.6464 0.3731 0.0000 32.8859 0.0000
# 6 0.0000 0.0000 0.0000 -0.6290 0.0000 39.6158
#
#
#
# Elastic Compliance Matrix: (Units=1/GPa)
#
#
# Indices 1 2 3 4 5 6 
#
# 1 0.011765 -0.003229 -0.003651 0.000000 -0.006207 0.000000
# 2 -0.003229 0.011750 -0.003556 0.000000 0.001211 0.000000
# 3 -0.003651 -0.003556 0.009801 0.000000 0.002056 0.000000
# 4 0.000000 0.000000 0.000000 0.031507 0.000000 0.000500
# 5 -0.006207 0.001211 0.002056 0.000000 0.033706 0.000000
# 6 0.000000 0.000000 0.000000 0.000500 0.000000 0.025250
#
#
# Mechanical properties :
#
#
# Convention : Reuss Voigt Hill
#
# Bulk Modulus (GPa) = 80.34993 83.37861 81.86427
# Shear Modulus (GPa) = 33.60251 35.30448 34.45350
#
# Velocity S-wave (km/s) = 4.19244 4.29730 4.24519
# Velocity P-wave (km/s) = 8.09099 8.26047 8.17617
#
# Compressibility (1/GPa) = 0.01244556
#
# Stress axis : x y z
#
# Youngs Moduli (GPa) = 84.99859 85.10408 102.02923
#
# Poissons Ratio (x) = 0.27477 0.37252
# Poissons Ratio (y) = 0.27443 0.36277
# Poissons Ratio (z) = 0.31034 0.30260
#
# Static dielectric constant tensor:
#      x y z
#    x 0.000000 0.000000 0.000000 
#    y 0.000000 0.000000 0.000000 
#    z 0.000000 0.000000 0.000000 
# 
# 
# High freq. dielectric constant tensor:
#      x y z
#    x 1.752500 0.000000 0.002310 
#    y 0.000000 1.758730 0.000000 
#    z 0.002310 0.000000 1.754160 
# 
# From -- ./inp_files/72084.got.cif
#   From: 2010.06.25/outbox.cif.g09.slc.cpg/sg11_37_cif.got.tgz:72084.got - 2010.06.27 23:14:04.
