data_PCOD8076105
_publ_section_title
;
Structure prediction by ZEFSAII (Michael W. Deem and Ramdas Pophale) SiO2 
 PCOD8076105
Probable space group: P 21/M
;
_chemical_formula_sum "Si O2"
_cell_formula_units_Z 32
_cell_length_a 12.249663
_cell_length_b 8.757509
_cell_length_c 20.191918
_cell_angle_alpha 90.000000
_cell_angle_beta 125.905605
_cell_angle_gamma 90.000000
_cell_volume 1754.522308
_symmetry_space_group_name_H-M "P 21/M"
_symmetry_group_IT_number 11
_symmetry_cell_setting 'monoclinic'
loop_
_space_group_symop_operation_xyz
x,y,z
-x,1/2+y,-z
-x,-y,-z
x,1/2-y,z
loop_
_atom_site_type_symbol
_atom_site_label
_atom_site_fract_x
_atom_site_fract_y
_atom_site_fract_z
Si Si1 0.383235 0.570434 0.120356
Si Si2 0.358080 0.930891 0.469886
Si Si3 0.610602 0.070955 0.375152
Si Si4 0.639040 0.570324 0.024511
Si Si5 0.336189 0.572951 0.747806
Si Si6 0.844599 0.427278 0.196518
Si Si7 0.847822 0.571323 0.704168
Si Si8 0.681280 0.570709 0.769998
O O1 0.370498 0.750000 0.108561
O O2 0.539843 0.525445 0.181312
O O3 0.296024 0.515021 0.152385
O O4 0.320942 0.493253 0.033101
O O5 0.369786 0.750000 0.470310
O O6 0.326705 0.991430 0.533904
O O7 0.500000 0.000000 0.500000
O O8 0.237592 0.983745 0.380802
O O9 0.602377 0.250000 0.379925
O O10 0.697410 0.025606 0.340544
O O11 0.458172 0.010140 0.311480
O O12 0.619940 0.750000 0.014305
O O13 0.759574 0.529338 0.116512
O O14 0.500000 0.500000 0.000000
O O15 0.381522 0.750000 0.766628
O O16 0.205731 0.543273 0.746282
O O17 0.828670 0.250000 0.171108
O O18 0.998418 0.481043 0.247998
O O19 0.828636 0.750000 0.684106
O O20 0.800008 0.528478 0.761262
O O21 0.675505 0.750000 0.782798
#
# Coordination Sequence:
#
# PCOD8076105 Si02
#       8
#     4   4   4   4   4   4   4   4
#     4  11  21  33  54  85 113 138 182 234 277 326
#     4  11  20  33  54  81 111 146 190 237 282 330
#     4   8  15  29  51  77 105 141 182 224 275 330
#     4  12  23  37  58  84 114 146 185 230 278 328
#     4   9  17  33  55  78 108 146 184 223 280 333
#     4  10  21  37  59  83 111 148 188 230 278 336
#     4  10  21  38  57  81 114 151 188 228 281 340
#     4   9  17  34  55  76 109 148 183 223 281 334
#
# _framework density 18.238582000000001
#
# number of rings (size 3 to 8) (size 9 to 14) (size 15 to 20)
#    0.000    2.000    2.500    3.375    0.000    1.000 
#    0.000    1.875    0.000    0.000    0.000    0.000 
#    0.000    0.000    0.000    0.000    0.000    0.000 
#
# Total GULP energy -396729.017819 kJ/mol
# GULP energy per Si atom -12397.781807 kJ/mol
# Density = 1.819707 g / cm^3
# Si number density = 18.238582 Si / 1000 Ang^3
#
#
#
# Elastic Constant Matrix: (Units=GPa)
#
#
# Indices 1 2 3 4 5 6 
#
# 1 151.2169 46.4877 80.9922 0.0000 -16.0843 0.0000
# 2 46.4877 92.0453 54.1424 0.0000 -8.7790 0.0000
# 3 80.9922 54.1424 123.1111 0.0000 -19.5376 0.0000
# 4 0.0000 0.0000 0.0000 29.4038 0.0000 -2.4679
# 5 -16.0843 -8.7790 -19.5376 0.0000 33.3740 0.0000
# 6 0.0000 0.0000 0.0000 -2.4679 0.0000 20.4518
#
#
#
# Elastic Compliance Matrix: (Units=1/GPa)
#
#
# Indices 1 2 3 4 5 6 
#
# 1 0.010431 -0.001659 -0.005958 0.000000 0.001103 0.000000
# 2 -0.001659 0.014919 -0.005484 0.000000 -0.000085 0.000000
# 3 -0.005958 -0.005484 0.015180 0.000000 0.004572 0.000000
# 4 0.000000 0.000000 0.000000 0.034357 0.000000 0.004146
# 5 0.001103 -0.000085 0.004572 0.000000 0.033149 0.000000
# 6 0.000000 0.000000 0.000000 0.004146 0.000000 0.049396
#
#
# Mechanical properties :
#
#
# Convention : Reuss Voigt Hill
#
# Bulk Modulus (GPa) = 69.78467 81.06867 75.42667
# Shear Modulus (GPa) = 26.53783 28.96265 27.75024
#
# Velocity S-wave (km/s) = 3.81863 3.98928 3.90489
# Velocity P-wave (km/s) = 7.60183 8.10954 7.85978
#
# Compressibility (1/GPa) = 0.01432979
#
# Stress axis : x y z
#
# Youngs Moduli (GPa) = 95.86406 67.02713 65.87705
#
# Poissons Ratio (x) = 0.11117 0.39251
# Poissons Ratio (y) = 0.15899 0.36125
# Poissons Ratio (z) = 0.57117 0.36755
#
# Static dielectric constant tensor:
#      x y z
#    x 3.577040 0.000000 -0.350520 
#    y 0.000000 3.231750 0.000000 
#    z -0.350520 0.000000 3.581840 
# 
# 
# High freq. dielectric constant tensor:
#      x y z
#    x 1.705790 0.000000 -0.029830 
#    y 0.000000 1.695560 0.000000 
#    z -0.029830 0.000000 1.697360 
# 
# From -- ./inp_files/64425.got.cif
#   From: 2010.06.25/outbox.cif.g09.slc.cpg/sg11_33_cif.got.tgz:64425.got - 2010.06.27 23:14:04.
