data_PCOD8076699
_publ_section_title
;
Structure prediction by ZEFSAII (Michael W. Deem and Ramdas Pophale) SiO2 
 PCOD8076699
Probable space group: P 21/M
;
_chemical_formula_sum "Si O2"
_cell_formula_units_Z 20
_cell_length_a 5.342788
_cell_length_b 14.461939
_cell_length_c 10.470872
_cell_angle_alpha 90.000000
_cell_angle_beta 87.910058
_cell_angle_gamma 90.000000
_cell_volume 808.515470
_symmetry_space_group_name_H-M "P 21/M"
_symmetry_group_IT_number 11
_symmetry_cell_setting 'monoclinic'
loop_
_space_group_symop_operation_xyz
x,y,z
-x,1/2+y,-z
-x,-y,-z
x,1/2-y,z
loop_
_atom_site_type_symbol
_atom_site_label
_atom_site_fract_x
_atom_site_fract_y
_atom_site_fract_z
Si Si1 0.911013 0.944782 0.879363
Si Si2 0.549980 0.147742 0.767064
Si Si3 0.824943 0.516983 0.348186
Si Si4 0.130782 0.646601 0.489797
Si Si5 0.613805 0.354024 0.051730
O O1 0.627214 0.911874 0.898612
O O2 0.925676 0.997940 0.742653
O O3 0.135958 0.868224 0.867953
O O4 0.000000 0.000000 0.000000
O O5 0.417117 0.250000 0.781211
O O6 0.740549 0.156243 0.648255
O O7 0.365040 0.062998 0.746533
O O8 0.679385 0.123540 0.900827
O O9 0.723214 0.419641 0.411578
O O10 0.874901 0.589904 0.463084
O O11 0.080028 0.750000 0.546801
O O12 0.525326 0.250000 0.069849
#
# Coordination Sequence:
#
# PCOD8076699 Si02
#       5
#     4   4   4   4   4
#     4  12  24  42  69 100 139 175 227 275 340 407
#     4  10  21  39  65  94 128 172 222 273 331 402
#     4  11  23  39  69  90 133 172 223 276 339 395
#     4  10  23  42  63  94 126 170 226 279 336 399
#     4  11  25  43  67  99 138 180 224 279 338 406
#
# _framework density 24.736692000000001
#
# number of rings (size 3 to 8) (size 9 to 14) (size 15 to 20)
#    0.000    1.200    2.000    3.600    2.800    1.600 
#    0.000    0.000    0.000    0.000    0.000    0.000 
#    0.000    0.000    0.000    0.000    0.000    0.000 
#
# Total GULP energy -247766.775340 kJ/mol
# GULP energy per Si atom -12388.338767 kJ/mol
# Density = 2.468039 g / cm^3
# Si number density = 24.736692 Si / 1000 Ang^3
#
#
#
# Elastic Constant Matrix: (Units=GPa)
#
#
# Indices 1 2 3 4 5 6 
#
# 1 71.7905 18.8634 12.5867 0.0000 -5.1067 0.0000
# 2 18.8634 151.3420 40.9042 0.0000 9.9864 0.0000
# 3 12.5867 40.9042 74.9719 0.0000 4.8885 0.0000
# 4 0.0000 0.0000 0.0000 34.8908 0.0000 3.1321
# 5 -5.1067 9.9864 4.8885 0.0000 30.1600 0.0000
# 6 0.0000 0.0000 0.0000 3.1321 0.0000 29.5178
#
#
#
# Elastic Compliance Matrix: (Units=1/GPa)
#
#
# Indices 1 2 3 4 5 6 
#
# 1 0.014908 -0.001576 -0.001861 0.000000 0.003348 0.000000
# 2 -0.001576 0.008026 -0.003966 0.000000 -0.002282 0.000000
# 3 -0.001861 -0.003966 0.015918 0.000000 -0.001582 0.000000
# 4 0.000000 0.000000 0.000000 0.028936 0.000000 -0.003070
# 5 0.003348 -0.002282 -0.001582 0.000000 0.034735 0.000000
# 6 0.000000 0.000000 0.000000 -0.003070 0.000000 0.034204
#
#
# Mechanical properties :
#
#
# Convention : Reuss Voigt Hill
#
# Bulk Modulus (GPa) = 41.58702 49.20145 45.39424
# Shear Modulus (GPa) = 31.33836 33.96373 32.65104
#
# Velocity S-wave (km/s) = 3.56318 3.70944 3.63704
# Velocity P-wave (km/s) = 5.81178 6.18707 6.00236
#
# Compressibility (1/GPa) = 0.02404596
#
# Stress axis : x y z
#
# Youngs Moduli (GPa) = 67.07810 124.58872 62.82325
#
# Poissons Ratio (x) = 0.19635 0.11693
# Poissons Ratio (y) = 0.10571 0.24914
# Poissons Ratio (z) = 0.12485 0.49409
#
# Static dielectric constant tensor:
#      x y z
#    x 4.356060 0.000000 0.171580 
#    y 0.000000 5.352840 0.000000 
#    z 0.171580 0.000000 4.491590 
# 
# 
# High freq. dielectric constant tensor:
#      x y z
#    x 1.950100 0.000000 0.002720 
#    y 0.000000 2.010110 0.000000 
#    z 0.002720 0.000000 1.992280 
# 
# From -- ./inp_files/4240.got.cif
#   From: 2010.06.25/outbox.cif.g09.slc.cpg/sg11_3_cif.got.tgz:4240.got - 2010.06.27 23:14:04.
