data_PCOD8076691
_publ_section_title
;
Structure prediction by ZEFSAII (Michael W. Deem and Ramdas Pophale) SiO2 
 PCOD8076691
Probable space group: P 21/M
;
_chemical_formula_sum "Si O2"
_cell_formula_units_Z 32
_cell_length_a 9.410676
_cell_length_b 13.653826
_cell_length_c 24.621859
_cell_angle_alpha 90.000000
_cell_angle_beta 150.034397
_cell_angle_gamma 90.000000
_cell_volume 1580.207533
_symmetry_space_group_name_H-M "P 21/M"
_symmetry_group_IT_number 11
_symmetry_cell_setting 'monoclinic'
loop_
_space_group_symop_operation_xyz
x,y,z
-x,1/2+y,-z
-x,-y,-z
x,1/2-y,z
loop_
_atom_site_type_symbol
_atom_site_label
_atom_site_fract_x
_atom_site_fract_y
_atom_site_fract_z
Si Si1 0.504560 0.862446 0.807480
Si Si2 0.942460 0.136680 0.081214
Si Si3 0.892895 0.981065 0.759672
Si Si4 0.186022 0.135064 0.677217
Si Si5 0.115693 0.865336 0.584004
Si Si6 0.466102 0.134563 0.658264
Si Si7 0.587656 0.526213 0.143879
Si Si8 0.392654 0.634694 0.564860
O O1 0.446697 0.750000 0.803023
O O2 0.250342 0.905847 0.684688
O O3 0.803982 0.876333 0.877336
O O4 0.506501 0.920560 0.864586
O O5 0.859990 0.250000 0.060776
O O6 0.033115 0.095968 0.169249
O O7 0.676033 0.077090 0.971559
O O8 0.679510 0.925714 0.646997
O O9 0.753510 0.079284 0.737869
O O10 0.172192 0.014316 0.821364
O O11 0.225471 0.250000 0.693780
O O12 0.360226 0.097843 0.682249
O O13 0.304904 0.091207 0.771209
O O14 0.851962 0.109158 0.559730
O O15 0.164519 0.750000 0.598950
O O16 0.290145 0.905445 0.589965
O O17 0.781728 0.890324 0.467970
O O18 0.531012 0.250000 0.679928
O O19 0.457381 0.750000 0.586467
#
# Coordination Sequence:
#
# PCOD8076691 Si02
#       8
#     4   4   4   4   4   4   4   4
#     4  10  21  39  65  92 119 155 207 258 301 346
#     4  11  24  46  69  84 109 161 214 258 296 350
#     4  12  24  38  62  91 124 159 205 240 308 365
#     4   9  20  39  61  87 120 162 206 254 302 350
#     4   8  15  33  60  90 118 157 207 249 288 340
#     4   9  20  37  61  91 125 163 207 248 291 351
#     4  12  26  40  59  91 132 158 197 243 314 370
#     4   9  18  35  61  89 119 158 207 252 295 351
#
# _framework density 20.250505
#
# number of rings (size 3 to 8) (size 9 to 14) (size 15 to 20)
#    0.000    2.000    1.250    3.750    1.750    3.500 
#    0.000    1.875    0.000    0.000    0.000    0.000 
#    0.000    0.000    0.000    0.000    0.000    0.000 
#
# Total GULP energy -396832.370693 kJ/mol
# GULP energy per Si atom -12401.011584 kJ/mol
# Density = 2.020441 g / cm^3
# Si number density = 20.250505 Si / 1000 Ang^3
#
#
#
# Elastic Constant Matrix: (Units=GPa)
#
#
# Indices 1 2 3 4 5 6 
#
# 1 65.5255 27.5287 27.4017 0.0000 20.6049 0.0000
# 2 27.5287 80.7170 67.7864 0.0000 -24.4408 0.0000
# 3 27.4017 67.7864 119.2953 0.0000 -20.0892 0.0000
# 4 0.0000 0.0000 0.0000 40.8910 0.0000 -0.9230
# 5 20.6049 -24.4408 -20.0892 0.0000 39.9125 0.0000
# 6 0.0000 0.0000 0.0000 -0.9230 0.0000 9.0966
#
#
#
# Elastic Compliance Matrix: (Units=1/GPa)
#
#
# Indices 1 2 3 4 5 6 
#
# 1 0.033187 -0.018515 -0.002073 0.000000 -0.029514 0.000000
# 2 -0.018515 0.036957 -0.012375 0.000000 0.025960 0.000000
# 3 -0.002073 -0.012375 0.016165 0.000000 0.001628 0.000000
# 4 0.000000 0.000000 0.000000 0.024511 0.000000 0.002487
# 5 -0.029514 0.025960 0.001628 0.000000 0.057008 0.000000
# 6 0.000000 0.000000 0.000000 0.002487 0.000000 0.110184
#
#
# Mechanical properties :
#
#
# Convention : Reuss Voigt Hill
#
# Bulk Modulus (GPa) = 49.05892 56.77460 52.91676
# Shear Modulus (GPa) = 14.25588 27.50141 20.87864
#
# Velocity S-wave (km/s) = 2.65613 3.68918 3.21443
# Velocity P-wave (km/s) = 5.80391 6.80028 6.32175
#
# Compressibility (1/GPa) = 0.02038365
#
# Stress axis : x y z
#
# Youngs Moduli (GPa) = 30.13205 27.05843 61.86276
#
# Poissons Ratio (x) = 0.50098 0.12822
# Poissons Ratio (y) = 0.55789 0.76558
# Poissons Ratio (z) = 0.06245 0.33486
#
# Static dielectric constant tensor:
#      x y z
#    x 3.467800 0.000000 -0.018020 
#    y 0.000000 3.771830 0.000000 
#    z -0.018020 0.000000 3.840490 
# 
# 
# High freq. dielectric constant tensor:
#      x y z
#    x 1.757020 0.000000 0.000400 
#    y 0.000000 1.811910 0.000000 
#    z 0.000400 0.000000 1.796210 
# 
# From -- ./inp_files/27826.got.cif
#   From: 2010.06.25/outbox.cif.g09.slc.cpg/sg11_14_cif.got.tgz:27826.got - 2010.06.27 23:14:04.
