data_PCOD8076055
_publ_section_title
;
Structure prediction by ZEFSAII (Michael W. Deem and Ramdas Pophale) SiO2 
 PCOD8076055
Probable space group: P 21/M
;
_chemical_formula_sum "Si O2"
_cell_formula_units_Z 28
_cell_length_a 15.108255
_cell_length_b 8.866850
_cell_length_c 11.646309
_cell_angle_alpha 90.000000
_cell_angle_beta 116.333151
_cell_angle_gamma 90.000000
_cell_volume 1398.271211
_symmetry_space_group_name_H-M "P 21/M"
_symmetry_group_IT_number 11
_symmetry_cell_setting 'monoclinic'
loop_
_space_group_symop_operation_xyz
x,y,z
-x,1/2+y,-z
-x,-y,-z
x,1/2-y,z
loop_
_atom_site_type_symbol
_atom_site_label
_atom_site_fract_x
_atom_site_fract_y
_atom_site_fract_z
Si Si1 0.973331 0.427663 0.363677
Si Si2 0.642475 0.074728 0.542890
Si Si3 0.104414 0.922754 0.045250
Si Si4 0.193481 0.427263 0.876965
Si Si5 0.582705 0.573457 0.970426
Si Si6 0.547616 0.572299 0.697408
Si Si7 0.141061 0.579924 0.324740
O O1 0.963373 0.250000 0.372696
O O2 0.869819 0.492620 0.258642
O O3 0.000000 0.500000 0.500000
O O4 0.058957 0.464240 0.321299
O O5 0.629399 0.250000 0.562893
O O6 0.563330 0.021369 0.402232
O O7 0.752503 0.040915 0.557988
O O8 0.626658 0.988579 0.652749
O O9 0.090977 0.750000 0.997003
O O10 0.158476 0.932667 0.198546
O O11 0.167794 0.011150 0.987972
O O12 0.000000 0.000000 0.000000
O O13 0.170673 0.250000 0.862144
O O14 0.308279 0.462323 0.918009
O O15 0.562533 0.750000 0.956452
O O16 0.571861 0.505010 0.836259
O O17 0.500000 0.500000 0.000000
O O18 0.558472 0.750000 0.705643
O O19 0.107286 0.750000 0.338162
#
# Coordination Sequence:
#
# PCOD8076055 Si02
#       7
#     4   4   4   4   4   4   4
#     4  12  26  43  63  85 115 155 198 242 298 361
#     4   9  18  33  57  86 116 151 189 234 289 348
#     4  11  21  34  58  89 122 159 200 248 303 357
#     4  11  23  41  62  88 123 158 201 255 307 361
#     4  10  23  40  60  86 118 158 202 252 300 352
#     4   9  18  35  56  83 117 151 190 238 293 345
#     4  10  21  37  57  86 122 156 195 242 292 353
#
# _framework density 20.024726999999999
#
# number of rings (size 3 to 8) (size 9 to 14) (size 15 to 20)
#    0.000    1.714    1.429    3.000    0.000    4.000 
#    0.000    1.429    0.000    0.000    0.000    0.000 
#    0.000    0.000    0.000    0.000    0.000    0.000 
#
# Total GULP energy -347243.717792 kJ/mol
# GULP energy per Si atom -12401.561350 kJ/mol
# Density = 1.997915 g / cm^3
# Si number density = 20.024727 Si / 1000 Ang^3
#
#
#
# Elastic Constant Matrix: (Units=GPa)
#
#
# Indices 1 2 3 4 5 6 
#
# 1 116.3369 54.1398 55.9962 0.0000 14.1494 0.0000
# 2 54.1398 100.7220 52.7322 0.0000 5.9318 0.0000
# 3 55.9962 52.7322 129.0007 0.0000 4.3089 0.0000
# 4 0.0000 0.0000 0.0000 29.6711 0.0000 -4.3153
# 5 14.1494 5.9318 4.3089 0.0000 32.2102 0.0000
# 6 0.0000 0.0000 0.0000 -4.3153 0.0000 34.8687
#
#
#
# Elastic Compliance Matrix: (Units=1/GPa)
#
#
# Indices 1 2 3 4 5 6 
#
# 1 0.013133 -0.004953 -0.003530 0.000000 -0.004385 0.000000
# 2 -0.004953 0.014587 -0.003813 0.000000 0.000000 0.000000
# 3 -0.003530 -0.003813 0.010816 0.000000 0.000806 0.000000
# 4 0.000000 0.000000 0.000000 0.034321 0.000000 0.004247
# 5 -0.004385 0.000000 0.000806 0.000000 0.032865 0.000000
# 6 0.000000 0.000000 0.000000 0.004247 0.000000 0.029205
#
#
# Mechanical properties :
#
#
# Convention : Reuss Voigt Hill
#
# Bulk Modulus (GPa) = 71.71173 74.64400 73.17786
# Shear Modulus (GPa) = 30.45738 31.56277 31.01007
#
# Velocity S-wave (km/s) = 3.90422 3.97443 3.93948
# Velocity P-wave (km/s) = 7.49755 7.64319 7.57072
#
# Compressibility (1/GPa) = 0.01394472
#
# Stress axis : x y z
#
# Youngs Moduli (GPa) = 76.14469 68.55504 92.45906
#
# Poissons Ratio (x) = 0.33956 0.32634
# Poissons Ratio (y) = 0.37715 0.35252
# Poissons Ratio (z) = 0.26875 0.26138
#
# Static dielectric constant tensor:
#      x y z
#    x 3.524310 0.000000 0.135470 
#    y 0.000000 3.677090 0.000000 
#    z 0.135470 0.000000 4.017500 
# 
# 
# High freq. dielectric constant tensor:
#      x y z
#    x 1.778670 0.000000 0.014370 
#    y 0.000000 1.778940 0.000000 
#    z 0.014370 0.000000 1.790600 
# 
# From -- ./inp_files/38440.got.cif
#   From: 2010.06.25/outbox.cif.g09.slc.cpg/sg11_20_cif.got.tgz:38440.got - 2010.06.27 23:14:04.
