data_PCOD8076546
_publ_section_title
;
Structure prediction by ZEFSAII (Michael W. Deem and Ramdas Pophale) SiO2 
 PCOD8076546
Probable space group: P 21/M
;
_chemical_formula_sum "Si O2"
_cell_formula_units_Z 28
_cell_length_a 19.035833
_cell_length_b 8.845766
_cell_length_c 13.979054
_cell_angle_alpha 90.000000
_cell_angle_beta 35.432859
_cell_angle_gamma 90.000000
_cell_volume 1364.661022
_symmetry_space_group_name_H-M "P 21/M"
_symmetry_group_IT_number 11
_symmetry_cell_setting 'monoclinic'
loop_
_space_group_symop_operation_xyz
x,y,z
-x,1/2+y,-z
-x,-y,-z
x,1/2-y,z
loop_
_atom_site_type_symbol
_atom_site_label
_atom_site_fract_x
_atom_site_fract_y
_atom_site_fract_z
Si Si1 0.455900 0.580594 0.641900
Si Si2 0.881771 0.424991 0.586992
Si Si3 0.992021 0.072752 0.112966
Si Si4 0.800530 0.076930 0.995189
Si Si5 0.208396 0.921734 0.516967
Si Si6 0.541392 0.571320 0.748627
Si Si7 0.305544 0.070389 0.074524
O O1 0.500000 0.500000 0.500000
O O2 0.502693 0.750000 0.581652
O O3 0.516053 0.508918 0.669795
O O4 0.311226 0.570667 0.807546
O O5 0.878965 0.250000 0.620298
O O6 0.883492 0.443755 0.470082
O O7 0.761465 0.508444 0.757506
O O8 0.000000 0.500000 0.500000
O O9 0.016912 0.250000 0.075676
O O10 0.861454 0.040811 0.306635
O O11 0.089010 0.001245 0.075523
O O12 0.000000 0.000000 0.000000
O O13 0.832491 0.250000 0.933610
O O14 0.768768 0.988519 0.934227
O O15 0.256758 0.750000 0.465676
O O16 0.322029 0.031584 0.375316
O O17 0.518901 0.750000 0.780757
O O18 0.443445 0.490502 0.925699
O O19 0.306032 0.250000 0.074268
#
# Coordination Sequence:
#
# PCOD8076546 Si02
#       7
#     4   4   4   4   4   4   4
#     4   9  20  35  55  84 115 151 197 249 301 358
#     4  11  23  41  66  95 126 162 209 261 310 367
#     4  11  24  41  61  88 122 163 208 254 310 374
#     4  10  21  39  60  87 119 156 204 255 305 362
#     4  10  24  43  62  88 123 162 206 255 308 369
#     4  10  22  40  61  89 123 161 207 255 307 367
#     4  11  22  39  64  93 125 164 204 249 311 373
#
# _framework density 20.517914999999999
#
# number of rings (size 3 to 8) (size 9 to 14) (size 15 to 20)
#    0.000    1.714    0.000    4.714    2.000    7.429 
#    0.000    0.000    0.000    0.000    0.000    0.000 
#    0.000    0.000    0.000    0.000    0.000    0.000 
#
# Total GULP energy -347261.739129 kJ/mol
# GULP energy per Si atom -12402.204969 kJ/mol
# Density = 2.047122 g / cm^3
# Si number density = 20.517915 Si / 1000 Ang^3
#
#
#
# Elastic Constant Matrix: (Units=GPa)
#
#
# Indices 1 2 3 4 5 6 
#
# 1 68.9705 37.7520 40.5896 0.0000 -8.2100 0.0000
# 2 37.7520 138.1421 57.5454 0.0000 -0.3066 0.0000
# 3 40.5896 57.5454 114.3886 0.0000 6.4479 0.0000
# 4 0.0000 0.0000 0.0000 39.0200 0.0000 -2.3403
# 5 -8.2100 -0.3066 6.4479 0.0000 37.0130 0.0000
# 6 0.0000 0.0000 0.0000 -2.3403 0.0000 36.3653
#
#
#
# Elastic Compliance Matrix: (Units=1/GPa)
#
#
# Indices 1 2 3 4 5 6 
#
# 1 0.020360 -0.003052 -0.006001 0.000000 0.005536 0.000000
# 2 -0.003052 0.009645 -0.003772 0.000000 0.000060 0.000000
# 3 -0.006001 -0.003772 0.012974 0.000000 -0.003623 0.000000
# 4 0.000000 0.000000 0.000000 0.025727 0.000000 0.001656
# 5 0.005536 0.000060 -0.003623 0.000000 0.028877 0.000000
# 6 0.000000 0.000000 0.000000 0.001656 0.000000 0.027605
#
#
# Mechanical properties :
#
#
# Convention : Reuss Voigt Hill
#
# Bulk Modulus (GPa) = 57.71266 65.91948 61.81607
# Shear Modulus (GPa) = 31.92540 34.85393 33.38966
#
# Velocity S-wave (km/s) = 3.94887 4.12601 4.03841
# Velocity P-wave (km/s) = 6.99860 7.40919 7.20682
#
# Compressibility (1/GPa) = 0.01732722
#
# Stress axis : x y z
#
# Youngs Moduli (GPa) = 49.11507 103.68596 77.07954
#
# Poissons Ratio (x) = 0.31644 0.46259
# Poissons Ratio (y) = 0.14989 0.29077
# Poissons Ratio (z) = 0.29476 0.39114
#
# Static dielectric constant tensor:
#      x y z
#    x 2.323180 0.000000 -0.304400 
#    y 0.000000 3.749950 0.000000 
#    z -0.304400 0.000000 3.776820 
# 
# 
# High freq. dielectric constant tensor:
#      x y z
#    x 1.799370 0.000000 0.002640 
#    y 0.000000 1.810270 0.000000 
#    z 0.002640 0.000000 1.811740 
# 
# From -- ./inp_files/54533.got.cif
#   From: 2010.06.25/outbox.cif.g09.slc.cpg/sg11_28_cif.got.tgz:54533.got - 2010.06.27 23:14:04.
