data_PCOD8076571
_publ_section_title
;
Structure prediction by ZEFSAII (Michael W. Deem and Ramdas Pophale) SiO2 
 PCOD8076571
Probable space group: P 21/M
;
_chemical_formula_sum "Si O2"
_cell_formula_units_Z 28
_cell_length_a 26.469519
_cell_length_b 8.764450
_cell_length_c 9.456703
_cell_angle_alpha 90.000000
_cell_angle_beta 140.552310
_cell_angle_gamma 90.000000
_cell_volume 1393.925452
_symmetry_space_group_name_H-M "P 21/M"
_symmetry_group_IT_number 11
_symmetry_cell_setting 'monoclinic'
loop_
_space_group_symop_operation_xyz
x,y,z
-x,1/2+y,-z
-x,-y,-z
x,1/2-y,z
loop_
_atom_site_type_symbol
_atom_site_label
_atom_site_fract_x
_atom_site_fract_y
_atom_site_fract_z
Si Si1 0.574015 0.573529 0.579399
Si Si2 0.742005 0.068779 0.914064
Si Si3 0.781061 0.567798 0.695506
Si Si4 0.517138 0.421259 0.891416
Si Si5 0.328230 0.419157 0.789174
Si Si6 0.178616 0.076353 0.660031
Si Si7 0.913860 0.068106 0.791637
O O1 0.500000 0.500000 0.500000
O O2 0.583512 0.750000 0.646769
O O3 0.556333 0.560726 0.373981
O O4 0.655911 0.485195 0.784667
O O5 0.743053 0.250000 0.902662
O O6 0.811001 0.013980 0.170555
O O7 0.762533 0.992090 0.810154
O O8 0.792104 0.750000 0.718445
O O9 0.708283 0.518003 0.436600
O O10 0.860648 0.491990 0.806238
O O11 0.534549 0.250000 0.967424
O O12 0.500000 0.500000 0.000000
O O13 0.597812 0.483722 0.995438
O O14 0.360525 0.250000 0.831268
O O15 0.263911 0.421997 0.771993
O O16 0.149297 0.250000 0.623928
O O17 0.116356 0.989508 0.426155
O O18 0.915358 0.250000 0.795984
O O19 0.000000 0.000000 0.000000
#
# Coordination Sequence:
#
# PCOD8076571 Si02
#       7
#     4   4   4   4   4   4   4
#     4  11  24  40  56  79 112 154 200 249 302 358
#     4  12  24  38  58  87 119 155 199 248 299 355
#     4  10  21  39  61  87 119 158 198 241 294 351
#     4  11  23  35  51  75 105 141 187 239 292 343
#     4   9  19  35  56  79 106 142 189 237 286 343
#     4  10  21  39  62  87 116 154 192 233 286 346
#     4  11  22  40  66  96 126 156 192 235 283 344
#
# _framework density 20.087157000000001
#
# number of rings (size 3 to 8) (size 9 to 14) (size 15 to 20)
#    0.000    1.429    0.000    6.857    0.000   11.429 
#    0.000    0.714    0.000    0.000    0.000    0.000 
#    0.000    0.000    0.000    0.000    0.000    0.000 
#
# Total GULP energy -347230.535065 kJ/mol
# GULP energy per Si atom -12401.090538 kJ/mol
# Density = 2.004144 g / cm^3
# Si number density = 20.087157 Si / 1000 Ang^3
#
#
#
# Elastic Constant Matrix: (Units=GPa)
#
#
# Indices 1 2 3 4 5 6 
#
# 1 53.6811 24.6931 31.7806 0.0000 -2.9601 0.0000
# 2 24.6931 133.3359 39.9505 0.0000 9.2084 0.0000
# 3 31.7806 39.9505 97.4737 0.0000 4.2592 0.0000
# 4 0.0000 0.0000 0.0000 36.9880 0.0000 -0.3378
# 5 -2.9601 9.2084 4.2592 0.0000 34.1739 0.0000
# 6 0.0000 0.0000 0.0000 -0.3378 0.0000 35.1560
#
#
#
# Elastic Compliance Matrix: (Units=1/GPa)
#
#
# Indices 1 2 3 4 5 6 
#
# 1 0.024166 -0.002645 -0.006955 0.000000 0.003673 0.000000
# 2 -0.002645 0.008961 -0.002710 0.000000 -0.002306 0.000000
# 3 -0.006955 -0.002710 0.013707 0.000000 -0.001581 0.000000
# 4 0.000000 0.000000 0.000000 0.027038 0.000000 0.000260
# 5 0.003673 -0.002306 -0.001581 0.000000 0.030399 0.000000
# 6 0.000000 0.000000 0.000000 0.000260 0.000000 0.028447
#
#
# Mechanical properties :
#
#
# Convention : Reuss Voigt Hill
#
# Bulk Modulus (GPa) = 45.01866 53.03768 49.02817
# Shear Modulus (GPa) = 30.35069 33.80134 32.07601
#
# Velocity S-wave (km/s) = 3.89131 4.10656 4.00039
# Velocity P-wave (km/s) = 6.53070 6.99616 6.76743
#
# Compressibility (1/GPa) = 0.02221301
#
# Stress axis : x y z
#
# Youngs Moduli (GPa) = 41.38129 111.59740 72.95791
#
# Poissons Ratio (x) = 0.29517 0.50745
# Poissons Ratio (y) = 0.10945 0.19768
# Poissons Ratio (z) = 0.28782 0.30238
#
# Static dielectric constant tensor:
#      x y z
#    x 3.613390 0.000000 0.130690 
#    y 0.000000 3.925920 0.000000 
#    z 0.130690 0.000000 4.689270 
# 
# 
# High freq. dielectric constant tensor:
#      x y z
#    x 1.774250 0.000000 -0.012350 
#    y 0.000000 1.797560 0.000000 
#    z -0.012350 0.000000 1.792560 
# 
# From -- ./inp_files/28629.got.cif
#   From: 2010.06.25/outbox.cif.g09.slc.cpg/sg11_15_cif.got.tgz:28629.got - 2010.06.27 23:14:04.
