data_PCOD8076765
_publ_section_title
;
Structure prediction by ZEFSAII (Michael W. Deem and Ramdas Pophale) SiO2 
 PCOD8076765
Probable space group: P 21/M
;
_chemical_formula_sum "Si O2"
_cell_formula_units_Z 26
_cell_length_a 7.691343
_cell_length_b 12.907814
_cell_length_c 17.066833
_cell_angle_alpha 90.000000
_cell_angle_beta 135.891513
_cell_angle_gamma 90.000000
_cell_volume 1179.312803
_symmetry_space_group_name_H-M "P 21/M"
_symmetry_group_IT_number 11
_symmetry_cell_setting 'monoclinic'
loop_
_space_group_symop_operation_xyz
x,y,z
-x,1/2+y,-z
-x,-y,-z
x,1/2-y,z
loop_
_atom_site_type_symbol
_atom_site_label
_atom_site_fract_x
_atom_site_fract_y
_atom_site_fract_z
Si Si1 0.782799 0.250000 0.222436
Si Si2 0.153932 0.959778 0.683016
Si Si3 0.386884 0.067949 0.895526
Si Si4 0.455561 0.437817 0.313335
Si Si5 0.714445 0.750000 0.837490
Si Si6 0.252979 0.750000 0.978367
Si Si7 0.262069 0.632997 0.455843
Si Si8 0.824775 0.136461 0.746155
O O1 0.930774 0.350008 0.305289
O O2 0.489518 0.250000 0.158064
O O3 0.791340 0.250000 0.130757
O O4 0.269549 0.940795 0.635235
O O5 0.367120 0.000784 0.810692
O O6 0.946244 0.045258 0.601714
O O7 0.117737 0.113992 0.831586
O O8 0.586939 0.154062 0.941813
O O9 0.500000 0.000000 0.000000
O O10 0.298201 0.350219 0.220782
O O11 0.495298 0.406636 0.417436
O O12 0.308517 0.544811 0.249772
O O13 0.007027 0.750000 0.954709
O O14 0.180771 0.750000 0.458309
O O15 0.322889 0.639707 0.384067
O O16 0.793532 0.250000 0.776402
#
# Coordination Sequence:
#
# PCOD8076765 Si02
#       8
#     2   4   4   4   2   2   4   4
#     4  10  22  44  60  93 132 161 218 270 304 381
#     4  10  23  39  63  91 125 163 210 264 314 381
#     4  11  21  40  63  89 116 163 215 252 315 384
#     4  11  21  42  61  90 129 162 204 268 319 372
#     4  10  24  40  65  97 122 165 223 266 308 384
#     4  12  22  42  67  88 124 176 209 258 336 365
#     4  10  21  40  64  88 124 167 209 255 318 382
#     4  10  22  39  57  90 127 157 208 263 311 382
#
# _framework density 22.046738999999999
#
# number of rings (size 3 to 8) (size 9 to 14) (size 15 to 20)
#    0.000    1.538    3.077    1.846    3.231    0.615 
#    4.154    2.308    0.000    0.000    0.000    0.000 
#    0.000    0.000    0.000    0.000    0.000    0.000 
#
# Total GULP energy -322164.799975 kJ/mol
# GULP energy per Si atom -12390.953845 kJ/mol
# Density = 2.199656 g / cm^3
# Si number density = 22.046739 Si / 1000 Ang^3
#
#
#
# Elastic Constant Matrix: (Units=GPa)
#
#
# Indices 1 2 3 4 5 6 
#
# 1 33.0659 9.6782 -3.0866 0.0000 2.2157 0.0000
# 2 9.6782 182.2824 22.3186 0.0000 11.2652 0.0000
# 3 -3.0866 22.3186 55.7414 0.0000 2.7256 0.0000
# 4 0.0000 0.0000 0.0000 22.5403 0.0000 9.0876
# 5 2.2157 11.2652 2.7256 0.0000 22.8849 0.0000
# 6 0.0000 0.0000 0.0000 9.0876 0.0000 27.7005
#
#
#
# Elastic Compliance Matrix: (Units=1/GPa)
#
#
# Indices 1 2 3 4 5 6 
#
# 1 0.031179 -0.001820 0.002574 0.000000 -0.002429 0.000000
# 2 -0.001820 0.006031 -0.002393 0.000000 -0.002507 0.000000
# 3 0.002574 -0.002393 0.019106 0.000000 -0.001347 0.000000
# 4 0.000000 0.000000 0.000000 0.051127 0.000000 -0.016773
# 5 -0.002429 -0.002507 -0.001347 0.000000 0.045327 0.000000
# 6 0.000000 0.000000 0.000000 -0.016773 0.000000 0.041603
#
#
# Mechanical properties :
#
#
# Convention : Reuss Voigt Hill
#
# Bulk Modulus (GPa) = 18.85464 36.54557 27.70010
# Shear Modulus (GPa) = 23.22014 30.77044 26.99529
#
# Velocity S-wave (km/s) = 3.24886 3.73995 3.50302
# Velocity P-wave (km/s) = 4.75859 5.93818 5.38081
#
# Compressibility (1/GPa) = 0.05303734
#
# Stress axis : x y z
#
# Youngs Moduli (GPa) = 32.07333 165.82147 52.33829
#
# Poissons Ratio (x) = 0.30187 -0.13473
# Poissons Ratio (y) = 0.05839 0.12524
# Poissons Ratio (z) = -0.08256 0.39678
#
# Static dielectric constant tensor:
#      x y z
#    x 3.708030 0.000000 -0.189500 
#    y 0.000000 3.864130 0.000000 
#    z -0.189500 0.000000 4.118120 
# 
# 
# High freq. dielectric constant tensor:
#      x y z
#    x 1.836850 0.000000 -0.004410 
#    y 0.000000 1.899620 0.000000 
#    z -0.004410 0.000000 1.862910 
# 
# From -- ./inp_files/22433.got.cif
#   From: 2010.06.25/outbox.cif.g09.slc.cpg/sg11_12_cif.got.tgz:22433.got - 2010.06.27 23:14:04.
