data_PCOD8076231
_publ_section_title
;
Structure prediction by ZEFSAII (Michael W. Deem and Ramdas Pophale) SiO2 
 PCOD8076231
Probable space group: P 21/M
;
_chemical_formula_sum "Si O2"
_cell_formula_units_Z 32
_cell_length_a 23.892634
_cell_length_b 8.986208
_cell_length_c 14.252482
_cell_angle_alpha 90.000000
_cell_angle_beta 33.050550
_cell_angle_gamma 90.000000
_cell_volume 1668.895763
_symmetry_space_group_name_H-M "P 21/M"
_symmetry_group_IT_number 11
_symmetry_cell_setting 'monoclinic'
loop_
_space_group_symop_operation_xyz
x,y,z
-x,1/2+y,-z
-x,-y,-z
x,1/2-y,z
loop_
_atom_site_type_symbol
_atom_site_label
_atom_site_fract_x
_atom_site_fract_y
_atom_site_fract_z
Si Si1 0.240645 0.920237 0.807183
Si Si2 0.952176 0.420236 0.807176
Si Si3 0.303018 0.573718 0.512817
Si Si4 0.815830 0.926280 0.487187
Si Si5 0.723063 0.926463 0.810820
Si Si6 0.093631 0.426099 0.315805
Si Si7 0.590565 0.573905 0.315807
Si Si8 0.533878 0.926459 0.189185
O O1 0.278468 0.750000 0.764125
O O2 0.261955 0.976813 0.672192
O O3 0.301064 0.020193 0.796749
O O4 0.119585 0.934846 0.000003
O O5 0.957405 0.250000 0.764123
O O6 0.902194 0.520202 0.796740
O O7 0.065857 0.476804 0.672183
O O8 0.298002 0.750000 0.508283
O O9 0.230190 0.500006 0.539620
O O10 0.418891 0.511642 0.335965
O O11 0.806277 0.750000 0.491719
O O12 0.754849 0.988348 0.664044
O O13 0.724064 0.750000 0.805136
O O14 0.803292 0.979423 0.776909
O O15 0.609724 0.984955 0.000002
O O16 0.081256 0.250000 0.336543
O O17 0.000000 0.500000 0.500000
O O18 0.500000 0.500000 0.500000
O O19 0.582208 0.750000 0.336557
O O20 0.580202 0.520608 0.223090
O O21 0.529180 0.750000 0.194874
#
# Coordination Sequence:
#
# PCOD8076231 Si02
#       8
#     4   4   4   4   4   4   4   4
#     4  10  21  38  58  82 114 149 184 229 283 333
#     4  10  21  38  58  82 114 149 184 229 283 333
#     4  10  21  38  56  78 108 146 188 231 278 328
#     4  10  21  38  56  78 108 146 188 231 278 328
#     4   9  18  34  56  80 109 144 179 219 273 333
#     4  11  20  34  58  86 116 148 184 224 277 338
#     4  11  20  34  58  86 116 148 184 224 277 338
#     4   9  18  34  56  80 109 144 179 219 273 333
#
# _framework density 19.174354000000001
#
# number of rings (size 3 to 8) (size 9 to 14) (size 15 to 20)
#    0.000    2.000    2.500    1.500    0.000    3.500 
#    0.000    0.000    0.000    3.000    0.000    0.000 
#    0.000    0.000    0.000    0.000    0.000    0.000 
#
# Total GULP energy -396801.815403 kJ/mol
# GULP energy per Si atom -12400.056731 kJ/mol
# Density = 1.913071 g / cm^3
# Si number density = 19.174354 Si / 1000 Ang^3
#
#
#
# Elastic Constant Matrix: (Units=GPa)
#
#
# Indices 1 2 3 4 5 6 
#
# 1 119.6022 24.7040 45.5739 0.0000 -2.4593 0.0000
# 2 24.7040 38.0143 17.3252 0.0000 -0.4782 0.0000
# 3 45.5739 17.3252 143.8537 0.0000 4.0451 0.0000
# 4 0.0000 0.0000 0.0000 17.5557 0.0000 -0.9453
# 5 -2.4593 -0.4782 4.0451 0.0000 18.4637 0.0000
# 6 0.0000 0.0000 0.0000 -0.9453 0.0000 32.1088
#
#
#
# Elastic Compliance Matrix: (Units=1/GPa)
#
#
# Indices 1 2 3 4 5 6 
#
# 1 0.010602 -0.005620 -0.002734 0.000000 0.001866 0.000000
# 2 -0.005620 0.030852 -0.001949 0.000000 0.000477 0.000000
# 3 -0.002734 -0.001949 0.008114 0.000000 -0.002192 0.000000
# 4 0.000000 0.000000 0.000000 0.057052 0.000000 0.001680
# 5 0.001866 0.000477 -0.002192 0.000000 0.054902 0.000000
# 6 0.000000 0.000000 0.000000 0.001680 0.000000 0.031194
#
#
# Mechanical properties :
#
#
# Convention : Reuss Voigt Hill
#
# Bulk Modulus (GPa) = 34.52790 52.96406 43.74598
# Shear Modulus (GPa) = 22.42387 27.88344 25.15366
#
# Velocity S-wave (km/s) = 3.42346 3.81754 3.62586
# Velocity P-wave (km/s) = 5.80286 6.86395 6.35559
#
# Compressibility (1/GPa) = 0.02896209
#
# Stress axis : x y z
#
# Youngs Moduli (GPa) = 94.31970 32.41236 123.24174
#
# Poissons Ratio (x) = 0.18217 0.33700
# Poissons Ratio (y) = 0.53010 0.24015
# Poissons Ratio (z) = 0.25791 0.06316
#
# Static dielectric constant tensor:
#      x y z
#    x 3.568940 0.000000 0.021010 
#    y 0.000000 3.288910 0.000000 
#    z 0.021010 0.000000 3.892180 
# 
# 
# High freq. dielectric constant tensor:
#      x y z
#    x 1.740660 0.000000 0.001710 
#    y 0.000000 1.715930 0.000000 
#    z 0.001710 0.000000 1.767020 
# 
# From -- ./inp_files/55529.got.cif
#   From: 2010.06.25/outbox.cif.g09.slc.cpg/sg11_28_cif.got.tgz:55529.got - 2010.06.27 23:14:04.
