data_PCOD8076758
_publ_section_title
;
Structure prediction by ZEFSAII (Michael W. Deem and Ramdas Pophale) SiO2 
 PCOD8076758
Probable space group: P 21/M
;
_chemical_formula_sum "Si O2"
_cell_formula_units_Z 28
_cell_length_a 9.676814
_cell_length_b 8.574838
_cell_length_c 21.449548
_cell_angle_alpha 90.000000
_cell_angle_beta 132.431197
_cell_angle_gamma 90.000000
_cell_volume 1313.665075
_symmetry_space_group_name_H-M "P 21/M"
_symmetry_group_IT_number 11
_symmetry_cell_setting 'monoclinic'
loop_
_space_group_symop_operation_xyz
x,y,z
-x,1/2+y,-z
-x,-y,-z
x,1/2-y,z
loop_
_atom_site_type_symbol
_atom_site_label
_atom_site_fract_x
_atom_site_fract_y
_atom_site_fract_z
Si Si1 0.741759 0.572901 0.807468
Si Si2 0.458287 0.429161 0.125899
Si Si3 0.169760 0.071645 0.804930
Si Si4 0.547017 0.430708 0.633838
Si Si5 0.849094 0.433303 0.501489
Si Si6 0.131413 0.069414 0.936182
Si Si7 0.833390 0.568403 0.631978
O O1 0.742779 0.750000 0.783133
O O2 0.596192 0.552612 0.818906
O O3 0.685423 0.460411 0.733782
O O4 0.946244 0.528588 0.894719
O O5 0.505004 0.250000 0.123314
O O6 0.638352 0.535757 0.171687
O O7 0.292882 0.491724 0.031214
O O8 0.111088 0.250000 0.774148
O O9 0.200148 0.039438 0.886986
O O10 0.007104 0.960252 0.730585
O O11 0.495379 0.250000 0.613754
O O12 0.357979 0.527807 0.586299
O O13 0.649070 0.480762 0.601111
O O14 0.875672 0.250000 0.514478
O O15 0.885385 0.508371 0.579634
O O16 0.000000 0.500000 0.500000
O O17 0.087260 0.250000 0.935543
O O18 0.787466 0.750000 0.615212
#
# Coordination Sequence:
#
# PCOD8076758 Si02
#       7
#     4   4   4   4   4   4   4
#     4  11  23  39  63  94 128 171 222 271 327 391
#     4  10  23  40  60  90 130 173 220 274 331 390
#     4  11  23  39  63  95 129 171 222 270 326 391
#     4  12  25  45  70  98 133 174 221 270 323 388
#     4  12  27  48  73 104 138 172 213 263 323 386
#     4  10  21  40  63  90 127 170 220 275 329 390
#     4  12  25  45  71  99 133 174 219 268 324 389
#
# _framework density 21.314411
#
# number of rings (size 3 to 8) (size 9 to 14) (size 15 to 20)
#    0.000    0.857    1.429    6.000    2.000    2.286 
#    0.000    0.000    0.000    0.000    0.000    0.000 
#    0.000    0.000    0.000    0.000    0.000    0.000 
#
# Total GULP energy -347457.339411 kJ/mol
# GULP energy per Si atom -12409.190693 kJ/mol
# Density = 2.126590 g / cm^3
# Si number density = 21.314411 Si / 1000 Ang^3
#
#
#
# Elastic Constant Matrix: (Units=GPa)
#
#
# Indices 1 2 3 4 5 6 
#
# 1 116.1731 23.4774 22.6768 0.0000 3.1298 0.0000
# 2 23.4774 85.5561 17.6039 0.0000 -6.6791 0.0000
# 3 22.6768 17.6039 81.2314 0.0000 -1.0017 0.0000
# 4 0.0000 0.0000 0.0000 32.5185 0.0000 3.1491
# 5 3.1298 -6.6791 -1.0017 0.0000 35.1284 0.0000
# 6 0.0000 0.0000 0.0000 3.1491 0.0000 37.7360
#
#
#
# Elastic Compliance Matrix: (Units=1/GPa)
#
#
# Indices 1 2 3 4 5 6 
#
# 1 0.009529 -0.002270 -0.002185 0.000000 -0.001343 0.000000
# 2 -0.002270 0.012955 -0.002142 0.000000 0.002604 0.000000
# 3 -0.002185 -0.002142 0.013387 0.000000 0.000169 0.000000
# 4 0.000000 0.000000 0.000000 0.031002 0.000000 -0.002587
# 5 -0.001343 0.002604 0.000169 0.000000 0.029087 0.000000
# 6 0.000000 0.000000 0.000000 -0.002587 0.000000 0.026716
#
#
# Mechanical properties :
#
#
# Convention : Reuss Voigt Hill
#
# Bulk Modulus (GPa) = 44.09614 45.60853 44.85234
# Shear Modulus (GPa) = 34.86058 35.69009 35.27534
#
# Velocity S-wave (km/s) = 4.04857 4.09645 4.07258
# Velocity P-wave (km/s) = 6.52594 6.61959 6.57293
#
# Compressibility (1/GPa) = 0.02267772
#
# Stress axis : x y z
#
# Youngs Moduli (GPa) = 104.93964 77.18910 74.70130
#
# Poissons Ratio (x) = 0.17524 0.16321
# Poissons Ratio (y) = 0.23824 0.15999
# Poissons Ratio (z) = 0.22927 0.16531
#
# Static dielectric constant tensor:
#      x y z
#    x 3.888710 0.000000 -0.009620 
#    y 0.000000 3.848780 0.000000 
#    z -0.009620 0.000000 3.845300 
# 
# 
# High freq. dielectric constant tensor:
#      x y z
#    x 1.847910 0.000000 -0.001580 
#    y 0.000000 1.840300 0.000000 
#    z -0.001580 0.000000 1.843780 
# 
# From -- ./inp_files/63395.got.cif
#   From: 2010.06.25/outbox.cif.g09.slc.cpg/sg11_32_cif.got.tgz:63395.got - 2010.06.27 23:14:04.
