data_PCOD8076518
_publ_section_title
;
Structure prediction by ZEFSAII (Michael W. Deem and Ramdas Pophale) SiO2 
 PCOD8076518
Probable space group: P 21/M
;
_chemical_formula_sum "Si O2"
_cell_formula_units_Z 32
_cell_length_a 16.196262
_cell_length_b 8.695643
_cell_length_c 24.398713
_cell_angle_alpha 90.000000
_cell_angle_beta 27.150960
_cell_angle_gamma 90.000000
_cell_volume 1568.081462
_symmetry_space_group_name_H-M "P 21/M"
_symmetry_group_IT_number 11
_symmetry_cell_setting 'monoclinic'
loop_
_space_group_symop_operation_xyz
x,y,z
-x,1/2+y,-z
-x,-y,-z
x,1/2-y,z
loop_
_atom_site_type_symbol
_atom_site_label
_atom_site_fract_x
_atom_site_fract_y
_atom_site_fract_z
Si Si1 0.683649 0.075973 0.374191
Si Si2 0.931068 0.933382 0.817199
Si Si3 0.833326 0.072187 0.665423
Si Si4 0.810103 0.430906 0.999218
Si Si5 0.403844 0.429173 0.783402
Si Si6 0.310063 0.568547 0.131216
Si Si7 0.833397 0.073853 0.169336
Si Si8 0.239621 0.073177 0.404679
O O1 0.668248 0.250000 0.401778
O O2 0.700345 0.056296 0.299329
O O3 0.861618 0.006977 0.299269
O O4 0.500000 0.000000 0.500000
O O5 0.920350 0.750000 0.828628
O O6 0.813867 0.005500 0.935397
O O7 0.852455 0.991272 0.806463
O O8 0.802974 0.250000 0.667493
O O9 0.726250 0.028604 0.783883
O O10 0.047022 0.039157 0.546757
O O11 0.759276 0.968274 0.660248
O O12 0.775346 0.250000 0.019066
O O13 0.992387 0.467657 0.925153
O O14 0.644204 0.517835 0.126585
O O15 0.373386 0.250000 0.792030
O O16 0.273484 0.522830 0.820658
O O17 0.613203 0.472064 0.649494
O O18 0.309367 0.750000 0.121503
O O19 0.500000 0.500000 0.000000
O O20 0.899013 0.250000 0.124278
O O21 0.294881 0.250000 0.377837
#
# Coordination Sequence:
#
# PCOD8076518 Si02
#       8
#     4   4   4   4   4   4   4   4
#     4   9  20  37  60  86 117 156 196 242 295 351
#     4  10  22  41  60  86 121 158 200 248 301 359
#     4   9  21  42  63  85 119 157 196 247 304 358
#     4  11  22  38  60  85 116 155 196 240 294 353
#     4  12  24  37  57  86 118 154 195 240 292 351
#     4  11  24  41  63  91 123 161 205 254 308 363
#     4  10  21  39  57  82 118 154 194 241 292 346
#     4  10  21  39  63  89 116 153 200 247 299 359
#
# _framework density 20.407101999999998
#
# number of rings (size 3 to 8) (size 9 to 14) (size 15 to 20)
#    0.000    1.750    0.000    4.875    1.750    5.500 
#    0.000    3.750    0.000    0.000    0.000    0.000 
#    0.000    0.000    0.000    0.000    0.000    0.000 
#
# Total GULP energy -396896.341306 kJ/mol
# GULP energy per Si atom -12403.010666 kJ/mol
# Density = 2.036065 g / cm^3
# Si number density = 20.407102 Si / 1000 Ang^3
#
#
#
# Elastic Constant Matrix: (Units=GPa)
#
#
# Indices 1 2 3 4 5 6 
#
# 1 56.5916 14.1332 16.1785 0.0000 2.9192 0.0000
# 2 14.1332 78.4413 28.5383 0.0000 4.2617 0.0000
# 3 16.1785 28.5383 96.2990 0.0000 7.2341 0.0000
# 4 0.0000 0.0000 0.0000 36.5933 0.0000 -1.8536
# 5 2.9192 4.2617 7.2341 0.0000 22.5590 0.0000
# 6 0.0000 0.0000 0.0000 -1.8536 0.0000 36.8880
#
#
#
# Elastic Compliance Matrix: (Units=1/GPa)
#
#
# Indices 1 2 3 4 5 6 
#
# 1 0.019035 -0.002503 -0.002364 0.000000 -0.001232 0.000000
# 2 -0.002503 0.014660 -0.003833 0.000000 -0.001217 0.000000
# 3 -0.002364 -0.003833 0.012132 0.000000 -0.002861 0.000000
# 4 0.000000 0.000000 0.000000 0.027397 0.000000 0.001377
# 5 -0.001232 -0.001217 -0.002861 0.000000 0.045635 0.000000
# 6 0.000000 0.000000 0.000000 0.001377 0.000000 0.027178
#
#
# Mechanical properties :
#
#
# Convention : Reuss Voigt Hill
#
# Bulk Modulus (GPa) = 35.17560 38.78132 36.97846
# Shear Modulus (GPa) = 28.91661 30.70686 29.81173
#
# Velocity S-wave (km/s) = 3.76837 3.88327 3.82625
# Velocity P-wave (km/s) = 6.01735 6.25712 6.13841
#
# Compressibility (1/GPa) = 0.02842880
#
# Stress axis : x y z
#
# Youngs Moduli (GPa) = 52.53542 68.21393 82.42599
#
# Poissons Ratio (x) = 0.17072 0.19482
# Poissons Ratio (y) = 0.13148 0.31590
# Poissons Ratio (z) = 0.12417 0.26144
#
# Static dielectric constant tensor:
#      x y z
#    x 3.756110 0.000000 -0.023140 
#    y 0.000000 3.786380 0.000000 
#    z -0.023140 0.000000 3.797800 
# 
# 
# High freq. dielectric constant tensor:
#      x y z
#    x 1.794590 0.000000 -0.004760 
#    y 0.000000 1.803300 0.000000 
#    z -0.004760 0.000000 1.803960 
# 
# From -- ./inp_files/68995.got.cif
#   From: 2010.06.25/outbox.cif.g09.slc.cpg/sg11_35_cif.got.tgz:68995.got - 2010.06.27 23:14:04.
