data_PCOD8076419
_publ_section_title
;
Structure prediction by ZEFSAII (Michael W. Deem and Ramdas Pophale) SiO2 
 PCOD8076419
Probable space group: P 21/M
;
_chemical_formula_sum "Si O2"
_cell_formula_units_Z 32
_cell_length_a 12.470849
_cell_length_b 18.221403
_cell_length_c 9.650552
_cell_angle_alpha 90.000000
_cell_angle_beta 130.262401
_cell_angle_gamma 90.000000
_cell_volume 1673.428784
_symmetry_space_group_name_H-M "P 21/M"
_symmetry_group_IT_number 11
_symmetry_cell_setting 'monoclinic'
loop_
_space_group_symop_operation_xyz
x,y,z
-x,1/2+y,-z
-x,-y,-z
x,1/2-y,z
loop_
_atom_site_type_symbol
_atom_site_label
_atom_site_fract_x
_atom_site_fract_y
_atom_site_fract_z
Si Si1 0.878455 0.669347 0.649876
Si Si2 0.115218 0.473561 0.490692
Si Si3 0.604391 0.559224 0.141634
Si Si4 0.855409 0.332186 0.932731
Si Si5 0.399602 0.163794 0.414112
Si Si6 0.987581 0.054187 0.861590
Si Si7 0.689336 0.578062 0.917655
Si Si8 0.411440 0.913223 0.216448
O O1 0.859891 0.750000 0.568791
O O2 0.902728 0.613873 0.544163
O O3 0.742189 0.645954 0.622155
O O4 0.007560 0.667340 0.860341
O O5 0.269469 0.486183 0.681268
O O6 0.098039 0.514853 0.331540
O O7 0.000000 0.500000 0.500000
O O8 0.521186 0.609019 0.185048
O O9 0.500000 0.500000 0.000000
O O10 0.654780 0.602909 0.046886
O O11 0.810897 0.250000 0.853293
O O12 0.891047 0.376480 0.822395
O O13 0.733585 0.369431 0.922922
O O14 0.439132 0.250000 0.452243
O O15 0.376391 0.139839 0.236102
O O16 0.522385 0.113640 0.582703
O O17 0.142317 0.077887 0.945817
O O18 0.000000 0.000000 0.000000
O O19 0.622939 0.499815 0.816312
#
# Coordination Sequence:
#
# PCOD8076419 Si02
#       8
#     4   4   4   4   4   4   4   4
#     4  10  21  38  61  90 123 160 208 257 310 371
#     4  12  22  39  65  95 124 164 212 263 309 372
#     4  10  24  40  58  93 127 162 207 257 312 370
#     4  11  23  39  63  93 127 163 207 263 316 373
#     4  11  22  38  62  92 125 160 208 264 316 370
#     4  12  21  37  66  97 123 158 216 264 315 366
#     4  11  21  39  62  93 124 162 209 264 316 369
#     4  11  22  39  63  90 127 165 212 256 312 385
#
# _framework density 19.122416000000001
#
# number of rings (size 3 to 8) (size 9 to 14) (size 15 to 20)
#    0.000    1.000    6.250    0.750    1.750    2.000 
#    0.000    2.500    0.000    0.000    0.000    0.000 
#    0.000    0.000    0.000    0.000    0.000    0.000 
#
# Total GULP energy -396750.948244 kJ/mol
# GULP energy per Si atom -12398.467133 kJ/mol
# Density = 1.907889 g / cm^3
# Si number density = 19.122416 Si / 1000 Ang^3
#
#
#
# Elastic Constant Matrix: (Units=GPa)
#
#
# Indices 1 2 3 4 5 6 
#
# 1 119.4684 48.1923 28.2614 0.0000 -6.2689 0.0000
# 2 48.1923 97.0136 38.6433 0.0000 -5.7443 0.0000
# 3 28.2614 38.6433 102.9225 0.0000 -6.3347 0.0000
# 4 0.0000 0.0000 0.0000 15.8929 0.0000 -7.6038
# 5 -6.2689 -5.7443 -6.3347 0.0000 32.8722 0.0000
# 6 0.0000 0.0000 0.0000 -7.6038 0.0000 21.9898
#
#
#
# Elastic Compliance Matrix: (Units=1/GPa)
#
#
# Indices 1 2 3 4 5 6 
#
# 1 0.010603 -0.004790 -0.001053 0.000000 0.000982 0.000000
# 2 -0.004790 0.014336 -0.004017 0.000000 0.000818 0.000000
# 3 -0.001053 -0.004017 0.011595 0.000000 0.001332 0.000000
# 4 0.000000 0.000000 0.000000 0.075394 0.000000 0.026071
# 5 0.000982 0.000818 0.001332 0.000000 0.031008 0.000000
# 6 0.000000 0.000000 0.000000 0.026071 0.000000 0.054490
#
#
# Mechanical properties :
#
#
# Convention : Reuss Voigt Hill
#
# Bulk Modulus (GPa) = 59.46953 61.06650 60.26802
# Shear Modulus (GPa) = 22.44667 27.77149 25.10908
#
# Velocity S-wave (km/s) = 3.42985 3.81504 3.62756
# Velocity P-wave (km/s) = 6.84486 7.17007 7.00935
#
# Compressibility (1/GPa) = 0.01681533
#
# Stress axis : x y z
#
# Youngs Moduli (GPa) = 94.31215 69.75628 86.24197
#
# Poissons Ratio (x) = 0.33411 0.09079
# Poissons Ratio (y) = 0.45173 0.34643
# Poissons Ratio (z) = 0.09928 0.28021
#
# Static dielectric constant tensor:
#      x y z
#    x 4.218110 0.000000 -0.265060 
#    y 0.000000 3.497970 0.000000 
#    z -0.265060 0.000000 3.620640 
# 
# 
# High freq. dielectric constant tensor:
#      x y z
#    x 1.751560 0.000000 0.013370 
#    y 0.000000 1.728370 0.000000 
#    z 0.013370 0.000000 1.750650 
# 
# From -- ./inp_files/19363.got.cif
#   From: 2010.06.25/outbox.cif.g09.slc.cpg/sg11_10_cif.got.tgz:19363.got - 2010.06.27 23:14:04.
