data_PCOD8076591
_publ_section_title
;
Structure prediction by ZEFSAII (Michael W. Deem and Ramdas Pophale) SiO2 
 PCOD8076591
Probable space group: P 21/M
;
_chemical_formula_sum "Si O2"
_cell_formula_units_Z 32
_cell_length_a 9.662842
_cell_length_b 25.345132
_cell_length_c 15.325989
_cell_angle_alpha 90.000000
_cell_angle_beta 25.395067
_cell_angle_gamma 90.000000
_cell_volume 1609.684678
_symmetry_space_group_name_H-M "P 21/M"
_symmetry_group_IT_number 11
_symmetry_cell_setting 'monoclinic'
loop_
_space_group_symop_operation_xyz
x,y,z
-x,1/2+y,-z
-x,-y,-z
x,1/2-y,z
loop_
_atom_site_type_symbol
_atom_site_label
_atom_site_fract_x
_atom_site_fract_y
_atom_site_fract_z
Si Si1 0.464762 0.190081 0.445681
Si Si2 0.631408 0.855324 0.808582
Si Si3 0.207368 0.808559 0.917423
Si Si4 0.147541 0.621712 0.218060
Si Si5 0.731728 0.044438 0.990513
Si Si6 0.784418 0.907014 0.167639
Si Si7 0.324774 0.423768 0.972541
Si Si8 0.193798 0.872924 0.604485
O O1 0.337869 0.250000 0.527572
O O2 0.741751 0.186578 0.214945
O O3 0.618243 0.171933 0.449294
O O4 0.182010 0.151486 0.573472
O O5 0.551759 0.819705 0.769627
O O6 0.986899 0.845207 0.644891
O O7 0.369297 0.839725 0.032494
O O8 0.582635 0.918098 0.813835
O O9 0.085760 0.750000 0.010618
O O10 0.939682 0.849910 0.102143
O O11 0.082198 0.567141 0.201466
O O12 0.345049 0.607443 0.193536
O O13 0.977420 0.047569 0.932572
O O14 0.613607 0.985291 0.044555
O O15 0.446954 0.911132 0.411259
O O16 0.753572 0.913295 0.082536
O O17 0.032624 0.406565 0.202078
#
# Coordination Sequence:
#
# PCOD8076591 Si02
#       8
#     4   4   4   4   4   4   4   4
#     4  11  22  40  62  88 118 156 201 245 305 358
#     4   8  20  37  59  84 120 145 206 240 284 366
#     4  10  21  39  62  83 117 160 194 251 307 347
#     4   9  20  38  60  86 113 160 194 240 296 351
#     4   9  19  40  61  86 120 165 195 238 304 349
#     4  11  22  39  59  89 120 157 204 236 301 357
#     4  11  22  39  63  85 132 153 195 258 283 347
#     4  11  22  38  60  92 118 156 198 249 288 354
#
# _framework density 19.879669
#
# number of rings (size 3 to 8) (size 9 to 14) (size 15 to 20)
#    0.750    1.250    2.500    0.750    1.750    3.000 
#    0.000    3.125    0.000    0.000    0.000    0.000 
#    0.000    0.000    0.000    0.000    0.000    0.000 
#
# Total GULP energy -396579.935716 kJ/mol
# GULP energy per Si atom -12393.122991 kJ/mol
# Density = 1.983442 g / cm^3
# Si number density = 19.879669 Si / 1000 Ang^3
#
#
#
# Elastic Constant Matrix: (Units=GPa)
#
#
# Indices 1 2 3 4 5 6 
#
# 1 121.1565 10.3788 29.1875 0.0000 -6.6569 0.0000
# 2 10.3788 86.1191 21.3210 0.0000 -5.7051 0.0000
# 3 29.1875 21.3210 65.6394 0.0000 -11.1581 0.0000
# 4 0.0000 0.0000 0.0000 19.8641 0.0000 2.2417
# 5 -6.6569 -5.7051 -11.1581 0.0000 27.3022 0.0000
# 6 0.0000 0.0000 0.0000 2.2417 0.0000 14.7737
#
#
#
# Elastic Compliance Matrix: (Units=1/GPa)
#
#
# Indices 1 2 3 4 5 6 
#
# 1 0.009254 -0.000089 -0.003982 0.000000 0.000610 0.000000
# 2 -0.000089 0.012655 -0.003896 0.000000 0.001031 0.000000
# 3 -0.003982 -0.003896 0.019309 0.000000 0.006106 0.000000
# 4 0.000000 0.000000 0.000000 0.051219 0.000000 -0.007772
# 5 0.000610 0.001031 0.006106 0.000000 0.039487 0.000000
# 6 0.000000 0.000000 0.000000 -0.007772 0.000000 0.068867
#
#
# Mechanical properties :
#
#
# Convention : Reuss Voigt Hill
#
# Bulk Modulus (GPa) = 39.55059 43.85441 41.70250
# Shear Modulus (GPa) = 22.20696 26.52319 24.36508
#
# Velocity S-wave (km/s) = 3.34588 3.65661 3.50469
# Velocity P-wave (km/s) = 5.90464 6.31946 6.11557
#
# Compressibility (1/GPa) = 0.02528407
#
# Stress axis : x y z
#
# Youngs Moduli (GPa) = 108.05746 79.01785 51.78907
#
# Poissons Ratio (x) = 0.00703 0.20625
# Poissons Ratio (y) = 0.00961 0.20177
# Poissons Ratio (z) = 0.43033 0.30785
#
# Static dielectric constant tensor:
#      x y z
#    x 3.793990 0.000000 -0.075630 
#    y 0.000000 3.360530 0.000000 
#    z -0.075630 0.000000 3.296400 
# 
# 
# High freq. dielectric constant tensor:
#      x y z
#    x 1.795910 0.000000 -0.002700 
#    y 0.000000 1.753180 0.000000 
#    z -0.002700 0.000000 1.748720 
# 
# From -- ./inp_files/48451.got.cif
#   From: 2010.06.25/outbox.cif.g09.slc.cpg/sg11_25_cif.got.tgz:48451.got - 2010.06.27 23:14:04.
