data_PCOD8076978
_publ_section_title
;
Structure prediction by ZEFSAII (Michael W. Deem and Ramdas Pophale) SiO2 
 PCOD8076978
Probable space group: P 21/M
;
_chemical_formula_sum "Si O2"
_cell_formula_units_Z 28
_cell_length_a 17.104502
_cell_length_b 14.027939
_cell_length_c 9.396665
_cell_angle_alpha 90.000000
_cell_angle_beta 143.085493
_cell_angle_gamma 90.000000
_cell_volume 1354.190541
_symmetry_space_group_name_H-M "P 21/M"
_symmetry_group_IT_number 11
_symmetry_cell_setting 'monoclinic'
loop_
_space_group_symop_operation_xyz
x,y,z
-x,1/2+y,-z
-x,-y,-z
x,1/2-y,z
loop_
_atom_site_type_symbol
_atom_site_label
_atom_site_fract_x
_atom_site_fract_y
_atom_site_fract_z
Si Si1 0.750550 0.855364 0.807710
Si Si2 0.602008 0.643530 0.089460
Si Si3 0.541855 0.598934 0.300217
Si Si4 0.105403 0.365060 0.562569
Si Si5 0.490563 0.399022 0.344148
Si Si6 0.684493 0.350522 0.864943
Si Si7 0.100816 0.002016 0.821293
O O1 0.812353 0.750000 0.914493
O O2 0.682413 0.861805 0.554381
O O3 0.644443 0.869092 0.778844
O O4 0.862533 0.936560 0.984134
O O5 0.603986 0.750000 0.155338
O O6 0.548069 0.577764 0.140529
O O7 0.746496 0.611165 0.258363
O O8 0.508965 0.640328 0.816992
O O9 0.505486 0.511856 0.352585
O O10 0.422707 0.667388 0.166618
O O11 0.078141 0.250000 0.524737
O O12 0.069814 0.415327 0.660643
O O13 0.016169 0.426042 0.321186
O O14 0.615313 0.360810 0.609985
O O15 0.763668 0.250000 0.973852
O O16 0.775442 0.437869 0.041689
#
# Coordination Sequence:
#
# PCOD8076978 Si02
#       7
#     4   4   4   4   4   4   4
#     4  11  19  34  57  83 113 146 184 231 276 327
#     4  11  21  35  53  81 113 151 191 221 271 338
#     4  11  20  34  53  84 117 147 180 232 278 331
#     4  10  22  38  57  81 112 150 189 231 276 327
#     4  11  19  34  55  81 114 147 184 228 276 333
#     4  11  20  34  56  86 116 145 180 230 285 328
#     4  11  20  36  58  83 110 140 192 235 271 326
#
# _framework density 20.676558
#
# number of rings (size 3 to 8) (size 9 to 14) (size 15 to 20)
#    0.000    1.143    4.286    5.571    0.000    0.000 
#    0.000    0.714    0.000    0.000    0.000    4.000 
#    0.000    0.000    0.000    0.000    0.000    0.000 
#
# Total GULP energy -346874.463418 kJ/mol
# GULP energy per Si atom -12388.373693 kJ/mol
# Density = 2.062950 g / cm^3
# Si number density = 20.676558 Si / 1000 Ang^3
#
#
#
# Elastic Constant Matrix: (Units=GPa)
#
#
# Indices 1 2 3 4 5 6 
#
# 1 50.3964 5.5809 23.6799 0.0000 -16.9360 0.0000
# 2 5.5809 132.3389 30.5842 0.0000 6.6388 0.0000
# 3 23.6799 30.5842 88.9979 0.0000 -2.7924 0.0000
# 4 0.0000 0.0000 0.0000 22.4746 0.0000 -9.1717
# 5 -16.9360 6.6388 -2.7924 0.0000 30.2172 0.0000
# 6 0.0000 0.0000 0.0000 -9.1717 0.0000 3.5062
#
#
#
# Elastic Compliance Matrix: (Units=1/GPa)
#
#
# Indices 1 2 3 4 5 6 
#
# 1 0.028270 -0.000360 -0.006919 0.000000 0.015284 0.000000
# 2 -0.000360 0.008344 -0.002844 0.000000 -0.002298 0.000000
# 3 -0.006919 -0.002844 0.013993 0.000000 -0.001960 0.000000
# 4 0.000000 0.000000 0.000000 -0.659178 0.000000 -1.724306
# 5 0.015284 -0.002298 -0.001960 0.000000 0.041984 0.000000
# 6 0.000000 0.000000 0.000000 -1.724306 0.000000 -4.225305
#
#
# Mechanical properties :
#
#
# Convention : Reuss Voigt Hill
#
# Bulk Modulus (GPa) = 32.93584 43.49145 38.21365
# Shear Modulus (GPa) = -1.05008 25.36548 12.15770
#
# Velocity S-wave (km/s) = -0.71342 3.50633 2.42749
# Velocity P-wave (km/s) = 3.90961 6.12147 5.13602
#
# Compressibility (1/GPa) = 0.03036207
#
# Stress axis : x y z
#
# Youngs Moduli (GPa) = 35.37348 119.84644 71.46523
#
# Poissons Ratio (x) = 0.04314 0.49443
# Poissons Ratio (y) = 0.01273 0.20323
# Poissons Ratio (z) = 0.24473 0.34081
#
# Static dielectric constant tensor:
#      x y z
#    x 3.151160 0.000000 0.004350 
#    y 0.000000 4.138280 0.000000 
#    z 0.004350 0.000000 3.987090 
# 
# 
# High freq. dielectric constant tensor:
#      x y z
#    x 1.746090 0.000000 -0.010720 
#    y 0.000000 1.837190 0.000000 
#    z -0.010720 0.000000 1.811950 
# 
# From -- ./inp_files/24966.got.cif
#   From: 2010.06.25/outbox.cif.g09.slc.cpg/sg11_13_cif.got.tgz:24966.got - 2010.06.27 23:14:04.
