data_PCOD8076726
_publ_section_title
;
Structure prediction by ZEFSAII (Michael W. Deem and Ramdas Pophale) SiO2 
 PCOD8076726
Probable space group: P 21/M
;
_chemical_formula_sum "Si O2"
_cell_formula_units_Z 32
_cell_length_a 22.365893
_cell_length_b 8.935709
_cell_length_c 15.014372
_cell_angle_alpha 90.000000
_cell_angle_beta 148.001298
_cell_angle_gamma 90.000000
_cell_volume 1590.070550
_symmetry_space_group_name_H-M "P 21/M"
_symmetry_group_IT_number 11
_symmetry_cell_setting 'monoclinic'
loop_
_space_group_symop_operation_xyz
x,y,z
-x,1/2+y,-z
-x,-y,-z
x,1/2-y,z
loop_
_atom_site_type_symbol
_atom_site_label
_atom_site_fract_x
_atom_site_fract_y
_atom_site_fract_z
Si Si1 0.510884 0.078719 0.741576
Si Si2 0.273001 0.425486 0.374810
Si Si3 0.257849 0.074484 0.991294
Si Si4 0.920081 0.572621 0.737020
Si Si5 0.120815 0.924803 0.659962
Si Si6 0.798829 0.075413 0.433547
Si Si7 0.567989 0.920521 0.162583
Si Si8 0.150341 0.075852 0.043524
O O1 0.530776 0.250000 0.735969
O O2 0.396582 0.009462 0.554228
O O3 0.505518 0.070862 0.841376
O O4 0.613418 0.977426 0.838437
O O5 0.279226 0.250000 0.400546
O O6 0.176434 0.489392 0.318296
O O7 0.243495 0.464653 0.235670
O O8 0.253304 0.250000 0.966334
O O9 0.199037 0.032116 0.009458
O O10 0.192915 0.990731 0.831114
O O11 0.918187 0.750000 0.725872
O O12 0.902693 0.499120 0.617728
O O13 0.040165 0.520686 0.926087
O O14 0.103065 0.750000 0.654003
O O15 0.189102 0.956000 0.655792
O O16 0.000000 0.000000 0.500000
O O17 0.797122 0.250000 0.452260
O O18 0.685743 0.001592 0.327842
O O19 0.591608 0.750000 0.164703
O O20 0.500000 0.000000 0.000000
O O21 0.117884 0.250000 0.008058
#
# Coordination Sequence:
#
# PCOD8076726 Si02
#       8
#     4   4   4   4   4   4   4   4
#     4  10  21  40  62  84 118 160 199 244 297 354
#     4   9  19  39  63  87 119 158 196 244 304 358
#     4  11  24  40  59  88 122 158 203 250 295 351
#     4  11  21  37  62  92 122 154 198 246 299 362
#     4  11  24  41  61  86 118 160 202 244 296 353
#     4  11  23  38  58  86 118 153 194 240 296 354
#     4  11  22  37  58  86 117 152 195 240 292 351
#     4  10  22  40  61  86 120 159 198 247 304 355
#
# _framework density 20.124891999999999
#
# number of rings (size 3 to 8) (size 9 to 14) (size 15 to 20)
#    0.000    1.500    1.250    3.750    0.000   10.500 
#    0.000    1.250    0.000    0.000    0.000    0.000 
#    0.000    0.000    0.000    0.000    0.000    0.000 
#
# Total GULP energy -396950.917030 kJ/mol
# GULP energy per Si atom -12404.716157 kJ/mol
# Density = 2.007909 g / cm^3
# Si number density = 20.124892 Si / 1000 Ang^3
#
#
#
# Elastic Constant Matrix: (Units=GPa)
#
#
# Indices 1 2 3 4 5 6 
#
# 1 90.4743 46.0052 48.7734 0.0000 2.1740 0.0000
# 2 46.0052 84.3221 41.4427 0.0000 -0.7373 0.0000
# 3 48.7734 41.4427 140.1248 0.0000 -0.0958 0.0000
# 4 0.0000 0.0000 0.0000 36.5375 0.0000 7.2742
# 5 2.1740 -0.7373 -0.0958 0.0000 40.9055 0.0000
# 6 0.0000 0.0000 0.0000 7.2742 0.0000 26.4955
#
#
#
# Elastic Compliance Matrix: (Units=1/GPa)
#
#
# Indices 1 2 3 4 5 6 
#
# 1 0.016806 -0.007375 -0.003669 0.000000 -0.001035 0.000000
# 2 -0.007375 0.017115 -0.002494 0.000000 0.000695 0.000000
# 3 -0.003669 -0.002494 0.009151 0.000000 0.000171 0.000000
# 4 0.000000 0.000000 0.000000 0.028952 0.000000 -0.007949
# 5 -0.001035 0.000695 0.000171 0.000000 0.024515 0.000000
# 6 0.000000 0.000000 0.000000 -0.007949 0.000000 0.039925
#
#
# Mechanical properties :
#
#
# Convention : Reuss Voigt Hill
#
# Bulk Modulus (GPa) = 62.51783 65.26265 63.89024
# Shear Modulus (GPa) = 29.60837 32.70102 31.15469
#
# Velocity S-wave (km/s) = 3.83982 4.03538 3.93882
# Velocity P-wave (km/s) = 7.12681 7.36286 7.24579
#
# Compressibility (1/GPa) = 0.01599544
#
# Stress axis : x y z
#
# Youngs Moduli (GPa) = 59.50368 58.42866 109.27187
#
# Poissons Ratio (x) = 0.43090 0.40094
# Poissons Ratio (y) = 0.43882 0.27257
# Poissons Ratio (z) = 0.21833 0.14575
#
# Static dielectric constant tensor:
#      x y z
#    x 3.738030 0.000000 0.045170 
#    y 0.000000 3.584780 0.000000 
#    z 0.045170 0.000000 3.908370 
# 
# 
# High freq. dielectric constant tensor:
#      x y z
#    x 1.787310 0.000000 -0.001780 
#    y 0.000000 1.778800 0.000000 
#    z -0.001780 0.000000 1.802530 
# 
# From -- ./inp_files/55558.got.cif
#   From: 2010.06.25/outbox.cif.g09.slc.cpg/sg11_28_cif.got.tgz:55558.got - 2010.06.27 23:14:04.
