data_PCOD8076715
_publ_section_title
;
Structure prediction by ZEFSAII (Michael W. Deem and Ramdas Pophale) SiO2 
 PCOD8076715
Probable space group: P 21/M
;
_chemical_formula_sum "Si O2"
_cell_formula_units_Z 32
_cell_length_a 13.508913
_cell_length_b 18.407624
_cell_length_c 15.261351
_cell_angle_alpha 90.000000
_cell_angle_beta 27.660101
_cell_angle_gamma 90.000000
_cell_volume 1761.732612
_symmetry_space_group_name_H-M "P 21/M"
_symmetry_group_IT_number 11
_symmetry_cell_setting 'monoclinic'
loop_
_space_group_symop_operation_xyz
x,y,z
-x,1/2+y,-z
-x,-y,-z
x,1/2-y,z
loop_
_atom_site_type_symbol
_atom_site_label
_atom_site_fract_x
_atom_site_fract_y
_atom_site_fract_z
Si Si1 0.749731 0.165374 0.681306
Si Si2 0.661722 0.423979 0.285913
Si Si3 0.181897 0.165308 0.249865
Si Si4 0.364572 0.833422 0.035040
Si Si5 0.316872 0.398585 0.966119
Si Si6 0.935187 0.665367 0.994928
Si Si7 0.215054 0.561047 0.002967
Si Si8 0.762719 0.923113 0.284320
O O1 0.702958 0.250000 0.702254
O O2 0.754400 0.148362 0.780815
O O3 0.565369 0.120994 0.777570
O O4 0.974214 0.140603 0.465567
O O5 0.670029 0.411275 0.175439
O O6 0.432801 0.398797 0.501163
O O7 0.700306 0.508956 0.272663
O O8 0.843143 0.377331 0.192050
O O9 0.178206 0.250000 0.227446
O O10 0.385056 0.148450 0.151514
O O11 0.190717 0.120150 0.153642
O O12 0.330075 0.750000 0.035504
O O13 0.261331 0.881277 0.041331
O O14 0.218484 0.352568 0.964674
O O15 0.305876 0.483819 0.959204
O O16 0.986277 0.750000 0.957807
O O17 0.821543 0.643241 0.174724
O O18 0.961113 0.555268 0.189652
#
# Coordination Sequence:
#
# PCOD8076715 Si02
#       8
#     4   4   4   4   4   4   4   4
#     4   9  19  36  55  77 111 150 184 225 277 329
#     4  10  21  40  59  78 111 153 188 224 277 335
#     4   9  19  36  55  77 111 150 184 225 277 329
#     4   9  20  38  57  77 105 143 185 231 277 326
#     4  11  20  34  54  84 114 145 183 224 280 337
#     4  11  21  36  58  85 115 146 184 232 281 330
#     4  11  21  36  59  84 110 146 185 232 283 334
#     4  10  21  40  59  78 111 153 188 224 277 335
#
# _framework density 18.163938000000002
#
# number of rings (size 3 to 8) (size 9 to 14) (size 15 to 20)
#    0.000    2.000    2.500    2.625    0.000    7.500 
#    0.000    1.250    0.000    0.000    0.000    0.000 
#    0.000    0.000    0.000    0.000    0.000    0.000 
#
# Total GULP energy -396923.627326 kJ/mol
# GULP energy per Si atom -12403.863354 kJ/mol
# Density = 1.812260 g / cm^3
# Si number density = 18.163938 Si / 1000 Ang^3
#
#
#
# Elastic Constant Matrix: (Units=GPa)
#
#
# Indices 1 2 3 4 5 6 
#
# 1 91.4903 23.3040 37.6567 0.0000 1.0664 0.0000
# 2 23.3040 57.8256 15.9658 0.0000 3.2652 0.0000
# 3 37.6567 15.9658 149.6755 0.0000 5.2027 0.0000
# 4 0.0000 0.0000 0.0000 14.7801 0.0000 3.4831
# 5 1.0664 3.2652 5.2027 0.0000 15.7321 0.0000
# 6 0.0000 0.0000 0.0000 3.4831 0.0000 32.1687
#
#
#
# Elastic Compliance Matrix: (Units=1/GPa)
#
#
# Indices 1 2 3 4 5 6 
#
# 1 0.013280 -0.004613 -0.002884 0.000000 0.001011 0.000000
# 2 -0.004613 0.019572 -0.000806 0.000000 -0.003483 0.000000
# 3 -0.002884 -0.000806 0.007567 0.000000 -0.002140 0.000000
# 4 0.000000 0.000000 0.000000 0.069430 0.000000 -0.007518
# 5 0.001011 -0.003483 -0.002140 0.000000 0.064926 0.000000
# 6 0.000000 0.000000 0.000000 -0.007518 0.000000 0.031900
#
#
# Mechanical properties :
#
#
# Convention : Reuss Voigt Hill
#
# Bulk Modulus (GPa) = 41.99430 50.31605 46.15518
# Shear Modulus (GPa) = 21.62446 27.34051 24.48248
#
# Velocity S-wave (km/s) = 3.45413 3.88391 3.67531
# Velocity P-wave (km/s) = 6.25122 6.91912 6.59363
#
# Compressibility (1/GPa) = 0.02381275
#
# Stress axis : x y z
#
# Youngs Moduli (GPa) = 75.29866 51.09440 132.15032
#
# Poissons Ratio (x) = 0.23569 0.38116
# Poissons Ratio (y) = 0.34734 0.10653
# Poissons Ratio (z) = 0.21718 0.04119
#
# Static dielectric constant tensor:
#      x y z
#    x 3.303040 0.000000 0.005700 
#    y 0.000000 3.238530 0.000000 
#    z 0.005700 0.000000 3.568040 
# 
# 
# High freq. dielectric constant tensor:
#      x y z
#    x 1.706710 0.000000 -0.000390 
#    y 0.000000 1.696610 0.000000 
#    z -0.000390 0.000000 1.709480 
# 
# From -- ./inp_files/50645.got.cif
#   From: 2010.06.25/outbox.cif.g09.slc.cpg/sg11_26_cif.got.tgz:50645.got - 2010.06.27 23:14:04.
