data_PCOD8076097
_publ_section_title
;
Structure prediction by ZEFSAII (Michael W. Deem and Ramdas Pophale) SiO2 
 PCOD8076097
Probable space group: P 21/M
;
_chemical_formula_sum "Si O2"
_cell_formula_units_Z 32
_cell_length_a 32.900132
_cell_length_b 9.128481
_cell_length_c 12.569770
_cell_angle_alpha 90.000000
_cell_angle_beta 25.449131
_cell_angle_gamma 90.000000
_cell_volume 1622.178074
_symmetry_space_group_name_H-M "P 21/M"
_symmetry_group_IT_number 11
_symmetry_cell_setting 'monoclinic'
loop_
_space_group_symop_operation_xyz
x,y,z
-x,1/2+y,-z
-x,-y,-z
x,1/2-y,z
loop_
_atom_site_type_symbol
_atom_site_label
_atom_site_fract_x
_atom_site_fract_y
_atom_site_fract_z
Si Si1 0.125949 0.576674 0.497688
Si Si2 0.090882 0.416561 0.018732
Si Si3 0.405072 0.920742 0.191345
Si Si4 0.626126 0.581833 0.386110
Si Si5 0.297396 0.420201 0.023284
Si Si6 0.589061 0.420319 0.063858
Si Si7 0.742582 0.077619 0.282981
Si Si8 0.098322 0.081228 0.764660
O O1 0.137185 0.750000 0.479933
O O2 0.198633 0.508630 0.240629
O O3 0.159336 0.504638 0.531828
O O4 0.018711 0.531351 0.721791
O O5 0.095436 0.250000 0.048249
O O6 0.151176 0.516074 0.955741
O O7 0.138998 0.429771 0.787915
O O8 0.424896 0.750000 0.158736
O O9 0.320631 0.973715 0.467416
O O10 0.377211 0.956687 0.135581
O O11 0.500000 0.000000 0.000000
O O12 0.646336 0.750000 0.368185
O O13 0.520692 0.536615 0.667181
O O14 0.699549 0.482430 0.275977
O O15 0.639041 0.553078 0.230532
O O16 0.274666 0.250000 0.094316
O O17 0.352866 0.479595 0.993766
O O18 0.605148 0.250000 0.054860
O O19 0.749625 0.250000 0.257922
O O20 0.085233 0.250000 0.761464
O O21 0.000000 0.000000 0.000000
#
# Coordination Sequence:
#
# PCOD8076097 Si02
#       8
#     4   4   4   4   4   4   4   4
#     4  10  21  38  58  82 115 155 198 246 297 349
#     4   9  20  37  57  82 114 155 196 234 288 352
#     4  10  21  37  58  88 121 155 191 235 289 347
#     4  10  22  42  63  83 115 158 199 242 292 350
#     4  11  24  39  60  90 117 150 200 249 295 349
#     4  10  21  39  62  87 119 157 192 234 295 354
#     4  11  23  36  58  91 121 153 196 242 291 349
#     4   9  17  31  52  80 112 150 190 234 287 343
#
# _framework density 19.726565000000001
#
# number of rings (size 3 to 8) (size 9 to 14) (size 15 to 20)
#    0.000    2.000    1.250    2.625    1.750    5.500 
#    0.000    0.625    0.000    0.000    0.000    0.000 
#    0.000    0.000    0.000    0.000    0.000    0.000 
#
# Total GULP energy -396793.866489 kJ/mol
# GULP energy per Si atom -12399.808328 kJ/mol
# Density = 1.968167 g / cm^3
# Si number density = 19.726565 Si / 1000 Ang^3
#
#
#
# Elastic Constant Matrix: (Units=GPa)
#
#
# Indices 1 2 3 4 5 6 
#
# 1 98.5816 46.1846 30.8011 0.0000 -11.3284 0.0000
# 2 46.1846 87.6202 29.9423 0.0000 -8.8760 0.0000
# 3 30.8011 29.9423 58.6303 0.0000 -6.8371 0.0000
# 4 0.0000 0.0000 0.0000 31.5804 0.0000 -2.1299
# 5 -11.3284 -8.8760 -6.8371 0.0000 28.7288 0.0000
# 6 0.0000 0.0000 0.0000 -2.1299 0.0000 35.0007
#
#
#
# Elastic Compliance Matrix: (Units=1/GPa)
#
#
# Indices 1 2 3 4 5 6 
#
# 1 0.014601 -0.005932 -0.004303 0.000000 0.002901 0.000000
# 2 -0.005932 0.016437 -0.005100 0.000000 0.001526 0.000000
# 3 -0.004303 -0.005100 0.022154 0.000000 0.002000 0.000000
# 4 0.000000 0.000000 0.000000 0.031796 0.000000 0.001935
# 5 0.002901 0.001526 0.002000 0.000000 0.036899 0.000000
# 6 0.000000 0.000000 0.000000 0.001935 0.000000 0.028689
#
#
# Mechanical properties :
#
#
# Convention : Reuss Voigt Hill
#
# Bulk Modulus (GPa) = 44.40012 50.96537 47.68274
# Shear Modulus (GPa) = 26.48975 28.25559 27.37267
#
# Velocity S-wave (km/s) = 3.66846 3.78876 3.72910
# Velocity P-wave (km/s) = 6.36397 6.71056 6.53956
#
# Compressibility (1/GPa) = 0.02252246
#
# Stress axis : x y z
#
# Youngs Moduli (GPa) = 68.49068 60.83861 45.13791
#
# Poissons Ratio (x) = 0.36088 0.19422
# Poissons Ratio (y) = 0.40627 0.23021
# Poissons Ratio (z) = 0.29470 0.31029
#
# Static dielectric constant tensor:
#      x y z
#    x 3.486690 0.000000 0.137770 
#    y 0.000000 3.722050 0.000000 
#    z 0.137770 0.000000 3.765760 
# 
# 
# High freq. dielectric constant tensor:
#      x y z
#    x 1.757510 0.000000 -0.000690 
#    y 0.000000 1.772330 0.000000 
#    z -0.000690 0.000000 1.769670 
# 
# From -- ./inp_files/45222.got.cif
#   From: 2010.06.25/outbox.cif.g09.slc.cpg/sg11_23_cif.got.tgz:45222.got - 2010.06.27 23:14:04.
