data_PCOD8076587
_publ_section_title
;
Structure prediction by ZEFSAII (Michael W. Deem and Ramdas Pophale) SiO2 
 PCOD8076587
Probable space group: P 21/M
;
_chemical_formula_sum "Si O2"
_cell_formula_units_Z 32
_cell_length_a 14.277458
_cell_length_b 8.657415
_cell_length_c 15.368801
_cell_angle_alpha 90.000000
_cell_angle_beta 55.842415
_cell_angle_gamma 90.000000
_cell_volume 1571.973617
_symmetry_space_group_name_H-M "P 21/M"
_symmetry_group_IT_number 11
_symmetry_cell_setting 'monoclinic'
loop_
_space_group_symop_operation_xyz
x,y,z
-x,1/2+y,-z
-x,-y,-z
x,1/2-y,z
loop_
_atom_site_type_symbol
_atom_site_label
_atom_site_fract_x
_atom_site_fract_y
_atom_site_fract_z
Si Si1 0.985892 0.071882 0.369118
Si Si2 0.780706 0.569927 0.995044
Si Si3 0.010469 0.070907 0.814269
Si Si4 0.537126 0.068149 0.389359
Si Si5 0.424664 0.567643 0.281756
Si Si6 0.559979 0.431531 0.052441
Si Si7 0.237008 0.430481 0.795484
Si Si8 0.832337 0.429235 0.611331
O O1 0.986940 0.250000 0.340386
O O2 0.887673 0.035265 0.489284
O O3 0.958886 0.965531 0.301092
O O4 0.108106 0.029919 0.345295
O O5 0.757425 0.750000 0.994056
O O6 0.692493 0.475203 0.981643
O O7 0.765301 0.520445 0.102915
O O8 0.906338 0.532560 0.898766
O O9 0.979515 0.250000 0.841122
O O10 0.116821 0.024648 0.817622
O O11 0.522633 0.250000 0.398849
O O12 0.500000 0.000000 0.500000
O O13 0.454450 0.999650 0.359770
O O14 0.667130 0.026554 0.303452
O O15 0.440371 0.750000 0.276815
O O16 0.508404 0.500445 0.166811
O O17 0.297521 0.519798 0.323884
O O18 0.544297 0.250000 0.059413
O O19 0.500000 0.500000 0.000000
O O20 0.263632 0.250000 0.770059
O O21 0.846619 0.250000 0.628142
#
# Coordination Sequence:
#
# PCOD8076587 Si02
#       8
#     4   4   4   4   4   4   4   4
#     4  10  21  39  61  91 125 163 210 258 309 372
#     4  11  23  43  68  93 126 166 210 265 320 379
#     4  11  24  40  63  94 127 164 209 260 315 378
#     4  12  26  43  67  97 132 173 218 268 324 387
#     4  11  23  43  68  97 132 169 216 270 323 388
#     4  12  26  44  67  97 131 174 219 266 324 385
#     4  10  23  44  67  93 127 166 210 261 319 381
#     4   9  21  40  63  88 123 166 206 255 315 372
#
# _framework density 20.356576
#
# number of rings (size 3 to 8) (size 9 to 14) (size 15 to 20)
#    0.000    1.250    1.250    4.125    3.500    3.000 
#    0.000    0.000    0.000    0.000    0.000    0.000 
#    0.000    0.000    0.000    0.000    0.000    0.000 
#
# Total GULP energy -397037.140831 kJ/mol
# GULP energy per Si atom -12407.410651 kJ/mol
# Density = 2.031024 g / cm^3
# Si number density = 20.356576 Si / 1000 Ang^3
#
#
#
# Elastic Constant Matrix: (Units=GPa)
#
#
# Indices 1 2 3 4 5 6 
#
# 1 117.3573 38.2272 19.6915 0.0000 4.5706 0.0000
# 2 38.2272 85.9228 20.9654 0.0000 6.6007 0.0000
# 3 19.6915 20.9654 54.1524 0.0000 11.9072 0.0000
# 4 0.0000 0.0000 0.0000 35.3081 0.0000 -0.7428
# 5 4.5706 6.6007 11.9072 0.0000 37.9979 0.0000
# 6 0.0000 0.0000 0.0000 -0.7428 0.0000 36.6145
#
#
#
# Elastic Compliance Matrix: (Units=1/GPa)
#
#
# Indices 1 2 3 4 5 6 
#
# 1 0.010188 -0.004011 -0.002186 0.000000 0.000156 0.000000
# 2 -0.004011 0.014450 -0.003963 0.000000 -0.000786 0.000000
# 3 -0.002186 -0.003963 0.022110 0.000000 -0.005977 0.000000
# 4 0.000000 0.000000 0.000000 0.028334 0.000000 0.000575
# 5 0.000156 -0.000786 -0.005977 0.000000 0.028308 0.000000
# 6 0.000000 0.000000 0.000000 0.000575 0.000000 0.027323
#
#
# Mechanical properties :
#
#
# Convention : Reuss Voigt Hill
#
# Bulk Modulus (GPa) = 37.83947 46.13338 41.98643
# Shear Modulus (GPa) = 31.28039 33.88734 32.58386
#
# Velocity S-wave (km/s) = 3.92423 4.08448 4.00516
# Velocity P-wave (km/s) = 6.25791 6.70491 6.48527
#
# Compressibility (1/GPa) = 0.02642743
#
# Stress axis : x y z
#
# Youngs Moduli (GPa) = 98.15125 69.20220 45.22845
#
# Poissons Ratio (x) = 0.27760 0.09888
# Poissons Ratio (y) = 0.39372 0.17924
# Poissons Ratio (z) = 0.21457 0.27426
#
# Static dielectric constant tensor:
#      x y z
#    x 3.743410 0.000000 0.066770 
#    y 0.000000 3.720830 0.000000 
#    z 0.066770 0.000000 3.751620 
# 
# 
# High freq. dielectric constant tensor:
#      x y z
#    x 1.811050 0.000000 0.000470 
#    y 0.000000 1.802260 0.000000 
#    z 0.000470 0.000000 1.802490 
# 
# From -- ./inp_files/51693.got.cif
#   From: 2010.06.25/outbox.cif.g09.slc.cpg/sg11_26_cif.got.tgz:51693.got - 2010.06.27 23:14:04.
