data_PCOD8076118
_publ_section_title
;
Structure prediction by ZEFSAII (Michael W. Deem and Ramdas Pophale) SiO2 
 PCOD8076118
Probable space group: P 21/M
;
_chemical_formula_sum "Si O2"
_cell_formula_units_Z 32
_cell_length_a 29.754541
_cell_length_b 9.113934
_cell_length_c 12.786200
_cell_angle_alpha 90.000000
_cell_angle_beta 27.767652
_cell_angle_gamma 90.000000
_cell_volume 1615.404766
_symmetry_space_group_name_H-M "P 21/M"
_symmetry_group_IT_number 11
_symmetry_cell_setting 'monoclinic'
loop_
_space_group_symop_operation_xyz
x,y,z
-x,1/2+y,-z
-x,-y,-z
x,1/2-y,z
loop_
_atom_site_type_symbol
_atom_site_label
_atom_site_fract_x
_atom_site_fract_y
_atom_site_fract_z
Si Si1 0.205642 0.579850 0.974173
Si Si2 0.879357 0.419158 0.449591
Si Si3 0.222973 0.075513 0.150978
Si Si4 0.557998 0.919122 0.291843
Si Si5 0.398544 0.584187 0.461377
Si Si6 0.105702 0.081772 0.993280
Si Si7 0.590389 0.916748 0.768435
Si Si8 0.203320 0.418106 0.576414
O O1 0.181311 0.750000 0.042989
O O2 0.318004 0.556171 0.715467
O O3 0.138440 0.521144 0.020196
O O4 0.182286 0.490585 0.127149
O O5 0.850350 0.250000 0.526074
O O6 0.841097 0.515095 0.623631
O O7 0.834290 0.474573 0.434704
O O8 0.993069 0.439371 0.207598
O O9 0.213834 0.250000 0.166473
O O10 0.333030 0.022889 0.943193
O O11 0.558216 0.750000 0.323323
O O12 0.504011 0.944694 0.292853
O O13 0.500000 0.000000 0.500000
O O14 0.391236 0.750000 0.433446
O O15 0.379168 0.474577 0.407391
O O16 0.132467 0.250000 0.964705
O O17 0.159168 0.030998 0.777769
O O18 0.559106 0.750000 0.819841
O O19 0.680962 0.933000 0.659162
O O20 0.500000 0.000000 0.000000
O O21 0.173184 0.250000 0.614027
#
# Coordination Sequence:
#
# PCOD8076118 Si02
#       8
#     4   4   4   4   4   4   4   4
#     4  11  22  38  65  95 124 159 205 260 306 358
#     4  11  25  42  64  92 123 159 204 259 312 363
#     4  11  24  41  62  89 127 169 205 248 308 371
#     4  10  21  37  59  86 118 157 197 241 291 350
#     4  10  21  38  59  88 123 157 200 251 300 358
#     4  10  22  43  67  92 121 157 204 256 311 372
#     4  11  24  40  61  90 125 164 201 245 302 361
#     4  10  22  42  66  90 123 162 203 251 306 370
#
# _framework density 19.809277999999999
#
# number of rings (size 3 to 8) (size 9 to 14) (size 15 to 20)
#    0.000    1.500    2.500    1.875    1.750    4.500 
#    0.000    0.000    0.000    0.000    0.000    0.000 
#    0.000    0.000    0.000    0.000    0.000    0.000 
#
# Total GULP energy -396966.711145 kJ/mol
# GULP energy per Si atom -12405.209723 kJ/mol
# Density = 1.976419 g / cm^3
# Si number density = 19.809278 Si / 1000 Ang^3
#
#
#
# Elastic Constant Matrix: (Units=GPa)
#
#
# Indices 1 2 3 4 5 6 
#
# 1 110.7980 59.9098 38.3234 0.0000 8.5345 0.0000
# 2 59.9098 110.2988 47.0538 0.0000 4.1339 0.0000
# 3 38.3234 47.0538 92.3849 0.0000 4.2741 0.0000
# 4 0.0000 0.0000 0.0000 34.6645 0.0000 3.6186
# 5 8.5345 4.1339 4.2741 0.0000 24.1879 0.0000
# 6 0.0000 0.0000 0.0000 3.6186 0.0000 37.9303
#
#
#
# Elastic Compliance Matrix: (Units=1/GPa)
#
#
# Indices 1 2 3 4 5 6 
#
# 1 0.013409 -0.006199 -0.002254 0.000000 -0.003274 0.000000
# 2 -0.006199 0.014470 -0.004825 0.000000 0.000567 0.000000
# 3 -0.002254 -0.004825 0.014258 0.000000 -0.000900 0.000000
# 4 0.000000 0.000000 0.000000 0.029138 0.000000 -0.002780
# 5 -0.003274 0.000567 -0.000900 0.000000 0.042560 0.000000
# 6 0.000000 0.000000 0.000000 -0.002780 0.000000 0.026629
#
#
# Mechanical properties :
#
#
# Convention : Reuss Voigt Hill
#
# Bulk Modulus (GPa) = 64.17434 67.11731 65.64582
# Shear Modulus (GPa) = 29.03357 30.56952 29.80154
#
# Velocity S-wave (km/s) = 3.83254 3.93261 3.88290
# Velocity P-wave (km/s) = 7.21463 7.38755 7.30160
#
# Compressibility (1/GPa) = 0.01558255
#
# Stress axis : x y z
#
# Youngs Moduli (GPa) = 74.57665 69.10635 70.13560
#
# Poissons Ratio (x) = 0.42840 0.15805
# Poissons Ratio (y) = 0.46231 0.33839
# Poissons Ratio (z) = 0.16806 0.33342
#
# Static dielectric constant tensor:
#      x y z
#    x 3.715370 0.000000 -0.063340 
#    y 0.000000 3.717620 0.000000 
#    z -0.063340 0.000000 3.673380 
# 
# 
# High freq. dielectric constant tensor:
#      x y z
#    x 1.779050 0.000000 -0.003450 
#    y 0.000000 1.777370 0.000000 
#    z -0.003450 0.000000 1.776570 
# 
# From -- ./inp_files/45154.got.cif
#   From: 2010.06.25/outbox.cif.g09.slc.cpg/sg11_23_cif.got.tgz:45154.got - 2010.06.27 23:14:04.
