data_PCOD8076284
_publ_section_title
;
Structure prediction by ZEFSAII (Michael W. Deem and Ramdas Pophale) SiO2 
 PCOD8076284
Probable space group: P 21/M
;
_chemical_formula_sum "Si O2"
_cell_formula_units_Z 24
_cell_length_a 5.065136
_cell_length_b 17.053771
_cell_length_c 11.881950
_cell_angle_alpha 90.000000
_cell_angle_beta 96.230876
_cell_angle_gamma 90.000000
_cell_volume 1020.295821
_symmetry_space_group_name_H-M "P 21/M"
_symmetry_group_IT_number 11
_symmetry_cell_setting 'monoclinic'
loop_
_space_group_symop_operation_xyz
x,y,z
-x,1/2+y,-z
-x,-y,-z
x,1/2-y,z
loop_
_atom_site_type_symbol
_atom_site_label
_atom_site_fract_x
_atom_site_fract_y
_atom_site_fract_z
Si Si1 0.303967 0.931381 0.018872
Si Si2 0.547362 0.838389 0.706169
Si Si3 0.517767 0.840009 0.219321
Si Si4 0.044567 0.912784 0.325497
Si Si5 0.074723 0.454266 0.177427
Si Si6 0.983702 0.160780 0.441027
O O1 0.450708 0.858457 0.085096
O O2 0.104096 0.967817 0.102117
O O3 0.155432 0.903720 0.896508
O O4 0.500000 0.000000 0.000000
O O5 0.565856 0.750000 0.755534
O O6 0.662226 0.899889 0.803065
O O7 0.243567 0.859703 0.662005
O O8 0.730092 0.845897 0.603606
O O9 0.465006 0.750000 0.241051
O O10 0.338076 0.889090 0.297550
O O11 0.823903 0.859836 0.254735
O O12 0.030521 0.900703 0.458395
O O13 0.999203 0.006221 0.295168
O O14 0.936582 0.250000 0.483047
#
# Coordination Sequence:
#
# PCOD8076284 Si02
#       6
#     4   4   4   4   4   4
#     4  10  21  41  60  83 120 156 191 248 300 345
#     4  10  23  40  60  88 121 158 199 240 289 354
#     4  11  22  37  61  91 118 153 201 243 294 357
#     4  11  22  38  62  89 120 157 194 246 296 351
#     4  10  23  39  62  86 119 158 198 244 301 350
#     4  10  21  38  58  85 122 156 194 246 295 341
#
# _framework density 23.522589
#
# number of rings (size 3 to 8) (size 9 to 14) (size 15 to 20)
#    0.000    1.667    1.667    2.500    2.333    3.333 
#    0.000    0.833    0.000    0.000    0.000    0.000 
#    0.000    0.000    0.000    0.000    0.000    0.000 
#
# Total GULP energy -297545.663315 kJ/mol
# GULP energy per Si atom -12397.735971 kJ/mol
# Density = 2.346905 g / cm^3
# Si number density = 23.522589 Si / 1000 Ang^3
#
#
#
# Elastic Constant Matrix: (Units=GPa)
#
#
# Indices 1 2 3 4 5 6 
#
# 1 55.2303 -10.3949 -12.7933 0.0000 13.1173 0.0000
# 2 -10.3949 65.1734 14.7797 0.0000 14.4953 0.0000
# 3 -12.7933 14.7797 74.6752 0.0000 31.4010 0.0000
# 4 0.0000 0.0000 0.0000 39.0210 0.0000 6.7384
# 5 13.1173 14.4953 31.4010 0.0000 33.9804 0.0000
# 6 0.0000 0.0000 0.0000 6.7384 0.0000 29.9614
#
#
#
# Elastic Compliance Matrix: (Units=1/GPa)
#
#
# Indices 1 2 3 4 5 6 
#
# 1 0.030643 0.007920 0.016481 0.000000 -0.030438 0.000000
# 2 0.007920 0.019011 0.003745 0.000000 -0.014627 0.000000
# 3 0.016481 0.003745 0.030782 0.000000 -0.036405 0.000000
# 4 0.000000 0.000000 0.000000 0.026663 0.000000 -0.005997
# 5 -0.030438 -0.014627 -0.036405 0.000000 0.081060 0.000000
# 6 0.000000 0.000000 0.000000 -0.005997 0.000000 0.034725
#
#
# Mechanical properties :
#
#
# Convention : Reuss Voigt Hill
#
# Bulk Modulus (GPa) = 7.31378 19.80687 13.56032
# Shear Modulus (GPa) = 23.56623 34.15839 28.86231
#
# Velocity S-wave (km/s) = 3.16864 3.81485 3.50666
# Velocity P-wave (km/s) = 4.06240 5.27662 4.70881
#
# Compressibility (1/GPa) = 0.13672829
#
# Stress axis : x y z
#
# Youngs Moduli (GPa) = 32.63365 52.60151 32.48633
#
# Poissons Ratio (x) = -0.41658 -0.53542
# Poissons Ratio (y) = -0.25844 -0.12166
# Poissons Ratio (z) = -0.53785 -0.19699
#
# Static dielectric constant tensor:
#      x y z
#    x 2.042950 0.000000 2.443820 
#    y 0.000000 4.049370 0.000000 
#    z 2.443820 0.000000 1.978040 
# 
# 
# High freq. dielectric constant tensor:
#      x y z
#    x 1.937030 0.000000 0.008760 
#    y 0.000000 1.918570 0.000000 
#    z 0.008760 0.000000 1.929950 
# 
# From -- ./inp_files/4670.got.cif
#   From: 2010.06.25/outbox.cif.g09.slc.cpg/sg11_3_cif.got.tgz:4670.got - 2010.06.27 23:14:04.
