data_PCOD8076064
_publ_section_title
;
Structure prediction by ZEFSAII (Michael W. Deem and Ramdas Pophale) SiO2 
 PCOD8076064
Probable space group: P 21/M
;
_chemical_formula_sum "Si O2"
_cell_formula_units_Z 24
_cell_length_a 20.999708
_cell_length_b 8.890034
_cell_length_c 22.069208
_cell_angle_alpha 90.000000
_cell_angle_beta 161.356952
_cell_angle_gamma 90.000000
_cell_volume 1317.064610
_symmetry_space_group_name_H-M "P 21/M"
_symmetry_group_IT_number 11
_symmetry_cell_setting 'monoclinic'
loop_
_space_group_symop_operation_xyz
x,y,z
-x,1/2+y,-z
-x,-y,-z
x,1/2-y,z
loop_
_atom_site_type_symbol
_atom_site_label
_atom_site_fract_x
_atom_site_fract_y
_atom_site_fract_z
Si Si1 0.244158 0.927788 0.511171
Si Si2 0.288213 0.074896 0.798248
Si Si3 0.050536 0.427792 0.225760
Si Si4 0.618481 0.424198 0.792016
Si Si5 0.432036 0.422506 0.499382
Si Si6 0.089180 0.075104 0.490773
O O1 0.227976 0.750000 0.498521
O O2 0.080472 0.991899 0.317047
O O3 0.465656 0.975242 0.691700
O O4 0.204483 0.993657 0.541209
O O5 0.299659 0.250000 0.825065
O O6 0.223715 0.048708 0.671054
O O7 0.128653 0.997145 0.698470
O O8 0.500000 0.000000 0.000000
O O9 0.071209 0.250000 0.255022
O O10 0.218693 0.484446 0.330201
O O11 0.838899 0.475464 0.008363
O O12 0.578086 0.250000 0.771800
O O13 0.594351 0.450584 0.698393
O O14 0.500000 0.500000 0.500000
O O15 0.410432 0.250000 0.463360
O O16 0.061350 0.250000 0.450934
#
# Coordination Sequence:
#
# PCOD8076064 Si02
#       6
#     4   4   4   4   4   4
#     4  11  22  35  54  81 110 137 171 220 270 314
#     4  10  21  37  58  83 110 141 178 220 264 311
#     4   9  19  37  57  75 102 141 181 218 259 313
#     4   9  19  37  57  75 101 140 181 217 258 313
#     4   9  18  32  51  77 106 137 173 214 262 314
#     4  10  21  38  58  79 107 144 181 216 259 313
#
# _framework density 18.222339000000002
#
# number of rings (size 3 to 8) (size 9 to 14) (size 15 to 20)
#    0.000    2.333    0.000    3.500    0.000    7.333 
#    0.000    1.667    0.000    0.000    0.000    0.000 
#    0.000    0.000    0.000    0.000    0.000    0.000 
#
# Total GULP energy -297652.417715 kJ/mol
# GULP energy per Si atom -12402.184071 kJ/mol
# Density = 1.818086 g / cm^3
# Si number density = 18.222339 Si / 1000 Ang^3
#
#
#
# Elastic Constant Matrix: (Units=GPa)
#
#
# Indices 1 2 3 4 5 6 
#
# 1 105.9780 48.2449 33.8397 0.0000 -2.7019 0.0000
# 2 48.2449 96.6023 45.6591 0.0000 -0.2499 0.0000
# 3 33.8397 45.6591 135.8955 0.0000 7.2830 0.0000
# 4 0.0000 0.0000 0.0000 25.4876 0.0000 0.6583
# 5 -2.7019 -0.2499 7.2830 0.0000 14.4135 0.0000
# 6 0.0000 0.0000 0.0000 0.6583 0.0000 38.5760
#
#
#
# Elastic Compliance Matrix: (Units=1/GPa)
#
#
# Indices 1 2 3 4 5 6 
#
# 1 0.012494 -0.005571 -0.001397 0.000000 0.002951 0.000000
# 2 -0.005571 0.014870 -0.003666 0.000000 0.001066 0.000000
# 3 -0.001397 -0.003666 0.009205 0.000000 -0.004977 0.000000
# 4 0.000000 0.000000 0.000000 0.039252 0.000000 -0.000670
# 5 0.002951 0.001066 -0.004977 0.000000 0.072466 0.000000
# 6 0.000000 0.000000 0.000000 -0.000670 0.000000 0.025934
#
#
# Mechanical properties :
#
#
# Convention : Reuss Voigt Hill
#
# Bulk Modulus (GPa) = 65.36333 65.99591 65.67962
# Shear Modulus (GPa) = 24.92657 29.74422 27.33539
#
# Velocity S-wave (km/s) = 3.70254 4.04455 3.87732
# Velocity P-wave (km/s) = 7.36384 7.62278 7.49443
#
# Compressibility (1/GPa) = 0.01529910
#
# Stress axis : x y z
#
# Youngs Moduli (GPa) = 80.04048 67.25141 108.63791
#
# Poissons Ratio (x) = 0.37469 0.15180
# Poissons Ratio (y) = 0.44594 0.39824
# Poissons Ratio (z) = 0.11184 0.24652
#
# Static dielectric constant tensor:
#      x y z
#    x 3.696170 0.000000 0.067170 
#    y 0.000000 3.163740 0.000000 
#    z 0.067170 0.000000 3.487960 
# 
# 
# High freq. dielectric constant tensor:
#      x y z
#    x 1.708400 0.000000 0.001110 
#    y 0.000000 1.708180 0.000000 
#    z 0.001110 0.000000 1.710400 
# 
# From -- ./inp_files/66479.got.cif
#   From: 2010.06.25/outbox.cif.g09.slc.cpg/sg11_34_cif.got.tgz:66479.got - 2010.06.27 23:14:04.
