data_PCOD8076579
_publ_section_title
;
Structure prediction by ZEFSAII (Michael W. Deem and Ramdas Pophale) SiO2 
 PCOD8076579
Probable space group: P 21/M
;
_chemical_formula_sum "Si O2"
_cell_formula_units_Z 32
_cell_length_a 19.307307
_cell_length_b 8.746336
_cell_length_c 9.966151
_cell_angle_alpha 90.000000
_cell_angle_beta 83.173082
_cell_angle_gamma 90.000000
_cell_volume 1671.033310
_symmetry_space_group_name_H-M "P 21/M"
_symmetry_group_IT_number 11
_symmetry_cell_setting 'monoclinic'
loop_
_space_group_symop_operation_xyz
x,y,z
-x,1/2+y,-z
-x,-y,-z
x,1/2-y,z
loop_
_atom_site_type_symbol
_atom_site_label
_atom_site_fract_x
_atom_site_fract_y
_atom_site_fract_z
Si Si1 0.451458 0.568444 0.398916
Si Si2 0.205266 0.421452 0.361619
Si Si3 0.475937 0.930127 0.867409
Si Si4 0.955849 0.923896 0.625696
Si Si5 0.683215 0.430358 0.161460
Si Si6 0.694911 0.070614 0.460350
Si Si7 0.204287 0.431041 0.060169
Si Si8 0.944212 0.068957 0.912338
O O1 0.500000 0.500000 0.500000
O O2 0.457161 0.750000 0.398985
O O3 0.472648 0.504112 0.251317
O O4 0.373579 0.509756 0.448079
O O5 0.234081 0.250000 0.372851
O O6 0.123318 0.427789 0.404632
O O7 0.238311 0.526292 0.468306
O O8 0.223201 0.482285 0.207904
O O9 0.486727 0.750000 0.864557
O O10 0.396123 0.973172 0.855308
O O11 0.500000 0.000000 0.000000
O O12 0.980408 0.750000 0.645338
O O13 0.966075 0.018744 0.758723
O O14 0.000000 0.000000 0.500000
O O15 0.696632 0.250000 0.143463
O O16 0.699432 0.492916 0.307347
O O17 0.733020 0.520016 0.049255
O O18 0.690039 0.250000 0.448249
O O19 0.192186 0.250000 0.058799
O O20 0.132575 0.509447 0.029958
O O21 0.944930 0.250000 0.922593
O O22 0.000000 0.000000 0.000000
#
# Coordination Sequence:
#
# PCOD8076579 Si02
#       8
#     4   4   4   4   4   4   4   4
#     4  11  22  40  62  87 117 156 197 247 303 355
#     4   9  21  39  58  85 118 151 192 239 288 343
#     4  11  24  42  61  87 120 155 200 251 301 359
#     4  10  21  39  61  89 124 159 198 246 295 348
#     4  10  22  41  59  82 118 156 195 243 296 353
#     4  10  22  39  59  84 115 152 195 238 291 353
#     4  10  22  40  60  87 120 154 196 245 294 352
#     4  11  22  39  63  90 120 159 201 245 298 353
#
# _framework density 19.149829
#
# number of rings (size 3 to 8) (size 9 to 14) (size 15 to 20)
#    0.000    1.750    1.250    3.375    1.750    6.500 
#    0.000    2.500    0.000    0.000    0.000    0.000 
#    0.000    0.000    0.000    0.000    0.000    0.000 
#
# Total GULP energy -396886.111085 kJ/mol
# GULP energy per Si atom -12402.690971 kJ/mol
# Density = 1.910624 g / cm^3
# Si number density = 19.149829 Si / 1000 Ang^3
#
#
#
# Elastic Constant Matrix: (Units=GPa)
#
#
# Indices 1 2 3 4 5 6 
#
# 1 85.4496 39.2915 64.4306 0.0000 5.0710 0.0000
# 2 39.2915 89.3799 43.4236 0.0000 -1.7381 0.0000
# 3 64.4306 43.4236 145.5357 0.0000 -4.5359 0.0000
# 4 0.0000 0.0000 0.0000 37.6376 0.0000 0.0819
# 5 5.0710 -1.7381 -4.5359 0.0000 42.2855 0.0000
# 6 0.0000 0.0000 0.0000 0.0819 0.0000 36.1084
#
#
#
# Elastic Compliance Matrix: (Units=1/GPa)
#
#
# Indices 1 2 3 4 5 6 
#
# 1 0.019828 -0.005224 -0.007325 0.000000 -0.003378 0.000000
# 2 -0.005224 0.014462 -0.001971 0.000000 0.001009 0.000000
# 3 -0.007325 -0.001971 0.010763 0.000000 0.001952 0.000000
# 4 0.000000 0.000000 0.000000 0.026569 0.000000 -0.000060
# 5 -0.003378 0.001009 0.001952 0.000000 0.024305 0.000000
# 6 0.000000 0.000000 0.000000 -0.000060 0.000000 0.027695
#
#
# Mechanical properties :
#
#
# Convention : Reuss Voigt Hill
#
# Bulk Modulus (GPa) = 62.44550 68.29519 65.37034
# Shear Modulus (GPa) = 31.64582 34.75425 33.20004
#
# Velocity S-wave (km/s) = 4.06955 4.26474 4.16829
# Velocity P-wave (km/s) = 7.40009 7.74543 7.57473
#
# Compressibility (1/GPa) = 0.01601397
#
# Stress axis : x y z
#
# Youngs Moduli (GPa) = 50.43271 69.14835 92.91120
#
# Poissons Ratio (x) = 0.36120 0.68058
# Poissons Ratio (y) = 0.26344 0.18312
# Poissons Ratio (z) = 0.36942 0.13629
#
# Static dielectric constant tensor:
#      x y z
#    x 3.599660 0.000000 -0.031840 
#    y 0.000000 3.576380 0.000000 
#    z -0.031840 0.000000 3.574570 
# 
# 
# High freq. dielectric constant tensor:
#      x y z
#    x 1.749190 0.000000 -0.001250 
#    y 0.000000 1.750290 0.000000 
#    z -0.001250 0.000000 1.757820 
# 
# From -- ./inp_files/25813.got.cif
#   From: 2010.06.25/outbox.cif.g09.slc.cpg/sg11_13_cif.got.tgz:25813.got - 2010.06.27 23:14:04.
