data_PCOD8076709
_publ_section_title
;
Structure prediction by ZEFSAII (Michael W. Deem and Ramdas Pophale) SiO2 
 PCOD8076709
Probable space group: P 21/M
;
_chemical_formula_sum "Si O2"
_cell_formula_units_Z 28
_cell_length_a 11.289248
_cell_length_b 13.678363
_cell_length_c 9.753357
_cell_angle_alpha 90.000000
_cell_angle_beta 56.813325
_cell_angle_gamma 90.000000
_cell_volume 1260.440898
_symmetry_space_group_name_H-M "P 21/M"
_symmetry_group_IT_number 11
_symmetry_cell_setting 'monoclinic'
loop_
_space_group_symop_operation_xyz
x,y,z
-x,1/2+y,-z
-x,-y,-z
x,1/2-y,z
loop_
_atom_site_type_symbol
_atom_site_label
_atom_site_fract_x
_atom_site_fract_y
_atom_site_fract_z
Si Si1 0.464779 0.862501 0.477037
Si Si2 0.211148 0.541932 0.997067
Si Si3 0.380031 0.362465 0.894534
Si Si4 0.298975 0.136395 0.475772
Si Si5 0.020728 0.486302 0.648189
Si Si6 0.156504 0.866339 0.750983
Si Si7 0.502390 0.637114 0.894335
O O1 0.462269 0.750000 0.523904
O O2 0.500451 0.876125 0.295790
O O3 0.585942 0.912850 0.493692
O O4 0.310221 0.904360 0.605129
O O5 0.366524 0.586811 0.915194
O O6 0.118870 0.560072 0.192718
O O7 0.238940 0.425922 0.953586
O O8 0.129423 0.589801 0.919902
O O9 0.330346 0.250000 0.939349
O O10 0.456972 0.403095 0.981927
O O11 0.275768 0.250000 0.524980
O O12 0.149551 0.086200 0.592062
O O13 0.358099 0.120273 0.285761
O O14 0.047255 0.589111 0.709673
O O15 0.000000 0.500000 0.500000
O O16 0.138202 0.750000 0.763299
O O17 0.461854 0.750000 0.929436
#
# Coordination Sequence:
#
# PCOD8076709 Si02
#       7
#     4   4   4   4   4   4   4
#     4   9  19  38  66  98 120 159 222 278 335 384
#     4  12  24  42  67  98 133 180 230 276 337 405
#     4  10  22  37  62  98 134 171 220 280 342 399
#     4  10  21  42  68  95 129 174 223 278 338 400
#     4  12  29  44  63 102 141 185 228 270 343 416
#     4  11  25  46  70  97 135 178 227 287 341 402
#     4  10  21  39  66  98 133 175 225 281 338 397
#
# _framework density 22.214448000000001
#
# number of rings (size 3 to 8) (size 9 to 14) (size 15 to 20)
#    0.000    1.429    1.429    3.000    4.000    3.429 
#    0.000    1.429    0.000    0.000    0.000    0.000 
#    0.000    0.000    0.000    0.000    0.000    0.000 
#
# Total GULP energy -347268.844084 kJ/mol
# GULP energy per Si atom -12402.458717 kJ/mol
# Density = 2.216389 g / cm^3
# Si number density = 22.214448 Si / 1000 Ang^3
#
#
#
# Elastic Constant Matrix: (Units=GPa)
#
#
# Indices 1 2 3 4 5 6 
#
# 1 71.5956 36.0107 26.6905 0.0000 10.7017 0.0000
# 2 36.0107 74.1045 29.3810 0.0000 6.7929 0.0000
# 3 26.6905 29.3810 121.9783 0.0000 9.4474 0.0000
# 4 0.0000 0.0000 0.0000 27.1377 0.0000 2.1699
# 5 10.7017 6.7929 9.4474 0.0000 51.9587 0.0000
# 6 0.0000 0.0000 0.0000 2.1699 0.0000 31.3408
#
#
#
# Elastic Compliance Matrix: (Units=1/GPa)
#
#
# Indices 1 2 3 4 5 6 
#
# 1 0.019292 -0.008345 -0.002017 0.000000 -0.002516 0.000000
# 2 -0.008345 0.018618 -0.002640 0.000000 -0.000235 0.000000
# 3 -0.002017 -0.002640 0.009348 0.000000 -0.000939 0.000000
# 4 0.000000 0.000000 0.000000 0.037054 0.000000 -0.002566
# 5 -0.002516 -0.000235 -0.000939 0.000000 0.019966 0.000000
# 6 0.000000 0.000000 0.000000 -0.002566 0.000000 0.032085
#
#
# Mechanical properties :
#
#
# Convention : Reuss Voigt Hill
#
# Bulk Modulus (GPa) = 47.04768 50.20475 48.62621
# Shear Modulus (GPa) = 29.50685 33.79385 31.65035
#
# Velocity S-wave (km/s) = 3.64850 3.90456 3.77870
# Velocity P-wave (km/s) = 6.24288 6.55565 6.40118
#
# Compressibility (1/GPa) = 0.02125503
#
# Stress axis : x y z
#
# Youngs Moduli (GPa) = 51.83377 53.71133 106.97306
#
# Poissons Ratio (x) = 0.44822 0.21572
# Poissons Ratio (y) = 0.43255 0.28244
# Poissons Ratio (z) = 0.10452 0.14182
#
# Static dielectric constant tensor:
#      x y z
#    x 3.969720 0.000000 0.079120 
#    y 0.000000 4.114980 0.000000 
#    z 0.079120 0.000000 4.048090 
# 
# 
# High freq. dielectric constant tensor:
#      x y z
#    x 1.864290 0.000000 0.005530 
#    y 0.000000 1.883450 0.000000 
#    z 0.005530 0.000000 1.884900 
# 
# From -- ./inp_files/17931.got.cif
#   From: 2010.06.25/outbox.cif.g09.slc.cpg/sg11_9_cif.got.tgz:17931.got - 2010.06.27 23:14:04.
