data_PCOD8076680
_publ_section_title
;
Structure prediction by ZEFSAII (Michael W. Deem and Ramdas Pophale) SiO2 
 PCOD8076680
Probable space group: P 21/M
;
_chemical_formula_sum "Si O2"
_cell_formula_units_Z 24
_cell_length_a 9.098106
_cell_length_b 23.964372
_cell_length_c 5.151240
_cell_angle_alpha 90.000000
_cell_angle_beta 102.181797
_cell_angle_gamma 90.000000
_cell_volume 1097.837433
_symmetry_space_group_name_H-M "P 21/M"
_symmetry_group_IT_number 11
_symmetry_cell_setting 'monoclinic'
loop_
_space_group_symop_operation_xyz
x,y,z
-x,1/2+y,-z
-x,-y,-z
x,1/2-y,z
loop_
_atom_site_type_symbol
_atom_site_label
_atom_site_fract_x
_atom_site_fract_y
_atom_site_fract_z
Si Si1 0.476375 0.686681 0.318232
Si Si2 0.332876 0.312122 0.101332
Si Si3 0.620726 0.977468 0.851332
Si Si4 0.640505 0.079082 0.509990
Si Si5 0.893023 0.595206 0.056829
Si Si6 0.945240 0.061204 0.399280
O O1 0.407520 0.750000 0.271890
O O2 0.602619 0.686022 0.585976
O O3 0.351426 0.640121 0.349527
O O4 0.545713 0.666743 0.068192
O O5 0.288248 0.250000 0.002221
O O6 0.178627 0.345833 0.039952
O O7 0.532742 0.930760 0.646563
O O8 0.760027 0.949837 0.050229
O O9 0.687228 0.028841 0.716457
O O10 0.500000 0.000000 0.000000
O O11 0.765239 0.072742 0.329611
O O12 0.001221 0.575535 0.867575
O O13 0.983859 0.602151 0.357379
O O14 0.000000 0.000000 0.500000
#
# Coordination Sequence:
#
# PCOD8076680 Si02
#       6
#     4   4   4   4   4   4
#     4  10  21  39  64  93 122 158 207 267 319 363
#     4  10  21  40  66  93 122 159 213 265 310 364
#     4  11  23  37  65  90 122 159 217 260 302 371
#     4  11  24  39  60  94 123 164 209 260 313 371
#     4  12  24  42  63  91 126 168 211 250 315 382
#     4  12  26  42  60  91 135 172 201 251 327 380
#
# _framework density 21.861160000000002
#
# number of rings (size 3 to 8) (size 9 to 14) (size 15 to 20)
#    0.000    1.000    3.333    3.500    4.667    0.000 
#    0.000    1.667    0.000    0.000    0.000    0.000 
#    0.000    0.000    0.000    0.000    0.000    0.000 
#
# Total GULP energy -297578.619021 kJ/mol
# GULP energy per Si atom -12399.109126 kJ/mol
# Density = 2.181140 g / cm^3
# Si number density = 21.861160 Si / 1000 Ang^3
#
#
#
# Elastic Constant Matrix: (Units=GPa)
#
#
# Indices 1 2 3 4 5 6 
#
# 1 93.4144 30.3718 8.7828 0.0000 -18.1327 0.0000
# 2 30.3718 86.1920 -16.9592 0.0000 -10.7142 0.0000
# 3 8.7828 -16.9592 66.7425 0.0000 -7.2852 0.0000
# 4 0.0000 0.0000 0.0000 22.0770 0.0000 -5.1065
# 5 -18.1327 -10.7142 -7.2852 0.0000 39.1927 0.0000
# 6 0.0000 0.0000 0.0000 -5.1065 0.0000 30.0959
#
#
#
# Elastic Compliance Matrix: (Units=1/GPa)
#
#
# Indices 1 2 3 4 5 6 
#
# 1 0.013295 -0.004613 -0.002437 0.000000 0.004437 0.000000
# 2 -0.004613 0.014459 0.004572 0.000000 0.002668 0.000000
# 3 -0.002437 0.004572 0.016820 0.000000 0.003249 0.000000
# 4 0.000000 0.000000 0.000000 0.047146 0.000000 0.008000
# 5 0.004437 0.002668 0.003249 0.000000 0.028901 0.000000
# 6 0.000000 0.000000 0.000000 0.008000 0.000000 0.034584
#
#
# Mechanical properties :
#
#
# Convention : Reuss Voigt Hill
#
# Bulk Modulus (GPa) = 25.24099 32.30440 28.77270
# Shear Modulus (GPa) = 28.84034 33.21667 31.02851
#
# Velocity S-wave (km/s) = 3.63609 3.90223 3.77151
# Velocity P-wave (km/s) = 5.40364 5.92556 5.67061
#
# Compressibility (1/GPa) = 0.03961810
#
# Stress axis : x y z
#
# Youngs Moduli (GPa) = 75.21507 69.16197 59.45258
#
# Poissons Ratio (x) = 0.31904 0.14491
# Poissons Ratio (y) = 0.34696 -0.27183
# Poissons Ratio (z) = 0.18333 -0.31623
#
# Static dielectric constant tensor:
#      x y z
#    x -2.743300 0.000000 4.619880 
#    y 0.000000 4.290930 0.000000 
#    z 4.619880 0.000000 1.326690 
# 
# 
# High freq. dielectric constant tensor:
#      x y z
#    x 1.840130 0.000000 -0.010300 
#    y 0.000000 1.863030 0.000000 
#    z -0.010300 0.000000 1.868690 
# 
# From -- ./inp_files/2731.got.cif
#   From: 2010.06.25/outbox.cif.g09.slc.cpg/sg11_2_cif.got.tgz:2731.got - 2010.06.27 23:14:04.
