data_PCOD8076049
_publ_section_title
;
Structure prediction by ZEFSAII (Michael W. Deem and Ramdas Pophale) SiO2 
 PCOD8076049
Probable space group: P 21/M
;
_chemical_formula_sum "Si O2"
_cell_formula_units_Z 28
_cell_length_a 23.085440
_cell_length_b 8.906742
_cell_length_c 19.977317
_cell_angle_alpha 90.000000
_cell_angle_beta 20.046307
_cell_angle_gamma 90.000000
_cell_volume 1408.020672
_symmetry_space_group_name_H-M "P 21/M"
_symmetry_group_IT_number 11
_symmetry_cell_setting 'monoclinic'
loop_
_space_group_symop_operation_xyz
x,y,z
-x,1/2+y,-z
-x,-y,-z
x,1/2-y,z
loop_
_atom_site_type_symbol
_atom_site_label
_atom_site_fract_x
_atom_site_fract_y
_atom_site_fract_z
Si Si1 0.268919 0.072795 0.079539
Si Si2 0.332973 0.424970 0.857654
Si Si3 0.460181 0.071005 0.114031
Si Si4 0.992708 0.572923 0.203725
Si Si5 0.096780 0.411179 0.839582
Si Si6 0.527218 0.586182 0.538756
Si Si7 0.916833 0.927996 0.431986
O O1 0.259857 0.250000 0.104793
O O2 0.343497 0.038880 0.924971
O O3 0.077461 0.006471 0.294946
O O4 0.402508 0.994581 0.983545
O O5 0.315234 0.250000 0.863917
O O6 0.489765 0.489625 0.646062
O O7 0.177982 0.509323 0.992388
O O8 0.479090 0.250000 0.092527
O O9 0.265721 0.024524 0.340797
O O10 0.500000 0.000000 0.000000
O O11 0.994938 0.750000 0.207911
O O12 0.894268 0.514482 0.244512
O O13 0.911653 0.512318 0.360812
O O14 0.003863 0.250000 0.931950
O O15 0.277727 0.383245 0.671788
O O16 0.000000 0.500000 0.000000
O O17 0.500000 0.500000 0.500000
O O18 0.434651 0.750000 0.639404
O O19 0.944617 0.750000 0.408057
#
# Coordination Sequence:
#
# PCOD8076049 Si02
#       7
#     4   4   4   4   4   4   4
#     4  10  22  40  63  92 127 163 203 253 308 367
#     4  10  21  37  57  85 116 148 189 237 293 353
#     4  11  24  41  65  94 127 164 206 256 308 370
#     4   9  18  36  59  82 108 143 190 241 291 344
#     4  10  22  36  53  77 107 144 187 236 288 342
#     4  11  23  37  55  79 111 150 193 241 292 350
#     4   9  20  39  64  91 119 158 207 254 304 363
#
# _framework density 19.886071999999999
#
# number of rings (size 3 to 8) (size 9 to 14) (size 15 to 20)
#    0.000    2.000    0.000    2.571    2.000    7.429 
#    0.000    0.000    0.000    0.000    0.000    0.000 
#    0.000    0.000    0.000    0.000    0.000    0.000 
#
# Total GULP energy -346938.899823 kJ/mol
# GULP energy per Si atom -12390.674994 kJ/mol
# Density = 1.984081 g / cm^3
# Si number density = 19.886072 Si / 1000 Ang^3
#
#
#
# Elastic Constant Matrix: (Units=GPa)
#
#
# Indices 1 2 3 4 5 6 
#
# 1 146.7882 99.0850 75.8296 0.0000 -3.7530 0.0000
# 2 99.0850 327.4786 111.0258 0.0000 -2.2675 0.0000
# 3 75.8296 111.0258 146.8517 0.0000 3.3178 0.0000
# 4 0.0000 0.0000 0.0000 28.3081 0.0000 3.4877
# 5 -3.7530 -2.2675 3.3178 0.0000 32.1709 0.0000
# 6 0.0000 0.0000 0.0000 3.4877 0.0000 32.0303
#
#
#
# Elastic Compliance Matrix: (Units=1/GPa)
#
#
# Indices 1 2 3 4 5 6 
#
# 1 0.010020 -0.001689 -0.003930 0.000000 0.001455 0.000000
# 2 -0.001689 0.004403 -0.002465 0.000000 0.000367 0.000000
# 3 -0.003930 -0.002465 0.010742 0.000000 -0.001740 0.000000
# 4 0.000000 0.000000 0.000000 0.035806 0.000000 -0.003899
# 5 0.001455 0.000367 -0.001740 0.000000 0.031459 0.000000
# 6 0.000000 0.000000 0.000000 -0.003899 0.000000 0.031645
#
#
# Mechanical properties :
#
#
# Convention : Reuss Voigt Hill
#
# Bulk Modulus (GPa) = 111.14931 132.55547 121.85239
# Shear Modulus (GPa) = 34.90608 40.84706 37.87657
#
# Velocity S-wave (km/s) = 4.19418 4.53708 4.36900
# Velocity P-wave (km/s) = 8.91455 9.70819 9.31982
#
# Compressibility (1/GPa) = 0.00899691
#
# Stress axis : x y z
#
# Youngs Moduli (GPa) = 99.79839 227.11870 93.09643
#
# Poissons Ratio (x) = 0.38370 0.36584
# Poissons Ratio (y) = 0.16860 0.22946
# Poissons Ratio (z) = 0.39218 0.55979
#
# Static dielectric constant tensor:
#      x y z
#    x 3.805160 0.000000 0.071100 
#    y 0.000000 3.475540 0.000000 
#    z 0.071100 0.000000 3.600040 
# 
# 
# High freq. dielectric constant tensor:
#      x y z
#    x 1.785170 0.000000 0.002970 
#    y 0.000000 1.778660 0.000000 
#    z 0.002970 0.000000 1.775360 
# 
# From -- ./inp_files/29109.got.cif
#   From: 2010.06.25/outbox.cif.g09.slc.cpg/sg11_15_cif.got.tgz:29109.got - 2010.06.27 23:14:04.
