data_PCOD8076541
_publ_section_title
;
Structure prediction by ZEFSAII (Michael W. Deem and Ramdas Pophale) SiO2 
 PCOD8076541
Probable space group: P 21/M
;
_chemical_formula_sum "Si O2"
_cell_formula_units_Z 24
_cell_length_a 14.782239
_cell_length_b 8.710876
_cell_length_c 10.204543
_cell_angle_alpha 90.000000
_cell_angle_beta 80.630740
_cell_angle_gamma 90.000000
_cell_volume 1296.471510
_symmetry_space_group_name_H-M "P 21/M"
_symmetry_group_IT_number 11
_symmetry_cell_setting 'monoclinic'
loop_
_space_group_symop_operation_xyz
x,y,z
-x,1/2+y,-z
-x,-y,-z
x,1/2-y,z
loop_
_atom_site_type_symbol
_atom_site_label
_atom_site_fract_x
_atom_site_fract_y
_atom_site_fract_z
Si Si1 0.068852 0.071345 0.880882
Si Si2 0.928453 0.931783 0.416401
Si Si3 0.272853 0.073467 0.808329
Si Si4 0.266115 0.569310 0.535748
Si Si5 0.536354 0.928507 0.123595
Si Si6 0.556975 0.568473 0.605099
O O1 0.052537 0.250000 0.893188
O O2 0.048275 0.013676 0.737586
O O3 0.174202 0.028079 0.893489
O O4 0.000000 0.000000 0.000000
O O5 0.928462 0.750000 0.426086
O O6 0.829642 0.993742 0.480995
O O7 0.000000 0.000000 0.500000
O O8 0.268588 0.250000 0.759902
O O9 0.353115 0.050351 0.895766
O O10 0.294860 0.969086 0.677816
O O11 0.260086 0.750000 0.518305
O O12 0.341027 0.500418 0.419512
O O13 0.509634 0.750000 0.139876
O O14 0.489754 0.022884 0.249263
O O15 0.500000 0.000000 0.000000
O O16 0.500000 0.500000 0.500000
O O17 0.560695 0.750000 0.589343
#
# Coordination Sequence:
#
# PCOD8076541 Si02
#       6
#     4   4   4   4   4   4
#     4   9  19  36  58  84 111 146 190 235 282 339
#     4  10  21  39  60  85 119 154 190 240 294 347
#     4   9  19  37  59  81 113 153 194 238 288 346
#     4  11  21  35  60  90 116 150 196 241 291 349
#     4  11  23  40  60  84 119 158 195 241 295 349
#     4  12  23  38  61  89 118 152 196 243 291 348
#
# _framework density 18.511783000000001
#
# number of rings (size 3 to 8) (size 9 to 14) (size 15 to 20)
#    0.000    1.667    1.667    5.000    0.000    4.000 
#    3.000    0.000    0.000    0.000    0.000    0.000 
#    0.000    0.000    0.000    0.000    0.000    0.000 
#
# Total GULP energy -297624.641790 kJ/mol
# GULP energy per Si atom -12401.026741 kJ/mol
# Density = 1.846965 g / cm^3
# Si number density = 18.511783 Si / 1000 Ang^3
#
#
#
# Elastic Constant Matrix: (Units=GPa)
#
#
# Indices 1 2 3 4 5 6 
#
# 1 156.0942 53.8658 81.1310 0.0000 0.8562 0.0000
# 2 53.8658 98.8784 38.3436 0.0000 1.4532 0.0000
# 3 81.1310 38.3436 110.6326 0.0000 -3.3404 0.0000
# 4 0.0000 0.0000 0.0000 34.3312 0.0000 -1.5285
# 5 0.8562 1.4532 -3.3404 0.0000 37.5426 0.0000
# 6 0.0000 0.0000 0.0000 -1.5285 0.0000 35.0838
#
#
#
# Elastic Compliance Matrix: (Units=1/GPa)
#
#
# Indices 1 2 3 4 5 6 
#
# 1 0.011276 -0.003369 -0.007125 0.000000 -0.000761 0.000000
# 2 -0.003369 0.012715 -0.001954 0.000000 -0.000589 0.000000
# 3 -0.007125 -0.001954 0.014988 0.000000 0.001572 0.000000
# 4 0.000000 0.000000 0.000000 0.029185 0.000000 0.001271
# 5 -0.000761 -0.000589 0.001572 0.000000 0.026816 0.000000
# 6 0.000000 0.000000 0.000000 0.001271 0.000000 0.028559
#
#
# Mechanical properties :
#
#
# Convention : Reuss Voigt Hill
#
# Bulk Modulus (GPa) = 71.00026 79.14289 75.07157
# Shear Modulus (GPa) = 32.65214 34.20919 33.43067
#
# Velocity S-wave (km/s) = 4.20439 4.30346 4.25421
# Velocity P-wave (km/s) = 7.87442 8.21819 8.04814
#
# Compressibility (1/GPa) = 0.01408446
#
# Stress axis : x y z
#
# Youngs Moduli (GPa) = 88.68258 78.64637 66.71834
#
# Poissons Ratio (x) = 0.26495 0.47534
# Poissons Ratio (y) = 0.29876 0.13038
# Poissons Ratio (z) = 0.63183 0.15368
#
# Static dielectric constant tensor:
#      x y z
#    x 3.767480 0.000000 -0.208820 
#    y 0.000000 3.509280 0.000000 
#    z -0.208820 0.000000 2.571610 
# 
# 
# High freq. dielectric constant tensor:
#      x y z
#    x 1.732680 0.000000 -0.006860 
#    y 0.000000 1.729340 0.000000 
#    z -0.006860 0.000000 1.700400 
# 
# From -- ./inp_files/20390.got.cif
#   From: 2010.06.25/outbox.cif.g09.slc.cpg/sg11_11_cif.got.tgz:20390.got - 2010.06.27 23:14:04.
