data_PCOD8076880
_publ_section_title
;
Structure prediction by ZEFSAII (Michael W. Deem and Ramdas Pophale) SiO2 
 PCOD8076880
Probable space group: P 21/M
;
_chemical_formula_sum "Si O2"
_cell_formula_units_Z 32
_cell_length_a 12.052376
_cell_length_b 17.089424
_cell_length_c 15.710247
_cell_angle_alpha 90.000000
_cell_angle_beta 151.338736
_cell_angle_gamma 90.000000
_cell_volume 1551.993111
_symmetry_space_group_name_H-M "P 21/M"
_symmetry_group_IT_number 11
_symmetry_cell_setting 'monoclinic'
loop_
_space_group_symop_operation_xyz
x,y,z
-x,1/2+y,-z
-x,-y,-z
x,1/2-y,z
loop_
_atom_site_type_symbol
_atom_site_label
_atom_site_fract_x
_atom_site_fract_y
_atom_site_fract_z
Si Si1 0.004353 0.065919 0.665174
Si Si2 0.137478 0.159193 0.598643
Si Si3 0.370625 0.094138 0.042638
Si Si4 0.734421 0.839524 0.848611
Si Si5 0.645230 0.089558 0.950214
Si Si6 0.511794 0.477219 0.409583
Si Si7 0.152828 0.576789 0.088271
Si Si8 0.181144 0.598916 0.753956
O O1 0.974732 0.120843 0.562641
O O2 0.767866 0.033562 0.545278
O O3 0.159352 0.994714 0.735017
O O4 0.141050 0.111054 0.832246
O O5 0.127090 0.250000 0.608390
O O6 0.401238 0.132379 0.780364
O O7 0.038614 0.139253 0.438477
O O8 0.367904 0.140956 0.128443
O O9 0.589253 0.126860 0.139323
O O10 0.400605 0.002676 0.079673
O O11 0.677319 0.750000 0.786601
O O12 0.627060 0.896836 0.703989
O O13 0.013330 0.853165 0.040688
O O14 0.815089 0.106174 0.986224
O O15 0.789645 0.122586 0.127765
O O16 0.500000 0.500000 0.500000
O O17 0.405373 0.554909 0.293931
O O18 0.000000 0.500000 0.000000
#
# Coordination Sequence:
#
# PCOD8076880 Si02
#       8
#     4   4   4   4   4   4   4   4
#     4  11  22  40  67  99 130 170 223 283 328 401
#     4  12  26  41  62 100 143 179 219 278 354 411
#     4  11  20  41  69 101 125 170 225 274 338 401
#     4  11  25  43  66  98 136 173 222 288 352 401
#     4  11  21  43  67  97 130 173 228 280 319 410
#     4  11  23  39  68  99 131 172 230 281 332 407
#     4  10  21  41  68  93 124 171 229 270 332 402
#     4  11  23  38  69  97 130 172 225 272 336 398
#
# _framework density 20.618646999999999
#
# number of rings (size 3 to 8) (size 9 to 14) (size 15 to 20)
#    0.000    1.000    5.000    3.375    5.250    3.500 
#    0.000    1.875    0.000    0.000    0.000    0.000 
#    0.000    0.000    0.000    0.000    0.000    0.000 
#
# Total GULP energy -396693.647247 kJ/mol
# GULP energy per Si atom -12396.676476 kJ/mol
# Density = 2.057172 g / cm^3
# Si number density = 20.618647 Si / 1000 Ang^3
#
#
#
# Elastic Constant Matrix: (Units=GPa)
#
#
# Indices 1 2 3 4 5 6 
#
# 1 153.5801 50.0419 50.2454 0.0000 -16.4413 0.0000
# 2 50.0419 86.5143 44.7755 0.0000 -7.8273 0.0000
# 3 50.2454 44.7755 127.3434 0.0000 -17.8085 0.0000
# 4 0.0000 0.0000 0.0000 14.5242 0.0000 2.8257
# 5 -16.4413 -7.8273 -17.8085 0.0000 29.7950 0.0000
# 6 0.0000 0.0000 0.0000 2.8257 0.0000 21.2602
#
#
#
# Elastic Compliance Matrix: (Units=1/GPa)
#
#
# Indices 1 2 3 4 5 6 
#
# 1 0.008608 -0.003877 -0.001649 0.000000 0.002746 0.000000
# 2 -0.003877 0.015894 -0.004118 0.000000 -0.000425 0.000000
# 3 -0.001649 -0.004118 0.010555 0.000000 0.004317 0.000000
# 4 0.000000 0.000000 0.000000 0.070678 0.000000 -0.009394
# 5 0.002746 -0.000425 0.004317 0.000000 0.037546 0.000000
# 6 0.000000 0.000000 0.000000 -0.009394 0.000000 0.048285
#
#
# Mechanical properties :
#
#
# Convention : Reuss Voigt Hill
#
# Bulk Modulus (GPa) = 63.41845 73.06258 68.24051
# Shear Modulus (GPa) = 23.13609 27.94088 25.53848
#
# Velocity S-wave (km/s) = 3.35340 3.68520 3.52321
# Velocity P-wave (km/s) = 6.76892 7.32255 7.05117
#
# Compressibility (1/GPa) = 0.01576828
#
# Stress axis : x y z
#
# Youngs Moduli (GPa) = 116.16999 62.91533 94.73925
#
# Poissons Ratio (x) = 0.24393 0.15625
# Poissons Ratio (y) = 0.45041 0.39017
# Poissons Ratio (z) = 0.19159 0.25911
#
# Static dielectric constant tensor:
#      x y z
#    x 3.942840 0.000000 -0.002780 
#    y 0.000000 3.471540 0.000000 
#    z -0.002780 0.000000 4.078210 
# 
# 
# High freq. dielectric constant tensor:
#      x y z
#    x 1.820480 0.000000 0.000980 
#    y 0.000000 1.772120 0.000000 
#    z 0.000980 0.000000 1.814680 
# 
# From -- ./inp_files/50721.got.cif
#   From: 2010.06.25/outbox.cif.g09.slc.cpg/sg11_26_cif.got.tgz:50721.got - 2010.06.27 23:14:04.
