data_PCOD8076467
_publ_section_title
;
Structure prediction by ZEFSAII (Michael W. Deem and Ramdas Pophale) SiO2 
 PCOD8076467
Probable space group: P 21/M
;
_chemical_formula_sum "Si O2"
_cell_formula_units_Z 32
_cell_length_a 14.462640
_cell_length_b 8.944149
_cell_length_c 12.358073
_cell_angle_alpha 90.000000
_cell_angle_beta 91.476159
_cell_angle_gamma 90.000000
_cell_volume 1598.060455
_symmetry_space_group_name_H-M "P 21/M"
_symmetry_group_IT_number 11
_symmetry_cell_setting 'monoclinic'
loop_
_space_group_symop_operation_xyz
x,y,z
-x,1/2+y,-z
-x,-y,-z
x,1/2-y,z
loop_
_atom_site_type_symbol
_atom_site_label
_atom_site_fract_x
_atom_site_fract_y
_atom_site_fract_z
Si Si1 0.990841 0.578190 0.813307
Si Si2 0.278469 0.077318 0.692910
Si Si3 0.472622 0.078960 0.610096
Si Si4 0.189632 0.923107 0.895013
Si Si5 0.788253 0.573606 0.886140
Si Si6 0.220383 0.421689 0.455437
Si Si7 0.335189 0.578070 0.298699
Si Si8 0.040896 0.575175 0.397114
O O1 0.984734 0.750000 0.775745
O O2 0.894272 0.527089 0.863710
O O3 0.013755 0.475571 0.710738
O O4 0.078301 0.552969 0.894485
O O5 0.282458 0.250000 0.730642
O O6 0.380014 0.014510 0.663992
O O7 0.214073 0.061037 0.584344
O O8 0.234730 0.977400 0.784808
O O9 0.451755 0.250000 0.577690
O O10 0.553398 0.067324 0.703481
O O11 0.500000 0.000000 0.500000
O O12 0.214373 0.750000 0.910659
O O13 0.234122 0.015487 0.994420
O O14 0.774350 0.750000 0.880698
O O15 0.714359 0.498813 0.804243
O O16 0.208745 0.250000 0.420110
O O17 0.314424 0.489330 0.410003
O O18 0.145410 0.519264 0.388862
O O19 0.302540 0.750000 0.304460
O O20 0.033632 0.750000 0.410861
O O21 0.000000 0.500000 0.500000
#
# Coordination Sequence:
#
# PCOD8076467 Si02
#       8
#     4   4   4   4   4   4   4   4
#     4  10  22  40  61  87 119 157 203 251 302 359
#     4  10  22  40  61  88 123 162 201 246 303 366
#     4  10  21  38  62  92 125 159 199 248 302 364
#     4  11  24  41  62  89 121 157 204 257 303 357
#     4  11  23  41  65  88 120 163 205 250 301 363
#     4  11  21  36  59  86 121 159 198 244 300 362
#     4  11  22  37  61  93 123 154 198 250 300 354
#     4  12  24  36  54  82 121 163 203 248 299 358
#
# _framework density 20.024273999999998
#
# number of rings (size 3 to 8) (size 9 to 14) (size 15 to 20)
#    0.000    1.250    2.500    3.750    0.000    5.500 
#    0.000    0.625    0.000    0.000    0.000    0.000 
#    0.000    0.000    0.000    0.000    0.000    0.000 
#
# Total GULP energy -396807.515073 kJ/mol
# GULP energy per Si atom -12400.234846 kJ/mol
# Density = 1.997870 g / cm^3
# Si number density = 20.024274 Si / 1000 Ang^3
#
#
#
# Elastic Constant Matrix: (Units=GPa)
#
#
# Indices 1 2 3 4 5 6 
#
# 1 72.5216 24.6106 23.5667 0.0000 7.0333 0.0000
# 2 24.6106 107.0425 49.2741 0.0000 8.6676 0.0000
# 3 23.5667 49.2741 104.6319 0.0000 7.3754 0.0000
# 4 0.0000 0.0000 0.0000 38.6710 0.0000 -0.7711
# 5 7.0333 8.6676 7.3754 0.0000 23.0911 0.0000
# 6 0.0000 0.0000 0.0000 -0.7711 0.0000 26.0800
#
#
#
# Elastic Compliance Matrix: (Units=1/GPa)
#
#
# Indices 1 2 3 4 5 6 
#
# 1 0.015598 -0.002317 -0.002198 0.000000 -0.003179 0.000000
# 2 -0.002317 0.012444 -0.005176 0.000000 -0.002312 0.000000
# 3 -0.002198 -0.005176 0.012589 0.000000 -0.001409 0.000000
# 4 0.000000 0.000000 0.000000 0.025874 0.000000 0.000765
# 5 -0.003179 -0.002312 -0.001409 0.000000 0.045593 0.000000
# 6 0.000000 0.000000 0.000000 0.000765 0.000000 0.038366
#
#
# Mechanical properties :
#
#
# Convention : Reuss Voigt Hill
#
# Bulk Modulus (GPa) = 47.05814 53.23319 50.14566
# Shear Modulus (GPa) = 28.25984 30.01805 29.13894
#
# Velocity S-wave (km/s) = 3.76077 3.87600 3.81882
# Velocity P-wave (km/s) = 6.51226 6.83178 6.67393
#
# Compressibility (1/GPa) = 0.02125031
#
# Stress axis : x y z
#
# Youngs Moduli (GPa) = 64.11145 80.35693 79.43441
#
# Poissons Ratio (x) = 0.18618 0.17459
# Poissons Ratio (y) = 0.14854 0.41112
# Poissons Ratio (z) = 0.14091 0.41589
#
# Static dielectric constant tensor:
#      x y z
#    x 3.925280 0.000000 0.089630 
#    y 0.000000 2.743100 0.000000 
#    z 0.089630 0.000000 3.496550 
# 
# 
# High freq. dielectric constant tensor:
#      x y z
#    x 1.783460 0.000000 0.007580 
#    y 0.000000 1.786040 0.000000 
#    z 0.007580 0.000000 1.775070 
# 
# From -- ./inp_files/38268.got.cif
#   From: 2010.06.25/outbox.cif.g09.slc.cpg/sg11_20_cif.got.tgz:38268.got - 2010.06.27 23:14:04.
