data_PCOD8076511
_publ_section_title
;
Structure prediction by ZEFSAII (Michael W. Deem and Ramdas Pophale) SiO2 
 PCOD8076511
Probable space group: P 21/M
;
_chemical_formula_sum "Si O2"
_cell_formula_units_Z 32
_cell_length_a 14.108041
_cell_length_b 17.119641
_cell_length_c 11.495331
_cell_angle_alpha 90.000000
_cell_angle_beta 32.337531
_cell_angle_gamma 90.000000
_cell_volume 1485.115557
_symmetry_space_group_name_H-M "P 21/M"
_symmetry_group_IT_number 11
_symmetry_cell_setting 'monoclinic'
loop_
_space_group_symop_operation_xyz
x,y,z
-x,1/2+y,-z
-x,-y,-z
x,1/2-y,z
loop_
_atom_site_type_symbol
_atom_site_label
_atom_site_fract_x
_atom_site_fract_y
_atom_site_fract_z
Si Si1 0.658426 0.338654 0.260718
Si Si2 0.106421 0.838503 0.394710
Si Si3 0.305540 0.917888 0.536210
Si Si4 0.487703 0.340063 0.060330
Si Si5 0.382373 0.339427 0.912813
Si Si6 0.955810 0.929248 0.763073
Si Si7 0.032913 0.889615 0.225792
Si Si8 0.647039 0.905682 0.566765
O O1 0.665032 0.250000 0.299829
O O2 0.687435 0.398527 0.335236
O O3 0.467781 0.352541 0.399824
O O4 0.808716 0.351294 0.009375
O O5 0.088359 0.750000 0.461289
O O6 0.010205 0.843407 0.369960
O O7 0.014479 0.898174 0.577065
O O8 0.309740 0.863651 0.170909
O O9 0.426084 0.858819 0.338033
O O10 0.102797 0.908066 0.706526
O O11 0.379547 0.004386 0.439232
O O12 0.473976 0.250000 0.114866
O O13 0.410118 0.395883 0.239869
O O14 0.379300 0.354831 0.054414
O O15 0.341006 0.250000 0.928501
O O16 0.230168 0.390034 0.008008
O O17 0.923153 0.021076 0.790317
O O18 0.852068 0.881109 0.339974
#
# Coordination Sequence:
#
# PCOD8076511 Si02
#       8
#     4   4   4   4   4   4   4   4
#     4  12  26  45  69  94 127 170 220 273 323 379
#     4  11  21  39  66  97 137 174 209 262 326 385
#     4  11  26  45  66  94 131 173 216 270 322 384
#     4  10  21  38  65  98 132 171 214 261 322 386
#     4  11  23  40  65  96 133 174 217 265 319 387
#     4  11  24  42  66  97 135 174 212 262 326 391
#     4  11  25  43  66 100 131 170 217 269 321 384
#     4  11  24  43  68  96 129 170 214 270 327 384
#
# _framework density 21.547145
#
# number of rings (size 3 to 8) (size 9 to 14) (size 15 to 20)
#    0.000    1.000    2.500    3.750    0.000    9.000 
#    0.000    0.000    0.000    0.000    0.000    0.000 
#    0.000    0.000    0.000    0.000    0.000    0.000 
#
# Total GULP energy -397038.929194 kJ/mol
# GULP energy per Si atom -12407.466537 kJ/mol
# Density = 2.149810 g / cm^3
# Si number density = 21.547145 Si / 1000 Ang^3
#
#
#
# Elastic Constant Matrix: (Units=GPa)
#
#
# Indices 1 2 3 4 5 6 
#
# 1 94.7864 28.6131 28.2065 0.0000 -7.6108 0.0000
# 2 28.6131 81.9564 31.8781 0.0000 -9.0251 0.0000
# 3 28.2065 31.8781 39.8504 0.0000 -11.6186 0.0000
# 4 0.0000 0.0000 0.0000 34.6784 0.0000 2.7865
# 5 -7.6108 -9.0251 -11.6186 0.0000 40.9729 0.0000
# 6 0.0000 0.0000 0.0000 2.7865 0.0000 30.3618
#
#
#
# Elastic Compliance Matrix: (Units=1/GPa)
#
#
# Indices 1 2 3 4 5 6 
#
# 1 0.013484 -0.001444 -0.008450 0.000000 -0.000210 0.000000
# 2 -0.001444 0.017868 -0.013302 0.000000 -0.000104 0.000000
# 3 -0.008450 -0.013302 0.044045 0.000000 0.007990 0.000000
# 4 0.000000 0.000000 0.000000 0.029051 0.000000 -0.002666
# 5 -0.000210 -0.000104 0.007990 0.000000 0.026610 0.000000
# 6 0.000000 0.000000 0.000000 -0.002666 0.000000 0.033181
#
#
# Mechanical properties :
#
#
# Convention : Reuss Voigt Hill
#
# Bulk Modulus (GPa) = 34.47630 43.77650 39.12640
# Shear Modulus (GPa) = 22.69646 29.72899 26.21272
#
# Velocity S-wave (km/s) = 3.24904 3.71849 3.49166
# Velocity P-wave (km/s) = 5.48727 6.22872 5.86971
#
# Compressibility (1/GPa) = 0.02900543
#
# Stress axis : x y z
#
# Youngs Moduli (GPa) = 74.16430 55.96524 22.70394
#
# Poissons Ratio (x) = 0.08080 0.19185
# Poissons Ratio (y) = 0.10708 0.30201
# Poissons Ratio (z) = 0.62668 0.74445
#
# Static dielectric constant tensor:
#      x y z
#    x 3.942800 0.000000 -0.198970 
#    y 0.000000 3.942450 0.000000 
#    z -0.198970 0.000000 3.850680 
# 
# 
# High freq. dielectric constant tensor:
#      x y z
#    x 1.849730 0.000000 -0.014630 
#    y 0.000000 1.851090 0.000000 
#    z -0.014630 0.000000 1.847880 
# 
# From -- ./inp_files/39962.got.cif
#   From: 2010.06.25/outbox.cif.g09.slc.cpg/sg11_20_cif.got.tgz:39962.got - 2010.06.27 23:14:04.
