data_PCOD8076960
_publ_section_title
;
Structure prediction by ZEFSAII (Michael W. Deem and Ramdas Pophale) SiO2 
 PCOD8076960
Probable space group: P 21/M
;
_chemical_formula_sum "Si O2"
_cell_formula_units_Z 20
_cell_length_a 10.233848
_cell_length_b 9.235048
_cell_length_c 21.582717
_cell_angle_alpha 90.000000
_cell_angle_beta 145.573695
_cell_angle_gamma 90.000000
_cell_volume 1153.183382
_symmetry_space_group_name_H-M "P 21/M"
_symmetry_group_IT_number 11
_symmetry_cell_setting 'monoclinic'
loop_
_space_group_symop_operation_xyz
x,y,z
-x,1/2+y,-z
-x,-y,-z
x,1/2-y,z
loop_
_atom_site_type_symbol
_atom_site_label
_atom_site_fract_x
_atom_site_fract_y
_atom_site_fract_z
Si Si1 0.051957 0.585332 0.727841
Si Si2 0.611504 0.582727 0.486856
Si Si3 0.271535 0.417763 0.282268
Si Si4 0.957792 0.080937 0.046753
Si Si5 0.512355 0.920941 0.070144
O O1 0.144203 0.750000 0.768297
O O2 0.265400 0.476143 0.804762
O O3 0.889119 0.566788 0.603141
O O4 0.911311 0.547515 0.735118
O O5 0.500000 0.500000 0.500000
O O6 0.538354 0.750000 0.460627
O O7 0.508090 0.510336 0.384019
O O8 0.340247 0.250000 0.310425
O O9 0.158774 0.463815 0.173313
O O10 0.965926 0.250000 0.036507
O O11 0.711077 0.035892 0.977773
O O12 0.000000 0.000000 0.000000
O O13 0.527544 0.750000 0.064862
O O14 0.500000 0.000000 0.000000
#
# Coordination Sequence:
#
# PCOD8076960 Si02
#       5
#     4   4   4   4   4
#     4   9  17  31  49  74 107 134 164 213 261 303
#     4   9  17  28  45  72 104 134 168 210 255 304
#     4   9  17  32  50  71 105 136 167 214 258 302
#     4  10  22  38  53  75 106 139 174 216 259 308
#     4  11  21  34  53  77 106 136 172 215 259 308
#
# _framework density 17.343294
#
# number of rings (size 3 to 8) (size 9 to 14) (size 15 to 20)
#    0.000    2.400    2.000    2.400    0.000    6.400 
#    0.000    0.000    0.000    1.200    0.000    0.000 
#    0.000    0.000    0.000    0.000    0.000    0.000 
#
# Total GULP energy -247931.506524 kJ/mol
# GULP energy per Si atom -12396.575326 kJ/mol
# Density = 1.730382 g / cm^3
# Si number density = 17.343294 Si / 1000 Ang^3
#
#
#
# Elastic Constant Matrix: (Units=GPa)
#
#
# Indices 1 2 3 4 5 6 
#
# 1 80.5966 48.2297 61.1446 0.0000 -7.1218 0.0000
# 2 48.2297 92.4456 76.7760 0.0000 0.9764 0.0000
# 3 61.1446 76.7760 159.4932 0.0000 -7.4334 0.0000
# 4 0.0000 0.0000 0.0000 40.0135 0.0000 -0.7028
# 5 -7.1218 0.9764 -7.4334 0.0000 19.3596 0.0000
# 6 0.0000 0.0000 0.0000 -0.7028 0.0000 25.3155
#
#
#
# Elastic Compliance Matrix: (Units=1/GPa)
#
#
# Indices 1 2 3 4 5 6 
#
# 1 0.020419 -0.007440 -0.003950 0.000000 0.006370 0.000000
# 2 -0.007440 0.021094 -0.007615 0.000000 -0.006725 0.000000
# 3 -0.003950 -0.007615 0.011608 0.000000 0.003388 0.000000
# 4 0.000000 0.000000 0.000000 0.025004 0.000000 0.000694
# 5 0.006370 -0.006725 0.003388 0.000000 0.055637 0.000000
# 6 0.000000 0.000000 0.000000 0.000694 0.000000 0.039521
#
#
# Mechanical properties :
#
#
# Convention : Reuss Voigt Hill
#
# Bulk Modulus (GPa) = 66.17687 78.31512 72.24600
# Shear Modulus (GPa) = 23.11288 26.69674 24.90481
#
# Velocity S-wave (km/s) = 3.65454 3.92766 3.79356
# Velocity P-wave (km/s) = 7.48648 8.11311 7.80609
#
# Compressibility (1/GPa) = 0.01511102
#
# Stress axis : x y z
#
# Youngs Moduli (GPa) = 48.97446 47.40638 86.14832
#
# Poissons Ratio (x) = 0.35269 0.34027
# Poissons Ratio (y) = 0.36435 0.65606
# Poissons Ratio (z) = 0.19344 0.36102
#
# Static dielectric constant tensor:
#      x y z
#    x 2.947930 0.000000 0.442910 
#    y 0.000000 3.889350 0.000000 
#    z 0.442910 0.000000 5.114700 
# 
# 
# High freq. dielectric constant tensor:
#      x y z
#    x 1.612610 0.000000 -0.000490 
#    y 0.000000 1.676590 0.000000 
#    z -0.000490 0.000000 1.693290 
# 
# From -- ./inp_files/20274.got.cif
#   From: 2010.06.25/outbox.cif.g09.slc.cpg/sg11_11_cif.got.tgz:20274.got - 2010.06.27 23:14:04.
