data_PCOD8076028
_publ_section_title
;
Structure prediction by ZEFSAII (Michael W. Deem and Ramdas Pophale) SiO2 
 PCOD8076028
Probable space group: P 21/M
;
_chemical_formula_sum "Si O2"
_cell_formula_units_Z 28
_cell_length_a 16.946887
_cell_length_b 9.140625
_cell_length_c 12.280726
_cell_angle_alpha 90.000000
_cell_angle_beta 47.778249
_cell_angle_gamma 90.000000
_cell_volume 1408.782616
_symmetry_space_group_name_H-M "P 21/M"
_symmetry_group_IT_number 11
_symmetry_cell_setting 'monoclinic'
loop_
_space_group_symop_operation_xyz
x,y,z
-x,1/2+y,-z
-x,-y,-z
x,1/2-y,z
loop_
_atom_site_type_symbol
_atom_site_label
_atom_site_fract_x
_atom_site_fract_y
_atom_site_fract_z
Si Si1 0.687999 0.923079 0.825416
Si Si2 0.019346 0.915873 0.189164
Si Si3 0.622489 0.917497 0.127590
Si Si4 0.385495 0.919351 0.308330
Si Si5 0.784638 0.422956 0.130443
Si Si6 0.197037 0.577170 0.641059
Si Si7 0.096351 0.917402 0.356788
O O1 0.699770 0.750000 0.802285
O O2 0.608997 0.984382 0.806316
O O3 0.799651 0.000319 0.698565
O O4 0.645233 0.968802 0.983248
O O5 0.982833 0.750000 0.199963
O O6 0.087824 0.926468 0.235205
O O7 0.099618 0.974150 0.021408
O O8 0.914742 0.013546 0.295594
O O9 0.657489 0.750000 0.109681
O O10 0.497235 0.939557 0.267636
O O11 0.687435 0.011076 0.153511
O O12 0.369262 0.750000 0.290811
O O13 0.291522 0.975991 0.474496
O O14 0.774855 0.250000 0.128442
O O15 0.776201 0.477874 0.262229
O O16 0.185861 0.750000 0.649716
O O17 0.099855 0.750000 0.394366
O O18 0.000000 0.000000 0.500000
#
# Coordination Sequence:
#
# PCOD8076028 Si02
#       7
#     4   4   4   4   4   4   4
#     4  11  22  37  58  86 115 150 196 239 284 345
#     4  10  21  37  57  82 114 149 189 234 283 341
#     4  10  22  39  60  86 116 151 195 241 287 345
#     4  10  22  40  59  84 118 154 191 239 295 343
#     4  10  21  39  60  85 115 150 192 237 288 345
#     4  10  22  38  59  85 115 151 191 236 288 345
#     4  11  22  36  56  84 118 155 190 234 288 343
#
# _framework density 19.875316000000002
#
# number of rings (size 3 to 8) (size 9 to 14) (size 15 to 20)
#    0.000    1.714    1.429    2.571    0.000    6.857 
#    0.000    0.000    0.000    0.000    0.000    0.000 
#    0.000    0.000    0.000    0.000    0.000    0.000 
#
# Total GULP energy -347310.536872 kJ/mol
# GULP energy per Si atom -12403.947745 kJ/mol
# Density = 1.983008 g / cm^3
# Si number density = 19.875316 Si / 1000 Ang^3
#
#
#
# Elastic Constant Matrix: (Units=GPa)
#
#
# Indices 1 2 3 4 5 6 
#
# 1 81.0144 26.0007 21.6130 0.0000 -9.4773 0.0000
# 2 26.0007 50.9357 17.8532 0.0000 -0.2751 0.0000
# 3 21.6130 17.8532 74.6568 0.0000 -5.2228 0.0000
# 4 0.0000 0.0000 0.0000 25.8093 0.0000 -1.4909
# 5 -9.4773 -0.2751 -5.2228 0.0000 33.4143 0.0000
# 6 0.0000 0.0000 0.0000 -1.4909 0.0000 37.0087
#
#
#
# Elastic Compliance Matrix: (Units=1/GPa)
#
#
# Indices 1 2 3 4 5 6 
#
# 1 0.015792 -0.007134 -0.002585 0.000000 0.004016 0.000000
# 2 -0.007134 0.024664 -0.004004 0.000000 -0.002446 0.000000
# 3 -0.002585 -0.004004 0.015213 0.000000 0.001612 0.000000
# 4 0.000000 0.000000 0.000000 0.038836 0.000000 0.001564
# 5 0.004016 -0.002446 0.001612 0.000000 0.031298 0.000000
# 6 0.000000 0.000000 0.000000 0.001564 0.000000 0.027084
#
#
# Mechanical properties :
#
#
# Convention : Reuss Voigt Hill
#
# Bulk Modulus (GPa) = 35.43019 37.50450 36.46735
# Shear Modulus (GPa) = 26.35162 28.65581 27.50371
#
# Velocity S-wave (km/s) = 3.64517 3.80120 3.72400
# Velocity P-wave (km/s) = 5.96500 6.17870 6.07279
#
# Compressibility (1/GPa) = 0.02822452
#
# Stress axis : x y z
#
# Youngs Moduli (GPa) = 63.32144 40.54444 65.73224
#
# Poissons Ratio (x) = 0.28923 0.16992
# Poissons Ratio (y) = 0.45172 0.26320
# Poissons Ratio (z) = 0.16368 0.16234
#
# Static dielectric constant tensor:
#      x y z
#    x 3.522040 0.000000 0.099100 
#    y 0.000000 3.561990 0.000000 
#    z 0.099100 0.000000 3.799200 
# 
# 
# High freq. dielectric constant tensor:
#      x y z
#    x 1.780170 0.000000 -0.002420 
#    y 0.000000 1.768180 0.000000 
#    z -0.002420 0.000000 1.783690 
# 
# From -- ./inp_files/37939.got.cif
#   From: 2010.06.25/outbox.cif.g09.slc.cpg/sg11_19_cif.got.tgz:37939.got - 2010.06.27 23:14:04.
