data_PCOD8076262
_publ_section_title
;
Structure prediction by ZEFSAII (Michael W. Deem and Ramdas Pophale) SiO2 
 PCOD8076262
Probable space group: P 21/M
;
_chemical_formula_sum "Si O2"
_cell_formula_units_Z 28
_cell_length_a 29.116926
_cell_length_b 8.972433
_cell_length_c 9.210876
_cell_angle_alpha 90.000000
_cell_angle_beta 142.420995
_cell_angle_gamma 90.000000
_cell_volume 1467.516966
_symmetry_space_group_name_H-M "P 21/M"
_symmetry_group_IT_number 11
_symmetry_cell_setting 'monoclinic'
loop_
_space_group_symop_operation_xyz
x,y,z
-x,1/2+y,-z
-x,-y,-z
x,1/2-y,z
loop_
_atom_site_type_symbol
_atom_site_label
_atom_site_fract_x
_atom_site_fract_y
_atom_site_fract_z
Si Si1 0.935658 0.415965 0.755672
Si Si2 0.500641 0.424626 0.345997
Si Si3 0.770215 0.424556 0.314916
Si Si4 0.224454 0.073164 0.970835
Si Si5 0.648169 0.423857 0.536539
Si Si6 0.932948 0.080631 0.412031
Si Si7 0.370952 0.578084 0.845393
O O1 0.937005 0.250000 0.821071
O O2 0.851964 0.483432 0.573669
O O3 0.954075 0.421787 0.632934
O O4 0.000000 0.500000 0.000000
O O5 0.500000 0.500000 0.500000
O O6 0.494312 0.250000 0.354124
O O7 0.576741 0.468406 0.454150
O O8 0.430906 0.476268 0.075345
O O9 0.776300 0.250000 0.288158
O O10 0.745632 0.511186 0.108276
O O11 0.711106 0.454943 0.293775
O O12 0.219119 0.250000 0.950544
O O13 0.143790 0.006904 0.811081
O O14 0.282077 0.023714 0.239586
O O15 0.668691 0.250000 0.604351
O O16 0.629949 0.464781 0.325153
O O17 0.924088 0.250000 0.333551
O O18 0.000000 0.000000 0.500000
O O19 0.393369 0.750000 0.925194
#
# Coordination Sequence:
#
# PCOD8076262 Si02
#       7
#     4   4   4   4   4   4   4
#     4   9  19  34  53  79 110 142 180 225 274 328
#     4  11  23  38  58  83 113 148 187 229 277 332
#     4   9  19  37  57  78 107 144 183 226 276 333
#     4  11  22  36  57  84 111 145 188 230 273 327
#     4  10  22  39  57  81 114 150 183 225 281 335
#     4  10  21  38  58  82 113 148 187 231 278 330
#     4  10  21  38  60  83 109 143 185 230 282 335
#
# _framework density 19.079847000000001
#
# number of rings (size 3 to 8) (size 9 to 14) (size 15 to 20)
#    0.000    2.000    0.000    4.286    0.000    9.714 
#    0.000    1.429    0.000    0.000    0.000    0.000 
#    0.000    0.000    0.000    0.000    0.000    0.000 
#
# Total GULP energy -347283.120817 kJ/mol
# GULP energy per Si atom -12402.968601 kJ/mol
# Density = 1.903642 g / cm^3
# Si number density = 19.079847 Si / 1000 Ang^3
#
#
#
# Elastic Constant Matrix: (Units=GPa)
#
#
# Indices 1 2 3 4 5 6 
#
# 1 142.8729 58.9579 61.7608 0.0000 4.4477 0.0000
# 2 58.9579 99.5596 60.4488 0.0000 2.2722 0.0000
# 3 61.7608 60.4488 136.9640 0.0000 0.4910 0.0000
# 4 0.0000 0.0000 0.0000 40.0073 0.0000 0.7787
# 5 4.4477 2.2722 0.4910 0.0000 23.3237 0.0000
# 6 0.0000 0.0000 0.0000 0.7787 0.0000 29.3070
#
#
#
# Elastic Compliance Matrix: (Units=1/GPa)
#
#
# Indices 1 2 3 4 5 6 
#
# 1 0.009925 -0.004277 -0.002583 0.000000 -0.001422 0.000000
# 2 -0.004277 0.015598 -0.004954 0.000000 -0.000600 0.000000
# 3 -0.002583 -0.004954 0.010649 0.000000 0.000751 0.000000
# 4 0.000000 0.000000 0.000000 0.025008 0.000000 -0.000664
# 5 -0.001422 -0.000600 0.000751 0.000000 0.043189 0.000000
# 6 0.000000 0.000000 0.000000 -0.000664 0.000000 0.034139
#
#
# Mechanical properties :
#
#
# Convention : Reuss Voigt Hill
#
# Bulk Modulus (GPa) = 79.70521 82.41462 81.05992
# Shear Modulus (GPa) = 30.06312 31.74285 30.90298
#
# Velocity S-wave (km/s) = 3.97375 4.08325 4.02887
# Velocity P-wave (km/s) = 7.93218 8.09438 8.01369
#
# Compressibility (1/GPa) = 0.01254623
#
# Stress axis : x y z
#
# Youngs Moduli (GPa) = 100.75787 64.11007 93.90223
#
# Poissons Ratio (x) = 0.27418 0.24252
# Poissons Ratio (y) = 0.43092 0.46515
# Poissons Ratio (z) = 0.26023 0.31757
#
# Static dielectric constant tensor:
#      x y z
#    x 3.677470 0.000000 0.052970 
#    y 0.000000 3.497120 0.000000 
#    z 0.052970 0.000000 3.530740 
# 
# 
# High freq. dielectric constant tensor:
#      x y z
#    x 1.749560 0.000000 0.007310 
#    y 0.000000 1.740390 0.000000 
#    z 0.007310 0.000000 1.748870 
# 
# From -- ./inp_files/28643.got.cif
#   From: 2010.06.25/outbox.cif.g09.slc.cpg/sg11_15_cif.got.tgz:28643.got - 2010.06.27 23:14:04.
