data_PCOD8076322
_publ_section_title
;
Structure prediction by ZEFSAII (Michael W. Deem and Ramdas Pophale) SiO2 
 PCOD8076322
Probable space group: P 21/M
;
_chemical_formula_sum "Si O2"
_cell_formula_units_Z 32
_cell_length_a 11.612749
_cell_length_b 24.465020
_cell_length_c 5.270506
_cell_angle_alpha 90.000000
_cell_angle_beta 80.919580
_cell_angle_gamma 90.000000
_cell_volume 1478.617589
_symmetry_space_group_name_H-M "P 21/M"
_symmetry_group_IT_number 11
_symmetry_cell_setting 'monoclinic'
loop_
_space_group_symop_operation_xyz
x,y,z
-x,1/2+y,-z
-x,-y,-z
x,1/2-y,z
loop_
_atom_site_type_symbol
_atom_site_label
_atom_site_fract_x
_atom_site_fract_y
_atom_site_fract_z
Si Si1 0.836233 0.189857 0.562581
Si Si2 0.258648 0.898182 0.719361
Si Si3 0.621418 0.189555 0.976242
Si Si4 0.013921 0.117840 0.700439
Si Si5 0.114656 0.520190 0.096414
Si Si6 0.510740 0.436840 0.541684
Si Si7 0.418935 0.116434 0.061987
Si Si8 0.157382 0.400812 0.162710
O O1 0.870626 0.250000 0.444701
O O2 0.843455 0.141061 0.353947
O O3 0.702160 0.192389 0.699572
O O4 0.930139 0.171598 0.744381
O O5 0.351826 0.920893 0.482538
O O6 0.331356 0.859778 0.877170
O O7 0.203110 0.950488 0.873582
O O8 0.624030 0.250000 0.105942
O O9 0.487272 0.172919 0.966950
O O10 0.100225 0.123799 0.434667
O O11 0.928722 0.064950 0.682445
O O12 0.081637 0.113168 0.941299
O O13 0.175662 0.466584 0.194780
O O14 0.000000 0.500000 0.000000
O O15 0.500000 0.500000 0.500000
O O16 0.451352 0.426813 0.833045
O O17 0.447944 0.404922 0.333797
O O18 0.281668 0.128346 0.092227
#
# Coordination Sequence:
#
# PCOD8076322 Si02
#       8
#     4   4   4   4   4   4   4   4
#     4  11  22  39  65  92 123 163 213 276 327 371
#     4  11  21  39  61  94 130 162 210 261 320 381
#     4  10  22  41  64  93 123 166 213 270 326 372
#     4  11  23  42  62  93 127 170 217 262 313 381
#     4  10  21  38  59  93 126 172 208 252 312 382
#     4  11  23  38  61  94 130 168 207 256 314 374
#     4  11  23  43  62  93 128 169 216 261 315 383
#     4  11  24  42  65  91 132 174 211 257 318 389
#
# _framework density 21.641836999999999
#
# number of rings (size 3 to 8) (size 9 to 14) (size 15 to 20)
#    0.000    1.250    2.500    4.125    0.000    4.000 
#    0.000    1.250    0.000    0.000    0.000    0.000 
#    0.000    0.000    0.000    0.000    0.000    0.000 
#
# Total GULP energy -396578.451118 kJ/mol
# GULP energy per Si atom -12393.076597 kJ/mol
# Density = 2.159258 g / cm^3
# Si number density = 21.641837 Si / 1000 Ang^3
#
#
#
# Elastic Constant Matrix: (Units=GPa)
#
#
# Indices 1 2 3 4 5 6 
#
# 1 105.1173 36.2289 30.3176 0.0000 -20.2411 0.0000
# 2 36.2289 98.6648 5.8467 0.0000 -2.5049 0.0000
# 3 30.3176 5.8467 89.0677 0.0000 -11.9565 0.0000
# 4 0.0000 0.0000 0.0000 16.1029 0.0000 -5.3730
# 5 -20.2411 -2.5049 -11.9565 0.0000 35.0311 0.0000
# 6 0.0000 0.0000 0.0000 -5.3730 0.0000 22.7231
#
#
#
# Elastic Compliance Matrix: (Units=1/GPa)
#
#
# Indices 1 2 3 4 5 6 
#
# 1 0.013226 -0.004500 -0.003379 0.000000 0.006167 0.000000
# 2 -0.004500 0.011715 0.000551 0.000000 -0.001574 0.000000
# 3 -0.003379 0.000551 0.012665 0.000000 0.002410 0.000000
# 4 0.000000 0.000000 0.000000 0.067420 0.000000 0.015942
# 5 0.006167 -0.001574 0.002410 0.000000 0.032819 0.000000
# 6 0.000000 0.000000 0.000000 0.015942 0.000000 0.047778
#
#
# Mechanical properties :
#
#
# Convention : Reuss Voigt Hill
#
# Bulk Modulus (GPa) = 43.57001 48.62623 46.09812
# Shear Modulus (GPa) = 24.04682 29.46852 26.75767
#
# Velocity S-wave (km/s) = 3.33697 3.69405 3.52004
# Velocity P-wave (km/s) = 5.91804 6.38060 6.15367
#
# Compressibility (1/GPa) = 0.02295157
#
# Stress axis : x y z
#
# Youngs Moduli (GPa) = 75.60861 85.36110 78.95905
#
# Poissons Ratio (x) = 0.38410 0.26678
# Poissons Ratio (y) = 0.34022 -0.04353
# Poissons Ratio (z) = 0.25546 -0.04706
#
# Static dielectric constant tensor:
#      x y z
#    x 4.247670 0.000000 -0.152580 
#    y 0.000000 4.305990 0.000000 
#    z -0.152580 0.000000 3.889090 
# 
# 
# High freq. dielectric constant tensor:
#      x y z
#    x 1.851310 0.000000 -0.009190 
#    y 0.000000 1.844350 0.000000 
#    z -0.009190 0.000000 1.843430 
# 
# From -- ./inp_files/5464.got.cif
#   From: 2010.06.25/outbox.cif.g09.slc.cpg/sg11_3_cif.got.tgz:5464.got - 2010.06.27 23:14:04.
