data_PCOD8076202
_publ_section_title
;
Structure prediction by ZEFSAII (Michael W. Deem and Ramdas Pophale) SiO2 
 PCOD8076202
Probable space group: P 21/M
;
_chemical_formula_sum "Si O2"
_cell_formula_units_Z 32
_cell_length_a 27.992595
_cell_length_b 9.165490
_cell_length_c 11.756810
_cell_angle_alpha 90.000000
_cell_angle_beta 148.056235
_cell_angle_gamma 90.000000
_cell_volume 1595.934862
_symmetry_space_group_name_H-M "P 21/M"
_symmetry_group_IT_number 11
_symmetry_cell_setting 'monoclinic'
loop_
_space_group_symop_operation_xyz
x,y,z
-x,1/2+y,-z
-x,-y,-z
x,1/2-y,z
loop_
_atom_site_type_symbol
_atom_site_label
_atom_site_fract_x
_atom_site_fract_y
_atom_site_fract_z
Si Si1 0.572704 0.086279 0.717364
Si Si2 0.057822 0.919398 0.451741
Si Si3 0.873718 0.581260 0.202942
Si Si4 0.711225 0.089749 0.807661
Si Si5 0.735828 0.919895 0.453938
Si Si6 0.419327 0.082938 0.038641
Si Si7 0.079017 0.575125 0.232093
Si Si8 0.383235 0.916330 0.612093
O O1 0.536745 0.250000 0.661067
O O2 0.666585 0.082269 0.840658
O O3 0.500000 0.000000 0.500000
O O4 0.592854 0.019302 0.879320
O O5 0.080253 0.750000 0.507807
O O6 0.067622 0.970721 0.341199
O O7 0.958118 0.957862 0.294029
O O8 0.126167 0.002599 0.673894
O O9 0.866827 0.750000 0.215723
O O10 0.788844 0.530605 0.957130
O O11 0.754763 0.250000 0.876653
O O12 0.635228 0.061458 0.559113
O O13 0.761623 0.750000 0.520822
O O14 0.825565 0.014714 0.618831
O O15 0.683295 0.974089 0.458767
O O16 0.668507 0.945020 0.213757
O O17 0.426297 0.250000 0.093714
O O18 0.511278 0.043213 0.155518
O O19 0.074770 0.750000 0.208029
O O20 0.000000 0.500000 0.000000
O O21 0.364220 0.750000 0.613395
#
# Coordination Sequence:
#
# PCOD8076202 Si02
#       8
#     4   4   4   4   4   4   4   4
#     4  11  22  38  60  87 123 163 203 247 303 364
#     4   9  21  42  63  87 121 156 196 248 305 365
#     4  10  21  37  62  93 121 155 198 249 301 361
#     4  10  22  38  58  87 124 163 200 247 303 362
#     4  11  25  42  64  94 125 160 208 262 311 366
#     4  10  22  42  64  90 127 164 206 260 309 364
#     4  11  25  45  67  91 124 164 207 257 311 370
#     4  10  21  41  64  88 124 167 210 255 308 365
#
# _framework density 20.050944000000001
#
# number of rings (size 3 to 8) (size 9 to 14) (size 15 to 20)
#    0.000    1.750    1.250    1.875    3.500    4.500 
#    0.000    0.000    0.000    0.000    0.000    0.000 
#    0.000    0.000    0.000    0.000    0.000    0.000 
#
# Total GULP energy -396846.102612 kJ/mol
# GULP energy per Si atom -12401.440707 kJ/mol
# Density = 2.000531 g / cm^3
# Si number density = 20.050944 Si / 1000 Ang^3
#
#
#
# Elastic Constant Matrix: (Units=GPa)
#
#
# Indices 1 2 3 4 5 6 
#
# 1 97.5423 55.8382 30.6291 0.0000 -5.3900 0.0000
# 2 55.8382 87.0537 50.9057 0.0000 1.5445 0.0000
# 3 30.6291 50.9057 96.8894 0.0000 12.6124 0.0000
# 4 0.0000 0.0000 0.0000 36.9215 0.0000 -0.9802
# 5 -5.3900 1.5445 12.6124 0.0000 28.3753 0.0000
# 6 0.0000 0.0000 0.0000 -0.9802 0.0000 35.1007
#
#
#
# Elastic Compliance Matrix: (Units=1/GPa)
#
#
# Indices 1 2 3 4 5 6 
#
# 1 0.016588 -0.010612 -0.000163 0.000000 0.003801 0.000000
# 2 -0.010612 0.023640 -0.009166 0.000000 0.000772 0.000000
# 3 -0.000163 -0.009166 0.016057 0.000000 -0.006669 0.000000
# 4 0.000000 0.000000 0.000000 0.027105 0.000000 0.000757
# 5 0.003801 0.000772 -0.006669 0.000000 0.038886 0.000000
# 6 0.000000 0.000000 0.000000 0.000757 0.000000 0.028511
#
#
# Mechanical properties :
#
#
# Convention : Reuss Voigt Hill
#
# Bulk Modulus (GPa) = 60.96768 61.80349 61.38559
# Shear Modulus (GPa) = 25.49233 29.68699 27.58966
#
# Velocity S-wave (km/s) = 3.56951 3.85200 3.71344
# Velocity P-wave (km/s) = 6.88919 7.11857 7.00482
#
# Compressibility (1/GPa) = 0.01640213
#
# Stress axis : x y z
#
# Youngs Moduli (GPa) = 60.28424 42.30037 62.27883
#
# Poissons Ratio (x) = 0.44889 0.01016
# Poissons Ratio (y) = 0.63974 0.57088
# Poissons Ratio (z) = 0.00983 0.38774
#
# Static dielectric constant tensor:
#      x y z
#    x 3.740320 0.000000 -0.105620 
#    y 0.000000 3.735640 0.000000 
#    z -0.105620 0.000000 3.736690 
# 
# 
# High freq. dielectric constant tensor:
#      x y z
#    x 1.783200 0.000000 -0.000250 
#    y 0.000000 1.787430 0.000000 
#    z -0.000250 0.000000 1.789260 
# 
# From -- ./inp_files/45286.got.cif
#   From: 2010.06.25/outbox.cif.g09.slc.cpg/sg11_23_cif.got.tgz:45286.got - 2010.06.27 23:14:04.
