data_PCOD8076601
_publ_section_title
;
Structure prediction by ZEFSAII (Michael W. Deem and Ramdas Pophale) SiO2 
 PCOD8076601
Probable space group: P 21/M
;
_chemical_formula_sum "Si O2"
_cell_formula_units_Z 28
_cell_length_a 9.131440
_cell_length_b 9.322597
_cell_length_c 26.655035
_cell_angle_alpha 90.000000
_cell_angle_beta 39.242106
_cell_angle_gamma 90.000000
_cell_volume 1435.435506
_symmetry_space_group_name_H-M "P 21/M"
_symmetry_group_IT_number 11
_symmetry_cell_setting 'monoclinic'
loop_
_space_group_symop_operation_xyz
x,y,z
-x,1/2+y,-z
-x,-y,-z
x,1/2-y,z
loop_
_atom_site_type_symbol
_atom_site_label
_atom_site_fract_x
_atom_site_fract_y
_atom_site_fract_z
Si Si1 0.671406 0.083656 0.990761
Si Si2 0.022557 0.414720 0.282715
Si Si3 0.325968 0.917121 0.709966
Si Si4 0.205529 0.081691 0.839227
Si Si5 0.436148 0.583305 0.868455
Si Si6 0.268811 0.410556 0.563237
Si Si7 0.794757 0.907905 0.534420
O O1 0.606515 0.250000 0.003443
O O2 0.933543 0.052291 0.905124
O O3 0.641869 0.032590 0.055832
O O4 0.500000 0.000000 0.000000
O O5 0.968371 0.250000 0.311515
O O6 0.905613 0.450473 0.260240
O O7 0.923428 0.515852 0.351809
O O8 0.292321 0.446041 0.207870
O O9 0.337481 0.750000 0.721819
O O10 0.542739 0.965977 0.617945
O O11 0.333924 0.010510 0.758082
O O12 0.261662 0.250000 0.825753
O O13 0.297447 0.012060 0.865833
O O14 0.376512 0.750000 0.874964
O O15 0.500000 0.500000 0.500000
O O16 0.319248 0.250000 0.570023
O O17 0.170831 0.404297 0.533734
O O18 0.822317 0.750000 0.550191
O O19 0.000000 0.000000 0.500000
#
# Coordination Sequence:
#
# PCOD8076601 Si02
#       7
#     4   4   4   4   4   4   4
#     4  10  22  41  65  92 121 157 199 241 290 348
#     4  10  21  39  62  87 115 151 201 248 291 351
#     4  10  21  41  62  83 116 159 201 240 292 357
#     4  11  24  39  59  91 126 155 194 246 294 343
#     4  10  22  40  63  89 119 160 199 236 292 356
#     4  11  22  39  61  87 117 153 197 246 299 351
#     4  10  23  40  59  84 116 155 199 245 296 353
#
# _framework density 19.506276
#
# number of rings (size 3 to 8) (size 9 to 14) (size 15 to 20)
#    0.000    1.714    1.429    2.143    2.000    5.714 
#    0.000    0.000    0.000    0.000    0.000    0.000 
#    0.000    0.000    0.000    0.000    0.000    0.000 
#
# Total GULP energy -347284.492860 kJ/mol
# GULP energy per Si atom -12403.017602 kJ/mol
# Density = 1.946188 g / cm^3
# Si number density = 19.506276 Si / 1000 Ang^3
#
#
#
# Elastic Constant Matrix: (Units=GPa)
#
#
# Indices 1 2 3 4 5 6 
#
# 1 117.8570 60.2123 30.9100 0.0000 4.3935 0.0000
# 2 60.2123 97.2874 47.5245 0.0000 5.3792 0.0000
# 3 30.9100 47.5245 86.9511 0.0000 16.8503 0.0000
# 4 0.0000 0.0000 0.0000 32.1604 0.0000 1.4370
# 5 4.3935 5.3792 16.8503 0.0000 35.9422 0.0000
# 6 0.0000 0.0000 0.0000 1.4370 0.0000 39.0847
#
#
#
# Elastic Compliance Matrix: (Units=1/GPa)
#
#
# Indices 1 2 3 4 5 6 
#
# 1 0.012416 -0.007557 -0.000229 0.000000 -0.000279 0.000000
# 2 -0.007557 0.018711 -0.007894 0.000000 0.001824 0.000000
# 3 -0.000229 -0.007894 0.017228 0.000000 -0.006867 0.000000
# 4 0.000000 0.000000 0.000000 0.031145 0.000000 -0.001145
# 5 -0.000279 0.001824 -0.006867 0.000000 0.030803 0.000000
# 6 0.000000 0.000000 0.000000 -0.001145 0.000000 0.025628
#
#
# Mechanical properties :
#
#
# Convention : Reuss Voigt Hill
#
# Bulk Modulus (GPa) = 58.84293 64.37659 61.60976
# Shear Modulus (GPa) = 28.90894 32.33402 30.62148
#
# Velocity S-wave (km/s) = 3.85389 4.07581 3.96640
# Velocity P-wave (km/s) = 7.07354 7.43130 7.25463
#
# Compressibility (1/GPa) = 0.01699440
#
# Stress axis : x y z
#
# Youngs Moduli (GPa) = 80.53933 53.44341 58.04632
#
# Poissons Ratio (x) = 0.40388 0.01331
# Poissons Ratio (y) = 0.60865 0.45822
# Poissons Ratio (z) = 0.01846 0.42188
#
# Static dielectric constant tensor:
#      x y z
#    x 3.594370 0.000000 0.060890 
#    y 0.000000 3.878970 0.000000 
#    z 0.060890 0.000000 3.625770 
# 
# 
# High freq. dielectric constant tensor:
#      x y z
#    x 1.765170 0.000000 0.000700 
#    y 0.000000 1.759290 0.000000 
#    z 0.000700 0.000000 1.771920 
# 
# From -- ./inp_files/28460.got.cif
#   From: 2010.06.25/outbox.cif.g09.slc.cpg/sg11_15_cif.got.tgz:28460.got - 2010.06.27 23:14:04.
