data_PCOD8076435
_publ_section_title
;
Structure prediction by ZEFSAII (Michael W. Deem and Ramdas Pophale) SiO2 
 PCOD8076435
Probable space group: P 21/M
;
_chemical_formula_sum "Si O2"
_cell_formula_units_Z 24
_cell_length_a 16.825140
_cell_length_b 9.152204
_cell_length_c 18.654159
_cell_angle_alpha 90.000000
_cell_angle_beta 25.007181
_cell_angle_gamma 90.000000
_cell_volume 1214.297276
_symmetry_space_group_name_H-M "P 21/M"
_symmetry_group_IT_number 11
_symmetry_cell_setting 'monoclinic'
loop_
_space_group_symop_operation_xyz
x,y,z
-x,1/2+y,-z
-x,-y,-z
x,1/2-y,z
loop_
_atom_site_type_symbol
_atom_site_label
_atom_site_fract_x
_atom_site_fract_y
_atom_site_fract_z
Si Si1 0.003970 0.581530 0.189295
Si Si2 0.579621 0.922651 0.504110
Si Si3 0.622701 0.417798 0.188374
Si Si4 0.684528 0.422905 0.821098
Si Si5 0.037359 0.082182 0.304561
Si Si6 0.357889 0.585380 0.306576
O O1 0.999116 0.750000 0.218475
O O2 0.797492 0.530999 0.333692
O O3 0.080638 0.484065 0.191637
O O4 0.151519 0.560199 0.002911
O O5 0.557530 0.750000 0.512763
O O6 0.457929 0.982296 0.671230
O O7 0.500000 0.000000 0.500000
O O8 0.564952 0.250000 0.232778
O O9 0.527659 0.488752 0.196631
O O10 0.675438 0.250000 0.842032
O O11 0.862294 0.489351 0.716171
O O12 0.705781 0.463419 0.720326
O O13 0.500000 0.500000 0.000000
O O14 0.107042 0.250000 0.250483
O O15 0.815639 0.069569 0.497822
O O16 0.433572 0.750000 0.242035
#
# Coordination Sequence:
#
# PCOD8076435 Si02
#       6
#     4   4   4   4   4   4
#     4  10  21  39  62  88 118 155 197 240 290 348
#     4  10  22  40  61  88 120 152 190 238 290 351
#     4  10  21  38  62  88 116 154 196 238 290 349
#     4  11  23  38  55  81 117 156 200 248 294 344
#     4  11  22  37  58  85 116 154 199 244 293 347
#     4  10  22  38  57  83 116 154 198 244 291 345
#
# _framework density 19.764519
#
# number of rings (size 3 to 8) (size 9 to 14) (size 15 to 20)
#    0.000    1.667    1.667    2.500    0.000    7.333 
#    0.000    0.000    0.000    0.000    0.000    0.000 
#    0.000    0.000    0.000    0.000    0.000    0.000 
#
# Total GULP energy -297657.987506 kJ/mol
# GULP energy per Si atom -12402.416146 kJ/mol
# Density = 1.971953 g / cm^3
# Si number density = 19.764519 Si / 1000 Ang^3
#
#
#
# Elastic Constant Matrix: (Units=GPa)
#
#
# Indices 1 2 3 4 5 6 
#
# 1 139.4401 54.8855 57.7774 0.0000 1.7325 0.0000
# 2 54.8855 75.5204 39.5386 0.0000 1.2992 0.0000
# 3 57.7774 39.5386 125.3615 0.0000 5.4674 0.0000
# 4 0.0000 0.0000 0.0000 20.3658 0.0000 -3.3102
# 5 1.7325 1.2992 5.4674 0.0000 22.8470 0.0000
# 6 0.0000 0.0000 0.0000 -3.3102 0.0000 39.8985
#
#
#
# Elastic Compliance Matrix: (Units=1/GPa)
#
#
# Indices 1 2 3 4 5 6 
#
# 1 0.010931 -0.006355 -0.003045 0.000000 0.000261 0.000000
# 2 -0.006355 0.019557 -0.003246 0.000000 0.000147 0.000000
# 3 -0.003045 -0.003246 0.010496 0.000000 -0.002096 0.000000
# 4 0.000000 0.000000 0.000000 0.049773 0.000000 0.004129
# 5 0.000261 0.000147 -0.002096 0.000000 0.044243 0.000000
# 6 0.000000 0.000000 0.000000 0.004129 0.000000 0.025406
#
#
# Mechanical properties :
#
#
# Convention : Reuss Voigt Hill
#
# Bulk Modulus (GPa) = 63.72583 71.63614 67.68099
# Shear Modulus (GPa) = 26.18792 29.16362 27.67577
#
# Velocity S-wave (km/s) = 3.64400 3.84546 3.74609
# Velocity P-wave (km/s) = 7.07231 7.48601 7.28209
#
# Compressibility (1/GPa) = 0.01569222
#
# Stress axis : x y z
#
# Youngs Moduli (GPa) = 91.47954 51.13373 95.27842
#
# Poissons Ratio (x) = 0.32494 0.29015
# Poissons Ratio (y) = 0.58132 0.30924
# Poissons Ratio (z) = 0.27858 0.16596
#
# Static dielectric constant tensor:
#      x y z
#    x 3.644830 0.000000 0.162230 
#    y 0.000000 4.311390 0.000000 
#    z 0.162230 0.000000 3.865550 
# 
# 
# High freq. dielectric constant tensor:
#      x y z
#    x 1.762900 0.000000 0.003570 
#    y 0.000000 1.767900 0.000000 
#    z 0.003570 0.000000 1.786470 
# 
# From -- ./inp_files/23776.got.cif
#   From: 2010.06.25/outbox.cif.g09.slc.cpg/sg11_12_cif.got.tgz:23776.got - 2010.06.27 23:14:04.
