data_PCOD8076296
_publ_section_title
;
Structure prediction by ZEFSAII (Michael W. Deem and Ramdas Pophale) SiO2 
 PCOD8076296
Probable space group: P 21/M
;
_chemical_formula_sum "Si O2"
_cell_formula_units_Z 24
_cell_length_a 21.122941
_cell_length_b 8.397504
_cell_length_c 9.909154
_cell_angle_alpha 90.000000
_cell_angle_beta 44.975016
_cell_angle_gamma 90.000000
_cell_volume 1242.329298
_symmetry_space_group_name_H-M "P 21/M"
_symmetry_group_IT_number 11
_symmetry_cell_setting 'monoclinic'
loop_
_space_group_symop_operation_xyz
x,y,z
-x,1/2+y,-z
-x,-y,-z
x,1/2-y,z
loop_
_atom_site_type_symbol
_atom_site_label
_atom_site_fract_x
_atom_site_fract_y
_atom_site_fract_z
Si Si1 0.575196 0.936894 0.485161
Si Si2 0.430331 0.562623 0.212837
Si Si3 0.898743 0.064272 0.516266
Si Si4 0.235247 0.566793 0.782706
Si Si5 0.237596 0.435759 0.491475
Si Si6 0.104416 0.433502 0.193888
O O1 0.586934 0.750000 0.450379
O O2 0.500000 0.000000 0.500000
O O3 0.548234 0.976809 0.678742
O O4 0.668085 0.020318 0.303486
O O5 0.440095 0.750000 0.217561
O O6 0.330776 0.520193 0.312894
O O7 0.500000 0.500000 0.000000
O O8 0.888762 0.250000 0.561663
O O9 0.001036 0.019969 0.328182
O O10 0.840415 0.013668 0.477602
O O11 0.865959 0.969719 0.697713
O O12 0.236442 0.750000 0.736036
O O13 0.213475 0.460900 0.684544
O O14 0.160762 0.541322 0.007801
O O15 0.245287 0.250000 0.448225
O O16 0.123426 0.250000 0.132780
#
# Coordination Sequence:
#
# PCOD8076296 Si02
#       6
#     4   4   4   4   4   4
#     4  11  22  39  60  85 115 148 187 231 280 332
#     4  11  22  39  60  85 115 148 187 231 280 332
#     4  10  21  38  59  84 114 148 187 232 281 333
#     4  11  22  38  59  84 114 149 188 231 280 332
#     4  11  22  38  59  84 114 149 188 231 280 332
#     4  10  21  38  59  84 114 148 187 232 281 333
#
# _framework density 19.318549000000001
#
# number of rings (size 3 to 8) (size 9 to 14) (size 15 to 20)
#    0.000    1.333    0.000    9.000    0.000    4.000 
#    0.000    6.667    0.000    0.000    0.000    0.000 
#    0.000    0.000    0.000    0.000    0.000    0.000 
#
# Total GULP energy -297752.583987 kJ/mol
# GULP energy per Si atom -12406.357666 kJ/mol
# Density = 1.927458 g / cm^3
# Si number density = 19.318549 Si / 1000 Ang^3
#
#
#
# Elastic Constant Matrix: (Units=GPa)
#
#
# Indices 1 2 3 4 5 6 
#
# 1 135.7689 11.1386 42.7597 0.0000 -0.4211 0.0000
# 2 11.1386 79.6271 23.3574 0.0000 -9.7855 0.0000
# 3 42.7597 23.3574 121.8269 0.0000 -7.2850 0.0000
# 4 0.0000 0.0000 0.0000 34.6345 0.0000 2.2653
# 5 -0.4211 -9.7855 -7.2850 0.0000 10.3299 0.0000
# 6 0.0000 0.0000 0.0000 2.2653 0.0000 34.4162
#
#
#
# Elastic Compliance Matrix: (Units=1/GPa)
#
#
# Indices 1 2 3 4 5 6 
#
# 1 0.008336 -0.000582 -0.002951 0.000000 -0.002293 0.000000
# 2 -0.000582 0.014739 -0.001867 0.000000 0.012622 0.000000
# 3 -0.002951 -0.001867 0.009907 0.000000 0.005098 0.000000
# 4 0.000000 0.000000 0.000000 0.028998 0.000000 -0.001909
# 5 -0.002293 0.012622 0.005098 0.000000 0.112265 0.000000
# 6 0.000000 0.000000 0.000000 -0.001909 0.000000 0.029182
#
#
# Mechanical properties :
#
#
# Convention : Reuss Voigt Hill
#
# Bulk Modulus (GPa) = 45.08337 54.63712 49.86025
# Shear Modulus (GPa) = 22.56125 33.20727 27.88426
#
# Velocity S-wave (km/s) = 3.42110 4.15050 3.80332
# Velocity P-wave (km/s) = 6.24441 7.16327 6.71957
#
# Compressibility (1/GPa) = 0.02218113
#
# Stress axis : x y z
#
# Youngs Moduli (GPa) = 119.96789 67.84893 100.93919
#
# Poissons Ratio (x) = 0.03950 0.29789
# Poissons Ratio (y) = 0.06983 0.18842
# Poissons Ratio (z) = 0.35405 0.12665
#
# Static dielectric constant tensor:
#      x y z
#    x 3.517100 0.000000 -0.045500 
#    y 0.000000 3.757910 0.000000 
#    z -0.045500 0.000000 3.474980 
# 
# 
# High freq. dielectric constant tensor:
#      x y z
#    x 1.754450 0.000000 -0.001500 
#    y 0.000000 1.773540 0.000000 
#    z -0.001500 0.000000 1.752660 
# 
# From -- ./inp_files/25742.got.cif
#   From: 2010.06.25/outbox.cif.g09.slc.cpg/sg11_13_cif.got.tgz:25742.got - 2010.06.27 23:14:04.
