data_PCOD8076436
_publ_section_title
;
Structure prediction by ZEFSAII (Michael W. Deem and Ramdas Pophale) SiO2 
 PCOD8076436
Probable space group: P 21/M
;
_chemical_formula_sum "Si O2"
_cell_formula_units_Z 32
_cell_length_a 14.341499
_cell_length_b 18.390099
_cell_length_c 11.416993
_cell_angle_alpha 90.000000
_cell_angle_beta 31.665455
_cell_angle_gamma 90.000000
_cell_volume 1580.721601
_symmetry_space_group_name_H-M "P 21/M"
_symmetry_group_IT_number 11
_symmetry_cell_setting 'monoclinic'
loop_
_space_group_symop_operation_xyz
x,y,z
-x,1/2+y,-z
-x,-y,-z
x,1/2-y,z
loop_
_atom_site_type_symbol
_atom_site_label
_atom_site_fract_x
_atom_site_fract_y
_atom_site_fract_z
Si Si1 0.589295 0.427421 0.357744
Si Si2 0.149162 0.834960 0.305018
Si Si3 0.318202 0.907859 0.491082
Si Si4 0.439916 0.331147 0.134603
Si Si5 0.356192 0.331959 0.964040
Si Si6 0.984529 0.912523 0.701015
Si Si7 0.073912 0.928550 0.167156
Si Si8 0.691648 0.922926 0.515244
O O1 0.500000 0.500000 0.500000
O O2 0.659303 0.383874 0.396655
O O3 0.432795 0.385630 0.452270
O O4 0.756424 0.442224 0.095401
O O5 0.098165 0.750000 0.370896
O O6 0.102126 0.861274 0.224382
O O7 0.043714 0.881663 0.512751
O O8 0.355483 0.849180 0.107384
O O9 0.450339 0.860819 0.272992
O O10 0.119950 0.889645 0.659376
O O11 0.361368 0.992487 0.424188
O O12 0.421538 0.250000 0.207668
O O13 0.353241 0.389534 0.311705
O O14 0.331629 0.336652 0.129988
O O15 0.338563 0.250000 0.937915
O O16 0.205387 0.378971 0.061286
O O17 0.965637 0.999549 0.713925
O O18 0.902347 0.912298 0.267349
#
# Coordination Sequence:
#
# PCOD8076436 Si02
#       8
#     4   4   4   4   4   4   4   4
#     4  10  21  40  62  86 120 160 200 252 299 347
#     4  11  22  39  62  89 126 163 192 242 306 364
#     4  10  23  39  60  88 118 158 199 251 296 350
#     4  10  21  38  62  88 120 160 197 240 303 365
#     4  11  23  39  61  86 119 162 198 242 302 363
#     4  11  22  38  61  93 123 155 198 247 299 357
#     4  11  23  39  63  94 120 157 204 248 300 357
#     4  10  21  38  63  90 116 153 197 249 300 351
#
# _framework density 20.243917
#
# number of rings (size 3 to 8) (size 9 to 14) (size 15 to 20)
#    0.000    1.500    2.500    3.000    0.000    9.000 
#    0.000    1.250    0.000    1.500    0.000    0.000 
#    0.000    0.000    0.000    0.000    0.000    0.000 
#
# Total GULP energy -396770.010640 kJ/mol
# GULP energy per Si atom -12399.062832 kJ/mol
# Density = 2.019784 g / cm^3
# Si number density = 20.243917 Si / 1000 Ang^3
#
#
#
# Elastic Constant Matrix: (Units=GPa)
#
#
# Indices 1 2 3 4 5 6 
#
# 1 128.8041 35.6738 51.1162 0.0000 -16.2810 0.0000
# 2 35.6738 62.4923 29.7738 0.0000 -3.8887 0.0000
# 3 51.1162 29.7738 94.0018 0.0000 -9.3015 0.0000
# 4 0.0000 0.0000 0.0000 8.5264 0.0000 -5.8039
# 5 -16.2810 -3.8887 -9.3015 0.0000 40.9347 0.0000
# 6 0.0000 0.0000 0.0000 -5.8039 0.0000 18.4631
#
#
#
# Elastic Compliance Matrix: (Units=1/GPa)
#
#
# Indices 1 2 3 4 5 6 
#
# 1 0.011002 -0.003986 -0.004424 0.000000 0.002992 0.000000
# 2 -0.003986 0.020298 -0.004325 0.000000 -0.000640 0.000000
# 3 -0.004424 -0.004325 0.014525 0.000000 0.001130 0.000000
# 4 0.000000 0.000000 0.000000 0.149211 0.000000 0.046904
# 5 0.002992 -0.000640 0.001130 0.000000 0.025815 0.000000
# 6 0.000000 0.000000 0.000000 0.046904 0.000000 0.068906
#
#
# Mechanical properties :
#
#
# Convention : Reuss Voigt Hill
#
# Bulk Modulus (GPa) = 49.12743 57.60284 53.36513
# Shear Modulus (GPa) = 15.52736 24.83381 20.18058
#
# Velocity S-wave (km/s) = 2.77251 3.50627 3.16075
# Velocity P-wave (km/s) = 5.87958 6.70135 6.30387
#
# Compressibility (1/GPa) = 0.02035523
#
# Stress axis : x y z
#
# Youngs Moduli (GPa) = 90.89631 49.26514 68.84551
#
# Poissons Ratio (x) = 0.19639 0.30455
# Poissons Ratio (y) = 0.36235 0.29774
# Poissons Ratio (z) = 0.40210 0.21306
#
# Static dielectric constant tensor:
#      x y z
#    x 4.224690 0.000000 -0.251720 
#    y 0.000000 3.501820 0.000000 
#    z -0.251720 0.000000 3.648140 
# 
# 
# High freq. dielectric constant tensor:
#      x y z
#    x 1.804400 0.000000 -0.021830 
#    y 0.000000 1.768520 0.000000 
#    z -0.021830 0.000000 1.792510 
# 
# From -- ./inp_files/39963.got.cif
#   From: 2010.06.25/outbox.cif.g09.slc.cpg/sg11_20_cif.got.tgz:39963.got - 2010.06.27 23:14:04.
