data_PCOD8076312
_publ_section_title
;
Structure prediction by ZEFSAII (Michael W. Deem and Ramdas Pophale) SiO2 
 PCOD8076312
Probable space group: P 21/M
;
_chemical_formula_sum "Si O2"
_cell_formula_units_Z 24
_cell_length_a 14.817218
_cell_length_b 9.160245
_cell_length_c 9.298180
_cell_angle_alpha 90.000000
_cell_angle_beta 81.069145
_cell_angle_gamma 90.000000
_cell_volume 1246.735492
_symmetry_space_group_name_H-M "P 21/M"
_symmetry_group_IT_number 11
_symmetry_cell_setting 'monoclinic'
loop_
_space_group_symop_operation_xyz
x,y,z
-x,1/2+y,-z
-x,-y,-z
x,1/2-y,z
loop_
_atom_site_type_symbol
_atom_site_label
_atom_site_fract_x
_atom_site_fract_y
_atom_site_fract_z
Si Si1 0.235489 0.575870 0.038186
Si Si2 0.549213 0.912537 0.610205
Si Si3 0.746481 0.921799 0.667348
Si Si4 0.564977 0.089378 0.081594
Si Si5 0.079582 0.419221 0.564990
Si Si6 0.917893 0.575979 0.101903
O O1 0.216674 0.750000 0.041789
O O2 0.223386 0.515005 0.202032
O O3 0.333145 0.528491 0.951104
O O4 0.171783 0.491499 0.944118
O O5 0.569179 0.750000 0.548650
O O6 0.646717 0.978074 0.638304
O O7 0.472599 0.912720 0.749928
O O8 0.500000 0.000000 0.500000
O O9 0.742204 0.750000 0.708664
O O10 0.820827 0.954424 0.525674
O O11 0.565959 0.250000 0.014733
O O12 0.500000 0.000000 0.000000
O O13 0.057193 0.250000 0.555860
O O14 0.079183 0.467530 0.731129
O O15 0.000000 0.500000 0.500000
O O16 0.920903 0.750000 0.079524
O O17 0.000000 0.500000 0.000000
#
# Coordination Sequence:
#
# PCOD8076312 Si02
#       6
#     4   4   4   4   4   4
#     4  11  23  38  60  91 122 155 198 244 293 350
#     4  10  22  38  58  85 119 157 199 246 293 347
#     4  10  21  40  62  85 117 157 199 242 296 352
#     4  10  21  38  59  86 119 157 201 244 290 345
#     4  10  23  41  62  88 116 151 192 237 291 350
#     4  11  24  42  64  90 120 154 195 242 294 352
#
# _framework density 19.250274999999998
#
# number of rings (size 3 to 8) (size 9 to 14) (size 15 to 20)
#    0.000    1.667    1.667    2.000    2.333    6.667 
#    0.000    0.000    0.000    0.000    0.000    0.000 
#    0.000    0.000    0.000    0.000    0.000    0.000 
#
# Total GULP energy -297571.883239 kJ/mol
# GULP energy per Si atom -12398.828468 kJ/mol
# Density = 1.920646 g / cm^3
# Si number density = 19.250275 Si / 1000 Ang^3
#
#
#
# Elastic Constant Matrix: (Units=GPa)
#
#
# Indices 1 2 3 4 5 6 
#
# 1 159.3520 61.4790 84.7072 0.0000 4.7010 0.0000
# 2 61.4790 81.3314 63.0111 0.0000 12.2163 0.0000
# 3 84.7072 63.0111 141.8232 0.0000 7.1747 0.0000
# 4 0.0000 0.0000 0.0000 33.4620 0.0000 5.8292
# 5 4.7010 12.2163 7.1747 0.0000 45.0131 0.0000
# 6 0.0000 0.0000 0.0000 5.8292 0.0000 38.7808
#
#
#
# Elastic Compliance Matrix: (Units=1/GPa)
#
#
# Indices 1 2 3 4 5 6 
#
# 1 0.010225 -0.004717 -0.004055 0.000000 0.000859 0.000000
# 2 -0.004717 0.021589 -0.006556 0.000000 -0.004322 0.000000
# 3 -0.004055 -0.006556 0.012374 0.000000 0.000230 0.000000
# 4 0.000000 0.000000 0.000000 0.030688 0.000000 -0.004613
# 5 0.000859 -0.004322 0.000230 0.000000 0.023262 0.000000
# 6 0.000000 0.000000 0.000000 -0.004613 0.000000 0.026479
#
#
# Mechanical properties :
#
#
# Convention : Reuss Voigt Hill
#
# Bulk Modulus (GPa) = 73.89437 88.98903 81.44170
# Shear Modulus (GPa) = 31.29187 35.00514 33.14850
#
# Velocity S-wave (km/s) = 4.03616 4.26892 4.15417
# Velocity P-wave (km/s) = 7.75824 8.40393 8.08753
#
# Compressibility (1/GPa) = 0.01353283
#
# Stress axis : x y z
#
# Youngs Moduli (GPa) = 97.79501 46.31933 80.81250
#
# Poissons Ratio (x) = 0.21847 0.32771
# Poissons Ratio (y) = 0.46127 0.52982
# Poissons Ratio (z) = 0.39658 0.30368
#
# Static dielectric constant tensor:
#      x y z
#    x 3.734670 0.000000 0.080220 
#    y 0.000000 3.646000 0.000000 
#    z 0.080220 0.000000 3.294640 
# 
# 
# High freq. dielectric constant tensor:
#      x y z
#    x 1.768590 0.000000 -0.006150 
#    y 0.000000 1.749510 0.000000 
#    z -0.006150 0.000000 1.756040 
# 
# From -- ./inp_files/20319.got.cif
#   From: 2010.06.25/outbox.cif.g09.slc.cpg/sg11_11_cif.got.tgz:20319.got - 2010.06.27 23:14:04.
