data_PCOD8076827
_publ_section_title
;
Structure prediction by ZEFSAII (Michael W. Deem and Ramdas Pophale) SiO2 
 PCOD8076827
Probable space group: P 21/M
;
_chemical_formula_sum "Si O2"
_cell_formula_units_Z 24
_cell_length_a 14.630728
_cell_length_b 13.662405
_cell_length_c 8.990174
_cell_angle_alpha 90.000000
_cell_angle_beta 40.602621
_cell_angle_gamma 90.000000
_cell_volume 1169.538991
_symmetry_space_group_name_H-M "P 21/M"
_symmetry_group_IT_number 11
_symmetry_cell_setting 'monoclinic'
loop_
_space_group_symop_operation_xyz
x,y,z
-x,1/2+y,-z
-x,-y,-z
x,1/2-y,z
loop_
_atom_site_type_symbol
_atom_site_label
_atom_site_fract_x
_atom_site_fract_y
_atom_site_fract_z
Si Si1 0.345937 0.639051 0.382348
Si Si2 0.214744 0.137044 0.394087
Si Si3 0.469571 0.862347 0.917201
Si Si4 0.424057 0.473801 0.743773
Si Si5 0.923077 0.021927 0.248467
Si Si6 0.156202 0.364222 0.122216
O O1 0.312185 0.750000 0.466287
O O2 0.494234 0.610937 0.270219
O O3 0.225709 0.572079 0.601154
O O4 0.360015 0.625772 0.187512
O O5 0.198419 0.250000 0.455985
O O6 0.374862 0.101567 0.225380
O O7 0.173813 0.117196 0.275071
O O8 0.104667 0.079850 0.633032
O O9 0.475710 0.750000 0.856158
O O10 0.410958 0.927459 0.856135
O O11 0.500000 0.500000 0.500000
O O12 0.272713 0.428325 0.892155
O O13 0.007144 0.096299 0.250568
O O14 0.000000 0.000000 0.000000
O O15 0.170048 0.250000 0.064572
#
# Coordination Sequence:
#
# PCOD8076827 Si02
#       6
#     4   4   4   4   4   4
#     4  11  22  41  67  90 122 165 217 260 305 372
#     4  10  21  41  68  94 123 168 216 261 310 368
#     4  10  21  40  68  97 123 164 215 265 312 365
#     4  12  23  39  62  96 128 165 204 260 321 373
#     4  12  25  42  61  96 130 172 205 255 320 378
#     4  11  24  42  64  92 128 167 213 260 312 372
#
# _framework density 20.520904999999999
#
# number of rings (size 3 to 8) (size 9 to 14) (size 15 to 20)
#    0.000    1.000    3.333    4.000    0.000    2.667 
#    0.000    2.500    0.000    0.000    0.000    0.000 
#    0.000    0.000    0.000    0.000    0.000    0.000 
#
# Total GULP energy -297742.159036 kJ/mol
# GULP energy per Si atom -12405.923293 kJ/mol
# Density = 2.047420 g / cm^3
# Si number density = 20.520905 Si / 1000 Ang^3
#
#
#
# Elastic Constant Matrix: (Units=GPa)
#
#
# Indices 1 2 3 4 5 6 
#
# 1 38.1106 21.1911 7.3573 0.0000 -9.1433 0.0000
# 2 21.1911 109.7532 49.6359 0.0000 6.0376 0.0000
# 3 7.3573 49.6359 113.8066 0.0000 6.8797 0.0000
# 4 0.0000 0.0000 0.0000 34.9187 0.0000 -13.0762
# 5 -9.1433 6.0376 6.8797 0.0000 30.1475 0.0000
# 6 0.0000 0.0000 0.0000 -13.0762 0.0000 22.7761
#
#
#
# Elastic Compliance Matrix: (Units=1/GPa)
#
#
# Indices 1 2 3 4 5 6 
#
# 1 0.032843 -0.007093 0.000286 0.000000 0.011316 0.000000
# 2 -0.007093 0.012922 -0.004959 0.000000 -0.003608 0.000000
# 3 0.000286 -0.004959 0.011018 0.000000 -0.001434 0.000000
# 4 0.000000 0.000000 0.000000 0.036481 0.000000 0.020945
# 5 0.011316 -0.003608 -0.001434 0.000000 0.037652 0.000000
# 6 0.000000 0.000000 0.000000 0.020945 0.000000 0.055930
#
#
# Mechanical properties :
#
#
# Convention : Reuss Voigt Hill
#
# Bulk Modulus (GPa) = 30.07430 46.44879 38.26155
# Shear Modulus (GPa) = 22.57711 29.80087 26.18899
#
# Velocity S-wave (km/s) = 3.32053 3.81493 3.57628
# Velocity P-wave (km/s) = 5.42111 6.48760 5.97819
#
# Compressibility (1/GPa) = 0.03325098
#
# Stress axis : x y z
#
# Youngs Moduli (GPa) = 30.44758 77.38593 90.76075
#
# Poissons Ratio (x) = 0.54893 -0.02600
# Poissons Ratio (y) = 0.21598 0.45011
# Poissons Ratio (z) = -0.00872 0.38378
#
# Static dielectric constant tensor:
#      x y z
#    x 3.741680 0.000000 -0.035840 
#    y 0.000000 3.865080 0.000000 
#    z -0.035840 0.000000 3.642710 
# 
# 
# High freq. dielectric constant tensor:
#      x y z
#    x 1.792910 0.000000 -0.003500 
#    y 0.000000 1.820220 0.000000 
#    z -0.003500 0.000000 1.802530 
# 
# From -- ./inp_files/21983.got.cif
#   From: 2010.06.25/outbox.cif.g09.slc.cpg/sg11_11_cif.got.tgz:21983.got - 2010.06.27 23:14:04.
