data_PCOD8076506
_publ_section_title
;
Structure prediction by ZEFSAII (Michael W. Deem and Ramdas Pophale) SiO2 
 PCOD8076506
Probable space group: P 21/M
;
_chemical_formula_sum "Si O2"
_cell_formula_units_Z 28
_cell_length_a 5.046105
_cell_length_b 19.332389
_cell_length_c 13.369679
_cell_angle_alpha 90.000000
_cell_angle_beta 68.879992
_cell_angle_gamma 90.000000
_cell_volume 1216.646056
_symmetry_space_group_name_H-M "P 21/M"
_symmetry_group_IT_number 11
_symmetry_cell_setting 'monoclinic'
loop_
_space_group_symop_operation_xyz
x,y,z
-x,1/2+y,-z
-x,-y,-z
x,1/2-y,z
loop_
_atom_site_type_symbol
_atom_site_label
_atom_site_fract_x
_atom_site_fract_y
_atom_site_fract_z
Si Si1 0.653083 0.750000 0.403784
Si Si2 0.989237 0.250000 0.446194
Si Si3 0.738133 0.886230 0.613863
Si Si4 0.697850 0.328405 0.191126
Si Si5 0.330891 0.170883 0.052796
Si Si6 0.672495 0.028541 0.702852
Si Si7 0.306894 0.465418 0.945558
Si Si8 0.759088 0.897223 0.373507
O O1 0.818980 0.750000 0.483435
O O2 0.727998 0.819461 0.331975
O O3 0.329372 0.750000 0.477765
O O4 0.060254 0.321866 0.378045
O O5 0.423768 0.873484 0.701217
O O6 0.728755 0.895053 0.496642
O O7 0.836561 0.958223 0.649851
O O8 0.601959 0.250000 0.223994
O O9 0.575353 0.350901 0.098596
O O10 0.033723 0.336808 0.150497
O O11 0.373941 0.250000 0.007534
O O12 0.318443 0.117789 0.961240
O O13 0.435761 0.018357 0.819945
O O14 0.502373 0.057438 0.630534
O O15 0.928919 0.078016 0.703156
O O16 0.500000 0.500000 0.000000
O O17 0.000000 0.500000 0.000000
#
# Coordination Sequence:
#
# PCOD8076506 Si02
#       8
#     2   2   4   4   4   4   4   4
#     4  10  22  44  64  84 127 176 225 270 300 378
#     4  10  22  36  62  92 121 174 221 254 332 372
#     4  11  22  41  64  97 139 172 214 271 324 393
#     4  10  21  38  65 101 128 167 217 268 333 389
#     4  10  22  41  64  94 130 167 219 279 331 391
#     4  12  26  42  67  99 133 175 225 266 336 399
#     4  12  25  46  71  97 133 173 222 279 342 393
#     4  11  25  44  63  96 133 181 221 267 321 392
#
# _framework density 23.014089999999999
#
# number of rings (size 3 to 8) (size 9 to 14) (size 15 to 20)
#    0.000    1.143    0.714    6.000    0.000    6.857 
#    2.571    0.000    0.000    0.000    0.000    0.000 
#    0.000    0.000    0.000    0.000    0.000    0.000 
#
# Total GULP energy -347135.767473 kJ/mol
# GULP energy per Si atom -12397.705981 kJ/mol
# Density = 2.296171 g / cm^3
# Si number density = 23.014090 Si / 1000 Ang^3
#
#
#
# Elastic Constant Matrix: (Units=GPa)
#
#
# Indices 1 2 3 4 5 6 
#
# 1 118.4109 44.8671 17.0597 0.0000 -24.9017 0.0000
# 2 44.8671 164.7344 56.2395 0.0000 -15.1184 0.0000
# 3 17.0597 56.2395 68.9033 0.0000 -1.5312 0.0000
# 4 0.0000 0.0000 0.0000 37.4981 0.0000 -4.4132
# 5 -24.9017 -15.1184 -1.5312 0.0000 23.5064 0.0000
# 6 0.0000 0.0000 0.0000 -4.4132 0.0000 25.5764
#
#
#
# Elastic Compliance Matrix: (Units=1/GPa)
#
#
# Indices 1 2 3 4 5 6 
#
# 1 0.011612 -0.001727 -0.001219 0.000000 0.011111 0.000000
# 2 -0.001727 0.009295 -0.007077 0.000000 0.003688 0.000000
# 3 -0.001219 -0.007077 0.020491 0.000000 -0.004508 0.000000
# 4 0.000000 0.000000 0.000000 0.027221 0.000000 0.004697
# 5 0.011111 0.003688 -0.004508 0.000000 0.056390 0.000000
# 6 0.000000 0.000000 0.000000 0.004697 0.000000 0.039909
#
#
# Mechanical properties :
#
#
# Convention : Reuss Voigt Hill
#
# Bulk Modulus (GPa) = 46.83261 65.37569 56.10415
# Shear Modulus (GPa) = 26.03057 32.90833 29.46945
#
# Velocity S-wave (km/s) = 3.36679 3.78553 3.58228
# Velocity P-wave (km/s) = 5.95881 6.89750 6.44526
#
# Compressibility (1/GPa) = 0.02135265
#
# Stress axis : x y z
#
# Youngs Moduli (GPa) = 86.12044 107.58026 48.80117
#
# Poissons Ratio (x) = 0.18578 0.05947
# Poissons Ratio (y) = 0.14872 0.34539
# Poissons Ratio (z) = 0.10494 0.76140
#
# Static dielectric constant tensor:
#      x y z
#    x 4.299470 0.000000 0.247540 
#    y 0.000000 5.400130 0.000000 
#    z 0.247540 0.000000 4.226140 
# 
# 
# High freq. dielectric constant tensor:
#      x y z
#    x 1.912780 0.000000 -0.009900 
#    y 0.000000 1.934560 0.000000 
#    z -0.009900 0.000000 1.881580 
# 
# From -- ./inp_files/46005.got.cif
#   From: 2010.06.25/outbox.cif.g09.slc.cpg/sg11_24_cif.got.tgz:46005.got - 2010.06.27 23:14:04.
