data_PCOD8076937
_publ_section_title
;
Structure prediction by ZEFSAII (Michael W. Deem and Ramdas Pophale) SiO2 
 PCOD8076937
Probable space group: P 21/M
;
_chemical_formula_sum "Si O2"
_cell_formula_units_Z 32
_cell_length_a 11.757377
_cell_length_b 18.124723
_cell_length_c 14.110162
_cell_angle_alpha 90.000000
_cell_angle_beta 151.027708
_cell_angle_gamma 90.000000
_cell_volume 1456.484756
_symmetry_space_group_name_H-M "P 21/M"
_symmetry_group_IT_number 11
_symmetry_cell_setting 'monoclinic'
loop_
_space_group_symop_operation_xyz
x,y,z
-x,1/2+y,-z
-x,-y,-z
x,1/2-y,z
loop_
_atom_site_type_symbol
_atom_site_label
_atom_site_fract_x
_atom_site_fract_y
_atom_site_fract_z
Si Si1 0.487633 0.531274 0.859149
Si Si2 0.393836 0.881961 0.966422
Si Si3 0.982123 0.569808 0.162129
Si Si4 0.126088 0.162705 0.396381
Si Si5 0.710897 0.558870 0.647238
Si Si6 0.255217 0.890058 0.538960
Si Si7 0.723944 0.832943 0.831663
Si Si8 0.153413 0.330818 0.631487
O O1 0.474820 0.447557 0.880908
O O2 0.373516 0.536611 0.671396
O O3 0.350706 0.589135 0.828049
O O4 0.756180 0.556046 0.061030
O O5 0.597727 0.821808 0.131120
O O6 0.148926 0.852186 0.828563
O O7 0.055515 0.491207 0.170446
O O8 0.189735 0.596854 0.382279
O O9 0.929713 0.632664 0.046589
O O10 0.182216 0.250000 0.419020
O O11 0.282298 0.108479 0.443954
O O12 0.181112 0.138306 0.544469
O O13 0.500000 0.500000 0.500000
O O14 0.699254 0.617499 0.721766
O O15 0.468106 0.830307 0.696921
O O16 0.029034 0.873902 0.436416
O O17 0.800846 0.750000 0.861788
O O18 0.043384 0.250000 0.539783
#
# Coordination Sequence:
#
# PCOD8076937 Si02
#       8
#     4   4   4   4   4   4   4   4
#     4  10  22  36  65 100 131 181 220 274 331 408
#     4  11  21  38  63  94 140 179 225 267 334 411
#     4  11  23  44  70 100 133 177 229 281 341 412
#     4  11  25  45  68 100 141 184 228 284 349 417
#     4  12  25  49  76  96 132 183 235 295 350 404
#     4  11  22  42  67 101 139 177 222 276 342 406
#     4  11  26  46  70 101 135 177 231 290 349 408
#     4  11  24  39  62  98 140 182 219 268 339 419
#
# _framework density 21.970707000000001
#
# number of rings (size 3 to 8) (size 9 to 14) (size 15 to 20)
#    0.000    1.000    5.000    1.500    1.750    1.500 
#    2.250    0.000    0.000    0.000    0.000    0.000 
#    0.000    0.000    0.000    0.000    0.000    0.000 
#
# Total GULP energy -396536.608380 kJ/mol
# GULP energy per Si atom -12391.769012 kJ/mol
# Density = 2.192070 g / cm^3
# Si number density = 21.970707 Si / 1000 Ang^3
#
#
#
# Elastic Constant Matrix: (Units=GPa)
#
#
# Indices 1 2 3 4 5 6 
#
# 1 94.3338 59.1060 34.1901 0.0000 -12.1979 0.0000
# 2 59.1060 125.7830 28.8639 0.0000 -4.0729 0.0000
# 3 34.1901 28.8639 98.1875 0.0000 -15.4922 0.0000
# 4 0.0000 0.0000 0.0000 19.2901 0.0000 -2.5165
# 5 -12.1979 -4.0729 -15.4922 0.0000 31.1263 0.0000
# 6 0.0000 0.0000 0.0000 -2.5165 0.0000 33.3633
#
#
#
# Elastic Compliance Matrix: (Units=1/GPa)
#
#
# Indices 1 2 3 4 5 6 
#
# 1 0.016611 -0.006963 -0.003097 0.000000 0.004057 0.000000
# 2 -0.006963 0.011445 -0.001231 0.000000 -0.001844 0.000000
# 3 -0.003097 -0.001231 0.012380 0.000000 0.004787 0.000000
# 4 0.000000 0.000000 0.000000 0.052355 0.000000 0.003949
# 5 0.004057 -0.001844 0.004787 0.000000 0.035858 0.000000
# 6 0.000000 0.000000 0.000000 0.003949 0.000000 0.030271
#
#
# Mechanical properties :
#
#
# Convention : Reuss Voigt Hill
#
# Bulk Modulus (GPa) = 56.01028 62.51378 59.26203
# Shear Modulus (GPa) = 26.67328 29.83224 28.25276
#
# Velocity S-wave (km/s) = 3.48809 3.68886 3.58987
# Velocity P-wave (km/s) = 6.46304 6.83071 6.64941
#
# Compressibility (1/GPa) = 0.01785387
#
# Stress axis : x y z
#
# Youngs Moduli (GPa) = 60.20224 87.37417 80.77489
#
# Poissons Ratio (x) = 0.60842 0.25015
# Poissons Ratio (y) = 0.41921 0.09940
# Poissons Ratio (z) = 0.18644 0.10753
#
# Static dielectric constant tensor:
#      x y z
#    x 4.028660 0.000000 0.049240 
#    y 0.000000 4.021640 0.000000 
#    z 0.049240 0.000000 3.856380 
# 
# 
# High freq. dielectric constant tensor:
#      x y z
#    x 1.862050 0.000000 0.000170 
#    y 0.000000 1.861580 0.000000 
#    z 0.000170 0.000000 1.867510 
# 
# From -- ./inp_files/50710.got.cif
#   From: 2010.06.25/outbox.cif.g09.slc.cpg/sg11_26_cif.got.tgz:50710.got - 2010.06.27 23:14:04.
