data_PCOD8076713
_publ_section_title
;
Structure prediction by ZEFSAII (Michael W. Deem and Ramdas Pophale) SiO2 
 PCOD8076713
Probable space group: P 21/M
;
_chemical_formula_sum "Si O2"
_cell_formula_units_Z 16
_cell_length_a 6.757171
_cell_length_b 23.586606
_cell_length_c 4.886371
_cell_angle_alpha 90.000000
_cell_angle_beta 71.096242
_cell_angle_gamma 90.000000
_cell_volume 736.779219
_symmetry_space_group_name_H-M "P 21/M"
_symmetry_group_IT_number 11
_symmetry_cell_setting 'monoclinic'
loop_
_space_group_symop_operation_xyz
x,y,z
-x,1/2+y,-z
-x,-y,-z
x,1/2-y,z
loop_
_atom_site_type_symbol
_atom_site_label
_atom_site_fract_x
_atom_site_fract_y
_atom_site_fract_z
Si Si1 0.083203 0.690230 0.994783
Si Si2 0.717448 0.750000 0.938931
Si Si3 0.908946 0.070755 0.750780
Si Si4 0.571997 0.250000 0.428977
Si Si5 0.264856 0.512430 0.673607
O O1 0.092188 0.750000 0.167408
O O2 0.092833 0.637251 0.190074
O O3 0.862492 0.693519 0.924513
O O4 0.284473 0.693660 0.697420
O O5 0.511495 0.750000 0.224416
O O6 0.635704 0.750000 0.666786
O O7 0.836952 0.061075 0.472265
O O8 0.747960 0.036235 0.014086
O O9 0.141097 0.046567 0.696290
O O10 0.500000 0.500000 0.500000
#
# Coordination Sequence:
#
# PCOD8076713 Si02
#       5
#     4   2   4   2   4
#     4   8  22  37  58  86 117 150 187 236 286 343
#     4   9  20  37  54  80 114 147 188 219 280 334
#     4  10  21  40  56  88 115 147 192 241 280 344
#     4   9  20  35  52  78 110 149 182 225 274 340
#     4  10  22  38  62  83 114 152 195 236 289 328
#
# _framework density 21.716141
#
# number of rings (size 3 to 8) (size 9 to 14) (size 15 to 20)
#    1.500    1.000    0.000    0.750    0.000   12.000 
#    0.000    0.000    0.000    0.000    0.000    0.000 
#    0.000    0.000    0.000    0.000    0.000    0.000 
#
# Total GULP energy -198236.106098 kJ/mol
# GULP energy per Si atom -12389.756631 kJ/mol
# Density = 2.166671 g / cm^3
# Si number density = 21.716141 Si / 1000 Ang^3
#
#
#
# Elastic Constant Matrix: (Units=GPa)
#
#
# Indices 1 2 3 4 5 6 
#
# 1 58.5828 24.8934 27.7951 0.0000 -29.0902 0.0000
# 2 24.8934 77.6171 -7.9124 0.0000 -12.0790 0.0000
# 3 27.7951 -7.9124 57.9841 0.0000 -18.9040 0.0000
# 4 0.0000 0.0000 0.0000 11.2558 0.0000 -0.2240
# 5 -29.0902 -12.0790 -18.9040 0.0000 42.5825 0.0000
# 6 0.0000 0.0000 0.0000 -0.2240 0.0000 13.8905
#
#
#
# Elastic Compliance Matrix: (Units=1/GPa)
#
#
# Indices 1 2 3 4 5 6 
#
# 1 0.035433 -0.010346 -0.013402 0.000000 0.015322 0.000000
# 2 -0.010346 0.017178 0.007703 0.000000 0.001224 0.000000
# 3 -0.013402 0.007703 0.026248 0.000000 0.004682 0.000000
# 4 0.000000 0.000000 0.000000 0.088871 0.000000 0.001433
# 5 0.015322 0.001224 0.004682 0.000000 0.036377 0.000000
# 6 0.000000 0.000000 0.000000 0.001433 0.000000 0.072015
#
#
# Mechanical properties :
#
#
# Convention : Reuss Voigt Hill
#
# Bulk Modulus (GPa) = 21.38190 31.52626 26.45408
# Shear Modulus (GPa) = 15.44163 23.50630 19.47396
#
# Velocity S-wave (km/s) = 2.66948 3.29361 2.99783
# Velocity P-wave (km/s) = 4.40102 5.38635 4.91842
#
# Compressibility (1/GPa) = 0.04676852
#
# Stress axis : x y z
#
# Youngs Moduli (GPa) = 28.22246 58.21530 38.09851
#
# Poissons Ratio (x) = 0.60228 0.51058
# Poissons Ratio (y) = 0.29198 -0.29345
# Poissons Ratio (z) = 0.37822 -0.44840
#
# Static dielectric constant tensor:
#      x y z
#    x 3.811280 0.000000 -0.122530 
#    y 0.000000 3.518200 0.000000 
#    z -0.122530 0.000000 3.816900 
# 
# 
# High freq. dielectric constant tensor:
#      x y z
#    x 1.853590 0.000000 -0.010500 
#    y 0.000000 1.824520 0.000000 
#    z -0.010500 0.000000 1.853540 
# 
# From -- ./inp_files/554.got.cif
#   From: 2010.06.25/outbox.cif.g09.slc.cpg/sg11_1_cif.got.tgz:554.got - 2010.06.27 23:14:04.
