data_PCOD8076011
_publ_section_title
;
Structure prediction by ZEFSAII (Michael W. Deem and Ramdas Pophale) SiO2 
 PCOD8076011
Probable space group: P 21/M
;
_chemical_formula_sum "Si O2"
_cell_formula_units_Z 24
_cell_length_a 12.651827
_cell_length_b 8.760396
_cell_length_c 11.758603
_cell_angle_alpha 90.000000
_cell_angle_beta 90.115286
_cell_angle_gamma 90.000000
_cell_volume 1303.262297
_symmetry_space_group_name_H-M "P 21/M"
_symmetry_group_IT_number 11
_symmetry_cell_setting 'monoclinic'
loop_
_space_group_symop_operation_xyz
x,y,z
-x,1/2+y,-z
-x,-y,-z
x,1/2-y,z
loop_
_atom_site_type_symbol
_atom_site_label
_atom_site_fract_x
_atom_site_fract_y
_atom_site_fract_z
Si Si1 0.687754 0.425755 0.255988
Si Si2 0.112665 0.572798 0.882410
Si Si3 0.497624 0.070337 0.875790
Si Si4 0.685508 0.931298 0.730828
Si Si5 0.876938 0.930010 0.882446
Si Si6 0.615276 0.071666 0.505145
O O1 0.657062 0.250000 0.229929
O O2 0.809076 0.460018 0.222242
O O3 0.614333 0.535818 0.182174
O O4 0.676738 0.461817 0.388749
O O5 0.106789 0.750000 0.912197
O O6 0.995126 0.512135 0.850530
O O7 0.157440 0.490998 0.994508
O O8 0.515557 0.250000 0.883816
O O9 0.587427 0.996199 0.799562
O O10 0.500000 0.000000 0.000000
O O11 0.676122 0.750000 0.728481
O O12 0.794267 0.989413 0.788336
O O13 0.684698 0.994462 0.603238
O O14 0.871436 0.750000 0.887482
O O15 0.603088 0.250000 0.530044
O O16 0.500000 0.000000 0.500000
#
# Coordination Sequence:
#
# PCOD8076011 Si02
#       6
#     4   4   4   4   4   4
#     4  10  21  37  57  80 109 143 184 229 275 331
#     4   9  18  35  58  82 109 143 181 224 276 330
#     4  12  24  36  54  80 112 144 179 226 279 334
#     4  11  22  37  56  80 112 146 186 229 274 330
#     4   9  19  35  56  82 111 144 180 224 276 328
#     4  11  22  37  57  80 109 148 189 231 278 328
#
# _framework density 18.415324999999999
#
# number of rings (size 3 to 8) (size 9 to 14) (size 15 to 20)
#    0.000    1.667    1.667    3.500    0.000    5.333 
#    0.000    0.833    0.000    0.000    0.000    0.000 
#    0.000    0.000    0.000    0.000    0.000    0.000 
#
# Total GULP energy -297661.213752 kJ/mol
# GULP energy per Si atom -12402.550573 kJ/mol
# Density = 1.837341 g / cm^3
# Si number density = 18.415325 Si / 1000 Ang^3
#
#
#
# Elastic Constant Matrix: (Units=GPa)
#
#
# Indices 1 2 3 4 5 6 
#
# 1 107.6835 16.1615 59.4885 0.0000 -5.6960 0.0000
# 2 16.1615 43.8151 23.5439 0.0000 -4.7959 0.0000
# 3 59.4885 23.5439 127.6760 0.0000 -6.0968 0.0000
# 4 0.0000 0.0000 0.0000 33.2220 0.0000 3.5069
# 5 -5.6960 -4.7959 -6.0968 0.0000 32.6107 0.0000
# 6 0.0000 0.0000 0.0000 3.5069 0.0000 16.4595
#
#
#
# Elastic Compliance Matrix: (Units=1/GPa)
#
#
# Indices 1 2 3 4 5 6 
#
# 1 0.012641 -0.001575 -0.005555 0.000000 0.000938 0.000000
# 2 -0.001575 0.025800 -0.003890 0.000000 0.002792 0.000000
# 3 -0.005555 -0.003890 0.011164 0.000000 0.000545 0.000000
# 4 0.000000 0.000000 0.000000 0.030793 0.000000 -0.006561
# 5 0.000938 0.002792 0.000545 0.000000 0.031341 0.000000
# 6 0.000000 0.000000 0.000000 -0.006561 0.000000 0.062153
#
#
# Mechanical properties :
#
#
# Convention : Reuss Voigt Hill
#
# Bulk Modulus (GPa) = 36.27840 53.06247 44.67043
# Shear Modulus (GPa) = 24.37584 28.45717 26.41650
#
# Velocity S-wave (km/s) = 3.64218 3.93529 3.79157
# Velocity P-wave (km/s) = 6.11802 7.03744 6.59377
#
# Compressibility (1/GPa) = 0.02756462
#
# Stress axis : x y z
#
# Youngs Moduli (GPa) = 79.10701 38.75922 89.57506
#
# Poissons Ratio (x) = 0.06106 0.49756
# Poissons Ratio (y) = 0.12462 0.34848
# Poissons Ratio (z) = 0.43941 0.15079
#
# Static dielectric constant tensor:
#      x y z
#    x 3.713960 0.000000 0.020350 
#    y 0.000000 3.868990 0.000000 
#    z 0.020350 0.000000 3.654860 
# 
# 
# High freq. dielectric constant tensor:
#      x y z
#    x 1.716510 0.000000 -0.001330 
#    y 0.000000 1.718290 0.000000 
#    z -0.001330 0.000000 1.715340 
# 
# From -- ./inp_files/33779.got.cif
#   From: 2010.06.25/outbox.cif.g09.slc.cpg/sg11_17_cif.got.tgz:33779.got - 2010.06.27 23:14:04.
