data_PCOD8076772
_publ_section_title
;
Structure prediction by ZEFSAII (Michael W. Deem and Ramdas Pophale) SiO2 
 PCOD8076772
Probable space group: P 21/M
;
_chemical_formula_sum "Si O2"
_cell_formula_units_Z 28
_cell_length_a 19.766632
_cell_length_b 8.818687
_cell_length_c 13.334358
_cell_angle_alpha 90.000000
_cell_angle_beta 144.445926
_cell_angle_gamma 90.000000
_cell_volume 1351.564580
_symmetry_space_group_name_H-M "P 21/M"
_symmetry_group_IT_number 11
_symmetry_cell_setting 'monoclinic'
loop_
_space_group_symop_operation_xyz
x,y,z
-x,1/2+y,-z
-x,-y,-z
x,1/2-y,z
loop_
_atom_site_type_symbol
_atom_site_label
_atom_site_fract_x
_atom_site_fract_y
_atom_site_fract_z
Si Si1 0.784780 0.429314 0.922223
Si Si2 0.691852 0.574717 0.007104
Si Si3 0.429609 0.923290 0.680352
Si Si4 0.197667 0.922366 0.503044
Si Si5 0.994178 0.425919 0.884330
Si Si6 0.881472 0.927501 0.394169
Si Si7 0.394077 0.428088 0.431338
O O1 0.789110 0.250000 0.919178
O O2 0.724417 0.496817 0.750504
O O3 0.714235 0.476037 0.935637
O O4 0.914501 0.496170 0.081406
O O5 0.716437 0.750000 0.010486
O O6 0.775060 0.516512 0.196151
O O7 0.558377 0.550456 0.880825
O O8 0.416312 0.750000 0.625156
O O9 0.334477 0.956551 0.651718
O O10 0.407375 0.039765 0.564266
O O11 0.177770 0.750000 0.514876
O O12 0.131829 0.950938 0.318063
O O13 0.146488 0.030806 0.525704
O O14 0.024647 0.250000 0.932568
O O15 0.000000 0.500000 0.000000
O O16 0.897624 0.750000 0.406106
O O17 0.000000 0.000000 0.500000
O O18 0.500000 0.500000 0.500000
O O19 0.391469 0.250000 0.407917
#
# Coordination Sequence:
#
# PCOD8076772 Si02
#       7
#     4   4   4   4   4   4   4
#     4  12  24  38  60  90 123 163 211 257 310 369
#     4  10  22  40  62  89 122 159 204 257 313 367
#     4  10  21  40  64  90 125 165 206 254 312 375
#     4  10  23  42  64  91 124 163 203 252 314 373
#     4  11  23  40  62  90 125 162 205 256 312 373
#     4  11  24  42  65  92 121 160 207 258 313 370
#     4  12  23  37  59  90 127 166 208 254 306 366
#
# _framework density 20.716730999999999
#
# number of rings (size 3 to 8) (size 9 to 14) (size 15 to 20)
#    0.000    1.143    1.429    5.143    0.000    8.000 
#    0.000    0.000    0.000    0.000    0.000    0.000 
#    0.000    0.000    0.000    0.000    0.000    0.000 
#
# Total GULP energy -347351.410936 kJ/mol
# GULP energy per Si atom -12405.407533 kJ/mol
# Density = 2.066958 g / cm^3
# Si number density = 20.716731 Si / 1000 Ang^3
#
#
#
# Elastic Constant Matrix: (Units=GPa)
#
#
# Indices 1 2 3 4 5 6 
#
# 1 114.6492 41.2233 55.4251 0.0000 13.1986 0.0000
# 2 41.2233 119.0843 53.0434 0.0000 5.0022 0.0000
# 3 55.4251 53.0434 138.5808 0.0000 10.4938 0.0000
# 4 0.0000 0.0000 0.0000 28.7179 0.0000 0.0517
# 5 13.1986 5.0022 10.4938 0.0000 40.3080 0.0000
# 6 0.0000 0.0000 0.0000 0.0517 0.0000 35.2817
#
#
#
# Elastic Compliance Matrix: (Units=1/GPa)
#
#
# Indices 1 2 3 4 5 6 
#
# 1 0.011565 -0.002317 -0.003543 0.000000 -0.002577 0.000000
# 2 -0.002317 0.010590 -0.003147 0.000000 0.000264 0.000000
# 3 -0.003543 -0.003147 0.009916 0.000000 -0.001031 0.000000
# 4 0.000000 0.000000 0.000000 0.034822 0.000000 -0.000051
# 5 -0.002577 0.000264 -0.001031 0.000000 0.025888 0.000000
# 6 0.000000 0.000000 0.000000 -0.000051 0.000000 0.028343
#
#
# Mechanical properties :
#
#
# Convention : Reuss Voigt Hill
#
# Bulk Modulus (GPa) = 71.14136 74.63309 72.88722
# Shear Modulus (GPa) = 34.76477 35.70302 35.23389
#
# Velocity S-wave (km/s) = 4.10091 4.15588 4.12848
# Velocity P-wave (km/s) = 7.53909 7.68974 7.61479
#
# Compressibility (1/GPa) = 0.01405652
#
# Stress axis : x y z
#
# Youngs Moduli (GPa) = 86.46795 94.42850 100.84993
#
# Poissons Ratio (x) = 0.21878 0.35736
# Poissons Ratio (y) = 0.20033 0.31735
# Poissons Ratio (z) = 0.30640 0.29715
#
# Static dielectric constant tensor:
#      x y z
#    x 3.668060 0.000000 0.141570 
#    y 0.000000 3.607850 0.000000 
#    z 0.141570 0.000000 4.118990 
# 
# 
# High freq. dielectric constant tensor:
#      x y z
#    x 1.806520 0.000000 0.013950 
#    y 0.000000 1.812190 0.000000 
#    z 0.013950 0.000000 1.823280 
# 
# From -- ./inp_files/54636.got.cif
#   From: 2010.06.25/outbox.cif.g09.slc.cpg/sg11_28_cif.got.tgz:54636.got - 2010.06.27 23:14:04.
