data_PCOD8076770
_publ_section_title
;
Structure prediction by ZEFSAII (Michael W. Deem and Ramdas Pophale) SiO2 
 PCOD8076770
Probable space group: P 21/M
;
_chemical_formula_sum "Si O2"
_cell_formula_units_Z 32
_cell_length_a 10.966077
_cell_length_b 14.820489
_cell_length_c 18.085865
_cell_angle_alpha 90.000000
_cell_angle_beta 149.702744
_cell_angle_gamma 90.000000
_cell_volume 1482.867898
_symmetry_space_group_name_H-M "P 21/M"
_symmetry_group_IT_number 11
_symmetry_cell_setting 'monoclinic'
loop_
_space_group_symop_operation_xyz
x,y,z
-x,1/2+y,-z
-x,-y,-z
x,1/2-y,z
loop_
_atom_site_type_symbol
_atom_site_label
_atom_site_fract_x
_atom_site_fract_y
_atom_site_fract_z
Si Si1 0.386607 0.850558 0.642449
Si Si2 0.059627 0.401389 0.508267
Si Si3 0.851954 0.648521 0.606264
Si Si4 0.083296 0.642755 0.877699
Si Si5 0.796602 0.980107 0.835376
Si Si6 0.694076 0.145414 0.681242
Si Si7 0.387413 0.354426 0.808522
Si Si8 0.060662 0.643624 0.338065
O O1 0.503816 0.750000 0.698684
O O2 0.578080 0.928723 0.763344
O O3 0.275865 0.882719 0.506134
O O4 0.174846 0.842243 0.593127
O O5 0.106751 0.408153 0.445898
O O6 0.298474 0.367341 0.677286
O O7 0.000000 0.500000 0.500000
O O8 0.905822 0.750000 0.610148
O O9 0.578133 0.638323 0.492248
O O10 0.035365 0.618626 0.766689
O O11 0.052670 0.750000 0.875562
O O12 0.882852 0.589977 0.818757
O O13 0.346723 0.604049 0.038956
O O14 0.722675 0.077891 0.764764
O O15 0.000000 0.000000 0.000000
O O16 0.749679 0.250000 0.733884
O O17 0.874470 0.111216 0.710635
O O18 0.413772 0.250000 0.840165
O O19 0.192765 0.397877 0.764303
O O20 0.034859 0.750000 0.325290
#
# Coordination Sequence:
#
# PCOD8076770 Si02
#       8
#     4   4   4   4   4   4   4   4
#     4  10  21  40  64  90 123 167 210 260 315 373
#     4  11  22  36  63  96 131 166 214 260 310 376
#     4  10  21  40  65  96 124 163 216 264 315 378
#     4  10  23  42  66  94 128 167 208 265 325 378
#     4  12  27  42  61  88 126 162 221 262 320 389
#     4  10  22  40  64  89 122 161 207 265 321 376
#     4   9  19  38  64  90 123 167 206 250 314 379
#     4   8  16  36  64  93 119 156 208 251 307 382
#
# _framework density 21.579805
#
# number of rings (size 3 to 8) (size 9 to 14) (size 15 to 20)
#    0.000    2.000    0.000    3.750    3.500    7.000 
#    2.250    1.250    0.000    0.000    0.000    0.000 
#    0.000    0.000    0.000    0.000    0.000    0.000 
#
# Total GULP energy -396678.581413 kJ/mol
# GULP energy per Si atom -12396.205669 kJ/mol
# Density = 2.153069 g / cm^3
# Si number density = 21.579805 Si / 1000 Ang^3
#
#
#
# Elastic Constant Matrix: (Units=GPa)
#
#
# Indices 1 2 3 4 5 6 
#
# 1 88.5598 17.3184 30.1775 0.0000 -4.4578 0.0000
# 2 17.3184 77.4715 25.1423 0.0000 0.2104 0.0000
# 3 30.1775 25.1423 119.7033 0.0000 1.8932 0.0000
# 4 0.0000 0.0000 0.0000 27.7304 0.0000 1.4684
# 5 -4.4578 0.2104 1.8932 0.0000 27.1845 0.0000
# 6 0.0000 0.0000 0.0000 1.4684 0.0000 28.1317
#
#
#
# Elastic Compliance Matrix: (Units=1/GPa)
#
#
# Indices 1 2 3 4 5 6 
#
# 1 0.012756 -0.001934 -0.002846 0.000000 0.002305 0.000000
# 2 -0.001934 0.014146 -0.002480 0.000000 -0.000254 0.000000
# 3 -0.002846 -0.002480 0.009610 0.000000 -0.001117 0.000000
# 4 0.000000 0.000000 0.000000 0.036161 0.000000 -0.001888
# 5 0.002305 -0.000254 -0.001117 0.000000 0.037243 0.000000
# 6 0.000000 0.000000 0.000000 -0.001888 0.000000 0.035646
#
#
# Mechanical properties :
#
#
# Convention : Reuss Voigt Hill
#
# Bulk Modulus (GPa) = 45.47073 47.89013 46.68043
# Shear Modulus (GPa) = 29.86643 30.81574 30.34108
#
# Velocity S-wave (km/s) = 3.72425 3.78297 3.75373
# Velocity P-wave (km/s) = 6.29365 6.42818 6.36127
#
# Compressibility (1/GPa) = 0.02199217
#
# Stress axis : x y z
#
# Youngs Moduli (GPa) = 78.39539 70.69273 104.05906
#
# Poissons Ratio (x) = 0.13673 0.29615
# Poissons Ratio (y) = 0.15163 0.25802
# Poissons Ratio (z) = 0.22311 0.17528
#
# Static dielectric constant tensor:
#      x y z
#    x 4.202080 0.000000 0.014790 
#    y 0.000000 3.915550 0.000000 
#    z 0.014790 0.000000 3.662440 
# 
# 
# High freq. dielectric constant tensor:
#      x y z
#    x 1.848040 0.000000 0.009320 
#    y 0.000000 1.846880 0.000000 
#    z 0.009320 0.000000 1.831120 
# 
# From -- ./inp_files/41700.got.cif
#   From: 2010.06.25/outbox.cif.g09.slc.cpg/sg11_21_cif.got.tgz:41700.got - 2010.06.27 23:14:04.
