data_PCOD8076759
_publ_section_title
;
Structure prediction by ZEFSAII (Michael W. Deem and Ramdas Pophale) SiO2 
 PCOD8076759
Probable space group: P 21/M
;
_chemical_formula_sum "Si O2"
_cell_formula_units_Z 32
_cell_length_a 14.082725
_cell_length_b 8.792937
_cell_length_c 23.678541
_cell_angle_alpha 90.000000
_cell_angle_beta 33.107745
_cell_angle_gamma 90.000000
_cell_volume 1601.545852
_symmetry_space_group_name_H-M "P 21/M"
_symmetry_group_IT_number 11
_symmetry_cell_setting 'monoclinic'
loop_
_space_group_symop_operation_xyz
x,y,z
-x,1/2+y,-z
-x,-y,-z
x,1/2-y,z
loop_
_atom_site_type_symbol
_atom_site_label
_atom_site_fract_x
_atom_site_fract_y
_atom_site_fract_z
Si Si1 0.804015 0.576232 0.241060
Si Si2 0.183671 0.428994 0.540477
Si Si3 0.687776 0.571586 0.905141
Si Si4 0.808364 0.423941 0.955583
Si Si5 0.508713 0.072184 0.189110
Si Si6 0.310995 0.928996 0.590840
Si Si7 0.170075 0.427477 0.285299
Si Si8 0.511509 0.428147 0.680819
O O1 0.769915 0.750000 0.276894
O O2 0.794753 0.470083 0.300461
O O3 0.662616 0.524163 0.265766
O O4 0.995665 0.558866 0.118197
O O5 0.194773 0.250000 0.543100
O O6 0.209389 0.509521 0.587542
O O7 0.327310 0.479240 0.424050
O O8 0.995419 0.477506 0.610324
O O9 0.663317 0.750000 0.916454
O O10 0.798023 0.522092 0.904131
O O11 0.786951 0.518186 0.799490
O O12 0.500000 0.500000 0.000000
O O13 0.763864 0.250000 0.962110
O O14 0.672006 0.481632 0.070023
O O15 0.521993 0.250000 0.197746
O O16 0.331914 0.034201 0.244586
O O17 0.516102 0.971381 0.240927
O O18 0.328608 0.750000 0.576020
O O19 0.500000 0.000000 0.500000
O O20 0.124032 0.250000 0.310326
O O21 0.549692 0.250000 0.655980
#
# Coordination Sequence:
#
# PCOD8076759 Si02
#       8
#     4   4   4   4   4   4   4   4
#     4  10  22  40  64  92 125 162 202 250 305 361
#     4  12  25  41  64  93 123 161 203 250 309 367
#     4  11  21  36  61  92 125 162 199 245 304 364
#     4  10  21  40  63  91 124 162 202 249 304 361
#     4  10  22  42  64  87 121 163 207 256 306 357
#     4  12  23  38  63  93 127 163 201 248 303 365
#     4  10  22  41  63  90 124 162 203 251 307 363
#     4  11  24  42  63  89 122 161 207 258 304 358
#
# _framework density 19.980695000000001
#
# number of rings (size 3 to 8) (size 9 to 14) (size 15 to 20)
#    0.000    1.250    2.500    3.750    0.000    6.000 
#    0.000    0.000    0.000    0.000    0.000    0.000 
#    0.000    0.000    0.000    0.000    0.000    0.000 
#
# Total GULP energy -396974.823334 kJ/mol
# GULP energy per Si atom -12405.463229 kJ/mol
# Density = 1.993522 g / cm^3
# Si number density = 19.980695 Si / 1000 Ang^3
#
#
#
# Elastic Constant Matrix: (Units=GPa)
#
#
# Indices 1 2 3 4 5 6 
#
# 1 82.3558 28.8774 69.2979 0.0000 9.1508 0.0000
# 2 28.8774 83.4307 35.6843 0.0000 -0.1338 0.0000
# 3 69.2979 35.6843 114.5302 0.0000 -16.4555 0.0000
# 4 0.0000 0.0000 0.0000 30.1512 0.0000 5.0688
# 5 9.1508 -0.1338 -16.4555 0.0000 36.4418 0.0000
# 6 0.0000 0.0000 0.0000 5.0688 0.0000 31.4734
#
#
#
# Elastic Compliance Matrix: (Units=1/GPa)
#
#
# Indices 1 2 3 4 5 6 
#
# 1 0.033977 -0.002130 -0.022587 0.000000 -0.018739 0.000000
# 2 -0.002130 0.014104 -0.003231 0.000000 -0.000873 0.000000
# 3 -0.022587 -0.003231 0.025898 0.000000 0.017354 0.000000
# 4 0.000000 0.000000 0.000000 0.034089 0.000000 -0.005490
# 5 -0.018739 -0.000873 0.017354 0.000000 0.039980 0.000000
# 6 0.000000 0.000000 0.000000 -0.005490 0.000000 0.032657
#
#
# Mechanical properties :
#
#
# Convention : Reuss Voigt Hill
#
# Bulk Modulus (GPa) = 55.29988 60.89288 58.09638
# Shear Modulus (GPa) = 20.60759 29.37709 24.99234
#
# Velocity S-wave (km/s) = 3.21499 3.83857 3.54054
# Velocity P-wave (km/s) = 6.44347 7.08436 6.77150
#
# Compressibility (1/GPa) = 0.01808322
#
# Stress axis : x y z
#
# Youngs Moduli (GPa) = 29.43143 70.90343 38.61266
#
# Poissons Ratio (x) = 0.15099 0.87216
# Poissons Ratio (y) = 0.06268 0.12476
# Poissons Ratio (z) = 0.66478 0.22910
#
# Static dielectric constant tensor:
#      x y z
#    x 3.602710 0.000000 -0.062060 
#    y 0.000000 3.665160 0.000000 
#    z -0.062060 0.000000 3.741350 
# 
# 
# High freq. dielectric constant tensor:
#      x y z
#    x 1.780140 0.000000 -0.011910 
#    y 0.000000 1.778560 0.000000 
#    z -0.011910 0.000000 1.791730 
# 
# From -- ./inp_files/68976.got.cif
#   From: 2010.06.25/outbox.cif.g09.slc.cpg/sg11_35_cif.got.tgz:68976.got - 2010.06.27 23:14:04.
