data_PCOD8076751
_publ_section_title
;
Structure prediction by ZEFSAII (Michael W. Deem and Ramdas Pophale) SiO2 
 PCOD8076751
Probable space group: P 21/M
;
_chemical_formula_sum "Si O2"
_cell_formula_units_Z 32
_cell_length_a 11.854094
_cell_length_b 8.699323
_cell_length_c 28.717753
_cell_angle_alpha 90.000000
_cell_angle_beta 148.622382
_cell_angle_gamma 90.000000
_cell_volume 1541.955972
_symmetry_space_group_name_H-M "P 21/M"
_symmetry_group_IT_number 11
_symmetry_cell_setting 'monoclinic'
loop_
_space_group_symop_operation_xyz
x,y,z
-x,1/2+y,-z
-x,-y,-z
x,1/2-y,z
loop_
_atom_site_type_symbol
_atom_site_label
_atom_site_fract_x
_atom_site_fract_y
_atom_site_fract_z
Si Si1 0.539705 0.929860 0.275654
Si Si2 0.902410 0.069688 0.159817
Si Si3 0.363095 0.929335 0.313797
Si Si4 0.893195 0.433023 0.341923
Si Si5 0.322612 0.568153 0.827415
Si Si6 0.225513 0.069305 0.974453
Si Si7 0.877797 0.930353 0.912959
Si Si8 0.383069 0.430526 0.503701
O O1 0.530541 0.750000 0.263527
O O2 0.500787 0.969307 0.316176
O O3 0.777344 0.994887 0.346372
O O4 0.364160 0.006852 0.179323
O O5 0.858297 0.250000 0.137942
O O6 0.837074 0.011706 0.188077
O O7 0.747272 0.975524 0.069905
O O8 0.151521 0.033062 0.238693
O O9 0.298257 0.750000 0.291490
O O10 0.496767 0.976563 0.406515
O O11 0.887399 0.250000 0.344091
O O12 0.762642 0.497745 0.251199
O O13 0.138547 0.493205 0.423128
O O14 0.319426 0.750000 0.824764
O O15 0.567360 0.512355 0.923241
O O16 0.184988 0.250000 0.966229
O O17 0.014505 0.975691 0.915897
O O18 0.860964 0.750000 0.914171
O O19 0.000000 0.000000 0.000000
O O20 0.500000 0.500000 0.500000
O O21 0.379388 0.250000 0.494668
#
# Coordination Sequence:
#
# PCOD8076751 Si02
#       8
#     4   4   4   4   4   4   4   4
#     4  11  23  40  61  87 123 163 207 256 308 367
#     4  11  21  36  59  87 117 156 207 253 303 367
#     4  10  22  40  61  87 124 164 203 253 315 369
#     4  10  21  40  63  88 121 159 205 258 311 366
#     4   9  20  36  56  83 117 157 199 251 307 361
#     4  11  21  36  56  83 120 160 201 250 309 366
#     4  12  24  39  60  87 120 162 212 259 306 364
#     4  10  22  41  66  95 125 162 204 255 314 374
#
# _framework density 20.752863999999999
#
# number of rings (size 3 to 8) (size 9 to 14) (size 15 to 20)
#    0.000    1.500    1.250    4.125    0.000    4.000 
#    0.000    3.750    0.000    0.000    0.000    0.000 
#    0.000    0.000    0.000    0.000    0.000    0.000 
#
# Total GULP energy -396870.456354 kJ/mol
# GULP energy per Si atom -12402.201761 kJ/mol
# Density = 2.070563 g / cm^3
# Si number density = 20.752864 Si / 1000 Ang^3
#
#
#
# Elastic Constant Matrix: (Units=GPa)
#
#
# Indices 1 2 3 4 5 6 
#
# 1 112.3842 29.3216 35.5401 0.0000 6.1392 0.0000
# 2 29.3216 67.2839 29.5779 0.0000 1.9712 0.0000
# 3 35.5401 29.5779 112.4898 0.0000 -1.8611 0.0000
# 4 0.0000 0.0000 0.0000 20.7801 0.0000 -0.3554
# 5 6.1392 1.9712 -1.8611 0.0000 40.3134 0.0000
# 6 0.0000 0.0000 0.0000 -0.3554 0.0000 32.8006
#
#
#
# Elastic Compliance Matrix: (Units=1/GPa)
#
#
# Indices 1 2 3 4 5 6 
#
# 1 0.010686 -0.003522 -0.002476 0.000000 -0.001569 0.000000
# 2 -0.003522 0.018008 -0.003631 0.000000 -0.000512 0.000000
# 3 -0.002476 -0.003631 0.010644 0.000000 0.001046 0.000000
# 4 0.000000 0.000000 0.000000 0.048132 0.000000 0.000522
# 5 -0.001569 -0.000512 0.001046 0.000000 0.025118 0.000000
# 6 0.000000 0.000000 0.000000 0.000522 0.000000 0.030493
#
#
# Mechanical properties :
#
#
# Convention : Reuss Voigt Hill
#
# Bulk Modulus (GPa) = 49.80037 53.44857 51.62447
# Shear Modulus (GPa) = 29.58020 31.96005 30.77013
#
# Velocity S-wave (km/s) = 3.77948 3.92858 3.85475
# Velocity P-wave (km/s) = 6.56467 6.81095 6.68895
#
# Compressibility (1/GPa) = 0.02008017
#
# Stress axis : x y z
#
# Youngs Moduli (GPa) = 93.58269 55.52951 93.95066
#
# Poissons Ratio (x) = 0.19560 0.23261
# Poissons Ratio (y) = 0.32963 0.34111
# Poissons Ratio (z) = 0.23170 0.20161
#
# Static dielectric constant tensor:
#      x y z
#    x 4.069980 0.000000 -0.083000 
#    y 0.000000 3.558260 0.000000 
#    z -0.083000 0.000000 3.970290 
# 
# 
# High freq. dielectric constant tensor:
#      x y z
#    x 1.829670 0.000000 -0.001340 
#    y 0.000000 1.794800 0.000000 
#    z -0.001340 0.000000 1.815930 
# 
# From -- ./inp_files/38300.got.cif
#   From: 2010.06.25/outbox.cif.g09.slc.cpg/sg11_20_cif.got.tgz:38300.got - 2010.06.27 23:14:04.
