data_PCOD8076057
_publ_section_title
;
Structure prediction by ZEFSAII (Michael W. Deem and Ramdas Pophale) SiO2 
 PCOD8076057
Probable space group: P 21/M
;
_chemical_formula_sum "Si O2"
_cell_formula_units_Z 26
_cell_length_a 12.288179
_cell_length_b 10.153860
_cell_length_c 18.463696
_cell_angle_alpha 90.000000
_cell_angle_beta 140.351097
_cell_angle_gamma 90.000000
_cell_volume 1469.986782
_symmetry_space_group_name_H-M "P 21/M"
_symmetry_group_IT_number 11
_symmetry_cell_setting 'monoclinic'
loop_
_space_group_symop_operation_xyz
x,y,z
-x,1/2+y,-z
-x,-y,-z
x,1/2-y,z
loop_
_atom_site_type_symbol
_atom_site_label
_atom_site_fract_x
_atom_site_fract_y
_atom_site_fract_z
Si Si1 0.893400 0.482990 0.198167
Si Si2 0.643313 0.250000 0.035543
Si Si3 0.269343 0.250000 0.869855
Si Si4 0.284924 0.019753 0.630573
Si Si5 0.254995 0.401772 0.364171
Si Si6 0.952251 0.105153 0.381084
Si Si7 0.409109 0.250000 0.789856
Si Si8 0.423375 0.901709 0.562109
O O1 0.745370 0.380599 0.106055
O O2 0.825118 0.626288 0.142092
O O3 0.938356 0.492614 0.306473
O O4 0.064455 0.443108 0.241877
O O5 0.469656 0.250000 0.994829
O O6 0.593098 0.250000 0.924246
O O7 0.261535 0.250000 0.777010
O O8 0.397411 0.121860 0.733600
O O9 0.134443 0.095445 0.512519
O O10 0.200463 0.914739 0.640861
O O11 0.406540 0.941967 0.637255
O O12 0.257290 0.250000 0.393693
O O13 0.378661 0.417525 0.358675
O O14 0.309929 0.499615 0.456425
O O15 0.933144 0.250000 0.338041
O O16 0.363038 0.750000 0.519362
#
# Coordination Sequence:
#
# PCOD8076057 Si02
#       8
#     4   2   2   4   4   4   2   4
#     4  12  20  37  61  86 115 148 192 236 289 336
#     4  10  22  39  61  81 113 155 194 242 285 336
#     4  10  24  36  53  88 119 146 186 238 285 340
#     4  11  21  34  52  78 119 150 186 226 287 345
#     4  10  21  37  57  87 116 156 189 231 287 338
#     4  11  20  30  52  82 111 150 184 222 284 349
#     4  10  22  37  52  81 112 155 186 228 284 346
#     4  10  22  37  56  85 122 154 190 232 281 346
#
# _framework density 17.687235000000001
#
# number of rings (size 3 to 8) (size 9 to 14) (size 15 to 20)
#    0.462    0.923    5.385    0.923    2.154    0.000 
#    0.000    0.000    1.692    0.923    0.000    0.000 
#    0.000    0.000    0.000    0.000    0.000    0.000 
#
# Total GULP energy -322313.787290 kJ/mol
# GULP energy per Si atom -12396.684127 kJ/mol
# Density = 1.764698 g / cm^3
# Si number density = 17.687235 Si / 1000 Ang^3
#
#
#
# Elastic Constant Matrix: (Units=GPa)
#
#
# Indices 1 2 3 4 5 6 
#
# 1 106.2547 34.5635 22.7455 0.0000 15.2694 0.0000
# 2 34.5635 128.3780 31.6173 0.0000 17.0366 0.0000
# 3 22.7455 31.6173 75.3774 0.0000 12.7494 0.0000
# 4 0.0000 0.0000 0.0000 25.5452 0.0000 -0.2601
# 5 15.2694 17.0366 12.7494 0.0000 26.2619 0.0000
# 6 0.0000 0.0000 0.0000 -0.2601 0.0000 46.3733
#
#
#
# Elastic Compliance Matrix: (Units=1/GPa)
#
#
# Indices 1 2 3 4 5 6 
#
# 1 0.011048 -0.001967 -0.001785 0.000000 -0.004282 0.000000
# 2 -0.001967 0.009487 -0.002765 0.000000 -0.003668 0.000000
# 3 -0.001785 -0.002765 0.015782 0.000000 -0.004830 0.000000
# 4 0.000000 0.000000 0.000000 0.039148 0.000000 0.000220
# 5 -0.004282 -0.003668 -0.004830 0.000000 0.045292 0.000000
# 6 0.000000 0.000000 0.000000 0.000220 0.000000 0.021565
#
#
# Mechanical properties :
#
#
# Convention : Reuss Voigt Hill
#
# Bulk Modulus (GPa) = 42.94887 54.20695 48.57791
# Shear Modulus (GPa) = 30.65260 34.37501 32.51380
#
# Velocity S-wave (km/s) = 4.16749 4.41329 4.29215
# Velocity P-wave (km/s) = 6.89147 7.52885 7.21720
#
# Compressibility (1/GPa) = 0.02328350
#
# Stress axis : x y z
#
# Youngs Moduli (GPa) = 90.51017 105.40852 63.36321
#
# Poissons Ratio (x) = 0.20732 0.11309
# Poissons Ratio (y) = 0.17802 0.17522
# Poissons Ratio (z) = 0.16154 0.29149
#
# Static dielectric constant tensor:
#      x y z
#    x 3.311860 0.000000 0.126060 
#    y 0.000000 3.334220 0.000000 
#    z 0.126060 0.000000 3.065640 
# 
# 
# High freq. dielectric constant tensor:
#      x y z
#    x 1.674570 0.000000 0.012810 
#    y 0.000000 1.698720 0.000000 
#    z 0.012810 0.000000 1.656530 
# 
# From -- ./inp_files/59108.got.cif
#   From: 2010.06.25/outbox.cif.g09.slc.cpg/sg11_30_cif.got.tgz:59108.got - 2010.06.27 23:14:04.
