data_PCOD8076621
_publ_section_title
;
Structure prediction by ZEFSAII (Michael W. Deem and Ramdas Pophale) SiO2 
 PCOD8076621
Probable space group: P 21/M
;
_chemical_formula_sum "Si O2"
_cell_formula_units_Z 28
_cell_length_a 14.890368
_cell_length_b 8.986041
_cell_length_c 11.013317
_cell_angle_alpha 90.000000
_cell_angle_beta 113.719005
_cell_angle_gamma 90.000000
_cell_volume 1349.162231
_symmetry_space_group_name_H-M "P 21/M"
_symmetry_group_IT_number 11
_symmetry_cell_setting 'monoclinic'
loop_
_space_group_symop_operation_xyz
x,y,z
-x,1/2+y,-z
-x,-y,-z
x,1/2-y,z
loop_
_atom_site_type_symbol
_atom_site_label
_atom_site_fract_x
_atom_site_fract_y
_atom_site_fract_z
Si Si1 0.844922 0.414269 0.108405
Si Si2 0.764067 0.578170 0.285040
Si Si3 0.769592 0.082239 0.815524
Si Si4 0.450500 0.574555 0.355066
Si Si5 0.065316 0.419392 0.222057
Si Si6 0.911800 0.076644 0.521194
Si Si7 0.462463 0.424231 0.856263
O O1 0.840062 0.250000 0.167738
O O2 0.822191 0.539711 0.193894
O O3 0.954303 0.437813 0.112220
O O4 0.763763 0.421944 0.958600
O O5 0.781028 0.750000 0.323495
O O6 0.807167 0.482098 0.418173
O O7 0.651425 0.536987 0.211681
O O8 0.797068 0.250000 0.787465
O O9 0.664982 0.035504 0.703120
O O10 0.853354 0.962554 0.831877
O O11 0.500000 0.500000 0.500000
O O12 0.469872 0.750000 0.374758
O O13 0.491181 0.516203 0.246174
O O14 0.083890 0.250000 0.275158
O O15 0.081654 0.538240 0.335686
O O16 0.920053 0.250000 0.503483
O O17 0.000000 0.000000 0.500000
O O18 0.483763 0.250000 0.880618
O O19 0.500000 0.500000 0.000000
#
# Coordination Sequence:
#
# PCOD8076621 Si02
#       7
#     4   4   4   4   4   4   4
#     4  10  21  39  62  89 124 164 202 248 309 372
#     4  11  23  38  62  94 126 161 206 257 309 368
#     4  10  22  40  62  88 120 161 209 254 307 371
#     4  10  23  43  64  90 125 165 212 266 321 378
#     4  11  23  38  60  90 123 162 205 249 307 369
#     4  12  24  40  61  88 124 164 205 252 307 367
#     4  10  23  43  67  96 128 164 212 268 322 379
#
# _framework density 20.753619
#
# number of rings (size 3 to 8) (size 9 to 14) (size 15 to 20)
#    0.000    1.429    1.429    3.429    2.000    4.571 
#    0.000    0.000    0.000    0.000    0.000    0.000 
#    0.000    0.000    0.000    0.000    0.000    0.000 
#
# Total GULP energy -347148.222074 kJ/mol
# GULP energy per Si atom -12398.150788 kJ/mol
# Density = 2.070638 g / cm^3
# Si number density = 20.753619 Si / 1000 Ang^3
#
#
#
# Elastic Constant Matrix: (Units=GPa)
#
#
# Indices 1 2 3 4 5 6 
#
# 1 94.1555 40.2263 36.5810 0.0000 5.6865 0.0000
# 2 40.2263 94.5950 44.8190 0.0000 14.8998 0.0000
# 3 36.5810 44.8190 131.8644 0.0000 13.2566 0.0000
# 4 0.0000 0.0000 0.0000 36.5872 0.0000 2.3616
# 5 5.6865 14.8998 13.2566 0.0000 35.9841 0.0000
# 6 0.0000 0.0000 0.0000 2.3616 0.0000 26.9522
#
#
#
# Elastic Compliance Matrix: (Units=1/GPa)
#
#
# Indices 1 2 3 4 5 6 
#
# 1 0.013478 -0.004807 -0.002172 0.000000 0.000660 0.000000
# 2 -0.004807 0.014830 -0.003288 0.000000 -0.004170 0.000000
# 3 -0.002172 -0.003288 0.009483 0.000000 -0.001789 0.000000
# 4 0.000000 0.000000 0.000000 0.027487 0.000000 -0.002409
# 5 0.000660 -0.004170 -0.001789 0.000000 0.030071 0.000000
# 6 0.000000 0.000000 0.000000 -0.002409 0.000000 0.037314
#
#
# Mechanical properties :
#
#
# Convention : Reuss Voigt Hill
#
# Bulk Modulus (GPa) = 57.94061 62.65195 60.29628
# Shear Modulus (GPa) = 31.45654 33.17062 32.31358
#
# Velocity S-wave (km/s) = 3.89744 4.00222 3.95018
# Velocity P-wave (km/s) = 6.94495 7.18408 7.06553
#
# Compressibility (1/GPa) = 0.01725905
#
# Stress axis : x y z
#
# Youngs Moduli (GPa) = 74.19425 67.43096 105.44756
#
# Poissons Ratio (x) = 0.32412 0.22900
# Poissons Ratio (y) = 0.35662 0.34670
# Poissons Ratio (z) = 0.16113 0.22171
#
# Static dielectric constant tensor:
#      x y z
#    x 3.694820 0.000000 0.261770 
#    y 0.000000 3.725170 0.000000 
#    z 0.261770 0.000000 3.796170 
# 
# 
# High freq. dielectric constant tensor:
#      x y z
#    x 1.814100 0.000000 0.010450 
#    y 0.000000 1.807860 0.000000 
#    z 0.010450 0.000000 1.822050 
# 
# From -- ./inp_files/37661.got.cif
#   From: 2010.06.25/outbox.cif.g09.slc.cpg/sg11_19_cif.got.tgz:37661.got - 2010.06.27 23:14:04.
