data_PCOD8076573
_publ_section_title
;
Structure prediction by ZEFSAII (Michael W. Deem and Ramdas Pophale) SiO2 
 PCOD8076573
Probable space group: P 21/M
;
_chemical_formula_sum "Si O2"
_cell_formula_units_Z 32
_cell_length_a 16.511796
_cell_length_b 17.287923
_cell_length_c 12.933218
_cell_angle_alpha 90.000000
_cell_angle_beta 154.488927
_cell_angle_gamma 90.000000
_cell_volume 1590.025192
_symmetry_space_group_name_H-M "P 21/M"
_symmetry_group_IT_number 11
_symmetry_cell_setting 'monoclinic'
loop_
_space_group_symop_operation_xyz
x,y,z
-x,1/2+y,-z
-x,-y,-z
x,1/2-y,z
loop_
_atom_site_type_symbol
_atom_site_label
_atom_site_fract_x
_atom_site_fract_y
_atom_site_fract_z
Si Si1 0.108804 0.337410 0.597520
Si Si2 0.093628 0.838805 0.059383
Si Si3 0.028425 0.937266 0.179782
Si Si4 0.829843 0.664202 0.558658
Si Si5 0.393257 0.030473 0.622451
Si Si6 0.158812 0.660236 0.526011
Si Si7 0.522502 0.569621 0.947360
Si Si8 0.341844 0.540950 0.253254
O O1 0.177963 0.250000 0.697856
O O2 0.050237 0.347849 0.409038
O O3 0.937610 0.357757 0.475208
O O4 0.272025 0.396333 0.811596
O O5 0.138814 0.750000 0.137258
O O6 0.001098 0.877785 0.053695
O O7 0.286757 0.880883 0.250296
O O8 0.956740 0.847879 0.804700
O O9 0.064776 0.891433 0.327948
O O10 0.202019 0.994734 0.351323
O O11 0.839728 0.987173 0.975530
O O12 0.740460 0.750000 0.456421
O O13 0.661949 0.602034 0.366630
O O14 0.550795 0.063775 0.727624
O O15 0.492308 0.961850 0.797794
O O16 0.143424 0.750000 0.476349
O O17 0.373582 0.637910 0.794447
O O18 0.500000 0.500000 0.000000
O O19 0.500000 0.500000 0.500000
#
# Coordination Sequence:
#
# PCOD8076573 Si02
#       8
#     4   4   4   4   4   4   4   4
#     4  10  21  41  62  88 126 162 204 256 304 361
#     4  11  23  41  65  91 124 163 203 253 308 368
#     4  11  22  43  65  89 126 159 204 259 307 365
#     4  10  21  39  61  87 124 167 203 248 307 363
#     4  11  22  39  62  92 120 162 203 251 309 365
#     4  10  23  41  65  91 120 166 210 255 314 368
#     4  11  22  37  60  93 122 157 204 253 308 362
#     4  12  23  38  65  92 121 161 205 248 311 368
#
# _framework density 20.125468000000001
#
# number of rings (size 3 to 8) (size 9 to 14) (size 15 to 20)
#    0.000    1.250    3.750    2.625    0.000    2.000 
#    0.000    1.250    0.000    0.000    0.000    0.000 
#    0.000    0.000    0.000    0.000    0.000    0.000 
#
# Total GULP energy -396739.424503 kJ/mol
# GULP energy per Si atom -12398.107016 kJ/mol
# Density = 2.007966 g / cm^3
# Si number density = 20.125468 Si / 1000 Ang^3
#
#
#
# Elastic Constant Matrix: (Units=GPa)
#
#
# Indices 1 2 3 4 5 6 
#
# 1 127.6608 40.1027 13.2261 0.0000 1.0406 0.0000
# 2 40.1027 104.7984 16.0555 0.0000 5.1410 0.0000
# 3 13.2261 16.0555 52.7774 0.0000 -2.6142 0.0000
# 4 0.0000 0.0000 0.0000 31.9934 0.0000 1.2874
# 5 1.0406 5.1410 -2.6142 0.0000 30.0892 0.0000
# 6 0.0000 0.0000 0.0000 1.2874 0.0000 36.9481
#
#
#
# Elastic Compliance Matrix: (Units=1/GPa)
#
#
# Indices 1 2 3 4 5 6 
#
# 1 0.008984 -0.003252 -0.001255 0.000000 0.000136 0.000000
# 2 -0.003252 0.011305 -0.002726 0.000000 -0.002056 0.000000
# 3 -0.001255 -0.002726 0.020204 0.000000 0.002264 0.000000
# 4 0.000000 0.000000 0.000000 0.031300 0.000000 -0.001091
# 5 0.000136 -0.002056 0.002264 0.000000 0.033778 0.000000
# 6 0.000000 0.000000 0.000000 -0.001091 0.000000 0.027103
#
#
# Mechanical properties :
#
#
# Convention : Reuss Voigt Hill
#
# Bulk Modulus (GPa) = 38.42368 47.11167 42.76768
# Shear Modulus (GPa) = 32.08921 34.19629 33.14275
#
# Velocity S-wave (km/s) = 3.99740 4.12655 4.06249
# Velocity P-wave (km/s) = 6.35918 6.79444 6.58041
#
# Compressibility (1/GPa) = 0.02602561
#
# Stress axis : x y z
#
# Youngs Moduli (GPa) = 111.31128 88.45565 49.49632
#
# Poissons Ratio (x) = 0.28767 0.06213
# Poissons Ratio (y) = 0.36200 0.13493
# Poissons Ratio (z) = 0.13973 0.24113
#
# Static dielectric constant tensor:
#      x y z
#    x 3.410500 0.000000 -0.076410 
#    y 0.000000 3.967740 0.000000 
#    z -0.076410 0.000000 3.612720 
# 
# 
# High freq. dielectric constant tensor:
#      x y z
#    x 1.797100 0.000000 -0.010590 
#    y 0.000000 1.797580 0.000000 
#    z -0.010590 0.000000 1.775420 
# 
# From -- ./inp_files/40060.got.cif
#   From: 2010.06.25/outbox.cif.g09.slc.cpg/sg11_21_cif.got.tgz:40060.got - 2010.06.27 23:14:04.
