data_PCOD8076902
_publ_section_title
;
Structure prediction by ZEFSAII (Michael W. Deem and Ramdas Pophale) SiO2 
 PCOD8076902
Probable space group: P 21/M
;
_chemical_formula_sum "Si O2"
_cell_formula_units_Z 32
_cell_length_a 12.229334
_cell_length_b 26.923650
_cell_length_c 9.110239
_cell_angle_alpha 90.000000
_cell_angle_beta 149.355983
_cell_angle_gamma 90.000000
_cell_volume 1528.914842
_symmetry_space_group_name_H-M "P 21/M"
_symmetry_group_IT_number 11
_symmetry_cell_setting 'monoclinic'
loop_
_space_group_symop_operation_xyz
x,y,z
-x,1/2+y,-z
-x,-y,-z
x,1/2-y,z
loop_
_atom_site_type_symbol
_atom_site_label
_atom_site_fract_x
_atom_site_fract_y
_atom_site_fract_z
Si Si1 0.869810 0.453901 0.792491
Si Si2 0.968468 0.136976 0.286536
Si Si3 0.632572 0.872874 0.059556
Si Si4 0.824359 0.630286 0.775542
Si Si5 0.603594 0.431762 0.761160
Si Si6 0.843325 0.693372 0.069128
Si Si7 0.746080 0.306728 0.272497
Si Si8 0.527804 0.021807 0.192805
O O1 0.671632 0.441654 0.672280
O O2 0.776446 0.467960 0.524175
O O3 0.000000 0.500000 0.000000
O O4 0.028264 0.407632 0.962428
O O5 0.869597 0.183671 0.260689
O O6 0.170492 0.115250 0.606690
O O7 0.051482 0.152502 0.221717
O O8 0.794372 0.093630 0.072056
O O9 0.682774 0.835243 0.988666
O O10 0.440432 0.847624 0.929839
O O11 0.582382 0.924889 0.925495
O O12 0.604203 0.603642 0.474304
O O13 0.792851 0.676911 0.845126
O O14 0.566211 0.484278 0.795951
O O15 0.775647 0.750000 0.004214
O O16 0.090794 0.685604 0.403014
O O17 0.658442 0.250000 0.167893
O O18 0.500000 0.000000 0.000000
#
# Coordination Sequence:
#
# PCOD8076902 Si02
#       8
#     4   4   4   4   4   4   4   4
#     4  11  24  40  63  89 129 177 215 256 323 392
#     4  10  23  41  62  93 126 166 213 261 322 388
#     4  11  23  41  64  91 130 166 209 266 320 380
#     4  11  22  41  66  90 134 169 212 269 323 384
#     4  11  24  42  61  91 132 174 212 260 324 392
#     4  10  23  41  65  94 121 161 214 263 322 386
#     4  10  21  42  67  91 124 163 209 267 328 385
#     4  12  24  39  64  96 128 168 222 264 317 383
#
# _framework density 20.929877000000001
#
# number of rings (size 3 to 8) (size 9 to 14) (size 15 to 20)
#    0.000    1.250    1.250    4.500    3.500    3.500 
#    0.000    1.875    0.000    0.000    0.000    0.000 
#    0.000    0.000    0.000    0.000    0.000    0.000 
#
# Total GULP energy -396818.892975 kJ/mol
# GULP energy per Si atom -12400.590405 kJ/mol
# Density = 2.088224 g / cm^3
# Si number density = 20.929877 Si / 1000 Ang^3
#
#
#
# Elastic Constant Matrix: (Units=GPa)
#
#
# Indices 1 2 3 4 5 6 
#
# 1 85.8434 43.8591 52.6022 0.0000 -0.3466 0.0000
# 2 43.8591 129.2770 65.4293 0.0000 -4.9704 0.0000
# 3 52.6022 65.4293 141.1936 0.0000 -8.4954 0.0000
# 4 0.0000 0.0000 0.0000 28.3562 0.0000 1.2189
# 5 -0.3466 -4.9704 -8.4954 0.0000 33.4933 0.0000
# 6 0.0000 0.0000 0.0000 1.2189 0.0000 35.8242
#
#
#
# Elastic Compliance Matrix: (Units=1/GPa)
#
#
# Indices 1 2 3 4 5 6 
#
# 1 0.016094 -0.003184 -0.004609 0.000000 -0.001475 0.000000
# 2 -0.003184 0.010739 -0.003753 0.000000 0.000609 0.000000
# 3 -0.004609 -0.003753 0.010665 0.000000 0.002101 0.000000
# 4 0.000000 0.000000 0.000000 0.035317 0.000000 -0.001202
# 5 -0.001475 0.000609 0.002101 0.000000 0.030465 0.000000
# 6 0.000000 0.000000 0.000000 -0.001202 0.000000 0.027955
#
#
# Mechanical properties :
#
#
# Convention : Reuss Voigt Hill
#
# Bulk Modulus (GPa) = 69.42119 75.56613 72.49366
# Shear Modulus (GPa) = 31.42073 32.49630 31.95851
#
# Velocity S-wave (km/s) = 3.87878 3.94461 3.91184
# Velocity P-wave (km/s) = 7.30071 7.54516 7.42394
#
# Compressibility (1/GPa) = 0.01440482
#
# Stress axis : x y z
#
# Youngs Moduli (GPa) = 62.13332 93.12142 93.76116
#
# Poissons Ratio (x) = 0.29651 0.43217
# Poissons Ratio (y) = 0.19784 0.35193
# Poissons Ratio (z) = 0.28639 0.34952
#
# Static dielectric constant tensor:
#      x y z
#    x 3.925940 0.000000 -0.008870 
#    y 0.000000 4.083680 0.000000 
#    z -0.008870 0.000000 4.065980 
# 
# 
# High freq. dielectric constant tensor:
#      x y z
#    x 1.819050 0.000000 -0.002610 
#    y 0.000000 1.820200 0.000000 
#    z -0.002610 0.000000 1.832280 
# 
# From -- ./inp_files/19896.got.cif
#   From: 2010.06.25/outbox.cif.g09.slc.cpg/sg11_10_cif.got.tgz:19896.got - 2010.06.27 23:14:04.
