data_PCOD8076275
_publ_section_title
;
Structure prediction by ZEFSAII (Michael W. Deem and Ramdas Pophale) SiO2 
 PCOD8076275
Probable space group: P 21/M
;
_chemical_formula_sum "Si O2"
_cell_formula_units_Z 28
_cell_length_a 20.014315
_cell_length_b 8.902128
_cell_length_c 13.519475
_cell_angle_alpha 90.000000
_cell_angle_beta 144.759154
_cell_angle_gamma 90.000000
_cell_volume 1389.892710
_symmetry_space_group_name_H-M "P 21/M"
_symmetry_group_IT_number 11
_symmetry_cell_setting 'monoclinic'
loop_
_space_group_symop_operation_xyz
x,y,z
-x,1/2+y,-z
-x,-y,-z
x,1/2-y,z
loop_
_atom_site_type_symbol
_atom_site_label
_atom_site_fract_x
_atom_site_fract_y
_atom_site_fract_z
Si Si1 0.209297 0.071170 0.570781
Si Si2 0.607509 0.426840 0.075746
Si Si3 0.687607 0.928271 0.511838
Si Si4 0.882966 0.927983 0.897271
Si Si5 0.010047 0.073145 0.619174
Si Si6 0.210143 0.424515 0.006661
Si Si7 0.430187 0.574665 0.197218
O O1 0.204467 0.250000 0.573956
O O2 0.271136 0.015321 0.545743
O O3 0.275511 0.003311 0.744839
O O4 0.080985 0.003291 0.416729
O O5 0.608422 0.250000 0.097787
O O6 0.500000 0.500000 0.000000
O O7 0.599437 0.464023 0.951080
O O8 0.683701 0.750000 0.504839
O O9 0.775982 0.987054 0.701445
O O10 0.558273 0.990135 0.377165
O O11 0.896043 0.750000 0.904645
O O12 0.858701 0.981868 0.979771
O O13 0.000000 0.000000 0.000000
O O14 0.986010 0.250000 0.582054
O O15 0.135564 0.039892 0.818342
O O16 0.000000 0.000000 0.500000
O O17 0.234046 0.250000 0.047614
O O18 0.335328 0.500885 0.153320
O O19 0.426403 0.750000 0.212832
#
# Coordination Sequence:
#
# PCOD8076275 Si02
#       7
#     4   4   4   4   4   4   4
#     4  11  21  36  58  85 117 151 194 241 290 344
#     4  11  21  35  56  84 119 157 196 237 285 341
#     4   9  19  37  59  84 114 151 189 234 287 344
#     4  10  21  40  64  86 114 148 189 238 293 346
#     4  11  23  39  57  82 116 152 194 240 292 350
#     4  10  23  40  58  85 119 151 187 243 297 338
#     4  10  21  38  58  83 116 154 196 232 278 351
#
# _framework density 20.145439
#
# number of rings (size 3 to 8) (size 9 to 14) (size 15 to 20)
#    0.000    1.714    1.429    3.000    0.000    5.714 
#    0.000    1.429    0.000    0.000    0.000    0.000 
#    0.000    0.000    0.000    0.000    0.000    0.000 
#
# Total GULP energy -347266.621334 kJ/mol
# GULP energy per Si atom -12402.379333 kJ/mol
# Density = 2.009959 g / cm^3
# Si number density = 20.145439 Si / 1000 Ang^3
#
#
#
# Elastic Constant Matrix: (Units=GPa)
#
#
# Indices 1 2 3 4 5 6 
#
# 1 143.2703 43.7018 71.4370 0.0000 16.3261 0.0000
# 2 43.7018 55.8447 44.0508 0.0000 -0.3549 0.0000
# 3 71.4370 44.0508 141.2224 0.0000 7.4723 0.0000
# 4 0.0000 0.0000 0.0000 29.8683 0.0000 8.7556
# 5 16.3261 -0.3549 7.4723 0.0000 38.6106 0.0000
# 6 0.0000 0.0000 0.0000 8.7556 0.0000 34.2812
#
#
#
# Elastic Compliance Matrix: (Units=1/GPa)
#
#
# Indices 1 2 3 4 5 6 
#
# 1 0.010971 -0.005837 -0.003517 0.000000 -0.004012 0.000000
# 2 -0.005837 0.026963 -0.005660 0.000000 0.003811 0.000000
# 3 -0.003517 -0.005660 0.010658 0.000000 -0.000628 0.000000
# 4 0.000000 0.000000 0.000000 0.036190 0.000000 -0.009243
# 5 -0.004012 0.003811 -0.000628 0.000000 0.027753 0.000000
# 6 0.000000 0.000000 0.000000 -0.009243 0.000000 0.031531
#
#
# Mechanical properties :
#
#
# Convention : Reuss Voigt Hill
#
# Bulk Modulus (GPa) = 53.86110 73.19074 63.52592
# Shear Modulus (GPa) = 27.73448 32.62853 30.18150
#
# Velocity S-wave (km/s) = 3.71443 4.02885 3.87483
# Velocity P-wave (km/s) = 6.72236 7.61920 7.18479
#
# Compressibility (1/GPa) = 0.01856627
#
# Stress axis : x y z
#
# Youngs Moduli (GPa) = 91.15029 37.08778 93.82213
#
# Poissons Ratio (x) = 0.21648 0.32994
# Poissons Ratio (y) = 0.53204 0.53099
# Poissons Ratio (z) = 0.32054 0.20990
#
# Static dielectric constant tensor:
#      x y z
#    x 3.646580 0.000000 0.098450 
#    y 0.000000 3.519530 0.000000 
#    z 0.098450 0.000000 3.818630 
# 
# 
# High freq. dielectric constant tensor:
#      x y z
#    x 1.793440 0.000000 0.007140 
#    y 0.000000 1.769450 0.000000 
#    z 0.007140 0.000000 1.799680 
# 
# From -- ./inp_files/54637.got.cif
#   From: 2010.06.25/outbox.cif.g09.slc.cpg/sg11_28_cif.got.tgz:54637.got - 2010.06.27 23:14:04.
