data_PCOD8076547
_publ_section_title
;
Structure prediction by ZEFSAII (Michael W. Deem and Ramdas Pophale) SiO2 
 PCOD8076547
Probable space group: P 21/M
;
_chemical_formula_sum "Si O2"
_cell_formula_units_Z 24
_cell_length_a 13.511432
_cell_length_b 8.672719
_cell_length_c 10.203334
_cell_angle_alpha 90.000000
_cell_angle_beta 78.887041
_cell_angle_gamma 90.000000
_cell_volume 1173.216136
_symmetry_space_group_name_H-M "P 21/M"
_symmetry_group_IT_number 11
_symmetry_cell_setting 'monoclinic'
loop_
_space_group_symop_operation_xyz
x,y,z
-x,1/2+y,-z
-x,-y,-z
x,1/2-y,z
loop_
_atom_site_type_symbol
_atom_site_label
_atom_site_fract_x
_atom_site_fract_y
_atom_site_fract_z
Si Si1 0.396258 0.927890 0.283129
Si Si2 0.269057 0.431625 0.087498
Si Si3 0.374630 0.433077 0.796178
Si Si4 0.041768 0.433235 0.122704
Si Si5 0.275028 0.571370 0.568874
Si Si6 0.936438 0.568351 0.398633
O O1 0.389481 0.750000 0.245489
O O2 0.509891 0.988826 0.238750
O O3 0.363178 0.956922 0.440887
O O4 0.323107 0.018561 0.205822
O O5 0.265991 0.250000 0.083840
O O6 0.155182 0.496253 0.115763
O O7 0.329433 0.491895 0.945216
O O8 0.364911 0.250000 0.779188
O O9 0.312477 0.517105 0.699862
O O10 0.038887 0.250000 0.118946
O O11 0.970324 0.492976 0.254965
O O12 0.000000 0.500000 0.000000
O O13 0.243654 0.750000 0.583362
O O14 0.179995 0.471045 0.547726
O O15 0.952262 0.750000 0.388932
O O16 0.000000 0.500000 0.500000
#
# Coordination Sequence:
#
# PCOD8076547 Si02
#       6
#     4   4   4   4   4   4
#     4  10  22  38  59  87 120 155 195 241 292 349
#     4  10  22  38  59  86 117 153 196 240 290 349
#     4  10  21  39  60  87 121 156 194 240 291 349
#     4  11  23  40  62  91 123 160 203 249 300 358
#     4  11  23  39  60  89 119 154 199 244 294 357
#     4  12  25  42  63  88 119 158 201 252 307 362
#
# _framework density 20.456589000000001
#
# number of rings (size 3 to 8) (size 9 to 14) (size 15 to 20)
#    0.000    1.333    0.000    5.500    0.000    8.000 
#    0.000    0.000    0.000    0.000    0.000    0.000 
#    0.000    0.000    0.000    0.000    0.000    0.000 
#
# Total GULP energy -297754.878455 kJ/mol
# GULP energy per Si atom -12406.453269 kJ/mol
# Density = 2.041003 g / cm^3
# Si number density = 20.456589 Si / 1000 Ang^3
#
#
#
# Elastic Constant Matrix: (Units=GPa)
#
#
# Indices 1 2 3 4 5 6 
#
# 1 107.6090 25.9015 9.1647 0.0000 3.8289 0.0000
# 2 25.9015 63.6224 27.0318 0.0000 1.6704 0.0000
# 3 9.1647 27.0318 92.4590 0.0000 6.6283 0.0000
# 4 0.0000 0.0000 0.0000 33.3462 0.0000 10.2937
# 5 3.8289 1.6704 6.6283 0.0000 44.7159 0.0000
# 6 0.0000 0.0000 0.0000 10.2937 0.0000 31.1475
#
#
#
# Elastic Compliance Matrix: (Units=1/GPa)
#
#
# Indices 1 2 3 4 5 6 
#
# 1 0.010333 -0.004310 0.000291 0.000000 -0.000767 0.000000
# 2 -0.004310 0.019746 -0.005376 0.000000 0.000428 0.000000
# 3 0.000291 -0.005376 0.012479 0.000000 -0.001674 0.000000
# 4 0.000000 0.000000 0.000000 0.033395 0.000000 -0.011037
# 5 -0.000767 0.000428 -0.001674 0.000000 0.022661 0.000000
# 6 0.000000 0.000000 0.000000 -0.011037 0.000000 0.035753
#
#
# Mechanical properties :
#
#
# Convention : Reuss Voigt Hill
#
# Bulk Modulus (GPa) = 42.07728 43.09850 42.58789
# Shear Modulus (GPa) = 31.04061 35.28142 33.16101
#
# Velocity S-wave (km/s) = 3.89959 4.15745 4.03059
# Velocity P-wave (km/s) = 6.39449 6.64529 6.52110
#
# Compressibility (1/GPa) = 0.02376580
#
# Stress axis : x y z
#
# Youngs Moduli (GPa) = 96.77869 50.64444 80.13703
#
# Poissons Ratio (x) = 0.21828 -0.02331
# Poissons Ratio (y) = 0.41713 0.43085
# Poissons Ratio (z) = -0.02815 0.27228
#
# Static dielectric constant tensor:
#      x y z
#    x 3.983990 0.000000 -0.091540 
#    y 0.000000 3.675000 0.000000 
#    z -0.091540 0.000000 3.762130 
# 
# 
# High freq. dielectric constant tensor:
#      x y z
#    x 1.817220 0.000000 -0.003130 
#    y 0.000000 1.796300 0.000000 
#    z -0.003130 0.000000 1.816710 
# 
# From -- ./inp_files/20418.got.cif
#   From: 2010.06.25/outbox.cif.g09.slc.cpg/sg11_11_cif.got.tgz:20418.got - 2010.06.27 23:14:04.
