data_PCOD8076191
_publ_section_title
;
Structure prediction by ZEFSAII (Michael W. Deem and Ramdas Pophale) SiO2 
 PCOD8076191
Probable space group: P 21/M
;
_chemical_formula_sum "Si O2"
_cell_formula_units_Z 28
_cell_length_a 8.687374
_cell_length_b 13.930897
_cell_length_c 11.571101
_cell_angle_alpha 90.000000
_cell_angle_beta 110.440532
_cell_angle_gamma 90.000000
_cell_volume 1312.194387
_symmetry_space_group_name_H-M "P 21/M"
_symmetry_group_IT_number 11
_symmetry_cell_setting 'monoclinic'
loop_
_space_group_symop_operation_xyz
x,y,z
-x,1/2+y,-z
-x,-y,-z
x,1/2-y,z
loop_
_atom_site_type_symbol
_atom_site_label
_atom_site_fract_x
_atom_site_fract_y
_atom_site_fract_z
Si Si1 0.407114 0.365787 0.402804
Si Si2 0.127581 0.491658 0.221863
Si Si3 0.997947 0.913318 0.412555
Si Si4 0.271802 0.646107 0.634993
Si Si5 0.321126 0.638958 0.127495
Si Si6 0.170390 0.638808 0.854052
Si Si7 0.631348 0.639646 0.348728
O O1 0.389918 0.250000 0.392550
O O2 0.264551 0.415044 0.293207
O O3 0.578559 0.405000 0.392863
O O4 0.397315 0.405673 0.531760
O O5 0.074447 0.560706 0.311175
O O6 0.184312 0.566060 0.139203
O O7 0.978229 0.426136 0.137782
O O8 0.117493 0.838317 0.508465
O O9 0.813399 0.876284 0.347902
O O10 0.000000 0.000000 0.500000
O O11 0.336179 0.750000 0.690293
O O12 0.225279 0.593425 0.743806
O O13 0.283393 0.750000 0.154333
O O14 0.497807 0.602415 0.220633
O O15 0.316806 0.631849 0.986506
O O16 0.113205 0.750000 0.823269
O O17 0.598180 0.750000 0.356887
#
# Coordination Sequence:
#
# PCOD8076191 Si02
#       7
#     4   4   4   4   4   4   4
#     4  10  21  37  61  92 118 149 193 244 298 353
#     4  12  23  37  64  88 123 154 197 245 301 351
#     4  12  22  34  58  91 121 148 195 240 303 353
#     4  10  21  38  61  86 118 155 197 246 298 352
#     4  10  24  42  61  84 118 161 202 243 292 351
#     4  10  21  42  63  85 117 157 202 245 292 350
#     4  10  21  40  60  84 119 158 196 241 297 353
#
# _framework density 21.338301999999999
#
# number of rings (size 3 to 8) (size 9 to 14) (size 15 to 20)
#    0.000    1.429    2.857    2.143    2.000    5.714 
#    0.000    4.286    0.000    3.429    0.000    0.000 
#    0.000    0.000    0.000    0.000    0.000    0.000 
#
# Total GULP energy -347009.458196 kJ/mol
# GULP energy per Si atom -12393.194936 kJ/mol
# Density = 2.128974 g / cm^3
# Si number density = 21.338302 Si / 1000 Ang^3
#
#
#
# Elastic Constant Matrix: (Units=GPa)
#
#
# Indices 1 2 3 4 5 6 
#
# 1 130.1935 21.8488 51.6372 0.0000 6.5369 0.0000
# 2 21.8488 55.5132 28.7345 0.0000 0.0602 0.0000
# 3 51.6372 28.7345 123.6563 0.0000 8.4809 0.0000
# 4 0.0000 0.0000 0.0000 20.2432 0.0000 -5.1354
# 5 6.5369 0.0602 8.4809 0.0000 30.5867 0.0000
# 6 0.0000 0.0000 0.0000 -5.1354 0.0000 20.1715
#
#
#
# Elastic Compliance Matrix: (Units=1/GPa)
#
#
# Indices 1 2 3 4 5 6 
#
# 1 0.009411 -0.001940 -0.003406 0.000000 -0.001063 0.000000
# 2 -0.001940 0.020928 -0.004158 0.000000 0.001526 0.000000
# 3 -0.003406 -0.004158 0.010627 0.000000 -0.002210 0.000000
# 4 0.000000 0.000000 0.000000 0.052810 0.000000 0.013445
# 5 -0.001063 0.001526 -0.002210 0.000000 0.033531 0.000000
# 6 0.000000 0.000000 0.000000 0.013445 0.000000 0.052998
#
#
# Mechanical properties :
#
#
# Convention : Reuss Voigt Hill
#
# Bulk Modulus (GPa) = 45.54084 57.08932 51.31508
# Shear Modulus (GPa) = 24.19778 28.00979 26.10378
#
# Velocity S-wave (km/s) = 3.37115 3.62699 3.50141
# Velocity P-wave (km/s) = 6.04496 6.65977 6.35980
#
# Compressibility (1/GPa) = 0.02195831
#
# Stress axis : x y z
#
# Youngs Moduli (GPa) = 106.26211 47.78383 94.09950
#
# Poissons Ratio (x) = 0.09268 0.32052
# Poissons Ratio (y) = 0.20611 0.39124
# Poissons Ratio (z) = 0.36195 0.19867
#
# Static dielectric constant tensor:
#      x y z
#    x 3.707880 0.000000 0.342870 
#    y 0.000000 3.763230 0.000000 
#    z 0.342870 0.000000 6.498330 
# 
# 
# High freq. dielectric constant tensor:
#      x y z
#    x 1.831000 0.000000 0.004190 
#    y 0.000000 1.845470 0.000000 
#    z 0.004190 0.000000 1.832870 
# 
# From -- ./inp_files/17915.got.cif
#   From: 2010.06.25/outbox.cif.g09.slc.cpg/sg11_9_cif.got.tgz:17915.got - 2010.06.27 23:14:04.
