data_PCOD8076455
_publ_section_title
;
Structure prediction by ZEFSAII (Michael W. Deem and Ramdas Pophale) SiO2 
 PCOD8076455
Probable space group: P 21/M
;
_chemical_formula_sum "Si O2"
_cell_formula_units_Z 24
_cell_length_a 15.841017
_cell_length_b 8.542631
_cell_length_c 9.108226
_cell_angle_alpha 90.000000
_cell_angle_beta 73.225449
_cell_angle_gamma 90.000000
_cell_volume 1180.113023
_symmetry_space_group_name_H-M "P 21/M"
_symmetry_group_IT_number 11
_symmetry_cell_setting 'monoclinic'
loop_
_space_group_symop_operation_xyz
x,y,z
-x,1/2+y,-z
-x,-y,-z
x,1/2-y,z
loop_
_atom_site_type_symbol
_atom_site_label
_atom_site_fract_x
_atom_site_fract_y
_atom_site_fract_z
Si Si1 0.246750 0.432144 0.973022
Si Si2 0.083104 0.565795 0.542163
Si Si3 0.085452 0.564178 0.877183
Si Si4 0.603452 0.068916 0.287219
Si Si5 0.598576 0.931610 0.598225
Si Si6 0.745703 0.433515 0.714244
O O1 0.237316 0.250000 0.014365
O O2 0.171737 0.485250 0.899210
O O3 0.341307 0.464700 0.853157
O O4 0.235780 0.530257 0.126310
O O5 0.079462 0.750000 0.531299
O O6 0.080346 0.510444 0.711278
O O7 0.172284 0.503064 0.422212
O O8 0.000000 0.500000 0.500000
O O9 0.091543 0.750000 0.891195
O O10 0.000000 0.500000 0.000000
O O11 0.624785 0.250000 0.247221
O O12 0.501669 0.026775 0.309518
O O13 0.629772 0.029949 0.441374
O O14 0.607368 0.750000 0.554331
O O15 0.658269 0.976198 0.706659
O O16 0.731013 0.250000 0.699682
#
# Coordination Sequence:
#
# PCOD8076455 Si02
#       6
#     4   4   4   4   4   4
#     4  12  25  40  60  88 120 157 202 251 302 356
#     4  10  23  40  61  87 116 152 193 238 288 347
#     4  11  23  41  63  90 122 156 197 244 298 359
#     4  10  21  39  62  88 120 158 199 245 299 359
#     4  10  21  38  62  91 120 154 199 248 298 356
#     4  11  23  40  61  86 119 159 200 246 302 359
#
# _framework density 20.337035
#
# number of rings (size 3 to 8) (size 9 to 14) (size 15 to 20)
#    0.000    1.333    0.000    5.500    0.000    9.333 
#    0.000    0.000    0.000    0.000    0.000    0.000 
#    0.000    0.000    0.000    0.000    0.000    0.000 
#
# Total GULP energy -297781.617280 kJ/mol
# GULP energy per Si atom -12407.567387 kJ/mol
# Density = 2.029075 g / cm^3
# Si number density = 20.337035 Si / 1000 Ang^3
#
#
#
# Elastic Constant Matrix: (Units=GPa)
#
#
# Indices 1 2 3 4 5 6 
#
# 1 130.4053 35.7922 67.9585 0.0000 4.5539 0.0000
# 2 35.7922 53.0419 21.5388 0.0000 -7.4804 0.0000
# 3 67.9585 21.5388 135.9510 0.0000 -6.8106 0.0000
# 4 0.0000 0.0000 0.0000 35.0738 0.0000 1.5326
# 5 4.5539 -7.4804 -6.8106 0.0000 38.3049 0.0000
# 6 0.0000 0.0000 0.0000 1.5326 0.0000 37.8765
#
#
#
# Elastic Compliance Matrix: (Units=1/GPa)
#
#
# Indices 1 2 3 4 5 6 
#
# 1 0.012431 -0.006751 -0.005332 0.000000 -0.003744 0.000000
# 2 -0.006751 0.024264 -0.000194 0.000000 0.005507 0.000000
# 3 -0.005332 -0.000194 0.010172 0.000000 0.002405 0.000000
# 4 0.000000 0.000000 0.000000 0.028562 0.000000 -0.001156
# 5 -0.003744 0.005507 0.002405 0.000000 0.028054 0.000000
# 6 0.000000 0.000000 0.000000 -0.001156 0.000000 0.026448
#
#
# Mechanical properties :
#
#
# Convention : Reuss Voigt Hill
#
# Bulk Modulus (GPa) = 44.81585 63.33080 54.07333
# Shear Modulus (GPa) = 30.87916 35.19164 33.03540
#
# Velocity S-wave (km/s) = 3.90086 4.16435 4.03475
# Velocity P-wave (km/s) = 6.50948 7.37093 6.95356
#
# Compressibility (1/GPa) = 0.02231353
#
# Stress axis : x y z
#
# Youngs Moduli (GPa) = 80.44624 41.21375 98.30971
#
# Poissons Ratio (x) = 0.27824 0.52416
# Poissons Ratio (y) = 0.54310 0.01903
# Poissons Ratio (z) = 0.42892 0.00798
#
# Static dielectric constant tensor:
#      x y z
#    x 3.758850 0.000000 -0.061680 
#    y 0.000000 3.747470 0.000000 
#    z -0.061680 0.000000 3.769770 
# 
# 
# High freq. dielectric constant tensor:
#      x y z
#    x 1.808640 0.000000 -0.002070 
#    y 0.000000 1.801090 0.000000 
#    z -0.002070 0.000000 1.801970 
# 
# From -- ./inp_files/20410.got.cif
#   From: 2010.06.25/outbox.cif.g09.slc.cpg/sg11_11_cif.got.tgz:20410.got - 2010.06.27 23:14:04.
