data_PCOD8076921
_publ_section_title
;
Structure prediction by ZEFSAII (Michael W. Deem and Ramdas Pophale) SiO2 
 PCOD8076921
Probable space group: P 21/M
;
_chemical_formula_sum "Si O2"
_cell_formula_units_Z 28
_cell_length_a 5.473127
_cell_length_b 18.918373
_cell_length_c 12.656623
_cell_angle_alpha 90.000000
_cell_angle_beta 88.910183
_cell_angle_gamma 90.000000
_cell_volume 1310.263329
_symmetry_space_group_name_H-M "P 21/M"
_symmetry_group_IT_number 11
_symmetry_cell_setting 'monoclinic'
loop_
_space_group_symop_operation_xyz
x,y,z
-x,1/2+y,-z
-x,-y,-z
x,1/2-y,z
loop_
_atom_site_type_symbol
_atom_site_label
_atom_site_fract_x
_atom_site_fract_y
_atom_site_fract_z
Si Si1 0.204850 0.011730 0.285946
Si Si2 0.050863 0.899947 0.441163
Si Si3 0.280018 0.670541 0.032837
Si Si4 0.887010 0.454136 0.095123
Si Si5 0.949693 0.827172 0.241690
Si Si6 0.461849 0.423248 0.455715
Si Si7 0.562193 0.926877 0.162461
O O1 0.407627 0.067176 0.329754
O O2 0.044234 0.051405 0.200330
O O3 0.056349 0.979951 0.388780
O O4 0.318151 0.941144 0.231495
O O5 0.278894 0.884483 0.520745
O O6 0.092065 0.841100 0.349558
O O7 0.783293 0.886614 0.494502
O O8 0.344292 0.750000 0.993212
O O9 0.522070 0.626565 0.064159
O O10 0.119525 0.672998 0.138473
O O11 0.151948 0.626812 0.940127
O O12 0.636835 0.495187 0.122302
O O13 0.000000 0.500000 0.000000
O O14 0.820735 0.750000 0.248155
O O15 0.759803 0.891824 0.237118
O O16 0.500000 0.500000 0.500000
#
# Coordination Sequence:
#
# PCOD8076921 Si02
#       7
#     4   4   4   4   4   4   4
#     4  11  22  34  58  92 120 157 202 257 317 360
#     4  11  20  39  56  88 128 158 202 254 311 375
#     4  11  24  40  57  87 125 164 205 251 319 391
#     4  12  22  38  60  89 122 160 210 261 318 367
#     4  11  22  36  59  88 124 164 203 258 322 382
#     4  10  22  34  59  87 123 158 194 251 312 370
#     4  12  20  37  60  86 128 155 207 266 314 373
#
# _framework density 21.369748999999999
#
# number of rings (size 3 to 8) (size 9 to 14) (size 15 to 20)
#    0.000    0.857    5.714    4.286    2.000    0.000 
#    0.000    0.000    0.000    1.714    0.000    0.000 
#    0.000    0.000    0.000    0.000    0.000    0.000 
#
# Total GULP energy -346915.553181 kJ/mol
# GULP energy per Si atom -12389.841185 kJ/mol
# Density = 2.132111 g / cm^3
# Si number density = 21.369749 Si / 1000 Ang^3
#
#
#
# Elastic Constant Matrix: (Units=GPa)
#
#
# Indices 1 2 3 4 5 6 
#
# 1 101.0686 26.6813 35.9489 0.0000 20.9667 0.0000
# 2 26.6813 115.4221 44.8076 0.0000 14.9039 0.0000
# 3 35.9489 44.8076 104.5532 0.0000 38.2249 0.0000
# 4 0.0000 0.0000 0.0000 8.9267 0.0000 6.6876
# 5 20.9667 14.9039 38.2249 0.0000 37.2765 0.0000
# 6 0.0000 0.0000 0.0000 6.6876 0.0000 18.4497
#
#
#
# Elastic Compliance Matrix: (Units=1/GPa)
#
#
# Indices 1 2 3 4 5 6 
#
# 1 0.011815 -0.001447 -0.001958 0.000000 -0.004059 0.000000
# 2 -0.001447 0.010580 -0.004460 0.000000 0.001157 0.000000
# 3 -0.001958 -0.004460 0.017749 0.000000 -0.015315 0.000000
# 4 0.000000 0.000000 0.000000 0.153785 0.000000 -0.055744
# 5 -0.004059 0.001157 -0.015315 0.000000 0.044352 0.000000
# 6 0.000000 0.000000 0.000000 -0.055744 0.000000 0.074407
#
#
# Mechanical properties :
#
#
# Convention : Reuss Voigt Hill
#
# Bulk Modulus (GPa) = 40.96078 59.54663 50.25371
# Shear Modulus (GPa) = 14.85637 27.17098 21.01367
#
# Velocity S-wave (km/s) = 2.63954 3.56963 3.13922
# Velocity P-wave (km/s) = 5.33843 6.70188 6.05863
#
# Compressibility (1/GPa) = 0.02441359
#
# Stress axis : x y z
#
# Youngs Moduli (GPa) = 84.63983 94.51582 56.34264
#
# Poissons Ratio (x) = 0.13674 0.11034
# Poissons Ratio (y) = 0.12246 0.25128
# Poissons Ratio (z) = 0.16576 0.42152
#
# Static dielectric constant tensor:
#      x y z
#    x 4.203330 0.000000 0.432760 
#    y 0.000000 3.868050 0.000000 
#    z 0.432760 0.000000 4.342140 
# 
# 
# High freq. dielectric constant tensor:
#      x y z
#    x 1.840950 0.000000 0.016750 
#    y 0.000000 1.795420 0.000000 
#    z 0.016750 0.000000 1.834780 
# 
# From -- ./inp_files/29891.got.cif
#   From: 2010.06.25/outbox.cif.g09.slc.cpg/sg11_15_cif.got.tgz:29891.got - 2010.06.27 23:14:04.
