data_PCOD8076056
_publ_section_title
;
Structure prediction by ZEFSAII (Michael W. Deem and Ramdas Pophale) SiO2 
 PCOD8076056
Probable space group: P 21/M
;
_chemical_formula_sum "Si O2"
_cell_formula_units_Z 28
_cell_length_a 14.644044
_cell_length_b 8.942000
_cell_length_c 18.971737
_cell_angle_alpha 90.000000
_cell_angle_beta 148.400416
_cell_angle_gamma 90.000000
_cell_volume 1301.719067
_symmetry_space_group_name_H-M "P 21/M"
_symmetry_group_IT_number 11
_symmetry_cell_setting 'monoclinic'
loop_
_space_group_symop_operation_xyz
x,y,z
-x,1/2+y,-z
-x,-y,-z
x,1/2-y,z
loop_
_atom_site_type_symbol
_atom_site_label
_atom_site_fract_x
_atom_site_fract_y
_atom_site_fract_z
Si Si1 0.331935 0.913482 0.910664
Si Si2 0.346525 0.574370 0.690068
Si Si3 0.002729 0.072028 0.078428
Si Si4 0.275225 0.075174 0.006937
Si Si5 0.232861 0.428141 0.489327
Si Si6 0.687280 0.572966 0.613712
Si Si7 0.070628 0.586794 0.617176
O O1 0.375281 0.750000 0.971762
O O2 0.234813 0.888749 0.774511
O O3 0.500000 0.000000 0.000000
O O4 0.222048 0.007517 0.896264
O O5 0.319398 0.750000 0.661599
O O6 0.518376 0.543372 0.848608
O O7 0.385114 0.494238 0.639904
O O8 0.163233 0.508239 0.608012
O O9 0.993055 0.250000 0.065951
O O10 0.177473 0.023726 0.236424
O O11 0.000000 0.000000 0.000000
O O12 0.832377 0.011092 0.004736
O O13 0.230687 0.250000 0.981738
O O14 0.232663 0.250000 0.488497
O O15 0.241470 0.485964 0.415029
O O16 0.066404 0.498192 0.421700
O O17 0.500000 0.500000 0.500000
O O18 0.663279 0.750000 0.597423
O O19 0.997246 0.750000 0.546897
#
# Coordination Sequence:
#
# PCOD8076056 Si02
#       7
#     4   4   4   4   4   4   4
#     4  11  20  35  58  85 120 164 209 258 316 379
#     4  10  21  37  57  86 125 167 205 253 313 369
#     4  11  25  46  71 100 131 167 211 267 331 389
#     4  11  23  40  61  91 129 167 213 264 320 385
#     4  10  21  38  61  87 117 158 209 255 307 378
#     4  10  24  45  68  95 127 166 212 264 324 387
#     4   9  18  36  58  82 121 163 200 252 314 370
#
# _framework density 21.510017000000001
#
# number of rings (size 3 to 8) (size 9 to 14) (size 15 to 20)
#    0.000    1.714    1.429    2.571    2.000    5.143 
#    0.000    2.857    0.000    0.000    0.000    0.000 
#    0.000    0.000    0.000    0.000    0.000    0.000 
#
# Total GULP energy -346911.461701 kJ/mol
# GULP energy per Si atom -12389.695061 kJ/mol
# Density = 2.146106 g / cm^3
# Si number density = 21.510017 Si / 1000 Ang^3
#
#
#
# Elastic Constant Matrix: (Units=GPa)
#
#
# Indices 1 2 3 4 5 6 
#
# 1 187.9895 49.2278 57.7786 0.0000 -10.6684 0.0000
# 2 49.2278 67.0032 24.2946 0.0000 -1.1175 0.0000
# 3 57.7786 24.2946 56.4741 0.0000 0.1307 0.0000
# 4 0.0000 0.0000 0.0000 29.7040 0.0000 -1.9459
# 5 -10.6684 -1.1175 0.1307 0.0000 38.7580 0.0000
# 6 0.0000 0.0000 0.0000 -1.9459 0.0000 37.8993
#
#
#
# Elastic Compliance Matrix: (Units=1/GPa)
#
#
# Indices 1 2 3 4 5 6 
#
# 1 0.008648 -0.003679 -0.007270 0.000000 0.002299 0.000000
# 2 -0.003679 0.019259 -0.004520 0.000000 -0.000442 0.000000
# 3 -0.007270 -0.004520 0.027095 0.000000 -0.002223 0.000000
# 4 0.000000 0.000000 0.000000 0.033779 0.000000 0.001734
# 5 0.002299 -0.000442 -0.002223 0.000000 0.026429 0.000000
# 6 0.000000 0.000000 0.000000 0.001734 0.000000 0.026475
#
#
# Mechanical properties :
#
#
# Convention : Reuss Voigt Hill
#
# Bulk Modulus (GPa) = 41.55683 63.78541 52.67112
# Shear Modulus (GPa) = 27.67872 33.28334 30.48103
#
# Velocity S-wave (km/s) = 3.59107 3.93789 3.76847
# Velocity P-wave (km/s) = 6.04616 7.09889 6.59357
#
# Compressibility (1/GPa) = 0.02406343
#
# Stress axis : x y z
#
# Youngs Moduli (GPa) = 115.63586 51.92291 36.90735
#
# Poissons Ratio (x) = 0.19104 0.26832
# Poissons Ratio (y) = 0.42545 0.16682
# Poissons Ratio (z) = 0.84069 0.23469
#
# Static dielectric constant tensor:
#      x y z
#    x 15.948950 0.000000 -8.094540 
#    y 0.000000 3.738010 0.000000 
#    z -8.094540 0.000000 9.381410 
# 
# 
# High freq. dielectric constant tensor:
#      x y z
#    x 1.861120 0.000000 -0.009760 
#    y 0.000000 1.832120 0.000000 
#    z -0.009760 0.000000 1.852210 
# 
# From -- ./inp_files/65468.got.cif
#   From: 2010.06.25/outbox.cif.g09.slc.cpg/sg11_33_cif.got.tgz:65468.got - 2010.06.27 23:14:04.
