data_PCOD8076514
_publ_section_title
;
Structure prediction by ZEFSAII (Michael W. Deem and Ramdas Pophale) SiO2 
 PCOD8076514
Probable space group: P 21/M
;
_chemical_formula_sum "Si O2"
_cell_formula_units_Z 32
_cell_length_a 8.798299
_cell_length_b 13.803679
_cell_length_c 23.214411
_cell_angle_alpha 90.000000
_cell_angle_beta 149.942666
_cell_angle_gamma 90.000000
_cell_volume 1412.124848
_symmetry_space_group_name_H-M "P 21/M"
_symmetry_group_IT_number 11
_symmetry_cell_setting 'monoclinic'
loop_
_space_group_symop_operation_xyz
x,y,z
-x,1/2+y,-z
-x,-y,-z
x,1/2-y,z
loop_
_atom_site_type_symbol
_atom_site_label
_atom_site_fract_x
_atom_site_fract_y
_atom_site_fract_z
Si Si1 0.581473 0.140818 0.932310
Si Si2 0.770961 0.360611 0.121429
Si Si3 0.347429 0.437508 0.076420
Si Si4 0.829275 0.854186 0.298310
Si Si5 0.726995 0.985165 0.522142
Si Si6 0.374875 0.031799 0.293328
Si Si7 0.787702 0.143968 0.835921
Si Si8 0.709440 0.365007 0.303048
O O1 0.709380 0.250000 0.958602
O O2 0.239828 0.129317 0.792835
O O3 0.773555 0.050119 0.967857
O O4 0.572770 0.129701 0.998140
O O5 0.773457 0.250000 0.144056
O O6 0.622161 0.427475 0.120956
O O7 0.117213 0.391901 0.225683
O O8 0.479925 0.413822 0.182448
O O9 0.079805 0.365063 0.972801
O O10 0.982290 0.750000 0.358226
O O11 0.500637 0.861884 0.218276
O O12 0.040186 0.927352 0.399874
O O13 0.935646 0.888448 0.594514
O O14 0.500000 0.000000 0.500000
O O15 0.545704 0.987637 0.403855
O O16 0.619995 0.088274 0.334818
O O17 0.213787 0.939907 0.211607
O O18 0.804184 0.250000 0.811157
O O19 0.667253 0.250000 0.289900
#
# Coordination Sequence:
#
# PCOD8076514 Si02
#       8
#     4   4   4   4   4   4   4   4
#     4  10  21  38  67  97 134 180 225 277 347 426
#     4  11  24  41  65 103 145 186 230 285 359 428
#     4  12  23  44  69 103 146 182 226 293 353 422
#     4  10  23  44  69  99 135 178 226 282 350 420
#     4  12  27  48  73 101 138 182 237 295 357 415
#     4  12  26  45  71 100 137 188 233 292 347 414
#     4  11  24  41  69 104 139 180 227 284 352 421
#     4  12  27  47  73 104 139 183 239 293 348 420
#
# _framework density 22.660886999999999
#
# number of rings (size 3 to 8) (size 9 to 14) (size 15 to 20)
#    0.000    0.750    3.750    3.000    1.750    3.000 
#    0.000    0.000    0.000    0.000    0.000    0.000 
#    0.000    0.000    0.000    0.000    0.000    0.000 
#
# Total GULP energy -396707.930120 kJ/mol
# GULP energy per Si atom -12397.122816 kJ/mol
# Density = 2.260931 g / cm^3
# Si number density = 22.660887 Si / 1000 Ang^3
#
#
#
# Elastic Constant Matrix: (Units=GPa)
#
#
# Indices 1 2 3 4 5 6 
#
# 1 72.8428 22.9035 35.5957 0.0000 2.7889 0.0000
# 2 22.9035 146.5893 28.4989 0.0000 -1.6865 0.0000
# 3 35.5957 28.4989 112.6616 0.0000 -13.8038 0.0000
# 4 0.0000 0.0000 0.0000 22.6718 0.0000 -0.1534
# 5 2.7889 -1.6865 -13.8038 0.0000 39.5820 0.0000
# 6 0.0000 0.0000 0.0000 -0.1534 0.0000 20.9848
#
#
#
# Elastic Compliance Matrix: (Units=1/GPa)
#
#
# Indices 1 2 3 4 5 6 
#
# 1 0.016970 -0.001652 -0.005327 0.000000 -0.003124 0.000000
# 2 -0.001652 0.007340 -0.001339 0.000000 -0.000038 0.000000
# 3 -0.005327 -0.001339 0.011425 0.000000 0.004303 0.000000
# 4 0.000000 0.000000 0.000000 0.044110 0.000000 0.000323
# 5 -0.003124 -0.000038 0.004303 0.000000 0.026983 0.000000
# 6 0.000000 0.000000 0.000000 0.000323 0.000000 0.047656
#
#
# Mechanical properties :
#
#
# Convention : Reuss Voigt Hill
#
# Bulk Modulus (GPa) = 52.35807 56.23220 54.29514
# Shear Modulus (GPa) = 28.17124 32.98742 30.57933
#
# Velocity S-wave (km/s) = 3.52968 3.81950 3.67745
# Velocity P-wave (km/s) = 6.30609 6.65732 6.48408
#
# Compressibility (1/GPa) = 0.01909925
#
# Stress axis : x y z
#
# Youngs Moduli (GPa) = 58.92719 136.24285 87.52661
#
# Poissons Ratio (x) = 0.22505 0.46622
# Poissons Ratio (y) = 0.09734 0.11724
# Poissons Ratio (z) = 0.31388 0.18249
#
# Static dielectric constant tensor:
#      x y z
#    x 3.996790 0.000000 -0.153830 
#    y 0.000000 4.497330 0.000000 
#    z -0.153830 0.000000 3.767650 
# 
# 
# High freq. dielectric constant tensor:
#      x y z
#    x 1.884900 0.000000 -0.010650 
#    y 0.000000 1.916090 0.000000 
#    z -0.010650 0.000000 1.890740 
# 
# From -- ./inp_files/68156.got.cif
#   From: 2010.06.25/outbox.cif.g09.slc.cpg/sg11_35_cif.got.tgz:68156.got - 2010.06.27 23:14:04.
