data_PCOD8076303
_publ_section_title
;
Structure prediction by ZEFSAII (Michael W. Deem and Ramdas Pophale) SiO2 
 PCOD8076303
Probable space group: P 21/M
;
_chemical_formula_sum "Si O2"
_cell_formula_units_Z 20
_cell_length_a 12.179517
_cell_length_b 17.479940
_cell_length_c 9.083940
_cell_angle_alpha 90.000000
_cell_angle_beta 30.769266
_cell_angle_gamma 90.000000
_cell_volume 989.371845
_symmetry_space_group_name_H-M "P 21/M"
_symmetry_group_IT_number 11
_symmetry_cell_setting 'monoclinic'
loop_
_space_group_symop_operation_xyz
x,y,z
-x,1/2+y,-z
-x,-y,-z
x,1/2-y,z
loop_
_atom_site_type_symbol
_atom_site_label
_atom_site_fract_x
_atom_site_fract_y
_atom_site_fract_z
Si Si1 0.030222 0.080257 0.895912
Si Si2 0.235169 0.338170 0.914934
Si Si3 0.218839 0.043838 0.196271
Si Si4 0.571294 0.582581 0.756033
Si Si5 0.632354 0.164759 0.254797
O O1 0.072136 0.145827 0.968857
O O2 0.220570 0.057773 0.570152
O O3 0.825938 0.105207 0.036664
O O4 0.000000 0.000000 0.000000
O O5 0.207142 0.250000 0.998849
O O6 0.472758 0.352768 0.575391
O O7 0.175279 0.395949 0.115834
O O8 0.342217 0.094765 0.178202
O O9 0.000000 0.000000 0.500000
O O10 0.388599 0.981030 0.950538
O O11 0.480301 0.657561 0.776635
O O12 0.722776 0.250000 0.162666
#
# Coordination Sequence:
#
# PCOD8076303 Si02
#       5
#     4   4   4   4   4
#     4  11  20  36  62  86 112 149 193 241 294 350
#     4  10  22  38  58  86 116 148 193 246 297 350
#     4  11  22  39  59  85 120 158 199 242 291 350
#     4  10  22  37  57  84 114 151 197 240 285 351
#     4  10  21  38  59  85 116 151 193 245 302 352
#
# _framework density 20.214843999999999
#
# number of rings (size 3 to 8) (size 9 to 14) (size 15 to 20)
#    0.000    1.600    0.000    5.400    0.000    6.400 
#    0.000    3.000    0.000    0.000    0.000    0.000 
#    0.000    0.000    0.000    0.000    0.000    0.000 
#
# Total GULP energy -247778.951983 kJ/mol
# GULP energy per Si atom -12388.947599 kJ/mol
# Density = 2.016883 g / cm^3
# Si number density = 20.214844 Si / 1000 Ang^3
#
#
#
# Elastic Constant Matrix: (Units=GPa)
#
#
# Indices 1 2 3 4 5 6 
#
# 1 102.4482 31.5294 39.4750 0.0000 2.7935 0.0000
# 2 31.5294 82.5953 50.2073 0.0000 0.5476 0.0000
# 3 39.4750 50.2073 113.9425 0.0000 -6.1976 0.0000
# 4 0.0000 0.0000 0.0000 30.7855 0.0000 3.0953
# 5 2.7935 0.5476 -6.1976 0.0000 33.9360 0.0000
# 6 0.0000 0.0000 0.0000 3.0953 0.0000 33.0835
#
#
#
# Elastic Compliance Matrix: (Units=1/GPa)
#
#
# Indices 1 2 3 4 5 6 
#
# 1 0.011772 -0.002672 -0.002981 0.000000 -0.001470 0.000000
# 2 -0.002672 0.017231 -0.006737 0.000000 -0.001288 0.000000
# 3 -0.002981 -0.006737 0.012925 0.000000 0.002715 0.000000
# 4 0.000000 0.000000 0.000000 0.032791 0.000000 -0.003068
# 5 -0.001470 -0.001288 0.002715 0.000000 0.030105 0.000000
# 6 0.000000 0.000000 0.000000 -0.003068 0.000000 0.030514
#
#
# Mechanical properties :
#
#
# Convention : Reuss Voigt Hill
#
# Bulk Modulus (GPa) = 58.31433 60.15660 59.23546
# Shear Modulus (GPa) = 30.15062 31.41263 30.78163
#
# Velocity S-wave (km/s) = 3.86620 3.94628 3.90644
# Velocity P-wave (km/s) = 6.98855 7.11248 7.05079
#
# Compressibility (1/GPa) = 0.01714844
#
# Stress axis : x y z
#
# Youngs Moduli (GPa) = 84.94673 58.03503 77.36750
#
# Poissons Ratio (x) = 0.15507 0.23063
# Poissons Ratio (y) = 0.22698 0.52122
# Poissons Ratio (z) = 0.25323 0.39098
#
# Static dielectric constant tensor:
#      x y z
#    x 3.230370 0.000000 -0.022520 
#    y 0.000000 2.501630 0.000000 
#    z -0.022520 0.000000 3.735770 
# 
# 
# High freq. dielectric constant tensor:
#      x y z
#    x 1.801890 0.000000 -0.005790 
#    y 0.000000 1.780230 0.000000 
#    z -0.005790 0.000000 1.795010 
# 
# From -- ./inp_files/1894.got.cif
#   From: 2010.06.25/outbox.cif.g09.slc.cpg/sg11_1_cif.got.tgz:1894.got - 2010.06.27 23:14:04.
