data_PCOD8076697
_publ_section_title
;
Structure prediction by ZEFSAII (Michael W. Deem and Ramdas Pophale) SiO2 
 PCOD8076697
Probable space group: P 21/M
;
_chemical_formula_sum "Si O2"
_cell_formula_units_Z 24
_cell_length_a 18.033111
_cell_length_b 13.469546
_cell_length_c 9.100569
_cell_angle_alpha 90.000000
_cell_angle_beta 32.072561
_cell_angle_gamma 90.000000
_cell_volume 1173.764089
_symmetry_space_group_name_H-M "P 21/M"
_symmetry_group_IT_number 11
_symmetry_cell_setting 'monoclinic'
loop_
_space_group_symop_operation_xyz
x,y,z
-x,1/2+y,-z
-x,-y,-z
x,1/2-y,z
loop_
_atom_site_type_symbol
_atom_site_label
_atom_site_fract_x
_atom_site_fract_y
_atom_site_fract_z
Si Si1 0.208586 0.955371 0.886990
Si Si2 0.531415 0.365562 0.702399
Si Si3 0.425278 0.864854 0.038648
Si Si4 0.733648 0.510547 0.887348
Si Si5 0.084904 0.134893 0.620850
Si Si6 0.728396 0.637674 0.410732
O O1 0.331245 0.885193 0.622515
O O2 0.217396 0.066083 0.807656
O O3 0.064335 0.906341 0.078438
O O4 0.214718 0.958360 0.051823
O O5 0.494116 0.250000 0.764791
O O6 0.552612 0.404877 0.833006
O O7 0.401583 0.422882 0.849296
O O8 0.381286 0.750000 0.117800
O O9 0.300093 0.924789 0.174005
O O10 0.564626 0.880986 0.709680
O O11 0.859089 0.577753 0.615984
O O12 0.072332 0.250000 0.601509
O O13 0.193774 0.116217 0.568214
O O14 0.756864 0.750000 0.310174
#
# Coordination Sequence:
#
# PCOD8076697 Si02
#       6
#     4   4   4   4   4   4
#     4  12  25  40  60  98 128 161 197 260 316 360
#     4  11  22  39  64  91 122 162 213 255 299 361
#     4  10  21  39  65  94 123 163 210 254 299 359
#     4  12  23  41  63  93 124 165 202 251 315 369
#     4  11  24  44  65  85 123 169 211 249 302 371
#     4  10  21  40  65  92 122 165 210 254 300 358
#
# _framework density 20.447039
#
# number of rings (size 3 to 8) (size 9 to 14) (size 15 to 20)
#    0.000    1.000    3.333    4.000    0.000    2.667 
#    0.000    2.500    0.000    0.000    0.000    0.000 
#    0.000    0.000    0.000    0.000    0.000    0.000 
#
# Total GULP energy -297811.711662 kJ/mol
# GULP energy per Si atom -12408.821319 kJ/mol
# Density = 2.040050 g / cm^3
# Si number density = 20.447039 Si / 1000 Ang^3
#
#
#
# Elastic Constant Matrix: (Units=GPa)
#
#
# Indices 1 2 3 4 5 6 
#
# 1 54.5988 26.7391 1.4930 0.0000 10.4062 0.0000
# 2 26.7391 72.1275 12.7843 0.0000 -4.3550 0.0000
# 3 1.4930 12.7843 81.9336 0.0000 -8.3586 0.0000
# 4 0.0000 0.0000 0.0000 41.0863 0.0000 4.3099
# 5 10.4062 -4.3550 -8.3586 0.0000 21.3447 0.0000
# 6 0.0000 0.0000 0.0000 4.3099 0.0000 18.3236
#
#
#
# Elastic Compliance Matrix: (Units=1/GPa)
#
#
# Indices 1 2 3 4 5 6 
#
# 1 0.026443 -0.010656 -0.000371 0.000000 -0.015211 0.000000
# 2 -0.010656 0.018646 -0.001872 0.000000 0.008266 0.000000
# 3 -0.000371 -0.001872 0.013003 0.000000 0.004891 0.000000
# 4 0.000000 0.000000 0.000000 0.024955 0.000000 -0.005870
# 5 -0.015211 0.008266 0.004891 0.000000 0.057868 0.000000
# 6 0.000000 0.000000 0.000000 -0.005870 0.000000 0.055955
#
#
# Mechanical properties :
#
#
# Convention : Reuss Voigt Hill
#
# Bulk Modulus (GPa) = 30.96516 32.29921 31.63218
# Shear Modulus (GPa) = 21.41956 27.32714 24.37335
#
# Velocity S-wave (km/s) = 3.24012 3.65976 3.45632
# Velocity P-wave (km/s) = 5.40137 5.80425 5.60643
#
# Compressibility (1/GPa) = 0.03229436
#
# Stress axis : x y z
#
# Youngs Moduli (GPa) = 37.81676 53.63212 76.90657
#
# Poissons Ratio (x) = 0.57149 0.02854
# Poissons Ratio (y) = 0.40297 0.14396
# Poissons Ratio (z) = 0.01403 0.10039
#
# Static dielectric constant tensor:
#      x y z
#    x 3.551070 0.000000 -0.046810 
#    y 0.000000 3.835450 0.000000 
#    z -0.046810 0.000000 3.597870 
# 
# 
# High freq. dielectric constant tensor:
#      x y z
#    x 1.790890 0.000000 -0.002030 
#    y 0.000000 1.817890 0.000000 
#    z -0.002030 0.000000 1.795710 
# 
# From -- ./inp_files/12470.got.cif
#   From: 2010.06.25/outbox.cif.g09.slc.cpg/sg11_7_cif.got.tgz:12470.got - 2010.06.27 23:14:04.
