data_PCOD8076654
_publ_section_title
;
Structure prediction by ZEFSAII (Michael W. Deem and Ramdas Pophale) SiO2 
 PCOD8076654
Probable space group: P 21/M
;
_chemical_formula_sum "Si O2"
_cell_formula_units_Z 32
_cell_length_a 11.044642
_cell_length_b 15.118208
_cell_length_c 9.261017
_cell_angle_alpha 90.000000
_cell_angle_beta 74.978310
_cell_angle_gamma 90.000000
_cell_volume 1493.517559
_symmetry_space_group_name_H-M "P 21/M"
_symmetry_group_IT_number 11
_symmetry_cell_setting 'monoclinic'
loop_
_space_group_symop_operation_xyz
x,y,z
-x,1/2+y,-z
-x,-y,-z
x,1/2-y,z
loop_
_atom_site_type_symbol
_atom_site_label
_atom_site_fract_x
_atom_site_fract_y
_atom_site_fract_z
Si Si1 0.606819 0.347971 0.829893
Si Si2 0.271149 0.350636 0.759523
Si Si3 0.964901 0.849188 0.984588
Si Si4 0.164959 0.401583 0.242062
Si Si5 0.495046 0.483589 0.671699
Si Si6 0.085608 0.350208 0.566639
Si Si7 0.138414 0.592496 0.159629
Si Si8 0.446707 0.349906 0.156082
O O1 0.579824 0.250000 0.774937
O O2 0.607004 0.421600 0.700976
O O3 0.743171 0.343087 0.862971
O O4 0.501463 0.373101 0.981416
O O5 0.322134 0.250000 0.770879
O O6 0.167758 0.377082 0.908149
O O7 0.374302 0.425524 0.747612
O O8 0.213134 0.356119 0.618236
O O9 0.997652 0.750000 0.022691
O O10 0.078933 0.906266 0.016321
O O11 0.947077 0.857596 0.818409
O O12 0.107813 0.409388 0.419218
O O13 0.194214 0.496774 0.169662
O O14 0.295483 0.348801 0.198109
O O15 0.500000 0.500000 0.500000
O O16 0.497709 0.579590 0.746783
O O17 0.060242 0.250000 0.525464
O O18 0.967994 0.384426 0.692213
O O19 0.488424 0.250000 0.188391
#
# Coordination Sequence:
#
# PCOD8076654 Si02
#       8
#     4   4   4   4   4   4   4   4
#     4  11  24  44  68  93 130 176 213 257 325 394
#     4   9  20  38  63  90 123 165 211 255 308 378
#     4  10  21  39  63  92 121 160 207 258 313 372
#     4  12  22  38  64  97 122 156 215 271 312 363
#     4  12  24  39  63  95 129 165 214 272 320 379
#     4  10  21  40  64  90 126 169 207 256 314 379
#     4  11  23  40  63  92 130 169 207 252 316 389
#     4  11  25  44  67  95 127 170 222 273 320 377
#
# _framework density 21.425930000000001
#
# number of rings (size 3 to 8) (size 9 to 14) (size 15 to 20)
#    0.000    1.250    1.250    6.000    1.750    4.000 
#    0.000    0.000    0.000    1.500    0.000    0.000 
#    0.000    0.000    0.000    0.000    0.000    0.000 
#
# Total GULP energy -396721.192824 kJ/mol
# GULP energy per Si atom -12397.537276 kJ/mol
# Density = 2.137716 g / cm^3
# Si number density = 21.425930 Si / 1000 Ang^3
#
#
#
# Elastic Constant Matrix: (Units=GPa)
#
#
# Indices 1 2 3 4 5 6 
#
# 1 101.0188 25.6709 31.4156 0.0000 10.8113 0.0000
# 2 25.6709 127.2705 32.7788 0.0000 14.0513 0.0000
# 3 31.4156 32.7788 100.8025 0.0000 19.8001 0.0000
# 4 0.0000 0.0000 0.0000 -27.6274 0.0000 46.4803
# 5 10.8113 14.0513 19.8001 0.0000 25.5689 0.0000
# 6 0.0000 0.0000 0.0000 46.4803 0.0000 0.7419
#
#
#
# Elastic Compliance Matrix: (Units=1/GPa)
#
#
# Indices 1 2 3 4 5 6 
#
# 1 0.011292 -0.001370 -0.002693 0.000000 -0.001936 0.000000
# 2 -0.001370 0.008943 -0.001922 0.000000 -0.002847 0.000000
# 3 -0.002693 -0.001922 0.012919 0.000000 -0.007809 0.000000
# 4 0.000000 0.000000 0.000000 -0.000340 0.000000 0.021312
# 5 -0.001936 -0.002847 -0.007809 0.000000 0.047540 0.000000
# 6 0.000000 0.000000 0.000000 0.021312 0.000000 0.012668
#
#
# Mechanical properties :
#
#
# Convention : Reuss Voigt Hill
#
# Bulk Modulus (GPa) = 47.20810 56.53583 51.87196
# Shear Modulus (GPa) = 44.62157 15.68511 30.15334
#
# Velocity S-wave (km/s) = 4.56850 2.70860 3.75551
# Velocity P-wave (km/s) = 7.06465 6.01880 6.56259
#
# Compressibility (1/GPa) = 0.02118281
#
# Stress axis : x y z
#
# Youngs Moduli (GPa) = 88.55704 111.81999 77.40770
#
# Poissons Ratio (x) = 0.15322 0.20849
# Poissons Ratio (y) = 0.12134 0.14876
# Poissons Ratio (z) = 0.23852 0.21489
#
# Static dielectric constant tensor:
#      x y z
#    x 3.789460 0.000000 0.219600 
#    y 0.000000 4.000770 0.000000 
#    z 0.219600 0.000000 3.844610 
# 
# 
# High freq. dielectric constant tensor:
#      x y z
#    x 1.836670 0.000000 0.015290 
#    y 0.000000 1.853570 0.000000 
#    z 0.015290 0.000000 1.832150 
# 
# From -- ./inp_files/18033.got.cif
#   From: 2010.06.25/outbox.cif.g09.slc.cpg/sg11_10_cif.got.tgz:18033.got - 2010.06.27 23:14:04.
