data_PCOD8076261
_publ_section_title
;
Structure prediction by ZEFSAII (Michael W. Deem and Ramdas Pophale) SiO2 
 PCOD8076261
Probable space group: P 21/M
;
_chemical_formula_sum "Si O2"
_cell_formula_units_Z 28
_cell_length_a 15.749445
_cell_length_b 8.901659
_cell_length_c 11.729293
_cell_angle_alpha 90.000000
_cell_angle_beta 116.847810
_cell_angle_gamma 90.000000
_cell_volume 1467.150876
_symmetry_space_group_name_H-M "P 21/M"
_symmetry_group_IT_number 11
_symmetry_cell_setting 'monoclinic'
loop_
_space_group_symop_operation_xyz
x,y,z
-x,1/2+y,-z
-x,-y,-z
x,1/2-y,z
loop_
_atom_site_type_symbol
_atom_site_label
_atom_site_fract_x
_atom_site_fract_y
_atom_site_fract_z
Si Si1 0.882393 0.926942 0.535133
Si Si2 0.589720 0.072957 0.114122
Si Si3 0.707737 0.923996 0.580771
Si Si4 0.324762 0.573554 0.206140
Si Si5 0.928128 0.923767 0.311846
Si Si6 0.456127 0.077059 0.687069
Si Si7 0.747400 0.925100 0.060811
O O1 0.886347 0.750000 0.543461
O O2 0.786631 0.983023 0.539097
O O3 0.882395 0.982605 0.403552
O O4 0.974473 0.990050 0.656975
O O5 0.583351 0.250000 0.096460
O O6 0.591553 0.027382 0.246950
O O7 0.684079 0.014952 0.111612
O O8 0.500000 0.000000 0.000000
O O9 0.723959 0.750000 0.622439
O O10 0.602950 0.947708 0.464311
O O11 0.717559 0.023807 0.699052
O O12 0.310744 0.750000 0.180958
O O13 0.435449 0.527536 0.267045
O O14 0.266120 0.487189 0.073993
O O15 0.953472 0.750000 0.340107
O O16 0.856226 0.952102 0.164087
O O17 0.449825 0.250000 0.723624
O O18 0.719896 0.750000 0.048608
#
# Coordination Sequence:
#
# PCOD8076261 Si02
#       7
#     4   4   4   4   4   4   4
#     4   9  18  35  59  86 113 142 180 229 282 335
#     4  12  23  35  55  83 115 149 186 229 277 329
#     4  10  21  38  59  81 111 152 192 231 282 338
#     4  11  23  37  55  81 114 151 193 237 278 331
#     4   9  19  36  60  87 113 143 179 226 285 339
#     4  10  21  38  58  81 113 151 190 235 283 333
#     4  11  22  38  59  82 114 153 189 229 283 340
#
# _framework density 19.084606999999998
#
# number of rings (size 3 to 8) (size 9 to 14) (size 15 to 20)
#    0.000    1.714    1.429    3.429    0.000    5.143 
#    0.000    3.571    0.000    0.000    0.000    0.000 
#    0.000    0.000    0.000    0.000    0.000    0.000 
#
# Total GULP energy -347301.744288 kJ/mol
# GULP energy per Si atom -12403.633725 kJ/mol
# Density = 1.904117 g / cm^3
# Si number density = 19.084607 Si / 1000 Ang^3
#
#
#
# Elastic Constant Matrix: (Units=GPa)
#
#
# Indices 1 2 3 4 5 6 
#
# 1 74.1804 28.1035 50.7893 0.0000 3.3604 0.0000
# 2 28.1035 76.1495 43.3308 0.0000 -1.6487 0.0000
# 3 50.7893 43.3308 116.3600 0.0000 3.5883 0.0000
# 4 0.0000 0.0000 0.0000 29.5207 0.0000 0.0538
# 5 3.3604 -1.6487 3.5883 0.0000 27.3708 0.0000
# 6 0.0000 0.0000 0.0000 0.0538 0.0000 31.2568
#
#
#
# Elastic Compliance Matrix: (Units=1/GPa)
#
#
# Indices 1 2 3 4 5 6 
#
# 1 0.019834 -0.003119 -0.007445 0.000000 -0.001647 0.000000
# 2 -0.003119 0.017245 -0.005125 0.000000 0.002094 0.000000
# 3 -0.007445 -0.005125 0.013789 0.000000 -0.001202 0.000000
# 4 0.000000 0.000000 0.000000 0.033875 0.000000 -0.000058
# 5 -0.001647 0.002094 -0.001202 0.000000 0.037021 0.000000
# 6 0.000000 0.000000 0.000000 -0.000058 0.000000 0.031993
#
#
# Mechanical properties :
#
#
# Convention : Reuss Voigt Hill
#
# Bulk Modulus (GPa) = 51.30805 56.79300 54.05053
# Shear Modulus (GPa) = 26.09166 27.26073 26.67620
#
# Velocity S-wave (km/s) = 3.70152 3.78354 3.74275
# Velocity P-wave (km/s) = 6.72393 6.99357 6.86007
#
# Compressibility (1/GPa) = 0.01949012
#
# Stress axis : x y z
#
# Youngs Moduli (GPa) = 50.41737 57.98890 72.52096
#
# Poissons Ratio (x) = 0.18088 0.53992
# Poissons Ratio (y) = 0.15727 0.37165
# Poissons Ratio (z) = 0.37536 0.29718
#
# Static dielectric constant tensor:
#      x y z
#    x 3.547980 0.000000 0.081480 
#    y 0.000000 3.530560 0.000000 
#    z 0.081480 0.000000 3.702650 
# 
# 
# High freq. dielectric constant tensor:
#      x y z
#    x 1.733500 0.000000 0.003870 
#    y 0.000000 1.741190 0.000000 
#    z 0.003870 0.000000 1.745040 
# 
# From -- ./inp_files/37655.got.cif
#   From: 2010.06.25/outbox.cif.g09.slc.cpg/sg11_19_cif.got.tgz:37655.got - 2010.06.27 23:14:04.
