data_PCOD8076141
_publ_section_title
;
Structure prediction by ZEFSAII (Michael W. Deem and Ramdas Pophale) SiO2 
 PCOD8076141
Probable space group: P 21/M
;
_chemical_formula_sum "Si O2"
_cell_formula_units_Z 32
_cell_length_a 21.131960
_cell_length_b 8.860714
_cell_length_c 27.151683
_cell_angle_alpha 90.000000
_cell_angle_beta 18.570999
_cell_angle_gamma 90.000000
_cell_volume 1619.148922
_symmetry_space_group_name_H-M "P 21/M"
_symmetry_group_IT_number 11
_symmetry_cell_setting 'monoclinic'
loop_
_space_group_symop_operation_xyz
x,y,z
-x,1/2+y,-z
-x,-y,-z
x,1/2-y,z
loop_
_atom_site_type_symbol
_atom_site_label
_atom_site_fract_x
_atom_site_fract_y
_atom_site_fract_z
Si Si1 0.591102 0.425367 0.980172
Si Si2 0.969153 0.926722 0.948617
Si Si3 0.733457 0.071730 0.460062
Si Si4 0.686843 0.426557 0.230578
Si Si5 0.052509 0.071232 0.146418
Si Si6 0.520740 0.570707 0.132689
Si Si7 0.874933 0.572609 0.548385
Si Si8 0.037992 0.077657 0.625562
O O1 0.532817 0.250000 0.025726
O O2 0.826652 0.449224 0.806756
O O3 0.500000 0.500000 0.000000
O O4 0.495535 0.514494 0.095757
O O5 0.921055 0.750000 0.986506
O O6 0.999130 0.982818 0.870614
O O7 0.169074 0.967404 0.830340
O O8 0.780635 0.011880 0.110813
O O9 0.718768 0.250000 0.468286
O O10 0.888345 0.006432 0.305260
O O11 0.520289 0.004518 0.604747
O O12 0.802048 0.024662 0.464134
O O13 0.653157 0.250000 0.249779
O O14 0.051991 0.250000 0.150608
O O15 0.270926 0.010878 0.999287
O O16 0.502312 0.750000 0.148159
O O17 0.344605 0.497000 0.293909
O O18 0.862898 0.750000 0.567013
O O19 0.977947 0.534148 0.420218
O O20 0.000000 0.500000 0.500000
O O21 0.108313 0.250000 0.578958
#
# Coordination Sequence:
#
# PCOD8076141 Si02
#       8
#     4   4   4   4   4   4   4   4
#     4  11  22  38  62  88 117 156 197 243 299 355
#     4   9  19  39  63  87 119 159 200 240 288 345
#     4  11  22  38  61  87 117 156 200 241 291 354
#     4  10  21  37  59  90 124 156 194 243 293 345
#     4   9  20  38  60  87 117 154 200 245 286 343
#     4  11  22  39  60  87 121 156 199 246 294 352
#     4  11  24  42  62  88 119 154 197 247 301 360
#     4  10  23  41  59  85 120 152 193 246 296 346
#
# _framework density 19.763468
#
# number of rings (size 3 to 8) (size 9 to 14) (size 15 to 20)
#    0.000    1.750    1.250    2.625    1.750    3.500 
#    0.000    1.875    0.000    0.000    0.000    0.000 
#    0.000    0.000    0.000    0.000    0.000    0.000 
#
# Total GULP energy -396936.330209 kJ/mol
# GULP energy per Si atom -12404.260319 kJ/mol
# Density = 1.971849 g / cm^3
# Si number density = 19.763468 Si / 1000 Ang^3
#
#
#
# Elastic Constant Matrix: (Units=GPa)
#
#
# Indices 1 2 3 4 5 6 
#
# 1 110.4038 33.6436 35.5020 0.0000 3.6688 0.0000
# 2 33.6436 77.7354 41.7852 0.0000 -1.0311 0.0000
# 3 35.5020 41.7852 108.8949 0.0000 -4.2737 0.0000
# 4 0.0000 0.0000 0.0000 35.4691 0.0000 -2.3240
# 5 3.6688 -1.0311 -4.2737 0.0000 31.3124 0.0000
# 6 0.0000 0.0000 0.0000 -2.3240 0.0000 29.9978
#
#
#
# Elastic Compliance Matrix: (Units=1/GPa)
#
#
# Indices 1 2 3 4 5 6 
#
# 1 0.010920 -0.003527 -0.002274 0.000000 -0.001706 0.000000
# 2 -0.003527 0.017349 -0.005498 0.000000 0.000234 0.000000
# 3 -0.002274 -0.005498 0.012103 0.000000 0.001737 0.000000
# 4 0.000000 0.000000 0.000000 0.028337 0.000000 0.002195
# 5 -0.001706 0.000234 0.001737 0.000000 0.032381 0.000000
# 6 0.000000 0.000000 0.000000 0.002195 0.000000 0.033506
#
#
# Mechanical properties :
#
#
# Convention : Reuss Voigt Hill
#
# Bulk Modulus (GPa) = 56.26128 57.65507 56.95818
# Shear Modulus (GPa) = 30.65263 31.76276 31.20769
#
# Velocity S-wave (km/s) = 3.94251 4.01327 3.97805
# Velocity P-wave (km/s) = 7.01810 7.12117 7.06982
#
# Compressibility (1/GPa) = 0.01777421
#
# Stress axis : x y z
#
# Youngs Moduli (GPa) = 91.57319 57.64012 82.62754
#
# Poissons Ratio (x) = 0.20327 0.18789
# Poissons Ratio (y) = 0.32294 0.45431
# Poissons Ratio (z) = 0.20823 0.31692
#
# Static dielectric constant tensor:
#      x y z
#    x 3.646580 0.000000 0.059210 
#    y 0.000000 3.521340 0.000000 
#    z 0.059210 0.000000 3.895550 
# 
# 
# High freq. dielectric constant tensor:
#      x y z
#    x 1.776950 0.000000 0.000800 
#    y 0.000000 1.764950 0.000000 
#    z 0.000800 0.000000 1.779110 
# 
# From -- ./inp_files/72010.got.cif
#   From: 2010.06.25/outbox.cif.g09.slc.cpg/sg11_37_cif.got.tgz:72010.got - 2010.06.27 23:14:04.
