data_PCOD8076998
_publ_section_title
;
Structure prediction by ZEFSAII (Michael W. Deem and Ramdas Pophale) SiO2 
 PCOD8076998
Probable space group: P 21/M
;
_chemical_formula_sum "Si O2"
_cell_formula_units_Z 32
_cell_length_a 8.606829
_cell_length_b 24.984034
_cell_length_c 13.374089
_cell_angle_alpha 90.000000
_cell_angle_beta 147.897229
_cell_angle_gamma 90.000000
_cell_volume 1528.353501
_symmetry_space_group_name_H-M "P 21/M"
_symmetry_group_IT_number 11
_symmetry_cell_setting 'monoclinic'
loop_
_space_group_symop_operation_xyz
x,y,z
-x,1/2+y,-z
-x,-y,-z
x,1/2-y,z
loop_
_atom_site_type_symbol
_atom_site_label
_atom_site_fract_x
_atom_site_fract_y
_atom_site_fract_z
Si Si1 0.759343 0.191107 0.979674
Si Si2 0.675419 0.009229 0.358176
Si Si3 0.946350 0.877816 0.709927
Si Si4 0.524320 0.446851 0.073485
Si Si5 0.990306 0.628339 0.185504
Si Si6 0.527327 0.390861 0.705177
Si Si7 0.546488 0.390651 0.405454
Si Si8 0.301754 0.307959 0.130054
O O1 0.607592 0.250000 0.906573
O O2 0.546467 0.145960 0.815338
O O3 0.864752 0.172810 0.147952
O O4 0.034844 0.197509 0.059317
O O5 0.538044 0.951960 0.305269
O O6 0.497799 0.039790 0.175730
O O7 0.663032 0.049519 0.445897
O O8 0.000000 0.000000 0.500000
O O9 0.723791 0.862981 0.499376
O O10 0.759746 0.899311 0.703167
O O11 0.164559 0.922000 0.786323
O O12 0.500000 0.500000 0.000000
O O13 0.246513 0.410988 0.895187
O O14 0.166184 0.604907 0.186283
O O15 0.220631 0.641554 0.398702
O O16 0.811786 0.679091 0.044317
O O17 0.514990 0.354581 0.287962
O O18 0.462159 0.250000 0.212381
#
# Coordination Sequence:
#
# PCOD8076998 Si02
#       8
#     4   4   4   4   4   4   4   4
#     4   9  19  38  63  91 121 156 205 257 302 359
#     4  12  23  39  62  89 126 165 201 250 302 368
#     4  10  22  40  60  89 123 161 202 251 304 364
#     4  12  24  38  59  87 126 165 201 251 306 357
#     4  10  22  38  59  92 123 159 206 255 299 363
#     4  10  22  38  62  92 123 161 207 248 303 365
#     4  10  22  39  63  90 122 163 209 244 304 369
#     4   9  18  38  63  91 122 156 204 259 306 356
#
# _framework density 20.937564999999999
#
# number of rings (size 3 to 8) (size 9 to 14) (size 15 to 20)
#    0.000    1.750    2.500    1.500    1.750    2.500 
#    0.000    5.625    0.000    3.750    0.000    0.000 
#    0.000    0.000    0.000    0.000    0.000    0.000 
#
# Total GULP energy -396606.641067 kJ/mol
# GULP energy per Si atom -12393.957533 kJ/mol
# Density = 2.088991 g / cm^3
# Si number density = 20.937565 Si / 1000 Ang^3
#
#
#
# Elastic Constant Matrix: (Units=GPa)
#
#
# Indices 1 2 3 4 5 6 
#
# 1 54.8867 36.3000 31.4953 0.0000 -4.8464 0.0000
# 2 36.3000 151.9983 52.0407 0.0000 -14.8018 0.0000
# 3 31.4953 52.0407 105.5809 0.0000 -14.5005 0.0000
# 4 0.0000 0.0000 0.0000 25.2751 0.0000 -8.6896
# 5 -4.8464 -14.8018 -14.5005 0.0000 35.7715 0.0000
# 6 0.0000 0.0000 0.0000 -8.6896 0.0000 8.7027
#
#
#
# Elastic Compliance Matrix: (Units=1/GPa)
#
#
# Indices 1 2 3 4 5 6 
#
# 1 0.023776 -0.003942 -0.005222 0.000000 -0.000527 0.000000
# 2 -0.003942 0.008678 -0.002840 0.000000 0.001906 0.000000
# 3 -0.005222 -0.002840 0.012888 0.000000 0.003342 0.000000
# 4 0.000000 0.000000 0.000000 0.060246 0.000000 0.060156
# 5 -0.000527 0.001906 0.003342 0.000000 0.030027 0.000000
# 6 0.000000 0.000000 0.000000 0.060156 0.000000 0.174974
#
#
# Mechanical properties :
#
#
# Convention : Reuss Voigt Hill
#
# Bulk Modulus (GPa) = 46.87096 61.34863 54.10980
# Shear Modulus (GPa) = 14.63236 26.79186 20.71211
#
# Velocity S-wave (km/s) = 2.64646 3.58104 3.14862
# Velocity P-wave (km/s) = 5.63675 6.81636 6.25443
#
# Compressibility (1/GPa) = 0.02133517
#
# Stress axis : x y z
#
# Youngs Moduli (GPa) = 42.05888 115.23039 77.59191
#
# Poissons Ratio (x) = 0.45419 0.40519
# Poissons Ratio (y) = 0.16578 0.22036
# Poissons Ratio (z) = 0.21963 0.32725
#
# Static dielectric constant tensor:
#      x y z
#    x 3.036450 0.000000 -0.895570 
#    y 0.000000 3.928610 0.000000 
#    z -0.895570 0.000000 3.054470 
# 
# 
# High freq. dielectric constant tensor:
#      x y z
#    x 1.809500 0.000000 -0.011180 
#    y 0.000000 1.810360 0.000000 
#    z -0.011180 0.000000 1.824480 
# 
# From -- ./inp_files/48480.got.cif
#   From: 2010.06.25/outbox.cif.g09.slc.cpg/sg11_25_cif.got.tgz:48480.got - 2010.06.27 23:14:04.
