data_PCOD8076690
_publ_section_title
;
Structure prediction by ZEFSAII (Michael W. Deem and Ramdas Pophale) SiO2 
 PCOD8076690
Probable space group: P 21/M
;
_chemical_formula_sum "Si O2"
_cell_formula_units_Z 32
_cell_length_a 9.229695
_cell_length_b 19.002839
_cell_length_c 14.243852
_cell_angle_alpha 90.000000
_cell_angle_beta 139.831358
_cell_angle_gamma 90.000000
_cell_volume 1611.460428
_symmetry_space_group_name_H-M "P 21/M"
_symmetry_group_IT_number 11
_symmetry_cell_setting 'monoclinic'
loop_
_space_group_symop_operation_xyz
x,y,z
-x,1/2+y,-z
-x,-y,-z
x,1/2-y,z
loop_
_atom_site_type_symbol
_atom_site_label
_atom_site_fract_x
_atom_site_fract_y
_atom_site_fract_z
Si Si1 0.008031 0.932943 0.573259
Si Si2 0.342968 0.669654 0.651250
Si Si3 0.538034 0.921110 0.415144
Si Si4 0.399808 0.071346 0.341653
Si Si5 0.869920 0.333334 0.831673
Si Si6 0.053609 0.569546 0.966303
Si Si7 0.635861 0.670268 0.975718
Si Si8 0.320558 0.939960 0.907281
O O1 0.122379 0.865482 0.583871
O O2 0.135524 0.952873 0.733795
O O3 0.758368 0.902212 0.464946
O O4 0.000000 0.000000 0.500000
O O5 0.289992 0.750000 0.597551
O O6 0.403409 0.625545 0.588070
O O7 0.548217 0.663949 0.825865
O O8 0.629950 0.936553 0.563299
O O9 0.350537 0.860181 0.332594
O O10 0.440204 0.992732 0.320612
O O11 0.174511 0.102032 0.186558
O O12 0.863415 0.250000 0.840033
O O13 0.840219 0.369554 0.917886
O O14 0.103856 0.357177 0.896641
O O15 0.214241 0.557260 0.957599
O O16 0.000000 0.500000 0.000000
O O17 0.631272 0.750000 0.009171
O O18 0.468225 0.630036 0.962573
O O19 0.500000 0.000000 0.000000
#
# Coordination Sequence:
#
# PCOD8076690 Si02
#       8
#     4   4   4   4   4   4   4   4
#     4  11  23  42  64  95 130 168 208 267 325 387
#     4  10  21  39  65  91 121 166 212 259 320 381
#     4  11  24  40  63  95 132 169 217 268 322 390
#     4  11  22  39  65  94 126 170 218 268 313 383
#     4  11  24  41  65  94 131 173 211 268 333 383
#     4  12  23  40  66  97 128 166 221 274 316 380
#     4   9  20  41  63  88 124 163 209 261 316 379
#     4  11  25  38  66  98 123 165 216 264 323 381
#
# _framework density 19.857764
#
# number of rings (size 3 to 8) (size 9 to 14) (size 15 to 20)
#    0.000    1.250    5.000    0.750    3.500    1.500 
#    0.000    0.000    0.000    0.000    0.000    0.000 
#    0.000    0.000    0.000    0.000    0.000    0.000 
#
# Total GULP energy -396642.287626 kJ/mol
# GULP energy per Si atom -12395.071488 kJ/mol
# Density = 1.981257 g / cm^3
# Si number density = 19.857764 Si / 1000 Ang^3
#
#
#
# Elastic Constant Matrix: (Units=GPa)
#
#
# Indices 1 2 3 4 5 6 
#
# 1 145.8532 54.0632 35.2812 0.0000 16.9501 0.0000
# 2 54.0632 116.2967 26.3803 0.0000 8.2219 0.0000
# 3 35.2812 26.3803 80.1623 0.0000 20.0013 0.0000
# 4 0.0000 0.0000 0.0000 26.3245 0.0000 5.5767
# 5 16.9501 8.2219 20.0013 0.0000 33.0009 0.0000
# 6 0.0000 0.0000 0.0000 5.5767 0.0000 30.9409
#
#
#
# Elastic Compliance Matrix: (Units=1/GPa)
#
#
# Indices 1 2 3 4 5 6 
#
# 1 0.008963 -0.003499 -0.002194 0.000000 -0.002402 0.000000
# 2 -0.003499 0.010667 -0.002068 0.000000 0.000393 0.000000
# 3 -0.002194 -0.002068 0.016154 0.000000 -0.008149 0.000000
# 4 0.000000 0.000000 0.000000 0.039496 0.000000 -0.007119
# 5 -0.002402 0.000393 -0.008149 0.000000 0.036377 0.000000
# 6 0.000000 0.000000 0.000000 -0.007119 0.000000 0.033603
#
#
# Mechanical properties :
#
#
# Convention : Reuss Voigt Hill
#
# Bulk Modulus (GPa) = 49.35603 63.75130 56.55366
# Shear Modulus (GPa) = 29.84437 33.15907 31.50172
#
# Velocity S-wave (km/s) = 3.88094 4.09079 3.98724
# Velocity P-wave (km/s) = 6.70753 7.38149 7.05257
#
# Compressibility (1/GPa) = 0.02026095
#
# Stress axis : x y z
#
# Youngs Moduli (GPa) = 111.56811 93.74918 61.90376
#
# Poissons Ratio (x) = 0.32805 0.13581
# Poissons Ratio (y) = 0.39040 0.12804
# Poissons Ratio (z) = 0.24478 0.19391
#
# Static dielectric constant tensor:
#      x y z
#    x 6.342190 0.000000 -0.437930 
#    y 0.000000 3.650970 0.000000 
#    z -0.437930 0.000000 3.849150 
# 
# 
# High freq. dielectric constant tensor:
#      x y z
#    x 1.779670 0.000000 0.012610 
#    y 0.000000 1.767810 0.000000 
#    z 0.012610 0.000000 1.776200 
# 
# From -- ./inp_files/48267.got.cif
#   From: 2010.06.25/outbox.cif.g09.slc.cpg/sg11_25_cif.got.tgz:48267.got - 2010.06.27 23:14:04.
