data_PCOD8076397
_publ_section_title
;
Structure prediction by ZEFSAII (Michael W. Deem and Ramdas Pophale) SiO2 
 PCOD8076397
Probable space group: P 21/M
;
_chemical_formula_sum "Si O2"
_cell_formula_units_Z 28
_cell_length_a 13.537174
_cell_length_b 8.793012
_cell_length_c 12.627399
_cell_angle_alpha 90.000000
_cell_angle_beta 67.977993
_cell_angle_gamma 90.000000
_cell_volume 1393.407064
_symmetry_space_group_name_H-M "P 21/M"
_symmetry_group_IT_number 11
_symmetry_cell_setting 'monoclinic'
loop_
_space_group_symop_operation_xyz
x,y,z
-x,1/2+y,-z
-x,-y,-z
x,1/2-y,z
loop_
_atom_site_type_symbol
_atom_site_label
_atom_site_fract_x
_atom_site_fract_y
_atom_site_fract_z
Si Si1 0.602225 0.429194 0.405281
Si Si2 0.697212 0.570472 0.168034
Si Si3 0.076036 0.569818 0.883569
Si Si4 0.991370 0.069304 0.318081
Si Si5 0.614402 0.571016 0.970536
Si Si6 0.222403 0.927600 0.492074
Si Si7 0.774363 0.930266 0.725763
O O1 0.500000 0.500000 0.500000
O O2 0.587483 0.250000 0.393963
O O3 0.612807 0.511997 0.288179
O O4 0.705014 0.465382 0.435874
O O5 0.714736 0.750000 0.171301
O O6 0.805288 0.482491 0.144044
O O7 0.656184 0.524383 0.068882
O O8 0.070810 0.750000 0.890635
O O9 0.036163 0.507437 0.787007
O O10 0.000000 0.500000 0.000000
O O11 0.993837 0.250000 0.314779
O O12 0.898060 0.014896 0.435390
O O13 0.106229 0.003100 0.305525
O O14 0.603435 0.750000 0.963672
O O15 0.696593 0.507414 0.849023
O O16 0.500000 0.500000 0.000000
O O17 0.225405 0.750000 0.465621
O O18 0.267659 0.014387 0.371289
O O19 0.776474 0.750000 0.727973
#
# Coordination Sequence:
#
# PCOD8076397 Si02
#       7
#     4   4   4   4   4   4   4
#     4  11  24  42  64  92 125 162 205 255 312 370
#     4  11  23  42  65  92 124 160 206 258 312 370
#     4  11  21  37  61  90 125 166 206 252 308 367
#     4   9  18  37  60  84 121 159 193 243 307 361
#     4  10  24  43  62  87 120 160 204 254 308 365
#     4  10  21  39  61  88 122 159 196 244 304 362
#     4  10  21  38  61  88 118 157 202 247 299 360
#
# _framework density 20.094629999999999
#
# number of rings (size 3 to 8) (size 9 to 14) (size 15 to 20)
#    0.000    1.714    1.429    2.571    2.000    5.143 
#    0.000    2.857    0.000    0.000    0.000    0.000 
#    0.000    0.000    0.000    0.000    0.000    0.000 
#
# Total GULP energy -347276.568053 kJ/mol
# GULP energy per Si atom -12402.734573 kJ/mol
# Density = 2.004889 g / cm^3
# Si number density = 20.094630 Si / 1000 Ang^3
#
#
#
# Elastic Constant Matrix: (Units=GPa)
#
#
# Indices 1 2 3 4 5 6 
#
# 1 72.1302 22.9146 41.8458 0.0000 -5.1479 0.0000
# 2 22.9146 42.4913 33.6979 0.0000 5.0474 0.0000
# 3 41.8458 33.6979 175.2669 0.0000 -0.9517 0.0000
# 4 0.0000 0.0000 0.0000 36.7200 0.0000 -0.9310
# 5 -5.1479 5.0474 -0.9517 0.0000 41.1311 0.0000
# 6 0.0000 0.0000 0.0000 -0.9310 0.0000 33.8206
#
#
#
# Elastic Compliance Matrix: (Units=1/GPa)
#
#
# Indices 1 2 3 4 5 6 
#
# 1 0.018262 -0.008005 -0.002804 0.000000 0.003203 0.000000
# 2 -0.008005 0.031800 -0.004230 0.000000 -0.005002 0.000000
# 3 -0.002804 -0.004230 0.007190 0.000000 0.000335 0.000000
# 4 0.000000 0.000000 0.000000 0.027252 0.000000 0.000750
# 5 0.003203 -0.005002 0.000335 0.000000 0.025335 0.000000
# 6 0.000000 0.000000 0.000000 0.000750 0.000000 0.029588
#
#
# Mechanical properties :
#
#
# Convention : Reuss Voigt Hill
#
# Bulk Modulus (GPa) = 36.79935 54.08943 45.44439
# Shear Modulus (GPa) = 28.00120 35.09636 31.54878
#
# Velocity S-wave (km/s) = 3.73697 4.18371 3.96663
# Velocity P-wave (km/s) = 6.08052 7.09322 6.60630
#
# Compressibility (1/GPa) = 0.02717439
#
# Stress axis : x y z
#
# Youngs Moduli (GPa) = 54.75821 31.44645 139.08131
#
# Poissons Ratio (x) = 0.25174 0.38993
# Poissons Ratio (y) = 0.43836 0.58830
# Poissons Ratio (z) = 0.15352 0.13302
#
# Static dielectric constant tensor:
#      x y z
#    x 3.804250 0.000000 0.000880 
#    y 0.000000 3.449020 0.000000 
#    z 0.000880 0.000000 3.923350 
# 
# 
# High freq. dielectric constant tensor:
#      x y z
#    x 1.792370 0.000000 -0.001320 
#    y 0.000000 1.767010 0.000000 
#    z -0.001320 0.000000 1.805840 
# 
# From -- ./inp_files/37839.got.cif
#   From: 2010.06.25/outbox.cif.g09.slc.cpg/sg11_19_cif.got.tgz:37839.got - 2010.06.27 23:14:04.
