data_PCOD8076494
_publ_section_title
;
Structure prediction by ZEFSAII (Michael W. Deem and Ramdas Pophale) SiO2 
 PCOD8076494
Probable space group: P 21/M
;
_chemical_formula_sum "Si O2"
_cell_formula_units_Z 28
_cell_length_a 9.279680
_cell_length_b 13.616951
_cell_length_c 11.511476
_cell_angle_alpha 90.000000
_cell_angle_beta 65.864601
_cell_angle_gamma 90.000000
_cell_volume 1327.442306
_symmetry_space_group_name_H-M "P 21/M"
_symmetry_group_IT_number 11
_symmetry_cell_setting 'monoclinic'
loop_
_space_group_symop_operation_xyz
x,y,z
-x,1/2+y,-z
-x,-y,-z
x,1/2-y,z
loop_
_atom_site_type_symbol
_atom_site_label
_atom_site_fract_x
_atom_site_fract_y
_atom_site_fract_z
Si Si1 0.239744 0.139628 0.455757
Si Si2 0.935772 0.136998 0.701327
Si Si3 0.250073 0.863365 0.809093
Si Si4 0.379826 0.015892 0.936598
Si Si5 0.549778 0.140457 0.476334
Si Si6 0.947707 0.529174 0.890635
Si Si7 0.357384 0.549713 0.320089
O O1 0.240640 0.250000 0.401027
O O2 0.361118 0.135789 0.524261
O O3 0.069212 0.111943 0.562452
O O4 0.288084 0.062095 0.338101
O O5 0.951093 0.250000 0.738761
O O6 0.950759 0.064938 0.805504
O O7 0.768256 0.123612 0.693387
O O8 0.251997 0.750000 0.839372
O O9 0.300028 0.916546 0.912485
O O10 0.378812 0.892777 0.670426
O O11 0.078685 0.890925 0.810227
O O12 0.477378 0.067866 0.801675
O O13 0.229981 0.075633 0.040010
O O14 0.500000 0.000000 0.000000
O O15 0.606737 0.250000 0.489713
O O16 0.610881 0.068516 0.555126
O O17 0.000000 0.500000 0.000000
#
# Coordination Sequence:
#
# PCOD8076494 Si02
#       7
#     4   4   4   4   4   4   4
#     4  10  22  38  62  94 123 162 213 259 315 381
#     4  11  24  42  63  92 130 167 206 263 327 380
#     4  10  22  43  69  93 126 169 213 266 323 379
#     4  11  23  42  63  92 128 168 221 261 310 383
#     4  10  21  38  63  97 124 159 213 262 319 385
#     4  10  23  41  63  89 123 167 219 258 308 377
#     4  12  22  39  67  92 132 167 202 264 327 374
#
# _framework density 21.093195000000001
#
# number of rings (size 3 to 8) (size 9 to 14) (size 15 to 20)
#    0.000    1.429    2.857    2.143    4.000    2.286 
#    0.000    4.286    0.000    0.857    0.000    0.000 
#    0.000    0.000    0.000    0.000    0.000    0.000 
#
# Total GULP energy -347063.221733 kJ/mol
# GULP energy per Si atom -12395.115062 kJ/mol
# Density = 2.104519 g / cm^3
# Si number density = 21.093195 Si / 1000 Ang^3
#
#
#
# Elastic Constant Matrix: (Units=GPa)
#
#
# Indices 1 2 3 4 5 6 
#
# 1 125.8414 25.8043 35.4214 0.0000 -20.0402 0.0000
# 2 25.8043 67.6950 36.8861 0.0000 -8.6080 0.0000
# 3 35.4214 36.8861 73.4873 0.0000 -17.9855 0.0000
# 4 0.0000 0.0000 0.0000 23.6913 0.0000 1.0952
# 5 -20.0402 -8.6080 -17.9855 0.0000 46.2092 0.0000
# 6 0.0000 0.0000 0.0000 1.0952 0.0000 33.4847
#
#
#
# Elastic Compliance Matrix: (Units=1/GPa)
#
#
# Indices 1 2 3 4 5 6 
#
# 1 0.009585 -0.001586 -0.003182 0.000000 0.002623 0.000000
# 2 -0.001586 0.020598 -0.009730 0.000000 -0.000638 0.000000
# 3 -0.003182 -0.009730 0.021270 0.000000 0.005086 0.000000
# 4 0.000000 0.000000 0.000000 0.042273 0.000000 -0.001383
# 5 0.002623 -0.000638 0.005086 0.000000 0.024639 0.000000
# 6 0.000000 0.000000 0.000000 -0.001383 0.000000 0.029910
#
#
# Mechanical properties :
#
#
# Convention : Reuss Voigt Hill
#
# Bulk Modulus (GPa) = 44.53167 51.47194 48.00180
# Shear Modulus (GPa) = 27.06251 31.93784 29.50017
#
# Velocity S-wave (km/s) = 3.58578 3.89540 3.74379
# Velocity P-wave (km/s) = 6.18882 6.68486 6.44162
#
# Compressibility (1/GPa) = 0.02245593
#
# Stress axis : x y z
#
# Youngs Moduli (GPa) = 104.32819 48.54940 47.01397
#
# Poissons Ratio (x) = 0.07702 0.14959
# Poissons Ratio (y) = 0.16551 0.45746
# Poissons Ratio (z) = 0.33196 0.47240
#
# Static dielectric constant tensor:
#      x y z
#    x 4.526970 0.000000 -1.158340 
#    y 0.000000 4.175980 0.000000 
#    z -1.158340 0.000000 8.974790 
# 
# 
# High freq. dielectric constant tensor:
#      x y z
#    x 1.839390 0.000000 -0.019360 
#    y 0.000000 1.808810 0.000000 
#    z -0.019360 0.000000 1.828380 
# 
# From -- ./inp_files/17811.got.cif
#   From: 2010.06.25/outbox.cif.g09.slc.cpg/sg11_9_cif.got.tgz:17811.got - 2010.06.27 23:14:04.
