data_PCOD8076126
_publ_section_title
;
Structure prediction by ZEFSAII (Michael W. Deem and Ramdas Pophale) SiO2 
 PCOD8076126
Probable space group: P 21/M
;
_chemical_formula_sum "Si O2"
_cell_formula_units_Z 32
_cell_length_a 21.617699
_cell_length_b 16.154373
_cell_length_c 11.074828
_cell_angle_alpha 90.000000
_cell_angle_beta 24.445139
_cell_angle_gamma 90.000000
_cell_volume 1600.478652
_symmetry_space_group_name_H-M "P 21/M"
_symmetry_group_IT_number 11
_symmetry_cell_setting 'monoclinic'
loop_
_space_group_symop_operation_xyz
x,y,z
-x,1/2+y,-z
-x,-y,-z
x,1/2-y,z
loop_
_atom_site_type_symbol
_atom_site_label
_atom_site_fract_x
_atom_site_fract_y
_atom_site_fract_z
Si Si1 0.964545 0.158211 0.020031
Si Si2 0.199034 0.840900 0.230882
Si Si3 0.668243 0.026565 0.173097
Si Si4 0.192211 0.087666 0.431693
Si Si5 0.486433 0.655038 0.132514
Si Si6 0.226799 0.903494 0.433485
Si Si7 0.310490 0.840979 0.666912
Si Si8 0.910156 0.916420 0.652778
O O1 0.025735 0.250000 0.942941
O O2 0.918017 0.110378 0.224477
O O3 0.820399 0.167596 0.195034
O O4 0.086494 0.106663 0.731722
O O5 0.246992 0.750000 0.096784
O O6 0.220782 0.837754 0.336138
O O7 0.020894 0.850257 0.517128
O O8 0.307428 0.913503 0.985835
O O9 0.728920 0.084660 0.173051
O O10 0.500000 0.000000 0.500000
O O11 0.758511 0.939478 0.997177
O O12 0.341867 0.136869 0.195926
O O13 0.125415 0.114305 0.420240
O O14 0.219571 0.990799 0.379540
O O15 0.449045 0.750000 0.169797
O O16 0.381741 0.600736 0.231448
O O17 0.456532 0.635825 0.327765
O O18 0.331569 0.750000 0.693102
O O19 0.000000 0.000000 0.500000
#
# Coordination Sequence:
#
# PCOD8076126 Si02
#       8
#     4   4   4   4   4   4   4   4
#     4  10  21  37  59  87 116 150 194 249 298 350
#     4  11  23  41  65  87 122 170 203 240 308 373
#     4  11  21  37  59  87 122 155 197 257 301 353
#     4  12  21  37  62  92 117 151 202 256 303 342
#     4  10  22  39  59  86 120 157 198 250 301 356
#     4  11  22  40  61  85 123 162 201 237 299 374
#     4   9  19  35  58  82 113 154 197 237 293 358
#     4  10  21  39  60  90 122 154 203 253 297 354
#
# _framework density 19.994018000000001
#
# number of rings (size 3 to 8) (size 9 to 14) (size 15 to 20)
#    0.000    1.500    2.500    5.625    0.000    2.000 
#    0.000    1.250    0.000    0.000    0.000    0.000 
#    0.000    0.000    0.000    0.000    0.000    0.000 
#
# Total GULP energy -396583.932703 kJ/mol
# GULP energy per Si atom -12393.247897 kJ/mol
# Density = 1.994851 g / cm^3
# Si number density = 19.994018 Si / 1000 Ang^3
#
#
#
# Elastic Constant Matrix: (Units=GPa)
#
#
# Indices 1 2 3 4 5 6 
#
# 1 90.8173 17.4067 30.4658 0.0000 14.0294 0.0000
# 2 17.4067 58.7083 18.5901 0.0000 5.2525 0.0000
# 3 30.4658 18.5901 123.8461 0.0000 7.8693 0.0000
# 4 0.0000 0.0000 0.0000 -176.8612 0.0000 186.6389
# 5 14.0294 5.2525 7.8693 0.0000 27.1281 0.0000
# 6 0.0000 0.0000 0.0000 186.6389 0.0000 -146.2726
#
#
#
# Elastic Compliance Matrix: (Units=1/GPa)
#
#
# Indices 1 2 3 4 5 6 
#
# 1 0.013219 -0.002626 -0.002502 0.000000 -0.005602 0.000000
# 2 -0.002626 0.018606 -0.002042 0.000000 -0.001652 0.000000
# 3 -0.002502 -0.002042 0.009056 0.000000 -0.000938 0.000000
# 4 0.000000 0.000000 0.000000 0.016318 0.000000 0.020821
# 5 -0.005602 -0.001652 -0.000938 0.000000 0.040351 0.000000
# 6 0.000000 0.000000 0.000000 0.020821 0.000000 0.019730
#
#
# Mechanical properties :
#
#
# Convention : Reuss Voigt Hill
#
# Bulk Modulus (GPa) = 37.67594 45.14411 41.41002
# Shear Modulus (GPa) = 35.59555 -45.40719 -4.90582
#
# Velocity S-wave (km/s) = 4.22395 -4.77071 -1.56811
# Velocity P-wave (km/s) = 6.53250 2.77821 4.18061
#
# Compressibility (1/GPa) = 0.02654214
#
# Stress axis : x y z
#
# Youngs Moduli (GPa) = 75.64819 53.74506 110.42340
#
# Poissons Ratio (x) = 0.14113 0.27625
# Poissons Ratio (y) = 0.19865 0.22548
# Poissons Ratio (z) = 0.18925 0.10975
#
# Static dielectric constant tensor:
#      x y z
#    x 3.624870 0.000000 0.103830 
#    y 0.000000 4.454920 0.000000 
#    z 0.103830 0.000000 4.390810 
# 
# 
# High freq. dielectric constant tensor:
#      x y z
#    x 1.770290 0.000000 0.011100 
#    y 0.000000 1.779220 0.000000 
#    z 0.011100 0.000000 1.782180 
# 
# From -- ./inp_files/44344.got.cif
#   From: 2010.06.25/outbox.cif.g09.slc.cpg/sg11_23_cif.got.tgz:44344.got - 2010.06.27 23:14:04.
