data_PCOD8076235
_publ_section_title
;
Structure prediction by ZEFSAII (Michael W. Deem and Ramdas Pophale) SiO2 
 PCOD8076235
Probable space group: P 21/M
;
_chemical_formula_sum "Si O2"
_cell_formula_units_Z 28
_cell_length_a 25.827164
_cell_length_b 9.291974
_cell_length_c 8.941412
_cell_angle_alpha 90.000000
_cell_angle_beta 44.439576
_cell_angle_gamma 90.000000
_cell_volume 1502.401647
_symmetry_space_group_name_H-M "P 21/M"
_symmetry_group_IT_number 11
_symmetry_cell_setting 'monoclinic'
loop_
_space_group_symop_operation_xyz
x,y,z
-x,1/2+y,-z
-x,-y,-z
x,1/2-y,z
loop_
_atom_site_type_symbol
_atom_site_label
_atom_site_fract_x
_atom_site_fract_y
_atom_site_fract_z
Si Si1 0.126795 0.080416 0.593182
Si Si2 0.151553 0.917970 0.845772
Si Si3 0.008951 0.916245 0.329407
Si Si4 0.269668 0.417153 0.114940
Si Si5 0.408529 0.914763 0.835082
Si Si6 0.567412 0.586648 0.508727
Si Si7 0.726084 0.586606 0.242524
O O1 0.128440 0.250000 0.623028
O O2 0.195954 0.031241 0.349695
O O3 0.052557 0.032822 0.661734
O O4 0.127319 0.995591 0.745623
O O5 0.161110 0.750000 0.793239
O O6 0.228684 0.980164 0.745756
O O7 0.089569 0.948101 0.097650
O O8 0.996976 0.750000 0.391294
O O9 0.000000 0.000000 0.500000
O O10 0.283192 0.250000 0.110276
O O11 0.340492 0.495663 0.044895
O O12 0.263017 0.456504 0.953717
O O13 0.383271 0.750000 0.885462
O O14 0.488064 0.934700 0.757330
O O15 0.424596 0.966848 0.634344
O O16 0.569435 0.750000 0.435576
O O17 0.639211 0.570617 0.467860
O O18 0.753712 0.750000 0.212026
#
# Coordination Sequence:
#
# PCOD8076235 Si02
#       7
#     4   4   4   4   4   4   4
#     4  10  21  38  57  75 101 141 178 203 243 308
#     4  11  23  36  52  79 109 133 166 214 259 296
#     4  10  22  39  59  82 106 133 168 209 252 300
#     4   9  18  32  51  75 101 132 174 215 250 300
#     4   9  15  24  43  71 101 131 164 209 262 303
#     4   8  15  27  43  67  99 134 171 208 249 303
#     4   9  17  32  53  74 101 138 174 208 250 305
#
# _framework density 18.636827
#
# number of rings (size 3 to 8) (size 9 to 14) (size 15 to 20)
#    0.000    2.571    0.000    3.000    0.000    6.286 
#    0.000    0.000    0.000    0.857    0.000    0.000 
#    0.000    0.000    0.000    0.000    0.000    0.000 
#
# Total GULP energy -347047.672415 kJ/mol
# GULP energy per Si atom -12394.559729 kJ/mol
# Density = 1.859441 g / cm^3
# Si number density = 18.636827 Si / 1000 Ang^3
#
#
#
# Elastic Constant Matrix: (Units=GPa)
#
#
# Indices 1 2 3 4 5 6 
#
# 1 122.4141 55.9012 47.9371 0.0000 -14.6449 0.0000
# 2 55.9012 68.6087 32.5318 0.0000 -3.2994 0.0000
# 3 47.9371 32.5318 33.8216 0.0000 -10.9289 0.0000
# 4 0.0000 0.0000 0.0000 27.1426 0.0000 -2.0654
# 5 -14.6449 -3.2994 -10.9289 0.0000 33.5252 0.0000
# 6 0.0000 0.0000 0.0000 -2.0654 0.0000 31.3564
#
#
#
# Elastic Compliance Matrix: (Units=1/GPa)
#
#
# Indices 1 2 3 4 5 6 
#
# 1 0.019282 -0.005196 -0.022103 0.000000 0.000706 0.000000
# 2 -0.005196 0.029503 -0.023259 0.000000 -0.006948 0.000000
# 3 -0.022103 -0.023259 0.088756 0.000000 0.016989 0.000000
# 4 0.000000 0.000000 0.000000 0.037028 0.000000 0.002439
# 5 0.000706 -0.006948 0.016989 0.000000 0.034991 0.000000
# 6 0.000000 0.000000 0.000000 0.002439 0.000000 0.032052
#
#
# Mechanical properties :
#
#
# Convention : Reuss Voigt Hill
#
# Bulk Modulus (GPa) = 27.45322 55.28718 41.37020
# Shear Modulus (GPa) = 14.08964 24.30313 19.19638
#
# Velocity S-wave (km/s) = 2.75255 3.61506 3.21288
# Velocity P-wave (km/s) = 4.98645 6.86694 6.00081
#
# Compressibility (1/GPa) = 0.03642560
#
# Stress axis : x y z
#
# Youngs Moduli (GPa) = 51.86250 33.89429 11.26681
#
# Poissons Ratio (x) = 0.17612 0.24903
# Poissons Ratio (y) = 0.26948 0.26205
# Poissons Ratio (z) = 1.14631 0.78835
#
# Static dielectric constant tensor:
#      x y z
#    x 3.487840 0.000000 -0.496460 
#    y 0.000000 3.413650 0.000000 
#    z -0.496460 0.000000 3.509230 
# 
# 
# High freq. dielectric constant tensor:
#      x y z
#    x 1.714310 0.000000 -0.038830 
#    y 0.000000 1.724300 0.000000 
#    z -0.038830 0.000000 1.711070 
# 
# From -- ./inp_files/28381.got.cif
#   From: 2010.06.25/outbox.cif.g09.slc.cpg/sg11_15_cif.got.tgz:28381.got - 2010.06.27 23:14:04.
