data_PCOD8076117
_publ_section_title
;
Structure prediction by ZEFSAII (Michael W. Deem and Ramdas Pophale) SiO2 
 PCOD8076117
Probable space group: P 21/M
;
_chemical_formula_sum "Si O2"
_cell_formula_units_Z 32
_cell_length_a 15.160161
_cell_length_b 8.891570
_cell_length_c 12.636985
_cell_angle_alpha 90.000000
_cell_angle_beta 108.997094
_cell_angle_gamma 90.000000
_cell_volume 1610.658188
_symmetry_space_group_name_H-M "P 21/M"
_symmetry_group_IT_number 11
_symmetry_cell_setting 'monoclinic'
loop_
_space_group_symop_operation_xyz
x,y,z
-x,1/2+y,-z
-x,-y,-z
x,1/2-y,z
loop_
_atom_site_type_symbol
_atom_site_label
_atom_site_fract_x
_atom_site_fract_y
_atom_site_fract_z
Si Si1 0.372288 0.425735 0.198443
Si Si2 0.190149 0.572236 0.089912
Si Si3 0.542062 0.074247 0.119571
Si Si4 0.100654 0.927706 0.839564
Si Si5 0.108450 0.428028 0.267860
Si Si6 0.745381 0.429404 0.261463
Si Si7 0.773098 0.421880 0.509000
Si Si8 0.593463 0.077857 0.572570
O O1 0.350355 0.250000 0.191218
O O2 0.292529 0.509657 0.099461
O O3 0.473788 0.460789 0.190927
O O4 0.364249 0.488832 0.312962
O O5 0.195310 0.750000 0.105452
O O6 0.156987 0.502022 0.186363
O O7 0.121855 0.522669 0.968263
O O8 0.548814 0.250000 0.099678
O O9 0.643748 0.007230 0.187833
O O10 0.500000 0.000000 0.000000
O O11 0.106306 0.750000 0.832689
O O12 0.177510 0.995312 0.789211
O O13 0.998290 0.985678 0.768374
O O14 0.113995 0.250000 0.256930
O O15 0.158000 0.476309 0.395223
O O16 0.740902 0.250000 0.259141
O O17 0.773547 0.484683 0.389601
O O18 0.808681 0.250000 0.528967
O O19 0.666918 0.432227 0.506478
O O20 0.573440 0.250000 0.596426
O O21 0.500000 0.000000 0.500000
#
# Coordination Sequence:
#
# PCOD8076117 Si02
#       8
#     4   4   4   4   4   4   4   4
#     4  11  22  36  56  86 119 152 192 239 292 348
#     4  11  21  37  60  86 116 153 198 242 295 361
#     4  10  21  37  59  86 117 155 196 239 289 348
#     4   9  20  36  58  86 114 150 196 243 296 354
#     4  11  22  37  58  86 118 151 191 246 302 347
#     4   9  18  37  60  82 114 155 195 236 285 348
#     4  10  21  38  60  84 114 154 197 238 285 349
#     4  11  22  36  56  83 115 152 195 238 287 345
#
# _framework density 19.867656
#
# number of rings (size 3 to 8) (size 9 to 14) (size 15 to 20)
#    0.000    1.750    1.250    3.375    0.000    5.000 
#    0.000    2.500    0.000    3.750    0.000    0.000 
#    0.000    0.000    0.000    0.000    0.000    0.000 
#
# Total GULP energy -396877.368209 kJ/mol
# GULP energy per Si atom -12402.417757 kJ/mol
# Density = 1.982244 g / cm^3
# Si number density = 19.867656 Si / 1000 Ang^3
#
#
#
# Elastic Constant Matrix: (Units=GPa)
#
#
# Indices 1 2 3 4 5 6 
#
# 1 132.3931 38.4170 62.4170 0.0000 16.9835 0.0000
# 2 38.4170 65.0685 40.1913 0.0000 5.6330 0.0000
# 3 62.4170 40.1913 141.2892 0.0000 9.2084 0.0000
# 4 0.0000 0.0000 0.0000 26.7759 0.0000 6.0201
# 5 16.9835 5.6330 9.2084 0.0000 38.9342 0.0000
# 6 0.0000 0.0000 0.0000 6.0201 0.0000 21.8346
#
#
#
# Elastic Compliance Matrix: (Units=1/GPa)
#
#
# Indices 1 2 3 4 5 6 
#
# 1 0.010725 -0.003946 -0.003400 0.000000 -0.003303 0.000000
# 2 -0.003946 0.020179 -0.003980 0.000000 -0.000257 0.000000
# 3 -0.003400 -0.003980 0.009728 0.000000 -0.000242 0.000000
# 4 0.000000 0.000000 0.000000 0.039815 0.000000 -0.010978
# 5 -0.003303 -0.000257 -0.000242 0.000000 0.027220 0.000000
# 6 0.000000 0.000000 0.000000 -0.010978 0.000000 0.048826
#
#
# Mechanical properties :
#
#
# Convention : Reuss Voigt Hill
#
# Bulk Modulus (GPa) = 55.62058 68.97793 62.29925
# Shear Modulus (GPa) = 27.00690 30.69062 28.84876
#
# Velocity S-wave (km/s) = 3.69092 3.93460 3.81471
# Velocity P-wave (km/s) = 6.79854 7.44550 7.12937
#
# Compressibility (1/GPa) = 0.01797896
#
# Stress axis : x y z
#
# Youngs Moduli (GPa) = 93.23945 49.55687 102.79875
#
# Poissons Ratio (x) = 0.19555 0.34954
# Poissons Ratio (y) = 0.36792 0.40916
# Poissons Ratio (z) = 0.31704 0.19724
#
# Static dielectric constant tensor:
#      x y z
#    x 3.949630 0.000000 -0.053780 
#    y 0.000000 3.423020 0.000000 
#    z -0.053780 0.000000 3.929530 
# 
# 
# High freq. dielectric constant tensor:
#      x y z
#    x 1.786430 0.000000 0.005320 
#    y 0.000000 1.751910 0.000000 
#    z 0.005320 0.000000 1.785100 
# 
# From -- ./inp_files/38368.got.cif
#   From: 2010.06.25/outbox.cif.g09.slc.cpg/sg11_20_cif.got.tgz:38368.got - 2010.06.27 23:14:04.
