data_PCOD8076177
_publ_section_title
;
Structure prediction by ZEFSAII (Michael W. Deem and Ramdas Pophale) SiO2 
 PCOD8076177
Probable space group: P 21/M
;
_chemical_formula_sum "Si O2"
_cell_formula_units_Z 32
_cell_length_a 12.694029
_cell_length_b 17.081782
_cell_length_c 16.825525
_cell_angle_alpha 90.000000
_cell_angle_beta 154.725307
_cell_angle_gamma 90.000000
_cell_volume 1557.711214
_symmetry_space_group_name_H-M "P 21/M"
_symmetry_group_IT_number 11
_symmetry_cell_setting 'monoclinic'
loop_
_space_group_symop_operation_xyz
x,y,z
-x,1/2+y,-z
-x,-y,-z
x,1/2-y,z
loop_
_atom_site_type_symbol
_atom_site_label
_atom_site_fract_x
_atom_site_fract_y
_atom_site_fract_z
Si Si1 0.681875 0.159205 0.711214
Si Si2 0.171485 0.657667 0.757777
Si Si3 0.864086 0.343068 0.445388
Si Si4 0.908414 0.099296 0.717530
Si Si5 0.843838 0.583189 0.666259
Si Si6 0.494112 0.660105 0.670125
Si Si7 0.729344 0.841728 0.154453
Si Si8 0.974277 0.658422 0.915297
O O1 0.629151 0.250000 0.659764
O O2 0.902179 0.128120 0.804459
O O3 0.436376 0.111784 0.524660
O O4 0.771953 0.145465 0.863228
O O5 0.120286 0.750000 0.727938
O O6 0.135094 0.624942 0.643517
O O7 0.974950 0.613222 0.676705
O O8 0.445123 0.636229 0.974708
O O9 0.845689 0.250000 0.431536
O O10 0.115072 0.368735 0.662019
O O11 0.624690 0.376870 0.330191
O O12 0.707488 0.152437 0.536210
O O13 0.175080 0.114519 0.859850
O O14 0.836671 0.009374 0.661594
O O15 0.993009 0.614169 0.844518
O O16 0.551678 0.750000 0.726193
O O17 0.749718 0.621606 0.814705
O O18 0.759000 0.750000 0.158771
O O19 0.928491 0.750000 0.866519
#
# Coordination Sequence:
#
# PCOD8076177 Si02
#       8
#     4   4   4   4   4   4   4   4
#     4  11  23  40  64  88 112 155 208 250 290 346
#     4  10  21  37  61  83 113 159 200 240 289 352
#     4   8  16  32  56  86 111 140 191 252 295 328
#     4  11  22  38  61  89 123 160 191 244 305 356
#     4  12  25  41  55  88 132 164 189 231 302 369
#     4   9  17  35  61  87 118 149 195 260 300 333
#     4   9  19  37  61  88 113 148 204 257 289 330
#     4  10  22  38  62  89 115 154 203 250 292 343
#
# _framework density 20.542960000000001
#
# number of rings (size 3 to 8) (size 9 to 14) (size 15 to 20)
#    0.000    2.000    1.250    3.375    1.750    2.000 
#    0.000    5.000    0.000    0.000    0.000    0.000 
#    0.000    0.000    0.000    0.000    0.000    0.000 
#
# Total GULP energy -396751.699249 kJ/mol
# GULP energy per Si atom -12398.490602 kJ/mol
# Density = 2.049620 g / cm^3
# Si number density = 20.542960 Si / 1000 Ang^3
#
#
#
# Elastic Constant Matrix: (Units=GPa)
#
#
# Indices 1 2 3 4 5 6 
#
# 1 117.9303 19.2157 26.7173 0.0000 -18.7216 0.0000
# 2 19.2157 22.6190 8.8280 0.0000 -2.7639 0.0000
# 3 26.7173 8.8280 62.6377 0.0000 -14.3780 0.0000
# 4 0.0000 0.0000 0.0000 7.4654 0.0000 3.6763
# 5 -18.7216 -2.7639 -14.3780 0.0000 29.1505 0.0000
# 6 0.0000 0.0000 0.0000 3.6763 0.0000 27.9548
#
#
#
# Elastic Compliance Matrix: (Units=1/GPa)
#
#
# Indices 1 2 3 4 5 6 
#
# 1 0.011143 -0.007875 -0.002449 0.000000 0.005202 0.000000
# 2 -0.007875 0.052396 -0.004563 0.000000 -0.002340 0.000000
# 3 -0.002449 -0.004563 0.019387 0.000000 0.007557 0.000000
# 4 0.000000 0.000000 0.000000 0.143226 0.000000 -0.018835
# 5 0.005202 -0.002340 0.007557 0.000000 0.041151 0.000000
# 6 0.000000 0.000000 0.000000 -0.018835 0.000000 0.038249
#
#
# Mechanical properties :
#
#
# Convention : Reuss Voigt Hill
#
# Bulk Modulus (GPa) = 18.81385 34.74545 26.77965
# Shear Modulus (GPa) = 14.16256 22.80923 18.48589
#
# Velocity S-wave (km/s) = 2.62851 3.33576 3.00303
# Velocity P-wave (km/s) = 4.28839 5.63797 5.00884
#
# Compressibility (1/GPa) = 0.05315232
#
# Stress axis : x y z
#
# Youngs Moduli (GPa) = 89.73870 19.08555 51.58062
#
# Poissons Ratio (x) = 0.15030 0.12632
# Poissons Ratio (y) = 0.70671 0.23534
# Poissons Ratio (z) = 0.21978 0.08708
#
# Static dielectric constant tensor:
#      x y z
#    x 3.946610 0.000000 -0.069940 
#    y 0.000000 3.405770 0.000000 
#    z -0.069940 0.000000 3.743560 
# 
# 
# High freq. dielectric constant tensor:
#      x y z
#    x 1.811020 0.000000 -0.003230 
#    y 0.000000 1.770930 0.000000 
#    z -0.003230 0.000000 1.801100 
# 
# From -- ./inp_files/50702.got.cif
#   From: 2010.06.25/outbox.cif.g09.slc.cpg/sg11_26_cif.got.tgz:50702.got - 2010.06.27 23:14:04.
