data_PCOD8076659
_publ_section_title
;
Structure prediction by ZEFSAII (Michael W. Deem and Ramdas Pophale) SiO2 
 PCOD8076659
Probable space group: P 21/M
;
_chemical_formula_sum "Si O2"
_cell_formula_units_Z 32
_cell_length_a 14.796970
_cell_length_b 8.931369
_cell_length_c 22.324985
_cell_angle_alpha 90.000000
_cell_angle_beta 148.193497
_cell_angle_gamma 90.000000
_cell_volume 1555.018917
_symmetry_space_group_name_H-M "P 21/M"
_symmetry_group_IT_number 11
_symmetry_cell_setting 'monoclinic'
loop_
_space_group_symop_operation_xyz
x,y,z
-x,1/2+y,-z
-x,-y,-z
x,1/2-y,z
loop_
_atom_site_type_symbol
_atom_site_label
_atom_site_fract_x
_atom_site_fract_y
_atom_site_fract_z
Si Si1 0.235830 0.421105 0.574586
Si Si2 0.418396 0.578421 0.292588
Si Si3 0.381362 0.078440 0.782408
Si Si4 0.268885 0.078152 0.992276
Si Si5 0.349615 0.072895 0.377631
Si Si6 0.833728 0.923471 0.932892
Si Si7 0.034954 0.078895 0.652780
Si Si8 0.002112 0.926333 0.759062
O O1 0.174218 0.250000 0.548444
O O2 0.377839 0.431252 0.602003
O O3 0.312402 0.483001 0.679999
O O4 0.075394 0.522629 0.465991
O O5 0.359455 0.750000 0.268248
O O6 0.358595 0.481855 0.314925
O O7 0.331685 0.509789 0.184782
O O8 0.441059 0.250000 0.808103
O O9 0.234451 0.063066 0.749495
O O10 0.539297 0.981728 0.894063
O O11 0.280808 0.250000 0.980144
O O12 0.163950 0.057221 0.994518
O O13 0.170417 0.993158 0.884429
O O14 0.371308 0.250000 0.392444
O O15 0.168115 0.020795 0.302178
O O16 0.500000 0.000000 0.500000
O O17 0.827335 0.750000 0.910288
O O18 0.000000 0.000000 0.000000
O O19 0.986314 0.250000 0.638993
O O20 0.988806 0.979300 0.683595
O O21 0.019536 0.750000 0.769715
#
# Coordination Sequence:
#
# PCOD8076659 Si02
#       8
#     4   4   4   4   4   4   4   4
#     4  10  21  39  63  92 128 165 203 249 310 378
#     4  11  22  37  61  90 122 162 202 247 305 366
#     4  10  22  42  65  92 126 165 205 252 314 374
#     4  11  24  41  64  93 124 160 208 261 308 363
#     4  11  24  41  62  90 124 166 212 258 310 369
#     4  11  23  38  59  89 122 158 201 249 302 363
#     4  11  24  40  64  94 123 160 209 262 312 366
#     4  11  25  44  64  87 123 169 211 254 313 375
#
# _framework density 20.578529
#
# number of rings (size 3 to 8) (size 9 to 14) (size 15 to 20)
#    0.000    1.250    1.250    4.125    0.000   11.500 
#    0.000    0.000    0.000    0.000    0.000    0.000 
#    0.000    0.000    0.000    0.000    0.000    0.000 
#
# Total GULP energy -397029.245284 kJ/mol
# GULP energy per Si atom -12407.163915 kJ/mol
# Density = 2.053169 g / cm^3
# Si number density = 20.578529 Si / 1000 Ang^3
#
#
#
# Elastic Constant Matrix: (Units=GPa)
#
#
# Indices 1 2 3 4 5 6 
#
# 1 70.5094 28.9277 16.3877 0.0000 -0.1436 0.0000
# 2 28.9277 89.8120 49.8480 0.0000 7.1499 0.0000
# 3 16.3877 49.8480 114.1581 0.0000 -2.5429 0.0000
# 4 0.0000 0.0000 0.0000 41.3739 0.0000 -3.1618
# 5 -0.1436 7.1499 -2.5429 0.0000 32.8192 0.0000
# 6 0.0000 0.0000 0.0000 -3.1618 0.0000 31.4043
#
#
#
# Elastic Compliance Matrix: (Units=1/GPa)
#
#
# Indices 1 2 3 4 5 6 
#
# 1 0.016392 -0.005396 0.000031 0.000000 0.001250 0.000000
# 2 -0.005396 0.016937 -0.006715 0.000000 -0.004234 0.000000
# 3 0.000031 -0.006715 0.011740 0.000000 0.002373 0.000000
# 4 0.000000 0.000000 0.000000 0.024357 0.000000 0.002452
# 5 0.001250 -0.004234 0.002373 0.000000 0.031582 0.000000
# 6 0.000000 0.000000 0.000000 0.002452 0.000000 0.032090
#
#
# Mechanical properties :
#
#
# Convention : Reuss Voigt Hill
#
# Bulk Modulus (GPa) = 47.82873 51.64517 49.73695
# Shear Modulus (GPa) = 30.44559 33.07390 31.75974
#
# Velocity S-wave (km/s) = 3.85058 4.01334 3.93280
# Velocity P-wave (km/s) = 6.56215 6.82840 6.69660
#
# Compressibility (1/GPa) = 0.02090793
#
# Stress axis : x y z
#
# Youngs Moduli (GPa) = 61.00613 59.04360 85.17610
#
# Poissons Ratio (x) = 0.31863 -0.00265
# Poissons Ratio (y) = 0.32922 0.57197
# Poissons Ratio (z) = -0.00190 0.39649
#
# Static dielectric constant tensor:
#      x y z
#    x 3.766370 0.000000 -0.018160 
#    y 0.000000 3.762000 0.000000 
#    z -0.018160 0.000000 3.788300 
# 
# 
# High freq. dielectric constant tensor:
#      x y z
#    x 1.811520 0.000000 0.001580 
#    y 0.000000 1.812230 0.000000 
#    z 0.001580 0.000000 1.812200 
# 
# From -- ./inp_files/69101.got.cif
#   From: 2010.06.25/outbox.cif.g09.slc.cpg/sg11_35_cif.got.tgz:69101.got - 2010.06.27 23:14:04.
