data_PCOD8076537
_publ_section_title
;
Structure prediction by ZEFSAII (Michael W. Deem and Ramdas Pophale) SiO2 
 PCOD8076537
Probable space group: P 21/M
;
_chemical_formula_sum "Si O2"
_cell_formula_units_Z 18
_cell_length_a 9.228804
_cell_length_b 15.426182
_cell_length_c 9.228850
_cell_angle_alpha 90.000000
_cell_angle_beta 132.153647
_cell_angle_gamma 90.000000
_cell_volume 974.032515
_symmetry_space_group_name_H-M "P 21/M"
_symmetry_group_IT_number 11
_symmetry_cell_setting 'monoclinic'
loop_
_space_group_symop_operation_xyz
x,y,z
-x,1/2+y,-z
-x,-y,-z
x,1/2-y,z
loop_
_atom_site_type_symbol
_atom_site_label
_atom_site_fract_x
_atom_site_fract_y
_atom_site_fract_z
Si Si1 0.636060 0.750000 0.278353
Si Si2 0.646197 0.653709 0.853810
Si Si3 0.244301 0.590325 0.664809
Si Si4 0.221651 0.750000 0.863950
Si Si5 0.835204 0.909674 0.255703
Si Si6 0.798165 0.750000 0.701836
O O1 0.735253 0.835260 0.281980
O O2 0.668490 0.750000 0.471711
O O3 0.405465 0.750000 0.094544
O O4 0.605443 0.750000 0.894561
O O5 0.441749 0.603028 0.705528
O O6 0.741588 0.664113 0.758403
O O7 0.794497 0.603033 0.058263
O O8 0.218018 0.664740 0.764753
O O9 0.257526 0.500000 0.757534
O O10 0.067641 0.591453 0.432370
O O11 0.028296 0.750000 0.831529
#
# Coordination Sequence:
#
# PCOD8076537 Si02
#       6
#     2   4   4   2   4   2
#     4  12  21  37  61  87 116 157 190 244 291 340
#     4  10  21  39  60  85 114 158 187 242 286 343
#     4  11  21  36  66  90 112 150 202 242 281 343
#     4  12  21  37  61  87 116 157 190 244 291 340
#     4  11  21  36  66  90 112 150 202 242 281 343
#     4  10  24  38  58  84 126 150 194 234 298 346
#
# _framework density 18.479876000000001
#
# number of rings (size 3 to 8) (size 9 to 14) (size 15 to 20)
#    0.667    0.444    6.667    0.667    0.000    1.778 
#    0.000    2.222    0.000    0.000    0.000    0.000 
#    0.000    0.000    0.000    0.000    0.000    0.000 
#
# Total GULP energy -223198.300136 kJ/mol
# GULP energy per Si atom -12399.905563 kJ/mol
# Density = 1.843781 g / cm^3
# Si number density = 18.479876 Si / 1000 Ang^3
#
#
#
# Elastic Constant Matrix: (Units=GPa)
#
#
# Indices 1 2 3 4 5 6 
#
# 1 91.5234 28.7944 36.3103 0.0000 -7.7992 0.0000
# 2 28.7944 117.8415 22.6963 0.0000 -3.6395 0.0000
# 3 36.3103 22.6963 84.5493 0.0000 3.6318 0.0000
# 4 0.0000 0.0000 0.0000 34.8885 0.0000 -6.8232
# 5 -7.7992 -3.6395 3.6318 0.0000 27.8774 0.0000
# 6 0.0000 0.0000 0.0000 -6.8232 0.0000 46.3456
#
#
#
# Elastic Compliance Matrix: (Units=1/GPa)
#
#
# Indices 1 2 3 4 5 6 
#
# 1 0.014283 -0.002251 -0.005721 0.000000 0.004447 0.000000
# 2 -0.002251 0.009365 -0.001582 0.000000 0.000799 0.000000
# 3 -0.005721 -0.001582 0.014870 0.000000 -0.003744 0.000000
# 4 0.000000 0.000000 0.000000 0.029513 0.000000 0.004345
# 5 0.004447 0.000799 -0.003744 0.000000 0.037708 0.000000
# 6 0.000000 0.000000 0.000000 0.004345 0.000000 0.022217
#
#
# Mechanical properties :
#
#
# Convention : Reuss Voigt Hill
#
# Bulk Modulus (GPa) = 51.51633 52.16848 51.84240
# Shear Modulus (GPa) = 32.56660 35.56318 34.06489
#
# Velocity S-wave (km/s) = 4.20250 4.39159 4.29808
# Velocity P-wave (km/s) = 7.17534 7.34887 7.26262
#
# Compressibility (1/GPa) = 0.01941132
#
# Stress axis : x y z
#
# Youngs Moduli (GPa) = 70.01395 106.77746 67.25117
#
# Poissons Ratio (x) = 0.24034 0.38472
# Poissons Ratio (y) = 0.15759 0.10637
# Poissons Ratio (z) = 0.40053 0.16889
#
# Static dielectric constant tensor:
#      x y z
#    x 3.257220 0.000000 0.208780 
#    y 0.000000 3.505440 0.000000 
#    z 0.208780 0.000000 3.607650 
# 
# 
# High freq. dielectric constant tensor:
#      x y z
#    x 1.701800 0.000000 0.016740 
#    y 0.000000 1.720340 0.000000 
#    z 0.016740 0.000000 1.729900 
# 
# From -- ./inp_files/12211.got.cif
#   From: 2010.06.25/outbox.cif.g09.slc.cpg/sg11_7_cif.got.tgz:12211.got - 2010.06.27 23:14:04.
