data_PCOD8076729
_publ_section_title
;
Structure prediction by ZEFSAII (Michael W. Deem and Ramdas Pophale) SiO2 
 PCOD8076729
Probable space group: P 21/M
;
_chemical_formula_sum "Si O2"
_cell_formula_units_Z 32
_cell_length_a 13.874758
_cell_length_b 18.062843
_cell_length_c 13.934607
_cell_angle_alpha 90.000000
_cell_angle_beta 150.254742
_cell_angle_gamma 90.000000
_cell_volume 1732.664825
_symmetry_space_group_name_H-M "P 21/M"
_symmetry_group_IT_number 11
_symmetry_cell_setting 'monoclinic'
loop_
_space_group_symop_operation_xyz
x,y,z
-x,1/2+y,-z
-x,-y,-z
x,1/2-y,z
loop_
_atom_site_type_symbol
_atom_site_label
_atom_site_fract_x
_atom_site_fract_y
_atom_site_fract_z
Si Si1 0.411838 0.070059 0.183753
Si Si2 0.037581 0.422834 0.981079
Si Si3 0.252057 0.336662 0.670410
Si Si4 0.202357 0.163828 0.846646
Si Si5 0.480085 0.597665 0.239442
Si Si6 0.102582 0.080154 0.374634
Si Si7 0.895519 0.335240 0.030365
Si Si8 0.148762 0.916246 0.379857
O O1 0.258821 0.084028 0.136851
O O2 0.625004 0.095482 0.401984
O O3 0.400645 0.983877 0.145459
O O4 0.353452 0.117866 0.041140
O O5 0.000000 0.500000 0.000000
O O6 0.005876 0.356924 0.029019
O O7 0.882666 0.414245 0.761647
O O8 0.215708 0.250000 0.624583
O O9 0.238240 0.360189 0.768402
O O10 0.464560 0.360148 0.812470
O O11 0.087304 0.381318 0.466648
O O12 0.245163 0.250000 0.899512
O O13 0.978298 0.148074 0.680655
O O14 0.675667 0.590013 0.472985
O O15 0.332766 0.646084 0.175793
O O16 0.060834 0.992834 0.345885
O O17 0.957541 0.117770 0.176031
O O18 0.934730 0.250000 0.084522
#
# Coordination Sequence:
#
# PCOD8076729 Si02
#       8
#     4   4   4   4   4   4   4   4
#     4  10  21  40  62  86 112 155 199 243 289 347
#     4  11  21  37  58  85 121 151 191 242 295 347
#     4   9  19  38  58  84 123 154 182 243 302 345
#     4  10  22  40  59  83 121 157 193 245 300 345
#     4   9  20  37  57  85 116 147 188 238 289 345
#     4   9  20  37  57  85 116 147 188 238 289 345
#     4  12  22  35  58  85 115 156 191 233 297 357
#     4  10  21  40  62  86 112 155 199 243 289 347
#
# _framework density 18.468661999999998
#
# number of rings (size 3 to 8) (size 9 to 14) (size 15 to 20)
#    0.750    1.250    2.500    1.500    0.000    5.000 
#    2.250    0.000    0.000    0.000    0.000    0.000 
#    0.000    0.000    0.000    0.000    0.000    0.000 
#
# Total GULP energy -396677.595562 kJ/mol
# GULP energy per Si atom -12396.174861 kJ/mol
# Density = 1.842663 g / cm^3
# Si number density = 18.468662 Si / 1000 Ang^3
#
#
#
# Elastic Constant Matrix: (Units=GPa)
#
#
# Indices 1 2 3 4 5 6 
#
# 1 91.9161 20.4545 25.9082 0.0000 -10.9684 0.0000
# 2 20.4545 65.6830 18.9416 0.0000 -11.4732 0.0000
# 3 25.9082 18.9416 83.6908 0.0000 -1.2959 0.0000
# 4 0.0000 0.0000 0.0000 19.0929 0.0000 -2.3527
# 5 -10.9684 -11.4732 -1.2959 0.0000 25.1964 0.0000
# 6 0.0000 0.0000 0.0000 -2.3527 0.0000 35.5150
#
#
#
# Elastic Compliance Matrix: (Units=1/GPa)
#
#
# Indices 1 2 3 4 5 6 
#
# 1 0.012866 -0.002257 -0.003404 0.000000 0.004398 0.000000
# 2 -0.002257 0.018116 -0.003292 0.000000 0.007098 0.000000
# 3 -0.003404 -0.003292 0.013712 0.000000 -0.002276 0.000000
# 4 0.000000 0.000000 0.000000 0.052807 0.000000 0.003498
# 5 0.004398 0.007098 -0.002276 0.000000 0.044718 0.000000
# 6 0.000000 0.000000 0.000000 0.003498 0.000000 0.028389
#
#
# Mechanical properties :
#
#
# Convention : Reuss Voigt Hill
#
# Bulk Modulus (GPa) = 37.32781 41.32207 39.32494
# Shear Modulus (GPa) = 25.32377 27.69323 26.50850
#
# Velocity S-wave (km/s) = 3.70696 3.87650 3.79268
# Velocity P-wave (km/s) = 6.21106 6.51606 6.36539
#
# Compressibility (1/GPa) = 0.02678968
#
# Stress axis : x y z
#
# Youngs Moduli (GPa) = 77.72414 55.19841 72.92704
#
# Poissons Ratio (x) = 0.12457 0.24825
# Poissons Ratio (y) = 0.17540 0.24006
# Poissons Ratio (z) = 0.26458 0.18170
#
# Static dielectric constant tensor:
#      x y z
#    x 3.397250 0.000000 0.061360 
#    y 0.000000 3.405940 0.000000 
#    z 0.061360 0.000000 3.381290 
# 
# 
# High freq. dielectric constant tensor:
#      x y z
#    x 1.707260 0.000000 0.002050 
#    y 0.000000 1.721760 0.000000 
#    z 0.002050 0.000000 1.712710 
# 
# From -- ./inp_files/52588.got.cif
#   From: 2010.06.25/outbox.cif.g09.slc.cpg/sg11_27_cif.got.tgz:52588.got - 2010.06.27 23:14:04.
