data_PCOD8076930
_publ_section_title
;
Structure prediction by ZEFSAII (Michael W. Deem and Ramdas Pophale) SiO2 
 PCOD8076930
Probable space group: P 21/M
;
_chemical_formula_sum "Si O2"
_cell_formula_units_Z 24
_cell_length_a 19.068332
_cell_length_b 9.290228
_cell_length_c 24.753127
_cell_angle_alpha 90.000000
_cell_angle_beta 161.055615
_cell_angle_gamma 90.000000
_cell_volume 1423.589737
_symmetry_space_group_name_H-M "P 21/M"
_symmetry_group_IT_number 11
_symmetry_cell_setting 'monoclinic'
loop_
_space_group_symop_operation_xyz
x,y,z
-x,1/2+y,-z
-x,-y,-z
x,1/2-y,z
loop_
_atom_site_type_symbol
_atom_site_label
_atom_site_fract_x
_atom_site_fract_y
_atom_site_fract_z
Si Si1 0.167291 0.922180 0.660583
Si Si2 0.299218 0.087712 0.068270
Si Si3 0.623844 0.087605 0.392913
Si Si4 0.164431 0.414384 0.083703
Si Si5 0.954964 0.416576 0.308182
Si Si6 0.612110 0.080804 0.967764
O O1 0.163236 0.750000 0.649458
O O2 0.108802 0.968517 0.678761
O O3 0.402097 0.982765 0.818824
O O4 0.000000 0.000000 0.500000
O O5 0.268446 0.250000 0.022885
O O6 0.541804 0.073557 0.270683
O O7 0.127921 0.059125 0.992461
O O8 0.263447 0.969239 0.995804
O O9 0.698214 0.250000 0.458631
O O10 0.417202 0.046772 0.280631
O O11 0.825975 0.988431 0.552975
O O12 0.122172 0.250000 0.067118
O O13 0.000000 0.500000 0.000000
O O14 0.005245 0.250000 0.344040
O O15 0.759779 0.456208 0.126435
O O16 0.555470 0.250000 0.923130
#
# Coordination Sequence:
#
# PCOD8076930 Si02
#       6
#     4   4   4   4   4   4
#     4  11  23  38  55  75 101 134 174 217 257 300
#     4   8  17  33  51  75 104 132 168 209 252 300
#     4   8  17  32  51  75 102 130 167 207 250 301
#     4   8  16  30  51  80 106 129 164 208 253 303
#     4  10  22  36  50  73 104 136 173 212 254 302
#     4  11  22  35  51  75 104 136 174 212 253 303
#
# _framework density 16.858789999999999
#
# number of rings (size 3 to 8) (size 9 to 14) (size 15 to 20)
#    1.000    1.667    0.000    2.500    0.000    7.333 
#    0.000    0.000    0.000    1.000    0.000    0.000 
#    0.000    0.000    0.000    0.000    0.000    0.000 
#
# Total GULP energy -297355.234157 kJ/mol
# GULP energy per Si atom -12389.801423 kJ/mol
# Density = 1.682042 g / cm^3
# Si number density = 16.858790 Si / 1000 Ang^3
#
#
#
# Elastic Constant Matrix: (Units=GPa)
#
#
# Indices 1 2 3 4 5 6 
#
# 1 99.5524 61.3354 65.4052 0.0000 11.1056 0.0000
# 2 61.3354 80.2414 55.9623 0.0000 2.9243 0.0000
# 3 65.4052 55.9623 80.3255 0.0000 -1.0098 0.0000
# 4 0.0000 0.0000 0.0000 33.6879 0.0000 4.3779
# 5 11.1056 2.9243 -1.0098 0.0000 20.5593 0.0000
# 6 0.0000 0.0000 0.0000 4.3779 0.0000 32.4591
#
#
#
# Elastic Compliance Matrix: (Units=1/GPa)
#
#
# Indices 1 2 3 4 5 6 
#
# 1 0.028756 -0.009673 -0.016863 0.000000 -0.014985 0.000000
# 2 -0.009673 0.027877 -0.011537 0.000000 0.000693 0.000000
# 3 -0.016863 -0.011537 0.034374 0.000000 0.012439 0.000000
# 4 0.000000 0.000000 0.000000 0.030214 0.000000 -0.004075
# 5 -0.014985 0.000693 0.012439 0.000000 0.057247 0.000000
# 6 0.000000 0.000000 0.000000 -0.004075 0.000000 0.031358
#
#
# Mechanical properties :
#
#
# Convention : Reuss Voigt Hill
#
# Bulk Modulus (GPa) = 67.29286 69.50279 68.39783
# Shear Modulus (GPa) = 17.18653 22.50235 19.84444
#
# Velocity S-wave (km/s) = 3.19633 3.65739 3.43461
# Velocity P-wave (km/s) = 7.32286 7.69099 7.50918
#
# Compressibility (1/GPa) = 0.01486042
#
# Stress axis : x y z
#
# Youngs Moduli (GPa) = 34.77578 35.87158 29.09158
#
# Poissons Ratio (x) = 0.34700 0.49058
# Poissons Ratio (y) = 0.33640 0.33562
# Poissons Ratio (z) = 0.58644 0.41384
#
# Static dielectric constant tensor:
#      x y z
#    x 3.192880 0.000000 -0.098660 
#    y 0.000000 3.076400 0.000000 
#    z -0.098660 0.000000 3.019080 
# 
# 
# High freq. dielectric constant tensor:
#      x y z
#    x 1.642490 0.000000 0.004290 
#    y 0.000000 1.655210 0.000000 
#    z 0.004290 0.000000 1.632540 
# 
# From -- ./inp_files/69528.got.cif
#   From: 2010.06.25/outbox.cif.g09.slc.cpg/sg11_35_cif.got.tgz:69528.got - 2010.06.27 23:14:04.
