data_PCOD8076961
_publ_section_title
;
Structure prediction by ZEFSAII (Michael W. Deem and Ramdas Pophale) SiO2 
 PCOD8076961
Probable space group: P 21/M
;
_chemical_formula_sum "Si O2"
_cell_formula_units_Z 28
_cell_length_a 14.534885
_cell_length_b 9.062201
_cell_length_c 20.566749
_cell_angle_alpha 90.000000
_cell_angle_beta 147.604040
_cell_angle_gamma 90.000000
_cell_volume 1451.399966
_symmetry_space_group_name_H-M "P 21/M"
_symmetry_group_IT_number 11
_symmetry_cell_setting 'monoclinic'
loop_
_space_group_symop_operation_xyz
x,y,z
-x,1/2+y,-z
-x,-y,-z
x,1/2-y,z
loop_
_atom_site_type_symbol
_atom_site_label
_atom_site_fract_x
_atom_site_fract_y
_atom_site_fract_z
Si Si1 0.469167 0.422685 0.692179
Si Si2 0.883669 0.581652 0.762500
Si Si3 0.155728 0.922983 0.129557
Si Si4 0.273767 0.582247 0.956941
Si Si5 0.168702 0.575001 0.753827
Si Si6 0.803002 0.924948 0.573380
Si Si7 0.578976 0.075196 0.205303
O O1 0.440322 0.250000 0.686533
O O2 0.669241 0.460565 0.804020
O O3 0.365950 0.475381 0.566290
O O4 0.388637 0.508413 0.704612
O O5 0.827843 0.750000 0.743559
O O6 0.821314 0.478983 0.783555
O O7 0.795247 0.519709 0.643537
O O8 0.087985 0.572410 0.878551
O O9 0.119736 0.750000 0.109119
O O10 0.000000 0.000000 0.000000
O O11 0.342992 0.750000 0.003208
O O12 0.267312 0.527533 0.878485
O O13 0.395277 0.473980 0.069015
O O14 0.163486 0.750000 0.748147
O O15 0.271110 0.513337 0.752660
O O16 0.973910 0.512175 0.639237
O O17 0.821575 0.750000 0.587947
O O18 0.582435 0.250000 0.212144
#
# Coordination Sequence:
#
# PCOD8076961 Si02
#       7
#     4   4   4   4   4   4   4
#     4  10  22  38  54  73 100 137 177 209 244 303
#     4   9  18  34  58  81 100 130 170 210 254 303
#     4  11  23  37  54  78 106 135 168 207 253 304
#     4   9  17  32  53  76 103 135 170 205 248 309
#     4   8  16  31  52  77 103 132 168 210 254 301
#     4   8  16  35  58  76  99 134 172 207 249 304
#     4  11  21  31  48  77 108 136 169 212 257 293
#
# _framework density 19.291720000000002
#
# number of rings (size 3 to 8) (size 9 to 14) (size 15 to 20)
#    0.000    2.571    0.000    3.857    0.000    6.286 
#    0.000    1.429    0.000    3.429    0.000    0.000 
#    0.000    0.000    0.000    0.000    0.000    0.000 
#
# Total GULP energy -347162.367827 kJ/mol
# GULP energy per Si atom -12398.655994 kJ/mol
# Density = 1.924781 g / cm^3
# Si number density = 19.291720 Si / 1000 Ang^3
#
#
#
# Elastic Constant Matrix: (Units=GPa)
#
#
# Indices 1 2 3 4 5 6 
#
# 1 103.6979 39.8136 26.6496 0.0000 -21.1152 0.0000
# 2 39.8136 49.4583 30.3997 0.0000 -4.1751 0.0000
# 3 26.6496 30.3997 97.4168 0.0000 -15.2427 0.0000
# 4 0.0000 0.0000 0.0000 20.9641 0.0000 -5.7423
# 5 -21.1152 -4.1751 -15.2427 0.0000 23.1470 0.0000
# 6 0.0000 0.0000 0.0000 -5.7423 0.0000 29.3757
#
#
#
# Elastic Compliance Matrix: (Units=1/GPa)
#
#
# Indices 1 2 3 4 5 6 
#
# 1 0.017546 -0.014040 0.001884 0.000000 0.014714 0.000000
# 2 -0.014040 0.036262 -0.009427 0.000000 -0.012475 0.000000
# 3 0.001884 -0.009427 0.014153 0.000000 0.009338 0.000000
# 4 0.000000 0.000000 0.000000 0.050399 0.000000 0.009852
# 5 0.014714 -0.012475 0.009338 0.000000 0.060523 0.000000
# 6 0.000000 0.000000 0.000000 0.009852 0.000000 0.035968
#
#
# Mechanical properties :
#
#
# Convention : Reuss Voigt Hill
#
# Bulk Modulus (GPa) = 40.33205 49.36654 44.84930
# Shear Modulus (GPa) = 18.77704 24.94469 21.86087
#
# Velocity S-wave (km/s) = 3.12319 3.59977 3.36992
# Velocity P-wave (km/s) = 5.82731 6.55155 6.20002
#
# Compressibility (1/GPa) = 0.02479418
#
# Stress axis : x y z
#
# Youngs Moduli (GPa) = 56.99365 27.57673 70.65769
#
# Poissons Ratio (x) = 0.38718 -0.13309
# Poissons Ratio (y) = 0.80019 0.66610
# Poissons Ratio (z) = -0.10735 0.25997
#
# Static dielectric constant tensor:
#      x y z
#    x 3.769460 0.000000 -0.055340 
#    y 0.000000 3.213450 0.000000 
#    z -0.055340 0.000000 3.575470 
# 
# 
# High freq. dielectric constant tensor:
#      x y z
#    x 1.759880 0.000000 -0.006630 
#    y 0.000000 1.717360 0.000000 
#    z -0.006630 0.000000 1.751590 
# 
# From -- ./inp_files/49027.got.cif
#   From: 2010.06.25/outbox.cif.g09.slc.cpg/sg11_25_cif.got.tgz:49027.got - 2010.06.27 23:14:04.
