data_PCOD8076543
_publ_section_title
;
Structure prediction by ZEFSAII (Michael W. Deem and Ramdas Pophale) SiO2 
 PCOD8076543
Probable space group: P 21/M
;
_chemical_formula_sum "Si O2"
_cell_formula_units_Z 24
_cell_length_a 13.319989
_cell_length_b 8.756604
_cell_length_c 10.136080
_cell_angle_alpha 90.000000
_cell_angle_beta 78.445717
_cell_angle_gamma 90.000000
_cell_volume 1158.292908
_symmetry_space_group_name_H-M "P 21/M"
_symmetry_group_IT_number 11
_symmetry_cell_setting 'monoclinic'
loop_
_space_group_symop_operation_xyz
x,y,z
-x,1/2+y,-z
-x,-y,-z
x,1/2-y,z
loop_
_atom_site_type_symbol
_atom_site_label
_atom_site_fract_x
_atom_site_fract_y
_atom_site_fract_z
Si Si1 0.974468 0.429041 0.866719
Si Si2 0.260410 0.572829 0.073722
Si Si3 0.404796 0.569267 0.269894
Si Si4 0.709463 0.930668 0.465271
Si Si5 0.073786 0.569164 0.589221
Si Si6 0.637204 0.928869 0.198969
O O1 0.998586 0.250000 0.863335
O O2 0.856970 0.462151 0.859207
O O3 0.046815 0.507642 0.740787
O O4 0.000000 0.500000 0.000000
O O5 0.280994 0.750000 0.049594
O O6 0.331319 0.509372 0.172445
O O7 0.287208 0.496247 0.928915
O O8 0.393186 0.750000 0.297836
O O9 0.377844 0.478279 0.409021
O O10 0.520264 0.523345 0.200819
O O11 0.728049 0.750000 0.464365
O O12 0.672035 0.988518 0.332560
O O13 0.812179 0.018876 0.478036
O O14 0.064674 0.750000 0.588372
O O15 0.000000 0.500000 0.500000
O O16 0.649666 0.750000 0.189928
#
# Coordination Sequence:
#
# PCOD8076543 Si02
#       6
#     4   4   4   4   4   4
#     4  11  23  40  61  89 122 160 204 251 302 360
#     4  10  22  38  59  85 115 152 196 242 295 354
#     4  10  21  39  60  86 119 156 197 246 298 350
#     4  11  23  39  60  89 120 155 198 244 295 359
#     4  12  25  42  64  90 120 158 200 249 304 362
#     4  10  22  38  59  87 120 155 196 244 295 351
#
# _framework density 20.720147999999998
#
# number of rings (size 3 to 8) (size 9 to 14) (size 15 to 20)
#    0.000    1.333    0.000    5.500    0.000    8.000 
#    0.000    0.000    0.000    0.000    0.000    0.000 
#    0.000    0.000    0.000    0.000    0.000    0.000 
#
# Total GULP energy -297769.277660 kJ/mol
# GULP energy per Si atom -12407.053236 kJ/mol
# Density = 2.067299 g / cm^3
# Si number density = 20.720148 Si / 1000 Ang^3
#
#
#
# Elastic Constant Matrix: (Units=GPa)
#
#
# Indices 1 2 3 4 5 6 
#
# 1 67.4143 25.8288 -9.8752 0.0000 9.3521 0.0000
# 2 25.8288 80.8604 23.8722 0.0000 0.1748 0.0000
# 3 -9.8752 23.8722 87.6729 0.0000 2.4739 0.0000
# 4 0.0000 0.0000 0.0000 35.9050 0.0000 -1.0185
# 5 9.3521 0.1748 2.4739 0.0000 41.3700 0.0000
# 6 0.0000 0.0000 0.0000 -1.0185 0.0000 29.6047
#
#
#
# Elastic Compliance Matrix: (Units=1/GPa)
#
#
# Indices 1 2 3 4 5 6 
#
# 1 0.018858 -0.007262 0.004228 0.000000 -0.004485 0.000000
# 2 -0.007262 0.016246 -0.005295 0.000000 0.001890 0.000000
# 3 0.004228 -0.005295 0.013373 0.000000 -0.001733 0.000000
# 4 0.000000 0.000000 0.000000 0.027878 0.000000 0.000959
# 5 -0.004485 0.001890 -0.001733 0.000000 0.025282 0.000000
# 6 0.000000 0.000000 0.000000 0.000959 0.000000 0.033811
#
#
# Mechanical properties :
#
#
# Convention : Reuss Voigt Hill
#
# Bulk Modulus (GPa) = 31.42842 35.06658 33.24750
# Shear Modulus (GPa) = 30.72922 34.45073 32.58998
#
# Velocity S-wave (km/s) = 3.85523 4.08201 3.97024
# Velocity P-wave (km/s) = 5.91760 6.25921 6.09080
#
# Compressibility (1/GPa) = 0.03181834
#
# Stress axis : x y z
#
# Youngs Moduli (GPa) = 53.02925 61.55456 74.77832
#
# Poissons Ratio (x) = 0.44701 -0.31616
# Poissons Ratio (y) = 0.38510 0.39594
# Poissons Ratio (z) = -0.22421 0.32592
#
# Static dielectric constant tensor:
#      x y z
#    x 4.255520 0.000000 -0.129200 
#    y 0.000000 3.278550 0.000000 
#    z -0.129200 0.000000 4.115050 
# 
# 
# High freq. dielectric constant tensor:
#      x y z
#    x 1.828130 0.000000 0.001880 
#    y 0.000000 1.807330 0.000000 
#    z 0.001880 0.000000 1.824380 
# 
# From -- ./inp_files/20404.got.cif
#   From: 2010.06.25/outbox.cif.g09.slc.cpg/sg11_11_cif.got.tgz:20404.got - 2010.06.27 23:14:04.
