data_PCOD8076190
_publ_section_title
;
Structure prediction by ZEFSAII (Michael W. Deem and Ramdas Pophale) SiO2 
 PCOD8076190
Probable space group: P 21/M
;
_chemical_formula_sum "Si O2"
_cell_formula_units_Z 24
_cell_length_a 14.997571
_cell_length_b 8.784868
_cell_length_c 14.672399
_cell_angle_alpha 90.000000
_cell_angle_beta 139.615910
_cell_angle_gamma 90.000000
_cell_volume 1252.480327
_symmetry_space_group_name_H-M "P 21/M"
_symmetry_group_IT_number 11
_symmetry_cell_setting 'monoclinic'
loop_
_space_group_symop_operation_xyz
x,y,z
-x,1/2+y,-z
-x,-y,-z
x,1/2-y,z
loop_
_atom_site_type_symbol
_atom_site_label
_atom_site_fract_x
_atom_site_fract_y
_atom_site_fract_z
Si Si1 0.079492 0.571369 0.145355
Si Si2 0.880812 0.429868 0.346948
Si Si3 0.884236 0.572044 0.155372
Si Si4 0.383653 0.571310 0.348191
Si Si5 0.591033 0.925706 0.149123
Si Si6 0.624005 0.075211 0.865308
O O1 0.075913 0.750000 0.126535
O O2 0.235854 0.510848 0.268071
O O3 0.007775 0.525921 0.184128
O O4 0.000000 0.500000 0.000000
O O5 0.882537 0.250000 0.358061
O O6 0.905770 0.474338 0.262195
O O7 0.735750 0.490726 0.270221
O O8 0.000000 0.500000 0.500000
O O9 0.886626 0.750000 0.181513
O O10 0.739013 0.533409 0.996797
O O11 0.500000 0.500000 0.500000
O O12 0.393953 0.750000 0.367358
O O13 0.405951 0.522444 0.260804
O O14 0.615202 0.750000 0.142394
O O15 0.516442 0.943533 0.187945
O O16 0.500000 0.000000 0.000000
O O17 0.676710 0.250000 0.909673
#
# Coordination Sequence:
#
# PCOD8076190 Si02
#       6
#     4   4   4   4   4   4
#     4  10  21  37  61  91 122 158 202 252 301 362
#     4  12  26  44  64  89 125 166 205 259 318 369
#     4  11  22  37  62  94 123 157 206 255 305 369
#     4  10  22  40  59  86 124 160 199 247 301 361
#     4  11  22  38  63  95 125 160 207 254 306 367
#     4  10  21  38  62  89 122 161 203 248 302 365
#
# _framework density 19.161978000000001
#
# number of rings (size 3 to 8) (size 9 to 14) (size 15 to 20)
#    0.000    1.333    3.333    2.500    0.000    4.000 
#    0.000    3.333    0.000    0.000    0.000    0.000 
#    0.000    0.000    0.000    0.000    0.000    0.000 
#
# Total GULP energy -297705.929504 kJ/mol
# GULP energy per Si atom -12404.413729 kJ/mol
# Density = 1.911836 g / cm^3
# Si number density = 19.161978 Si / 1000 Ang^3
#
#
#
# Elastic Constant Matrix: (Units=GPa)
#
#
# Indices 1 2 3 4 5 6 
#
# 1 160.9646 56.1559 78.8714 0.0000 6.6862 0.0000
# 2 56.1559 100.9108 58.4152 0.0000 4.3402 0.0000
# 3 78.8714 58.4152 170.8250 0.0000 9.1846 0.0000
# 4 0.0000 0.0000 0.0000 39.6493 0.0000 -0.6200
# 5 6.6862 4.3402 9.1846 0.0000 33.6461 0.0000
# 6 0.0000 0.0000 0.0000 -0.6200 0.0000 28.9876
#
#
#
# Elastic Compliance Matrix: (Units=1/GPa)
#
#
# Indices 1 2 3 4 5 6 
#
# 1 0.008779 -0.003158 -0.002945 0.000000 -0.000533 0.000000
# 2 -0.003158 0.013498 -0.003144 0.000000 -0.000255 0.000000
# 3 -0.002945 -0.003144 0.008358 0.000000 -0.001291 0.000000
# 4 0.000000 0.000000 0.000000 0.025230 0.000000 0.000540
# 5 -0.000533 -0.000255 -0.001291 0.000000 0.030212 0.000000
# 6 0.000000 0.000000 0.000000 0.000540 0.000000 0.034509
#
#
# Mechanical properties :
#
#
# Convention : Reuss Voigt Hill
#
# Bulk Modulus (GPa) = 82.35977 91.06505 86.71241
# Shear Modulus (GPa) = 34.93379 36.40714 35.67047
#
# Velocity S-wave (km/s) = 4.27438 4.36359 4.31922
# Velocity P-wave (km/s) = 8.21186 8.54488 8.38002
#
# Compressibility (1/GPa) = 0.01214185
#
# Stress axis : x y z
#
# Youngs Moduli (GPa) = 113.90258 74.08448 119.64313
#
# Poissons Ratio (x) = 0.23396 0.35235
# Poissons Ratio (y) = 0.35970 0.37616
# Poissons Ratio (z) = 0.33544 0.23292
#
# Static dielectric constant tensor:
#      x y z
#    x 3.488140 0.000000 0.203190 
#    y 0.000000 3.556190 0.000000 
#    z 0.203190 0.000000 3.306440 
# 
# 
# High freq. dielectric constant tensor:
#      x y z
#    x 1.766720 0.000000 0.001450 
#    y 0.000000 1.749490 0.000000 
#    z 0.001450 0.000000 1.742430 
# 
# From -- ./inp_files/51518.got.cif
#   From: 2010.06.25/outbox.cif.g09.slc.cpg/sg11_26_cif.got.tgz:51518.got - 2010.06.27 23:14:04.
