data_PCOD8076884
_publ_section_title
;
Structure prediction by ZEFSAII (Michael W. Deem and Ramdas Pophale) SiO2 
 PCOD8076884
Probable space group: P 21/M
;
_chemical_formula_sum "Si O2"
_cell_formula_units_Z 16
_cell_length_a 12.436955
_cell_length_b 9.932255
_cell_length_c 9.394581
_cell_angle_alpha 90.000000
_cell_angle_beta 35.201358
_cell_angle_gamma 90.000000
_cell_volume 668.963236
_symmetry_space_group_name_H-M "P 21/M"
_symmetry_group_IT_number 11
_symmetry_cell_setting 'monoclinic'
loop_
_space_group_symop_operation_xyz
x,y,z
-x,1/2+y,-z
-x,-y,-z
x,1/2-y,z
loop_
_atom_site_type_symbol
_atom_site_label
_atom_site_fract_x
_atom_site_fract_y
_atom_site_fract_z
Si Si1 0.951355 0.605684 0.229613
Si Si2 0.347029 0.395991 0.011070
Si Si3 0.290383 0.036418 0.762619
Si Si4 0.233220 0.592495 0.363024
O O1 0.946770 0.750000 0.315678
O O2 0.795006 0.618612 0.275875
O O3 0.915155 0.479780 0.373622
O O4 0.154661 0.591670 0.936132
O O5 0.308334 0.250000 0.126201
O O6 0.230128 0.514951 0.214341
O O7 0.291080 0.380215 0.907946
O O8 0.566094 0.428913 0.783258
O O9 0.500000 0.000000 0.500000
O O10 0.180145 0.750000 0.400323
#
# Coordination Sequence:
#
# PCOD8076884 Si02
#       4
#     4   4   4   4
#     4  11  25  43  70 104 136 174 226 279 332 402
#     4  10  21  41  69  98 131 177 226 276 334 397
#     4  11  24  45  67 100 136 181 220 277 336 402
#     4  10  22  42  67  99 136 174 222 278 336 399
#
# _framework density 23.917605999999999
#
# number of rings (size 3 to 8) (size 9 to 14) (size 15 to 20)
#    0.000    1.500    2.500    1.500    0.000   10.000 
#    0.000    0.000    0.000    0.000    0.000    0.000 
#    0.000    0.000    0.000    0.000    0.000    0.000 
#
# Total GULP energy -198292.225251 kJ/mol
# GULP energy per Si atom -12393.264078 kJ/mol
# Density = 2.386317 g / cm^3
# Si number density = 23.917606 Si / 1000 Ang^3
#
#
#
# Elastic Constant Matrix: (Units=GPa)
#
#
# Indices 1 2 3 4 5 6 
#
# 1 77.3209 23.5950 42.3492 0.0000 -0.0228 0.0000
# 2 23.5950 207.4200 77.7200 0.0000 9.0508 0.0000
# 3 42.3492 77.7200 152.9737 0.0000 -14.3018 0.0000
# 4 0.0000 0.0000 0.0000 24.7446 0.0000 7.6585
# 5 -0.0228 9.0508 -14.3018 0.0000 42.8790 0.0000
# 6 0.0000 0.0000 0.0000 7.6585 0.0000 10.1897
#
#
#
# Elastic Compliance Matrix: (Units=1/GPa)
#
#
# Indices 1 2 3 4 5 6 
#
# 1 0.015332 -0.000051 -0.004353 0.000000 -0.001433 0.000000
# 2 -0.000051 0.006191 -0.003358 0.000000 -0.002427 0.000000
# 3 -0.004353 -0.003358 0.009821 0.000000 0.003982 0.000000
# 4 0.000000 0.000000 0.000000 0.052663 0.000000 -0.039582
# 5 -0.001433 -0.002427 0.003982 0.000000 0.025161 0.000000
# 6 0.000000 0.000000 0.000000 -0.039582 0.000000 0.127888
#
#
# Mechanical properties :
#
#
# Convention : Reuss Voigt Hill
#
# Bulk Modulus (GPa) = 63.20940 80.56033 71.88486
# Shear Modulus (GPa) = 19.39085 35.16603 27.27844
#
# Velocity S-wave (km/s) = 2.85043 3.83861 3.38082
# Velocity P-wave (km/s) = 6.10890 7.30767 6.73501
#
# Compressibility (1/GPa) = 0.01582043
#
# Stress axis : x y z
#
# Youngs Moduli (GPa) = 65.22215 161.52006 101.82586
#
# Poissons Ratio (x) = 0.00817 0.44323
# Poissons Ratio (y) = 0.00330 0.34197
# Poissons Ratio (z) = 0.28390 0.54245
#
# Static dielectric constant tensor:
#      x y z
#    x 4.417070 0.000000 -0.035070 
#    y 0.000000 4.152010 0.000000 
#    z -0.035070 0.000000 4.255520 
# 
# 
# High freq. dielectric constant tensor:
#      x y z
#    x 1.959890 0.000000 -0.010190 
#    y 0.000000 1.939820 0.000000 
#    z -0.010190 0.000000 1.946700 
# 
# From -- ./inp_files/16476.got.cif
#   From: 2010.06.25/outbox.cif.g09.slc.cpg/sg11_9_cif.got.tgz:16476.got - 2010.06.27 23:14:04.
