data_PCOD8076959
_publ_section_title
;
Structure prediction by ZEFSAII (Michael W. Deem and Ramdas Pophale) SiO2 
 PCOD8076959
Probable space group: P 21/M
;
_chemical_formula_sum "Si O2"
_cell_formula_units_Z 24
_cell_length_a 23.173232
_cell_length_b 9.283155
_cell_length_c 10.176728
_cell_angle_alpha 90.000000
_cell_angle_beta 40.393854
_cell_angle_gamma 90.000000
_cell_volume 1418.701381
_symmetry_space_group_name_H-M "P 21/M"
_symmetry_group_IT_number 11
_symmetry_cell_setting 'monoclinic'
loop_
_space_group_symop_operation_xyz
x,y,z
-x,1/2+y,-z
-x,-y,-z
x,1/2-y,z
loop_
_atom_site_type_symbol
_atom_site_label
_atom_site_fract_x
_atom_site_fract_y
_atom_site_fract_z
Si Si1 0.395275 0.085044 0.043888
Si Si2 0.960821 0.418552 0.444955
Si Si3 0.221784 0.587197 0.643687
Si Si4 0.586681 0.414152 0.725338
Si Si5 0.942155 0.580795 0.992159
Si Si6 0.771138 0.416133 0.678600
O O1 0.365497 0.250000 0.096202
O O2 0.408388 0.031702 0.169374
O O3 0.315499 0.997891 0.112199
O O4 0.493682 0.064744 0.805367
O O5 0.962430 0.250000 0.471534
O O6 0.859873 0.472510 0.596322
O O7 0.000000 0.500000 0.500000
O O8 0.019626 0.455840 0.216475
O O9 0.188217 0.750000 0.728626
O O10 0.323992 0.566491 0.517918
O O11 0.159118 0.475953 0.828705
O O12 0.218431 0.554636 0.494227
O O13 0.588410 0.250000 0.781319
O O14 0.945007 0.750000 0.017007
O O15 0.000000 0.500000 0.000000
O O16 0.756030 0.250000 0.734581
#
# Coordination Sequence:
#
# PCOD8076959 Si02
#       6
#     4   4   4   4   4   4
#     4   9  15  23  39  64  90 122 162 195 230 284
#     4  10  22  38  52  70  98 130 165 204 247 291
#     4   9  16  29  47  68  96 129 160 194 241 289
#     4   8  15  26  38  58  95 129 152 191 242 282
#     4  11  21  34  51  73  99 128 163 203 244 290
#     4   9  17  31  46  64  96 130 156 195 246 288
#
# _framework density 16.916879999999999
#
# number of rings (size 3 to 8) (size 9 to 14) (size 15 to 20)
#    0.000    2.667    1.667    2.000    0.000    5.333 
#    0.000    0.000    0.000    0.000    0.000    1.167 
#    0.000    0.000    0.000    0.000    0.000    0.000 
#
# Total GULP energy -297378.165058 kJ/mol
# GULP energy per Si atom -12390.756877 kJ/mol
# Density = 1.687838 g / cm^3
# Si number density = 16.916880 Si / 1000 Ang^3
#
#
#
# Elastic Constant Matrix: (Units=GPa)
#
#
# Indices 1 2 3 4 5 6 
#
# 1 107.8770 53.2873 72.2795 0.0000 -34.8433 0.0000
# 2 53.2873 78.3941 55.3333 0.0000 -16.8623 0.0000
# 3 72.2795 55.3333 91.6860 0.0000 -32.8653 0.0000
# 4 0.0000 0.0000 0.0000 27.3926 0.0000 -7.1036
# 5 -34.8433 -16.8623 -32.8653 0.0000 36.5731 0.0000
# 6 0.0000 0.0000 0.0000 -7.1036 0.0000 28.0591
#
#
#
# Elastic Compliance Matrix: (Units=1/GPa)
#
#
# Indices 1 2 3 4 5 6 
#
# 1 0.022176 -0.005333 -0.011169 0.000000 0.008631 0.000000
# 2 -0.005333 0.023682 -0.011795 0.000000 -0.004761 0.000000
# 3 -0.011169 -0.011795 0.031077 0.000000 0.011847 0.000000
# 4 0.000000 0.000000 0.000000 0.039071 0.000000 0.009892
# 5 0.008631 -0.004761 0.011847 0.000000 0.044016 0.000000
# 6 0.000000 0.000000 0.000000 0.009892 0.000000 0.038143
#
#
# Mechanical properties :
#
#
# Convention : Reuss Voigt Hill
#
# Bulk Modulus (GPa) = 49.16417 71.08414 60.12416
# Shear Modulus (GPa) = 19.11750 24.87544 21.99647
#
# Velocity S-wave (km/s) = 3.36532 3.83881 3.60983
# Velocity P-wave (km/s) = 6.65025 7.85872 7.27960
#
# Compressibility (1/GPa) = 0.02034001
#
# Stress axis : x y z
#
# Youngs Moduli (GPa) = 45.09439 42.22564 32.17818
#
# Poissons Ratio (x) = 0.22520 0.35941
# Poissons Ratio (y) = 0.24050 0.37953
# Poissons Ratio (z) = 0.50368 0.49804
#
# Static dielectric constant tensor:
#      x y z
#    x 3.232890 0.000000 -0.746180 
#    y 0.000000 3.277170 0.000000 
#    z -0.746180 0.000000 3.555190 
# 
# 
# High freq. dielectric constant tensor:
#      x y z
#    x 1.629310 0.000000 -0.056330 
#    y 0.000000 1.658530 0.000000 
#    z -0.056330 0.000000 1.627980 
# 
# From -- ./inp_files/25724.got.cif
#   From: 2010.06.25/outbox.cif.g09.slc.cpg/sg11_13_cif.got.tgz:25724.got - 2010.06.27 23:14:04.
