data_PCOD8076560
_publ_section_title
;
Structure prediction by ZEFSAII (Michael W. Deem and Ramdas Pophale) SiO2 
 PCOD8076560
Probable space group: P 21/M
;
_chemical_formula_sum "Si O2"
_cell_formula_units_Z 32
_cell_length_a 23.999132
_cell_length_b 9.349309
_cell_length_c 19.453024
_cell_angle_alpha 90.000000
_cell_angle_beta 157.004874
_cell_angle_gamma 90.000000
_cell_volume 1705.112887
_symmetry_space_group_name_H-M "P 21/M"
_symmetry_group_IT_number 11
_symmetry_cell_setting 'monoclinic'
loop_
_space_group_symop_operation_xyz
x,y,z
-x,1/2+y,-z
-x,-y,-z
x,1/2-y,z
loop_
_atom_site_type_symbol
_atom_site_label
_atom_site_fract_x
_atom_site_fract_y
_atom_site_fract_z
Si Si1 0.859781 0.419450 0.818501
Si Si2 0.826221 0.917079 0.514700
Si Si3 0.368042 0.587900 0.170962
Si Si4 0.305230 0.083445 0.486362
Si Si5 0.643186 0.584412 0.175275
Si Si6 0.873619 0.587593 0.326471
Si Si7 0.883959 0.918241 0.180932
Si Si8 0.630874 0.408132 0.668591
O O1 0.884669 0.250000 0.835477
O O2 0.793138 0.486079 0.673746
O O3 0.764250 0.455604 0.775526
O O4 0.000000 0.500000 0.000000
O O5 0.864367 0.750000 0.549936
O O6 0.738271 0.946663 0.484328
O O7 0.730105 0.969852 0.341151
O O8 0.973819 0.004029 0.684517
O O9 0.342707 0.750000 0.115064
O O10 0.529561 0.540027 0.336770
O O11 0.333113 0.578819 0.211186
O O12 0.258051 0.476649 0.015016
O O13 0.282377 0.250000 0.441058
O O14 0.605388 0.750000 0.142237
O O15 0.730803 0.554038 0.205765
O O16 0.500000 0.500000 0.000000
O O17 0.919339 0.750000 0.387577
O O18 0.853865 0.545960 0.225568
O O19 0.000000 0.500000 0.500000
O O20 0.900096 0.750000 0.184426
O O21 0.500000 0.500000 0.500000
O O22 0.584853 0.250000 0.595967
#
# Coordination Sequence:
#
# PCOD8076560 Si02
#       8
#     4   4   4   4   4   4   4   4
#     4  11  24  40  61  90 120 156 197 242 293 348
#     4  10  22  41  62  85 118 158 198 239 290 354
#     4  10  22  40  62  87 117 156 195 238 292 352
#     4  10  22  41  63  87 117 155 198 242 291 351
#     4  10  22  39  60  87 117 154 196 242 293 348
#     4  10  21  39  61  85 115 152 198 246 292 343
#     4  11  24  39  59  90 120 153 197 245 294 345
#     4  10  21  39  63  87 113 150 198 244 291 344
#
# _framework density 18.767085999999999
#
# number of rings (size 3 to 8) (size 9 to 14) (size 15 to 20)
#    0.000    1.750    2.500    0.750    3.500    3.500 
#    0.000    0.000    0.000    0.000    0.000    0.000 
#    0.000    0.000    0.000    0.000    0.000    0.000 
#
# Total GULP energy -396785.236313 kJ/mol
# GULP energy per Si atom -12399.538635 kJ/mol
# Density = 1.872437 g / cm^3
# Si number density = 18.767086 Si / 1000 Ang^3
#
#
#
# Elastic Constant Matrix: (Units=GPa)
#
#
# Indices 1 2 3 4 5 6 
#
# 1 119.0877 38.7863 41.7216 0.0000 6.0823 0.0000
# 2 38.7863 70.9998 63.6166 0.0000 8.8450 0.0000
# 3 41.7216 63.6166 133.2375 0.0000 9.4254 0.0000
# 4 0.0000 0.0000 0.0000 43.9473 0.0000 0.6618
# 5 6.0823 8.8450 9.4254 0.0000 17.7816 0.0000
# 6 0.0000 0.0000 0.0000 0.6618 0.0000 29.4580
#
#
#
# Elastic Compliance Matrix: (Units=1/GPa)
#
#
# Indices 1 2 3 4 5 6 
#
# 1 0.010289 -0.004705 -0.000927 0.000000 -0.000688 0.000000
# 2 -0.004705 0.027454 -0.011203 0.000000 -0.006109 0.000000
# 3 -0.000927 -0.011203 0.013224 0.000000 -0.001120 0.000000
# 4 0.000000 0.000000 0.000000 0.022762 0.000000 -0.000511
# 5 -0.000688 -0.006109 -0.001120 0.000000 0.060105 0.000000
# 6 0.000000 0.000000 0.000000 -0.000511 0.000000 0.033958
#
#
# Mechanical properties :
#
#
# Convention : Reuss Voigt Hill
#
# Bulk Modulus (GPa) = 57.81083 67.95264 62.88173
# Shear Modulus (GPa) = 24.12808 30.18408 27.15608
#
# Velocity S-wave (km/s) = 3.58950 4.01478 3.80808
# Velocity P-wave (km/s) = 6.93185 7.60120 7.27423
#
# Compressibility (1/GPa) = 0.01729780
#
# Stress axis : x y z
#
# Youngs Moduli (GPa) = 97.18779 36.42523 75.62074
#
# Poissons Ratio (x) = 0.17137 0.07010
# Poissons Ratio (y) = 0.45723 0.84717
# Poissons Ratio (z) = 0.09009 0.40807
#
# Static dielectric constant tensor:
#      x y z
#    x 4.257620 0.000000 0.126730 
#    y 0.000000 3.217410 0.000000 
#    z 0.126730 0.000000 3.328960 
# 
# 
# High freq. dielectric constant tensor:
#      x y z
#    x 1.747740 0.000000 0.002160 
#    y 0.000000 1.730600 0.000000 
#    z 0.002160 0.000000 1.732800 
# 
# From -- ./inp_files/67199.got.cif
#   From: 2010.06.25/outbox.cif.g09.slc.cpg/sg11_34_cif.got.tgz:67199.got - 2010.06.27 23:14:04.
