data_PCOD8076523
_publ_section_title
;
Structure prediction by ZEFSAII (Michael W. Deem and Ramdas Pophale) SiO2 
 PCOD8076523
Probable space group: P 21/M
;
_chemical_formula_sum "Si O2"
_cell_formula_units_Z 28
_cell_length_a 9.010787
_cell_length_b 8.955013
_cell_length_c 28.576714
_cell_angle_alpha 90.000000
_cell_angle_beta 140.913228
_cell_angle_gamma 90.000000
_cell_volume 1453.864719
_symmetry_space_group_name_H-M "P 21/M"
_symmetry_group_IT_number 11
_symmetry_cell_setting 'monoclinic'
loop_
_space_group_symop_operation_xyz
x,y,z
-x,1/2+y,-z
-x,-y,-z
x,1/2-y,z
loop_
_atom_site_type_symbol
_atom_site_label
_atom_site_fract_x
_atom_site_fract_y
_atom_site_fract_z
Si Si1 0.748234 0.423891 0.067006
Si Si2 0.095329 0.072509 0.070198
Si Si3 0.543210 0.924038 0.645364
Si Si4 0.405324 0.426121 0.792813
Si Si5 0.761084 0.421541 0.339037
Si Si6 0.918884 0.075038 0.211369
Si Si7 0.164253 0.078746 0.503281
O O1 0.703527 0.250000 0.051709
O O2 0.862495 0.466006 0.144312
O O3 0.924550 0.478950 0.070036
O O4 0.500000 0.500000 0.000000
O O5 0.105599 0.250000 0.067050
O O6 0.350894 0.012530 0.144846
O O7 0.000000 0.000000 0.000000
O O8 0.513714 0.750000 0.629663
O O9 0.415116 0.969659 0.662390
O O10 0.813401 0.972251 0.713490
O O11 0.422905 0.004872 0.570959
O O12 0.449155 0.250000 0.805765
O O13 0.276030 0.469025 0.713263
O O14 0.246170 0.474668 0.797167
O O15 0.709756 0.250000 0.311797
O O16 0.036009 0.439063 0.421606
O O17 0.876868 0.250000 0.211521
O O18 0.187421 0.250000 0.522899
O O19 0.000000 0.000000 0.500000
#
# Coordination Sequence:
#
# PCOD8076523 Si02
#       7
#     4   4   4   4   4   4   4
#     4  10  22  39  61  86 112 144 183 224 269 323
#     4  11  23  41  63  88 117 148 184 226 273 329
#     4   9  18  34  58  84 109 142 187 233 284 339
#     4  12  25  38  55  83 114 148 190 233 276 326
#     4   9  18  35  57  81 110 146 185 228 279 336
#     4  10  21  39  59  79 109 150 187 227 281 334
#     4   9  17  30  52  81 112 144 182 229 282 335
#
# _framework density 19.259014000000001
#
# number of rings (size 3 to 8) (size 9 to 14) (size 15 to 20)
#    0.000    2.000    0.000    4.714    0.000    9.714 
#    0.000    2.143    0.000    0.000    0.000    0.000 
#    0.000    0.000    0.000    0.000    0.000    0.000 
#
# Total GULP energy -347202.081721 kJ/mol
# GULP energy per Si atom -12400.074347 kJ/mol
# Density = 1.921518 g / cm^3
# Si number density = 19.259014 Si / 1000 Ang^3
#
#
#
# Elastic Constant Matrix: (Units=GPa)
#
#
# Indices 1 2 3 4 5 6 
#
# 1 124.6137 51.4759 68.6170 0.0000 6.4980 0.0000
# 2 51.4759 82.1346 59.5254 0.0000 1.2984 0.0000
# 3 68.6170 59.5254 152.5380 0.0000 13.0669 0.0000
# 4 0.0000 0.0000 0.0000 39.9655 0.0000 1.2441
# 5 6.4980 1.2984 13.0669 0.0000 30.8292 0.0000
# 6 0.0000 0.0000 0.0000 1.2441 0.0000 28.6313
#
#
#
# Elastic Compliance Matrix: (Units=1/GPa)
#
#
# Indices 1 2 3 4 5 6 
#
# 1 0.012016 -0.005096 -0.003339 0.000000 -0.000903 0.000000
# 2 -0.005096 0.019279 -0.005451 0.000000 0.002573 0.000000
# 3 -0.003339 -0.005451 0.010486 0.000000 -0.003511 0.000000
# 4 0.000000 0.000000 0.000000 0.025055 0.000000 -0.001089
# 5 -0.000903 0.002573 -0.003511 0.000000 0.034007 0.000000
# 6 0.000000 0.000000 0.000000 -0.001089 0.000000 0.034974
#
#
# Mechanical properties :
#
#
# Convention : Reuss Voigt Hill
#
# Bulk Modulus (GPa) = 71.39076 79.83588 75.61332
# Shear Modulus (GPa) = 29.71603 31.86307 30.78955
#
# Velocity S-wave (km/s) = 3.93232 4.07191 4.00272
# Velocity P-wave (km/s) = 7.60045 7.97816 7.79159
#
# Compressibility (1/GPa) = 0.01400742
#
# Stress axis : x y z
#
# Youngs Moduli (GPa) = 83.22465 51.86940 95.36772
#
# Poissons Ratio (x) = 0.26435 0.31843
# Poissons Ratio (y) = 0.42415 0.51987
# Poissons Ratio (z) = 0.27788 0.28275
#
# Static dielectric constant tensor:
#      x y z
#    x 3.513210 0.000000 0.052570 
#    y 0.000000 3.357300 0.000000 
#    z 0.052570 0.000000 3.962710 
# 
# 
# High freq. dielectric constant tensor:
#      x y z
#    x 1.734950 0.000000 0.005210 
#    y 0.000000 1.747490 0.000000 
#    z 0.005210 0.000000 1.771730 
# 
# From -- ./inp_files/28332.got.cif
#   From: 2010.06.25/outbox.cif.g09.slc.cpg/sg11_15_cif.got.tgz:28332.got - 2010.06.27 23:14:04.
