data_PCOD8076776
_publ_section_title
;
Structure prediction by ZEFSAII (Michael W. Deem and Ramdas Pophale) SiO2 
 PCOD8076776
Probable space group: P 21/M
;
_chemical_formula_sum "Si O2"
_cell_formula_units_Z 20
_cell_length_a 13.011779
_cell_length_b 16.822053
_cell_length_c 8.718507
_cell_angle_alpha 90.000000
_cell_angle_beta 27.780082
_cell_angle_gamma 90.000000
_cell_volume 889.441575
_symmetry_space_group_name_H-M "P 21/M"
_symmetry_group_IT_number 11
_symmetry_cell_setting 'monoclinic'
loop_
_space_group_symop_operation_xyz
x,y,z
-x,1/2+y,-z
-x,-y,-z
x,1/2-y,z
loop_
_atom_site_type_symbol
_atom_site_label
_atom_site_fract_x
_atom_site_fract_y
_atom_site_fract_z
Si Si1 0.344887 0.844005 0.040369
Si Si2 0.591056 0.835874 0.999336
Si Si3 0.130078 0.837261 0.769595
Si Si4 0.065740 0.085861 0.247918
Si Si5 0.297144 0.944112 0.819355
O O1 0.285111 0.750000 0.114288
O O2 0.564855 0.859153 0.853566
O O3 0.147312 0.897094 0.369574
O O4 0.393352 0.876860 0.806689
O O5 0.710248 0.750000 0.855542
O O6 0.342885 0.829358 0.383684
O O7 0.720367 0.897227 0.931524
O O8 0.067035 0.750000 0.920167
O O9 0.174864 0.900612 0.842035
O O10 0.935416 0.865755 0.911622
O O11 0.099596 0.993532 0.160713
O O12 0.500000 0.000000 0.500000
#
# Coordination Sequence:
#
# PCOD8076776 Si02
#       5
#     4   4   4   4   4
#     4  10  23  43  65  91 125 165 214 263 308 374
#     4   9  18  37  64  90 118 163 215 256 304 370
#     4  10  21  40  64  90 128 168 211 262 311 374
#     4  11  21  41  67  91 122 167 218 257 315 368
#     4  12  24  42  62  96 134 169 200 265 325 374
#
# _framework density 22.486018000000001
#
# number of rings (size 3 to 8) (size 9 to 14) (size 15 to 20)
#    0.000    1.600    2.000    4.800    0.000    0.800 
#    7.200    0.000    0.000    0.000    0.000    0.000 
#    0.000    0.000    0.000    0.000    0.000    0.000 
#
# Total GULP energy -247865.870292 kJ/mol
# GULP energy per Si atom -12393.293515 kJ/mol
# Density = 2.243484 g / cm^3
# Si number density = 22.486018 Si / 1000 Ang^3
#
#
#
# Elastic Constant Matrix: (Units=GPa)
#
#
# Indices 1 2 3 4 5 6 
#
# 1 175.5870 69.5358 27.8638 0.0000 -5.1204 0.0000
# 2 69.5358 114.4346 24.1556 0.0000 3.3848 0.0000
# 3 27.8638 24.1556 35.7986 0.0000 -0.6717 0.0000
# 4 0.0000 0.0000 0.0000 22.5245 0.0000 9.4569
# 5 -5.1204 3.3848 -0.6717 0.0000 27.8958 0.0000
# 6 0.0000 0.0000 0.0000 9.4569 0.0000 49.3983
#
#
#
# Elastic Compliance Matrix: (Units=1/GPa)
#
#
# Indices 1 2 3 4 5 6 
#
# 1 0.007930 -0.004173 -0.003321 0.000000 0.001882 0.000000
# 2 -0.004173 0.012441 -0.005192 0.000000 -0.002401 0.000000
# 3 -0.003321 -0.005192 0.034038 0.000000 0.000840 0.000000
# 4 0.000000 0.000000 0.000000 0.048276 0.000000 -0.009242
# 5 0.001882 -0.002401 0.000840 0.000000 0.036505 0.000000
# 6 0.000000 0.000000 0.000000 -0.009242 0.000000 0.022013
#
#
# Mechanical properties :
#
#
# Convention : Reuss Voigt Hill
#
# Bulk Modulus (GPa) = 34.43860 63.21453 48.82657
# Shear Modulus (GPa) = 25.47722 33.58137 29.52929
#
# Velocity S-wave (km/s) = 3.36970 3.86869 3.62778
# Velocity P-wave (km/s) = 5.52165 6.93754 6.26969
#
# Compressibility (1/GPa) = 0.02903718
#
# Stress axis : x y z
#
# Youngs Moduli (GPa) = 126.10842 80.37720 29.37901
#
# Poissons Ratio (x) = 0.33542 0.09756
# Poissons Ratio (y) = 0.52627 0.15253
# Poissons Ratio (z) = 0.41879 0.41731
#
# Static dielectric constant tensor:
#      x y z
#    x 4.451020 0.000000 0.009290 
#    y 0.000000 4.222660 0.000000 
#    z 0.009290 0.000000 3.624990 
# 
# 
# High freq. dielectric constant tensor:
#      x y z
#    x 1.912280 0.000000 -0.001000 
#    y 0.000000 1.894280 0.000000 
#    z -0.001000 0.000000 1.845830 
# 
# From -- ./inp_files/13356.got.cif
#   From: 2010.06.25/outbox.cif.g09.slc.cpg/sg11_7_cif.got.tgz:13356.got - 2010.06.27 23:14:04.
