data_PCOD8076877
_publ_section_title
;
Structure prediction by ZEFSAII (Michael W. Deem and Ramdas Pophale) SiO2 
 PCOD8076877
Probable space group: P 21/M
;
_chemical_formula_sum "Si O2"
_cell_formula_units_Z 24
_cell_length_a 14.750113
_cell_length_b 9.269123
_cell_length_c 20.945327
_cell_angle_alpha 90.000000
_cell_angle_beta 21.781232
_cell_angle_gamma 90.000000
_cell_volume 1062.599439
_symmetry_space_group_name_H-M "P 21/M"
_symmetry_group_IT_number 11
_symmetry_cell_setting 'monoclinic'
loop_
_space_group_symop_operation_xyz
x,y,z
-x,1/2+y,-z
-x,-y,-z
x,1/2-y,z
loop_
_atom_site_type_symbol
_atom_site_label
_atom_site_fract_x
_atom_site_fract_y
_atom_site_fract_z
Si Si1 0.897596 0.585156 0.765859
Si Si2 0.618685 0.989604 0.708680
Si Si3 0.134353 0.597149 0.331723
Si Si4 0.539198 0.409296 0.623782
Si Si5 0.149977 0.588324 0.081522
Si Si6 0.695639 0.422800 0.327076
O O1 0.811858 0.750000 0.830254
O O2 0.807746 0.532178 0.754966
O O3 0.778060 0.484673 0.898014
O O4 0.188502 0.569496 0.581558
O O5 0.849312 0.893933 0.537656
O O6 0.701183 0.091315 0.712759
O O7 0.531971 0.082981 0.704893
O O8 0.391626 0.894184 0.880629
O O9 0.192517 0.750000 0.259809
O O10 0.444630 0.250000 0.666014
O O11 0.367962 0.531484 0.704093
O O12 0.042169 0.750000 0.162416
O O13 0.962311 0.482055 0.169013
O O14 0.500000 0.500000 0.500000
O O15 0.689273 0.250000 0.338769
#
# Coordination Sequence:
#
# PCOD8076877 Si02
#       6
#     4   4   4   4   4   4
#     4  10  22  39  64  95 129 169 216 268 319 381
#     4  10  24  41  65  97 133 168 214 269 323 378
#     4  10  21  42  69  94 126 172 219 263 320 387
#     4  10  21  41  67  94 127 171 218 263 318 383
#     4  12  25  42  66  96 131 169 215 271 323 380
#     4  12  25  42  67  96 129 169 214 264 320 385
#
# _framework density 22.586120999999999
#
# number of rings (size 3 to 8) (size 9 to 14) (size 15 to 20)
#    0.000    1.333    1.667    3.500    0.000   12.000 
#    0.000    0.000    0.000    0.000    0.000    0.000 
#    0.000    0.000    0.000    0.000    0.000    0.000 
#
# Total GULP energy -297566.288646 kJ/mol
# GULP energy per Si atom -12398.595360 kJ/mol
# Density = 2.253471 g / cm^3
# Si number density = 22.586121 Si / 1000 Ang^3
#
#
#
# Elastic Constant Matrix: (Units=GPa)
#
#
# Indices 1 2 3 4 5 6 
#
# 1 139.0433 60.6103 34.1931 0.0000 3.4959 0.0000
# 2 60.6103 189.4368 27.4264 0.0000 3.1275 0.0000
# 3 34.1931 27.4264 80.5639 0.0000 8.1512 0.0000
# 4 0.0000 0.0000 0.0000 9.9607 0.0000 12.9109
# 5 3.4959 3.1275 8.1512 0.0000 23.2275 0.0000
# 6 0.0000 0.0000 0.0000 12.9109 0.0000 15.9999
#
#
#
# Elastic Compliance Matrix: (Units=1/GPa)
#
#
# Indices 1 2 3 4 5 6 
#
# 1 0.008992 -0.002445 -0.002986 0.000000 0.000024 0.000000
# 2 -0.002445 0.006217 -0.001069 0.000000 -0.000094 0.000000
# 3 -0.002986 -0.001069 0.014499 0.000000 -0.004495 0.000000
# 4 0.000000 0.000000 0.000000 -2.185310 0.000000 1.763402
# 5 0.000024 -0.000094 -0.004495 0.000000 0.044639 0.000000
# 6 0.000000 0.000000 0.000000 1.763402 0.000000 -1.360450
#
#
# Mechanical properties :
#
#
# Convention : Reuss Voigt Hill
#
# Bulk Modulus (GPa) = 59.85701 72.61151 66.23426
# Shear Modulus (GPa) = -1.44808 28.95856 13.75524
#
# Velocity S-wave (km/s) = -0.80158 3.58458 2.47050
# Velocity P-wave (km/s) = 5.06976 7.02501 6.12590
#
# Compressibility (1/GPa) = 0.01670648
#
# Stress axis : x y z
#
# Youngs Moduli (GPa) = 111.21574 160.83830 68.97128
#
# Poissons Ratio (x) = 0.39323 0.20597
# Poissons Ratio (y) = 0.27191 0.07376
# Poissons Ratio (z) = 0.33213 0.17201
#
# Static dielectric constant tensor:
#      x y z
#    x 4.166090 0.000000 0.018150 
#    y 0.000000 3.959200 0.000000 
#    z 0.018150 0.000000 3.919650 
# 
# 
# High freq. dielectric constant tensor:
#      x y z
#    x 1.898210 0.000000 0.002800 
#    y 0.000000 1.891400 0.000000 
#    z 0.002800 0.000000 1.876250 
# 
# From -- ./inp_files/69496.got.cif
#   From: 2010.06.25/outbox.cif.g09.slc.cpg/sg11_35_cif.got.tgz:69496.got - 2010.06.27 23:14:04.
