data_PCOD8076742
_publ_section_title
;
Structure prediction by ZEFSAII (Michael W. Deem and Ramdas Pophale) SiO2 
 PCOD8076742
Probable space group: P 21/M
;
_chemical_formula_sum "Si O2"
_cell_formula_units_Z 20
_cell_length_a 14.881363
_cell_length_b 14.447498
_cell_length_c 9.815551
_cell_angle_alpha 90.000000
_cell_angle_beta 154.650710
_cell_angle_gamma 90.000000
_cell_volume 903.506413
_symmetry_space_group_name_H-M "P 21/M"
_symmetry_group_IT_number 11
_symmetry_cell_setting 'monoclinic'
loop_
_space_group_symop_operation_xyz
x,y,z
-x,1/2+y,-z
-x,-y,-z
x,1/2-y,z
loop_
_atom_site_type_symbol
_atom_site_label
_atom_site_fract_x
_atom_site_fract_y
_atom_site_fract_z
Si Si1 0.902159 0.982632 0.221171
Si Si2 0.219281 0.647381 0.109223
Si Si3 0.577079 0.048243 0.366868
Si Si4 0.528943 0.849686 0.294699
Si Si5 0.736943 0.144692 0.335583
O O1 0.031735 0.899159 0.330370
O O2 0.658064 0.955421 0.895373
O O3 0.000000 0.000000 0.500000
O O4 0.937148 0.074888 0.177760
O O5 0.115605 0.750000 0.980735
O O6 0.277137 0.609849 0.337477
O O7 0.428355 0.655957 0.305639
O O8 0.574179 0.093102 0.213160
O O9 0.671728 0.942342 0.487144
O O10 0.645024 0.750000 0.424699
O O11 0.344751 0.865050 0.930814
O O12 0.755060 0.250000 0.406509
#
# Coordination Sequence:
#
# PCOD8076742 Si02
#       5
#     4   4   4   4   4
#     4  11  22  39  68  92 123 166 212 258 311 370
#     4  10  21  40  62  92 129 166 206 258 314 373
#     4  11  22  40  65  91 127 168 203 255 321 372
#     4   9  18  35  60  87 122 161 203 253 304 361
#     4  11  23  39  62  95 128 161 210 265 304 367
#
# _framework density 22.13598
#
# number of rings (size 3 to 8) (size 9 to 14) (size 15 to 20)
#    0.000    1.600    4.000    3.600    0.000    2.400 
#    0.000    2.000    0.000    0.000    0.000    0.000 
#    0.000    0.000    0.000    0.000    0.000    0.000 
#
# Total GULP energy -247855.844621 kJ/mol
# GULP energy per Si atom -12392.792231 kJ/mol
# Density = 2.208560 g / cm^3
# Si number density = 22.135980 Si / 1000 Ang^3
#
#
#
# Elastic Constant Matrix: (Units=GPa)
#
#
# Indices 1 2 3 4 5 6 
#
# 1 69.9829 39.7069 17.2185 0.0000 -9.2047 0.0000
# 2 39.7069 194.5222 21.5177 0.0000 1.6493 0.0000
# 3 17.2185 21.5177 41.3610 0.0000 -9.6696 0.0000
# 4 0.0000 0.0000 0.0000 34.5924 0.0000 -8.9090
# 5 -9.2047 1.6493 -9.6696 0.0000 30.1156 0.0000
# 6 0.0000 0.0000 0.0000 -8.9090 0.0000 33.7682
#
#
#
# Elastic Compliance Matrix: (Units=1/GPa)
#
#
# Indices 1 2 3 4 5 6 
#
# 1 0.017787 -0.003131 -0.004827 0.000000 0.004058 0.000000
# 2 -0.003131 0.006054 -0.002322 0.000000 -0.002034 0.000000
# 3 -0.004827 -0.002322 0.029277 0.000000 0.008052 0.000000
# 4 0.000000 0.000000 0.000000 0.031015 0.000000 0.008183
# 5 0.004058 -0.002034 0.008052 0.000000 0.037143 0.000000
# 6 0.000000 0.000000 0.000000 0.008183 0.000000 0.031772
#
#
# Mechanical properties :
#
#
# Convention : Reuss Voigt Hill
#
# Bulk Modulus (GPa) = 30.71383 51.41695 41.06539
# Shear Modulus (GPa) = 27.10595 34.85678 30.98137
#
# Velocity S-wave (km/s) = 3.50311 3.97251 3.74517
# Velocity P-wave (km/s) = 5.50160 6.65728 6.10684
#
# Compressibility (1/GPa) = 0.03255862
#
# Stress axis : x y z
#
# Youngs Moduli (GPa) = 56.22012 165.17936 34.15647
#
# Poissons Ratio (x) = 0.51722 0.16487
# Poissons Ratio (y) = 0.17604 0.07930
# Poissons Ratio (z) = 0.27138 0.38347
#
# Static dielectric constant tensor:
#      x y z
#    x 3.877340 0.000000 -0.100770 
#    y 0.000000 4.857530 0.000000 
#    z -0.100770 0.000000 3.599560 
# 
# 
# High freq. dielectric constant tensor:
#      x y z
#    x 1.873850 0.000000 -0.022710 
#    y 0.000000 1.899770 0.000000 
#    z -0.022710 0.000000 1.822590 
# 
# From -- ./inp_files/17338.got.cif
#   From: 2010.06.25/outbox.cif.g09.slc.cpg/sg11_9_cif.got.tgz:17338.got - 2010.06.27 23:14:04.
