data_PCOD8076658
_publ_section_title
;
Structure prediction by ZEFSAII (Michael W. Deem and Ramdas Pophale) SiO2 
 PCOD8076658
Probable space group: P 21/M
;
_chemical_formula_sum "Si O2"
_cell_formula_units_Z 28
_cell_length_a 15.518856
_cell_length_b 8.733282
_cell_length_c 11.699708
_cell_angle_alpha 90.000000
_cell_angle_beta 119.874708
_cell_angle_gamma 90.000000
_cell_volume 1374.959057
_symmetry_space_group_name_H-M "P 21/M"
_symmetry_group_IT_number 11
_symmetry_cell_setting 'monoclinic'
loop_
_space_group_symop_operation_xyz
x,y,z
-x,1/2+y,-z
-x,-y,-z
x,1/2-y,z
loop_
_atom_site_type_symbol
_atom_site_label
_atom_site_fract_x
_atom_site_fract_y
_atom_site_fract_z
Si Si1 0.702208 0.068366 0.868913
Si Si2 0.468702 0.429717 0.100010
Si Si3 0.606396 0.926518 0.585871
Si Si4 0.926873 0.071733 0.042569
Si Si5 0.987734 0.924927 0.310864
Si Si6 0.145136 0.074485 0.563883
Si Si7 0.638013 0.924086 0.350739
O O1 0.694273 0.250000 0.873811
O O2 0.636210 0.996132 0.926462
O O3 0.667140 0.017872 0.720639
O O4 0.814709 0.007485 0.957802
O O5 0.457334 0.250000 0.076977
O O6 0.551136 0.464907 0.250770
O O7 0.500000 0.500000 0.000000
O O8 0.596724 0.750000 0.617633
O O9 0.661221 0.943091 0.500475
O O10 0.500000 0.000000 0.500000
O O11 0.925384 0.250000 0.018847
O O12 0.969784 0.037280 0.194898
O O13 0.000000 0.000000 0.000000
O O14 0.990614 0.750000 0.270535
O O15 0.898717 0.954735 0.340229
O O16 0.092788 0.964772 0.437816
O O17 0.129064 0.250000 0.514542
O O18 0.261128 0.033139 0.648558
O O19 0.604374 0.750000 0.301935
#
# Coordination Sequence:
#
# PCOD8076658 Si02
#       7
#     4   4   4   4   4   4   4
#     4  11  25  45  66  93 128 167 213 264 317 377
#     4  12  26  43  66  95 130 170 213 259 315 379
#     4  11  22  38  63  92 126 164 204 255 309 368
#     4  11  26  45  66  92 126 166 212 264 318 377
#     4  10  21  39  63  92 125 162 208 259 314 374
#     4   9  20  39  63  92 124 163 206 257 314 369
#     4  10  22  40  63  93 126 164 211 258 311 372
#
# _framework density 20.364242000000001
#
# number of rings (size 3 to 8) (size 9 to 14) (size 15 to 20)
#    0.000    1.429    1.429    3.000    4.000    4.000 
#    0.000    0.000    0.000    0.000    0.000    0.000 
#    0.000    0.000    0.000    0.000    0.000    0.000 
#
# Total GULP energy -347332.928397 kJ/mol
# GULP energy per Si atom -12404.747443 kJ/mol
# Density = 2.031789 g / cm^3
# Si number density = 20.364242 Si / 1000 Ang^3
#
#
#
# Elastic Constant Matrix: (Units=GPa)
#
#
# Indices 1 2 3 4 5 6 
#
# 1 149.2121 54.2048 52.1892 0.0000 5.3173 0.0000
# 2 54.2048 94.5856 33.7568 0.0000 -0.3754 0.0000
# 3 52.1892 33.7568 87.5418 0.0000 -9.0176 0.0000
# 4 0.0000 0.0000 0.0000 37.9208 0.0000 -2.6141
# 5 5.3173 -0.3754 -9.0176 0.0000 27.0515 0.0000
# 6 0.0000 0.0000 0.0000 -2.6141 0.0000 31.8009
#
#
#
# Elastic Compliance Matrix: (Units=1/GPa)
#
#
# Indices 1 2 3 4 5 6 
#
# 1 0.009954 -0.004022 -0.004754 0.000000 -0.003597 0.000000
# 2 -0.004022 0.013940 -0.002979 0.000000 -0.000009 0.000000
# 3 -0.004754 -0.002979 0.016049 0.000000 0.006243 0.000000
# 4 0.000000 0.000000 0.000000 0.026521 0.000000 0.002180
# 5 -0.003597 -0.000009 0.006243 0.000000 0.039755 0.000000
# 6 0.000000 0.000000 0.000000 0.002180 0.000000 0.031625
#
#
# Mechanical properties :
#
#
# Convention : Reuss Voigt Hill
#
# Bulk Modulus (GPa) = 60.84869 67.96013 64.40441
# Shear Modulus (GPa) = 29.97056 32.10053 31.03555
#
# Velocity S-wave (km/s) = 3.84047 3.97460 3.90811
# Velocity P-wave (km/s) = 7.04348 7.38295 7.21521
#
# Compressibility (1/GPa) = 0.01643421
#
# Stress axis : x y z
#
# Youngs Moduli (GPa) = 100.46391 71.73407 62.31000
#
# Poissons Ratio (x) = 0.28852 0.29620
# Poissons Ratio (y) = 0.40407 0.18560
# Poissons Ratio (z) = 0.47758 0.21367
#
# Static dielectric constant tensor:
#      x y z
#    x 3.988620 0.000000 -0.129290 
#    y 0.000000 3.662720 0.000000 
#    z -0.129290 0.000000 3.827920 
# 
# 
# High freq. dielectric constant tensor:
#      x y z
#    x 1.809530 0.000000 -0.004390 
#    y 0.000000 1.800230 0.000000 
#    z -0.004390 0.000000 1.796410 
# 
# From -- ./inp_files/38473.got.cif
#   From: 2010.06.25/outbox.cif.g09.slc.cpg/sg11_20_cif.got.tgz:38473.got - 2010.06.27 23:14:04.
