data_PCOD8076222
_publ_section_title
;
Structure prediction by ZEFSAII (Michael W. Deem and Ramdas Pophale) SiO2 
 PCOD8076222
Probable space group: P 21/M
;
_chemical_formula_sum "Si O2"
_cell_formula_units_Z 20
_cell_length_a 5.065226
_cell_length_b 21.123230
_cell_length_c 9.087882
_cell_angle_alpha 90.000000
_cell_angle_beta 99.890298
_cell_angle_gamma 90.000000
_cell_volume 957.897619
_symmetry_space_group_name_H-M "P 21/M"
_symmetry_group_IT_number 11
_symmetry_cell_setting 'monoclinic'
loop_
_space_group_symop_operation_xyz
x,y,z
-x,1/2+y,-z
-x,-y,-z
x,1/2-y,z
loop_
_atom_site_type_symbol
_atom_site_label
_atom_site_fract_x
_atom_site_fract_y
_atom_site_fract_z
Si Si1 0.097235 0.978853 0.812014
Si Si2 0.696163 0.445650 0.459909
Si Si3 0.093330 0.887343 0.228037
Si Si4 0.410149 0.405665 0.165091
Si Si5 0.569778 0.676900 0.102066
O O1 0.080242 0.977213 0.629166
O O2 0.397510 0.959774 0.890327
O O3 0.894068 0.928710 0.862105
O O4 0.976461 0.950950 0.139079
O O5 0.500000 0.500000 0.500000
O O6 0.825900 0.402936 0.597790
O O7 0.521670 0.396162 0.342134
O O8 0.351569 0.864191 0.166155
O O9 0.859525 0.835117 0.203635
O O10 0.423359 0.341892 0.069902
O O11 0.494545 0.750000 0.107489
#
# Coordination Sequence:
#
# PCOD8076222 Si02
#       5
#     4   4   4   4   4
#     4  10  21  37  67 103 123 156 199 261 339 388
#     4  10  21  40  66 104 134 156 194 265 341 402
#     4  12  23  40  72  93 134 159 209 271 329 374
#     4  10  23  39  66  90 135 165 204 257 327 391
#     4  12  28  46  59  87 130 182 224 261 297 368
#
# _framework density 20.879061
#
# number of rings (size 3 to 8) (size 9 to 14) (size 15 to 20)
#    1.200    0.000    2.000    4.800    2.800    4.800 
#    0.000    2.000    0.000    0.000    0.000    0.000 
#    0.000    0.000    0.000    0.000    0.000    0.000 
#
# Total GULP energy -247882.411581 kJ/mol
# GULP energy per Si atom -12394.120579 kJ/mol
# Density = 2.083154 g / cm^3
# Si number density = 20.879061 Si / 1000 Ang^3
#
#
#
# Elastic Constant Matrix: (Units=GPa)
#
#
# Indices 1 2 3 4 5 6 
#
# 1 117.6749 10.4193 25.2500 0.0000 -14.6318 0.0000
# 2 10.4193 78.1929 37.1271 0.0000 -10.0815 0.0000
# 3 25.2500 37.1271 108.9027 0.0000 -0.2101 0.0000
# 4 0.0000 0.0000 0.0000 18.1510 0.0000 2.9730
# 5 -14.6318 -10.0815 -0.2101 0.0000 27.1566 0.0000
# 6 0.0000 0.0000 0.0000 2.9730 0.0000 27.0461
#
#
#
# Elastic Compliance Matrix: (Units=1/GPa)
#
#
# Indices 1 2 3 4 5 6 
#
# 1 0.009635 0.000555 -0.002413 0.000000 0.005379 0.000000
# 2 0.000555 0.016201 -0.005640 0.000000 0.006270 0.000000
# 3 -0.002413 -0.005640 0.011658 0.000000 -0.003304 0.000000
# 4 0.000000 0.000000 0.000000 0.056104 0.000000 -0.006167
# 5 0.005379 0.006270 -0.003304 0.000000 0.042024 0.000000
# 6 0.000000 0.000000 0.000000 -0.006167 0.000000 0.037652
#
#
# Mechanical properties :
#
#
# Convention : Reuss Voigt Hill
#
# Bulk Modulus (GPa) = 44.44497 50.04035 47.24266
# Shear Modulus (GPa) = 25.54025 29.93567 27.73796
#
# Velocity S-wave (km/s) = 3.50129 3.79062 3.64882
# Velocity P-wave (km/s) = 6.13828 6.57093 6.35829
#
# Compressibility (1/GPa) = 0.02249973
#
# Stress axis : x y z
#
# Youngs Moduli (GPa) = 103.78379 61.72370 85.77524
#
# Poissons Ratio (x) = -0.03428 0.20697
# Poissons Ratio (y) = -0.05763 0.48377
# Poissons Ratio (z) = 0.25043 0.34812
#
# Static dielectric constant tensor:
#      x y z
#    x 3.927460 0.000000 -0.008550 
#    y 0.000000 3.337180 0.000000 
#    z -0.008550 0.000000 4.042340 
# 
# 
# High freq. dielectric constant tensor:
#      x y z
#    x 1.841340 0.000000 -0.000440 
#    y 0.000000 1.765060 0.000000 
#    z -0.000440 0.000000 1.835350 
# 
# From -- ./inp_files/2517.got.cif
#   From: 2010.06.25/outbox.cif.g09.slc.cpg/sg11_2_cif.got.tgz:2517.got - 2010.06.27 23:14:04.
