data_PCOD8076812
_publ_section_title
;
Structure prediction by ZEFSAII (Michael W. Deem and Ramdas Pophale) SiO2 
 PCOD8076812
Probable space group: P 21/M
;
_chemical_formula_sum "Si O2"
_cell_formula_units_Z 32
_cell_length_a 10.724145
_cell_length_b 23.940499
_cell_length_c 11.110405
_cell_angle_alpha 90.000000
_cell_angle_beta 146.928716
_cell_angle_gamma 90.000000
_cell_volume 1556.558416
_symmetry_space_group_name_H-M "P 21/M"
_symmetry_group_IT_number 11
_symmetry_cell_setting 'monoclinic'
loop_
_space_group_symop_operation_xyz
x,y,z
-x,1/2+y,-z
-x,-y,-z
x,1/2-y,z
loop_
_atom_site_type_symbol
_atom_site_label
_atom_site_fract_x
_atom_site_fract_y
_atom_site_fract_z
Si Si1 0.877972 0.867833 0.913876
Si Si2 0.391234 0.082520 0.664796
Si Si3 0.379171 0.188434 0.491193
Si Si4 0.940770 0.486914 0.634826
Si Si5 0.447109 0.901848 0.690542
Si Si6 0.785605 0.313187 0.646500
Si Si7 0.854648 0.463130 0.972543
Si Si8 0.387777 0.440138 0.919247
O O1 0.788254 0.817331 0.759002
O O2 0.672862 0.908763 0.791192
O O3 0.985471 0.844789 0.125153
O O4 0.043128 0.901316 0.957693
O O5 0.336293 0.140900 0.555795
O O6 0.580426 0.046632 0.741671
O O7 0.464280 0.095125 0.862426
O O8 0.163331 0.045112 0.496500
O O9 0.338705 0.250000 0.515676
O O10 0.633355 0.184126 0.643920
O O11 0.727271 0.448518 0.497994
O O12 0.111916 0.450817 0.689484
O O13 0.111108 0.504204 0.877442
O O14 0.329917 0.842200 0.563754
O O15 0.512831 0.907140 0.884444
O O16 0.840343 0.250000 0.651763
O O17 0.000000 0.500000 0.000000
O O18 0.500000 0.500000 0.000000
#
# Coordination Sequence:
#
# PCOD8076812 Si02
#       8
#     4   4   4   4   4   4   4   4
#     4  11  21  39  63  95 126 159 205 257 314 379
#     4  12  24  40  61  93 127 172 211 254 314 381
#     4  10  22  40  63  93 124 162 208 259 320 378
#     4  12  23  40  60  91 130 166 210 260 307 379
#     4  11  24  40  63  93 126 168 210 257 312 372
#     4  10  21  40  66  92 124 163 208 264 317 370
#     4  12  23  34  58  95 132 164 203 251 318 376
#     4  12  24  41  61  91 125 170 217 251 308 376
#
# _framework density 20.558174999999999
#
# number of rings (size 3 to 8) (size 9 to 14) (size 15 to 20)
#    0.000    0.750    5.000    3.750    1.750    1.500 
#    0.000    0.625    0.000    0.750    0.000    0.000 
#    0.000    0.000    0.000    0.000    0.000    0.000 
#
# Total GULP energy -396451.288742 kJ/mol
# GULP energy per Si atom -12389.102773 kJ/mol
# Density = 2.051138 g / cm^3
# Si number density = 20.558175 Si / 1000 Ang^3
#
#
#
# Elastic Constant Matrix: (Units=GPa)
#
#
# Indices 1 2 3 4 5 6 
#
# 1 81.4236 43.9573 41.4482 0.0000 -7.9680 0.0000
# 2 43.9573 114.0405 46.4605 0.0000 -6.9864 0.0000
# 3 41.4482 46.4605 98.6784 0.0000 1.1474 0.0000
# 4 0.0000 0.0000 0.0000 30.2666 0.0000 -6.7525
# 5 -7.9680 -6.9864 1.1474 0.0000 35.0003 0.0000
# 6 0.0000 0.0000 0.0000 -6.7525 0.0000 12.7616
#
#
#
# Elastic Compliance Matrix: (Units=1/GPa)
#
#
# Indices 1 2 3 4 5 6 
#
# 1 0.017756 -0.004437 -0.005408 0.000000 0.003334 0.000000
# 2 -0.004437 0.012153 -0.003876 0.000000 0.001543 0.000000
# 3 -0.005408 -0.003876 0.014259 0.000000 -0.002472 0.000000
# 4 0.000000 0.000000 0.000000 0.037462 0.000000 0.019822
# 5 0.003334 0.001543 -0.002472 0.000000 0.029719 0.000000
# 6 0.000000 0.000000 0.000000 0.019822 0.000000 0.088849
#
#
# Mechanical properties :
#
#
# Convention : Reuss Voigt Hill
#
# Bulk Modulus (GPa) = 59.78662 61.98608 60.88635
# Shear Modulus (GPa) = 21.43952 26.42413 23.93182
#
# Velocity S-wave (km/s) = 3.23285 3.58905 3.41560
# Velocity P-wave (km/s) = 6.56353 6.88418 6.72577
#
# Compressibility (1/GPa) = 0.01672615
#
# Stress axis : x y z
#
# Youngs Moduli (GPa) = 56.32011 82.28692 70.13016
#
# Poissons Ratio (x) = 0.36507 0.37926
# Poissons Ratio (y) = 0.24987 0.27184
# Poissons Ratio (z) = 0.30457 0.31896
#
# Static dielectric constant tensor:
#      x y z
#    x 2.060720 0.000000 0.467410 
#    y 0.000000 3.701520 0.000000 
#    z 0.467410 0.000000 3.929420 
# 
# 
# High freq. dielectric constant tensor:
#      x y z
#    x 1.788200 0.000000 0.010080 
#    y 0.000000 1.788470 0.000000 
#    z 0.010080 0.000000 1.816880 
# 
# From -- ./inp_files/36585.got.cif
#   From: 2010.06.25/outbox.cif.g09.slc.cpg/sg11_19_cif.got.tgz:36585.got - 2010.06.27 23:14:04.
