data_PCOD8076616
_publ_section_title
;
Structure prediction by ZEFSAII (Michael W. Deem and Ramdas Pophale) SiO2 
 PCOD8076616
Probable space group: P 21/M
;
_chemical_formula_sum "Si O2"
_cell_formula_units_Z 28
_cell_length_a 9.356871
_cell_length_b 9.302700
_cell_length_c 24.748720
_cell_angle_alpha 90.000000
_cell_angle_beta 41.276338
_cell_angle_gamma 90.000000
_cell_volume 1421.127988
_symmetry_space_group_name_H-M "P 21/M"
_symmetry_group_IT_number 11
_symmetry_cell_setting 'monoclinic'
loop_
_space_group_symop_operation_xyz
x,y,z
-x,1/2+y,-z
-x,-y,-z
x,1/2-y,z
loop_
_atom_site_type_symbol
_atom_site_label
_atom_site_fract_x
_atom_site_fract_y
_atom_site_fract_z
Si Si1 0.958625 0.582276 0.846266
Si Si2 0.146841 0.418126 0.001077
Si Si3 0.361652 0.910415 0.580613
Si Si4 0.040469 0.587774 0.323164
Si Si5 0.562605 0.088166 0.320135
Si Si6 0.851410 0.082074 0.585091
Si Si7 0.637927 0.084300 0.859792
O O1 0.928403 0.750000 0.842298
O O2 0.937790 0.547205 0.915191
O O3 0.774850 0.500076 0.865435
O O4 0.197138 0.530169 0.760705
O O5 0.133828 0.250000 0.991347
O O6 0.393550 0.474704 0.926815
O O7 0.000000 0.500000 0.000000
O O8 0.334780 0.750000 0.565345
O O9 0.483300 0.908849 0.602975
O O10 0.500000 0.000000 0.500000
O O11 0.126863 0.978560 0.655989
O O12 0.956126 0.750000 0.338191
O O13 0.054793 0.555513 0.382314
O O14 0.266266 0.564482 0.227772
O O15 0.532370 0.250000 0.305214
O O16 0.390831 0.979731 0.343490
O O17 0.844723 0.250000 0.571812
O O18 0.000000 0.000000 0.500000
O O19 0.639066 0.250000 0.877683
#
# Coordination Sequence:
#
# PCOD8076616 Si02
#       7
#     4   4   4   4   4   4   4
#     4  10  21  40  62  89 122 156 196 242 292 348
#     4  10  23  40  62  92 125 158 195 240 289 346
#     4  11  22  37  59  86 116 152 194 242 292 346
#     4  10  22  39  58  84 118 153 195 244 293 347
#     4  10  22  39  58  84 119 154 194 243 292 347
#     4  11  24  40  59  84 116 157 200 245 297 352
#     4  10  21  39  62  89 120 155 196 243 292 348
#
# _framework density 19.702659000000001
#
# number of rings (size 3 to 8) (size 9 to 14) (size 15 to 20)
#    0.000    1.714    1.429    2.143    2.000    7.429 
#    0.000    0.000    0.000    0.000    0.000    0.000 
#    0.000    0.000    0.000    0.000    0.000    0.000 
#
# Total GULP energy -347286.759416 kJ/mol
# GULP energy per Si atom -12403.098551 kJ/mol
# Density = 1.965781 g / cm^3
# Si number density = 19.702659 Si / 1000 Ang^3
#
#
#
# Elastic Constant Matrix: (Units=GPa)
#
#
# Indices 1 2 3 4 5 6 
#
# 1 89.7821 51.7852 36.2687 0.0000 -8.4060 0.0000
# 2 51.7852 94.4638 39.1595 0.0000 -7.3337 0.0000
# 3 36.2687 39.1595 110.1064 0.0000 -5.6139 0.0000
# 4 0.0000 0.0000 0.0000 31.2383 0.0000 -5.8759
# 5 -8.4060 -7.3337 -5.6139 0.0000 37.4347 0.0000
# 6 0.0000 0.0000 0.0000 -5.8759 0.0000 37.6560
#
#
#
# Elastic Compliance Matrix: (Units=1/GPa)
#
#
# Indices 1 2 3 4 5 6 
#
# 1 0.017056 -0.008113 -0.002639 0.000000 0.001845 0.000000
# 2 -0.008113 0.016395 -0.003111 0.000000 0.000924 0.000000
# 3 -0.002639 -0.003111 0.011081 0.000000 0.000460 0.000000
# 4 0.000000 0.000000 0.000000 0.032980 0.000000 0.005146
# 5 0.001845 0.000924 0.000460 0.000000 0.027377 0.000000
# 6 0.000000 0.000000 0.000000 0.005146 0.000000 0.027359
#
#
# Mechanical properties :
#
#
# Convention : Reuss Voigt Hill
#
# Bulk Modulus (GPa) = 59.50208 60.97545 60.23876
# Shear Modulus (GPa) = 30.19715 32.40837 31.30276
#
# Velocity S-wave (km/s) = 3.91915 4.06010 3.99025
# Velocity P-wave (km/s) = 7.12357 7.27972 7.20206
#
# Compressibility (1/GPa) = 0.01680613
#
# Stress axis : x y z
#
# Youngs Moduli (GPa) = 58.62910 60.99319 90.24157
#
# Poissons Ratio (x) = 0.49485 0.23813
# Poissons Ratio (y) = 0.47567 0.28078
# Poissons Ratio (z) = 0.15471 0.18978
#
# Static dielectric constant tensor:
#      x y z
#    x 3.520110 0.000000 -0.049180 
#    y 0.000000 3.697510 0.000000 
#    z -0.049180 0.000000 3.798690 
# 
# 
# High freq. dielectric constant tensor:
#      x y z
#    x 1.764370 0.000000 0.001360 
#    y 0.000000 1.767050 0.000000 
#    z 0.001360 0.000000 1.785890 
# 
# From -- ./inp_files/70776.got.cif
#   From: 2010.06.25/outbox.cif.g09.slc.cpg/sg11_36_cif.got.tgz:70776.got - 2010.06.27 23:14:04.
