data_PCOD8076341
_publ_section_title
;
Structure prediction by ZEFSAII (Michael W. Deem and Ramdas Pophale) SiO2 
 PCOD8076341
Probable space group: P 21/M
;
_chemical_formula_sum "Si O2"
_cell_formula_units_Z 20
_cell_length_a 9.191714
_cell_length_b 8.656773
_cell_length_c 12.545618
_cell_angle_alpha 90.000000
_cell_angle_beta 90.235710
_cell_angle_gamma 90.000000
_cell_volume 998.253673
_symmetry_space_group_name_H-M "P 21/M"
_symmetry_group_IT_number 11
_symmetry_cell_setting 'monoclinic'
loop_
_space_group_symop_operation_xyz
x,y,z
-x,1/2+y,-z
-x,-y,-z
x,1/2-y,z
loop_
_atom_site_type_symbol
_atom_site_label
_atom_site_fract_x
_atom_site_fract_y
_atom_site_fract_z
Si Si1 0.657514 0.428919 0.625734
Si Si2 0.838396 0.931678 0.206127
Si Si3 0.659318 0.568067 0.001037
Si Si4 0.646477 0.070584 0.379950
Si Si5 0.848666 0.931119 0.802003
O O1 0.681696 0.250000 0.652973
O O2 0.493945 0.474590 0.658265
O O3 0.685008 0.466209 0.502146
O O4 0.772611 0.531159 0.689948
O O5 0.822734 0.750000 0.224090
O O6 0.744721 0.990133 0.105414
O O7 0.784035 0.020063 0.310940
O O8 0.004351 0.973532 0.185818
O O9 0.646292 0.750000 0.000784
O O10 0.500000 0.500000 0.000000
O O11 0.744612 0.511415 0.896733
O O12 0.611167 0.250000 0.363744
O O13 0.883039 0.750000 0.809093
#
# Coordination Sequence:
#
# PCOD8076341 Si02
#       5
#     4   4   4   4   4
#     4  10  21  38  60  86 116 151 192 237 284 336
#     4  11  23  39  59  85 117 152 191 235 286 340
#     4  10  23  40  60  86 114 148 189 234 283 338
#     4  10  21  38  60  86 116 151 192 237 284 336
#     4  11  23  39  59  85 117 152 191 235 286 340
#
# _framework density 20.034987999999998
#
# number of rings (size 3 to 8) (size 9 to 14) (size 15 to 20)
#    0.000    1.600    0.000    4.200    0.000    9.600 
#    0.000    0.000    0.000    0.000    0.000    0.000 
#    0.000    0.000    0.000    0.000    0.000    0.000 
#
# Total GULP energy -248148.093323 kJ/mol
# GULP energy per Si atom -12407.404666 kJ/mol
# Density = 1.998939 g / cm^3
# Si number density = 20.034988 Si / 1000 Ang^3
#
#
#
# Elastic Constant Matrix: (Units=GPa)
#
#
# Indices 1 2 3 4 5 6 
#
# 1 135.5324 16.2524 71.3529 0.0000 -4.6379 0.0000
# 2 16.2524 39.2114 38.0580 0.0000 -1.2803 0.0000
# 3 71.3529 38.0580 114.0528 0.0000 -2.3379 0.0000
# 4 0.0000 0.0000 0.0000 27.3775 0.0000 -2.2312
# 5 -4.6379 -1.2803 -2.3379 0.0000 30.1375 0.0000
# 6 0.0000 0.0000 0.0000 -2.2312 0.0000 40.7225
#
#
#
# Elastic Compliance Matrix: (Units=1/GPa)
#
#
# Indices 1 2 3 4 5 6 
#
# 1 0.011316 0.003249 -0.008138 0.000000 0.001248 0.000000
# 2 0.003249 0.038664 -0.014914 0.000000 0.000986 0.000000
# 3 -0.008138 -0.014914 0.018827 0.000000 -0.000425 0.000000
# 4 0.000000 0.000000 0.000000 0.036690 0.000000 0.002010
# 5 0.001248 0.000986 -0.000425 0.000000 0.033382 0.000000
# 6 0.000000 0.000000 0.000000 0.002010 0.000000 0.024667
#
#
# Mechanical properties :
#
#
# Convention : Reuss Voigt Hill
#
# Bulk Modulus (GPa) = 34.24589 60.01370 47.12980
# Shear Modulus (GPa) = 23.48698 30.52307 27.00503
#
# Velocity S-wave (km/s) = 3.42760 3.90742 3.67535
# Velocity P-wave (km/s) = 5.72667 7.09766 6.44870
#
# Compressibility (1/GPa) = 0.02920058
#
# Stress axis : x y z
#
# Youngs Moduli (GPa) = 88.37303 25.86418 53.11561
#
# Poissons Ratio (x) = -0.08403 0.43224
# Poissons Ratio (y) = -0.28713 0.79216
# Poissons Ratio (z) = 0.71916 0.38574
#
# Static dielectric constant tensor:
#      x y z
#    x 3.501200 0.000000 -0.001880 
#    y 0.000000 3.527800 0.000000 
#    z -0.001880 0.000000 3.837550 
# 
# 
# High freq. dielectric constant tensor:
#      x y z
#    x 1.785990 0.000000 -0.001280 
#    y 0.000000 1.787270 0.000000 
#    z -0.001280 0.000000 1.794320 
# 
# From -- ./inp_files/16003.got.cif
#   From: 2010.06.25/outbox.cif.g09.slc.cpg/sg11_9_cif.got.tgz:16003.got - 2010.06.27 23:14:04.
