data_PCOD8076249
_publ_section_title
;
Structure prediction by ZEFSAII (Michael W. Deem and Ramdas Pophale) SiO2 
 PCOD8076249
Probable space group: P 21/M
;
_chemical_formula_sum "Si O2"
_cell_formula_units_Z 28
_cell_length_a 14.042188
_cell_length_b 8.783920
_cell_length_c 19.815717
_cell_angle_alpha 90.000000
_cell_angle_beta 31.018367
_cell_angle_gamma 90.000000
_cell_volume 1259.516607
_symmetry_space_group_name_H-M "P 21/M"
_symmetry_group_IT_number 11
_symmetry_cell_setting 'monoclinic'
loop_
_space_group_symop_operation_xyz
x,y,z
-x,1/2+y,-z
-x,-y,-z
x,1/2-y,z
loop_
_atom_site_type_symbol
_atom_site_label
_atom_site_fract_x
_atom_site_fract_y
_atom_site_fract_z
Si Si1 0.826803 0.572919 0.988210
Si Si2 0.047140 0.925970 0.220491
Si Si3 0.316389 0.413383 0.605091
Si Si4 0.532272 0.070300 0.246166
Si Si5 0.793343 0.067575 0.628630
Si Si6 0.835503 0.577723 0.155366
Si Si7 0.348904 0.924469 0.140728
O O1 0.782985 0.750000 0.023298
O O2 0.876525 0.541519 0.881441
O O3 0.972891 0.524783 0.960224
O O4 0.643681 0.472854 0.110800
O O5 0.062794 0.750000 0.185775
O O6 0.148914 0.949273 0.228684
O O7 0.829807 0.970256 0.362952
O O8 0.500000 0.500000 0.500000
O O9 0.388151 0.250000 0.539878
O O10 0.199640 0.413472 0.744028
O O11 0.513821 0.250000 0.268386
O O12 0.327349 0.997319 0.361237
O O13 0.651960 0.997381 0.234620
O O14 0.806161 0.250000 0.617672
O O15 0.684696 0.012873 0.763143
O O16 0.000000 0.000000 0.500000
O O17 0.866785 0.750000 0.108552
O O18 0.408482 0.750000 0.108392
O O19 0.500000 0.000000 0.000000
#
# Coordination Sequence:
#
# PCOD8076249 Si02
#       7
#     4   4   4   4   4   4   4
#     4  11  21  35  57  89 123 154 191 242 298 362
#     4   9  19  37  57  81 114 153 192 240 299 358
#     4   9  19  34  54  79 111 147 185 230 285 349
#     4  12  24  39  60  85 115 158 201 245 300 360
#     4  11  25  45  65  92 127 166 211 262 314 371
#     4  10  21  38  57  83 117 153 192 239 293 357
#     4  10  22  40  65  93 122 157 205 258 311 367
#
# _framework density 22.230751999999999
#
# number of rings (size 3 to 8) (size 9 to 14) (size 15 to 20)
#    0.000    1.714    0.000    5.571    0.000    8.000 
#    0.000    1.429    0.000    0.000    0.000    0.000 
#    0.000    0.000    0.000    0.000    0.000    0.000 
#
# Total GULP energy -346865.369780 kJ/mol
# GULP energy per Si atom -12388.048921 kJ/mol
# Density = 2.218015 g / cm^3
# Si number density = 22.230752 Si / 1000 Ang^3
#
#
#
# Elastic Constant Matrix: (Units=GPa)
#
#
# Indices 1 2 3 4 5 6 
#
# 1 109.6736 32.3072 26.6823 0.0000 -29.2191 0.0000
# 2 32.3072 107.1264 27.6468 0.0000 -12.8786 0.0000
# 3 26.6823 27.6468 72.5767 0.0000 -30.1939 0.0000
# 4 0.0000 0.0000 0.0000 36.3979 0.0000 -7.7864
# 5 -29.2191 -12.8786 -30.1939 0.0000 43.0503 0.0000
# 6 0.0000 0.0000 0.0000 -7.7864 0.0000 30.6204
#
#
#
# Elastic Compliance Matrix: (Units=1/GPa)
#
#
# Indices 1 2 3 4 5 6 
#
# 1 0.011850 -0.002618 -0.000479 0.000000 0.006924 0.000000
# 2 -0.002618 0.010937 -0.003646 0.000000 -0.001062 0.000000
# 3 -0.000479 -0.003646 0.020833 0.000000 0.013196 0.000000
# 4 0.000000 0.000000 0.000000 0.029055 0.000000 0.007388
# 5 0.006924 -0.001062 0.013196 0.000000 0.036866 0.000000
# 6 0.000000 0.000000 0.000000 0.007388 0.000000 0.034537
#
#
# Mechanical properties :
#
#
# Convention : Reuss Voigt Hill
#
# Bulk Modulus (GPa) = 33.18267 51.40547 42.29407
# Shear Modulus (GPa) = 29.83142 35.52974 32.68058
#
# Velocity S-wave (km/s) = 3.66717 4.00212 3.83830
# Velocity P-wave (km/s) = 5.73495 6.67306 6.22171
#
# Compressibility (1/GPa) = 0.03013621
#
# Stress axis : x y z
#
# Youngs Moduli (GPa) = 84.38592 91.42867 48.00004
#
# Poissons Ratio (x) = 0.23935 0.02299
# Poissons Ratio (y) = 0.22091 0.17500
# Poissons Ratio (z) = 0.04041 0.33333
#
# Static dielectric constant tensor:
#      x y z
#    x 4.375140 0.000000 -0.228020 
#    y 0.000000 3.924460 0.000000 
#    z -0.228020 0.000000 3.551000 
# 
# 
# High freq. dielectric constant tensor:
#      x y z
#    x 1.899610 0.000000 -0.016360 
#    y 0.000000 1.869620 0.000000 
#    z -0.016360 0.000000 1.865760 
# 
# From -- ./inp_files/65356.got.cif
#   From: 2010.06.25/outbox.cif.g09.slc.cpg/sg11_33_cif.got.tgz:65356.got - 2010.06.27 23:14:04.
