data_PCOD8076545
_publ_section_title
;
Structure prediction by ZEFSAII (Michael W. Deem and Ramdas Pophale) SiO2 
 PCOD8076545
Probable space group: P 21/M
;
_chemical_formula_sum "Si O2"
_cell_formula_units_Z 32
_cell_length_a 13.994913
_cell_length_b 8.835584
_cell_length_c 23.751615
_cell_angle_alpha 90.000000
_cell_angle_beta 33.595320
_cell_angle_gamma 90.000000
_cell_volume 1625.091182
_symmetry_space_group_name_H-M "P 21/M"
_symmetry_group_IT_number 11
_symmetry_cell_setting 'monoclinic'
loop_
_space_group_symop_operation_xyz
x,y,z
-x,1/2+y,-z
-x,-y,-z
x,1/2-y,z
loop_
_atom_site_type_symbol
_atom_site_label
_atom_site_fract_x
_atom_site_fract_y
_atom_site_fract_z
Si Si1 0.328518 0.572650 0.474409
Si Si2 0.167360 0.071270 0.890087
Si Si3 0.509018 0.429084 0.207506
Si Si4 0.816875 0.428475 0.575690
Si Si5 0.282288 0.428058 0.713615
Si Si6 0.127242 0.428977 0.674387
Si Si7 0.768894 0.925508 0.860488
Si Si8 0.556182 0.074822 0.055382
O O1 0.321255 0.750000 0.491613
O O2 0.225766 0.534810 0.468059
O O3 0.523706 0.511531 0.372090
O O4 0.247698 0.482089 0.565168
O O5 0.166772 0.250000 0.900362
O O6 0.164525 0.029871 0.825200
O O7 0.341491 0.003873 0.829608
O O8 0.000000 0.000000 0.000000
O O9 0.507938 0.250000 0.217450
O O10 0.324864 0.496429 0.314596
O O11 0.544248 0.472435 0.125783
O O12 0.819814 0.250000 0.585635
O O13 0.000000 0.500000 0.500000
O O14 0.293101 0.250000 0.701535
O O15 0.198447 0.498004 0.698400
O O16 0.125693 0.250000 0.676996
O O17 0.935636 0.486714 0.757595
O O18 0.812829 0.750000 0.841624
O O19 0.624245 0.964333 0.885536
O O20 0.709488 0.980025 0.951385
O O21 0.603342 0.250000 0.024822
#
# Coordination Sequence:
#
# PCOD8076545 Si02
#       8
#     4   4   4   4   4   4   4   4
#     4  10  21  42  64  84 117 160 198 246 305 359
#     4  11  23  42  64  92 126 166 207 252 311 370
#     4  11  23  41  65  94 125 163 207 255 310 370
#     4  11  24  42  65  92 126 165 207 256 310 369
#     4   9  20  41  63  83 118 159 195 243 305 359
#     4  11  23  37  60  91 119 153 198 249 300 357
#     4  10  21  39  60  87 119 156 199 246 296 357
#     4   9  21  40  61  83 118 160 196 242 303 357
#
# _framework density 19.691201
#
# number of rings (size 3 to 8) (size 9 to 14) (size 15 to 20)
#    0.000    1.750    1.250    2.250    3.500    2.500 
#    0.000    2.500    0.000    0.000    0.000    0.000 
#    0.000    0.000    0.000    0.000    0.000    0.000 
#
# Total GULP energy -396912.814160 kJ/mol
# GULP energy per Si atom -12403.525443 kJ/mol
# Density = 1.964638 g / cm^3
# Si number density = 19.691201 Si / 1000 Ang^3
#
#
#
# Elastic Constant Matrix: (Units=GPa)
#
#
# Indices 1 2 3 4 5 6 
#
# 1 50.1479 18.6497 9.3724 0.0000 8.7265 0.0000
# 2 18.6497 66.5909 32.3629 0.0000 6.3347 0.0000
# 3 9.3724 32.3629 107.1065 0.0000 2.1175 0.0000
# 4 0.0000 0.0000 0.0000 40.9546 0.0000 0.8341
# 5 8.7265 6.3347 2.1175 0.0000 35.5924 0.0000
# 6 0.0000 0.0000 0.0000 0.8341 0.0000 29.8164
#
#
#
# Elastic Compliance Matrix: (Units=1/GPa)
#
#
# Indices 1 2 3 4 5 6 
#
# 1 0.022967 -0.005937 -0.000126 0.000000 -0.004567 0.000000
# 2 -0.005937 0.019424 -0.005316 0.000000 -0.001685 0.000000
# 3 -0.000126 -0.005316 0.010947 0.000000 0.000326 0.000000
# 4 0.000000 0.000000 0.000000 0.024431 0.000000 -0.000683
# 5 -0.004567 -0.001685 0.000326 0.000000 0.029496 0.000000
# 6 0.000000 0.000000 0.000000 -0.000683 0.000000 0.033558
#
#
# Mechanical properties :
#
#
# Convention : Reuss Voigt Hill
#
# Bulk Modulus (GPa) = 32.70006 38.29062 35.49534
# Shear Modulus (GPa) = 28.77302 32.17003 30.47152
#
# Velocity S-wave (km/s) = 3.82673 4.04632 3.93806
# Velocity P-wave (km/s) = 6.01395 6.42791 6.22437
#
# Compressibility (1/GPa) = 0.03058098
#
# Stress axis : x y z
#
# Youngs Moduli (GPa) = 43.54067 51.48355 91.34610
#
# Poissons Ratio (x) = 0.30564 0.01148
# Poissons Ratio (y) = 0.25849 0.48561
# Poissons Ratio (z) = 0.00547 0.27370
#
# Static dielectric constant tensor:
#      x y z
#    x 3.800160 0.000000 0.095310 
#    y 0.000000 6.221480 0.000000 
#    z 0.095310 0.000000 4.341090 
# 
# 
# High freq. dielectric constant tensor:
#      x y z
#    x 1.777510 0.000000 0.002100 
#    y 0.000000 1.762720 0.000000 
#    z 0.002100 0.000000 1.782260 
# 
# From -- ./inp_files/55592.got.cif
#   From: 2010.06.25/outbox.cif.g09.slc.cpg/sg11_28_cif.got.tgz:55592.got - 2010.06.27 23:14:04.
