data_PCOD8076200
_publ_section_title
;
Structure prediction by ZEFSAII (Michael W. Deem and Ramdas Pophale) SiO2 
 PCOD8076200
Probable space group: P 21/M
;
_chemical_formula_sum "Si O2"
_cell_formula_units_Z 28
_cell_length_a 11.751627
_cell_length_b 8.968813
_cell_length_c 15.374167
_cell_angle_alpha 90.000000
_cell_angle_beta 60.739805
_cell_angle_gamma 90.000000
_cell_volume 1413.659199
_symmetry_space_group_name_H-M "P 21/M"
_symmetry_group_IT_number 11
_symmetry_cell_setting 'monoclinic'
loop_
_space_group_symop_operation_xyz
x,y,z
-x,1/2+y,-z
-x,-y,-z
x,1/2-y,z
loop_
_atom_site_type_symbol
_atom_site_label
_atom_site_fract_x
_atom_site_fract_y
_atom_site_fract_z
Si Si1 0.532162 0.573982 0.079025
Si Si2 0.374119 0.071833 0.293970
Si Si3 0.170251 0.422562 0.995842
Si Si4 0.076829 0.422580 0.395521
Si Si5 0.139781 0.920731 0.656041
Si Si6 0.931712 0.575569 0.150913
Si Si7 0.594344 0.426260 0.535356
O O1 0.501747 0.750000 0.089553
O O2 0.452967 0.494307 0.184393
O O3 0.682658 0.539675 0.037968
O O4 0.500000 0.500000 0.000000
O O5 0.389116 0.250000 0.291269
O O6 0.224887 0.020384 0.334107
O O7 0.430059 0.001902 0.362067
O O8 0.137703 0.250000 0.018933
O O9 0.142331 0.477053 0.908270
O O10 0.077413 0.508446 0.098160
O O11 0.075160 0.250000 0.418612
O O12 0.000000 0.500000 0.500000
O O13 0.000099 0.456184 0.334988
O O14 0.149769 0.750000 0.681013
O O15 0.256460 0.960376 0.546601
O O16 0.154080 0.019012 0.736660
O O17 0.943489 0.750000 0.153360
O O18 0.500000 0.500000 0.500000
O O19 0.565865 0.250000 0.552270
#
# Coordination Sequence:
#
# PCOD8076200 Si02
#       7
#     4   4   4   4   4   4   4
#     4  11  25  44  65  90 123 165 209 258 310 370
#     4  11  24  42  65  94 125 164 208 257 313 371
#     4   9  21  42  62  84 119 158 198 248 308 363
#     4  10  21  39  62  87 120 157 199 248 299 356
#     4  10  22  39  60  89 123 161 198 245 306 363
#     4  10  21  37  62  93 118 152 199 251 303 360
#     4  11  24  42  64  92 128 168 210 256 307 370
#
# _framework density 19.806753
#
# number of rings (size 3 to 8) (size 9 to 14) (size 15 to 20)
#    0.000    1.714    1.429    1.714    4.000    4.000 
#    0.000    0.000    0.000    0.000    0.000    0.000 
#    0.000    0.000    0.000    0.000    0.000    0.000 
#
# Total GULP energy -347283.569515 kJ/mol
# GULP energy per Si atom -12402.984626 kJ/mol
# Density = 1.976167 g / cm^3
# Si number density = 19.806753 Si / 1000 Ang^3
#
#
#
# Elastic Constant Matrix: (Units=GPa)
#
#
# Indices 1 2 3 4 5 6 
#
# 1 114.0179 57.5392 50.1239 0.0000 8.2098 0.0000
# 2 57.5392 85.3918 64.1232 0.0000 1.8813 0.0000
# 3 50.1239 64.1232 142.9358 0.0000 15.4251 0.0000
# 4 0.0000 0.0000 0.0000 43.3981 0.0000 1.3841
# 5 8.2098 1.8813 15.4251 0.0000 22.0990 0.0000
# 6 0.0000 0.0000 0.0000 1.3841 0.0000 31.5126
#
#
#
# Elastic Compliance Matrix: (Units=1/GPa)
#
#
# Indices 1 2 3 4 5 6 
#
# 1 0.013701 -0.008842 -0.000400 0.000000 -0.004058 0.000000
# 2 -0.008842 0.023763 -0.008323 0.000000 0.007071 0.000000
# 3 -0.000400 -0.008323 0.011656 0.000000 -0.007279 0.000000
# 4 0.000000 0.000000 0.000000 0.023075 0.000000 -0.001013
# 5 -0.004058 0.007071 -0.007279 0.000000 0.051237 0.000000
# 6 0.000000 0.000000 0.000000 -0.001013 0.000000 0.031778
#
#
# Mechanical properties :
#
#
# Convention : Reuss Voigt Hill
#
# Bulk Modulus (GPa) = 71.48205 76.21314 73.84759
# Shear Modulus (GPa) = 25.64079 30.77255 28.20667
#
# Velocity S-wave (km/s) = 3.60189 3.94590 3.77781
# Velocity P-wave (km/s) = 7.31206 7.70208 7.50960
#
# Compressibility (1/GPa) = 0.01398953
#
# Stress axis : x y z
#
# Youngs Moduli (GPa) = 72.98856 42.08236 85.79622
#
# Poissons Ratio (x) = 0.37211 0.03430
# Poissons Ratio (y) = 0.64539 0.71406
# Poissons Ratio (z) = 0.02918 0.35024
#
# Static dielectric constant tensor:
#      x y z
#    x 4.780450 0.000000 0.293420 
#    y 0.000000 3.662270 0.000000 
#    z 0.293420 0.000000 3.762200 
# 
# 
# High freq. dielectric constant tensor:
#      x y z
#    x 1.780870 0.000000 0.000880 
#    y 0.000000 1.777160 0.000000 
#    z 0.000880 0.000000 1.780100 
# 
# From -- ./inp_files/49150.got.cif
#   From: 2010.06.25/outbox.cif.g09.slc.cpg/sg11_25_cif.got.tgz:49150.got - 2010.06.27 23:14:04.
