data_PCOD8076632
_publ_section_title
;
Structure prediction by ZEFSAII (Michael W. Deem and Ramdas Pophale) SiO2 
 PCOD8076632
Probable space group: P 21/M
;
_chemical_formula_sum "Si O2"
_cell_formula_units_Z 28
_cell_length_a 27.203027
_cell_length_b 8.943801
_cell_length_c 9.426743
_cell_angle_alpha 90.000000
_cell_angle_beta 38.172624
_cell_angle_gamma 90.000000
_cell_volume 1417.465772
_symmetry_space_group_name_H-M "P 21/M"
_symmetry_group_IT_number 11
_symmetry_cell_setting 'monoclinic'
loop_
_space_group_symop_operation_xyz
x,y,z
-x,1/2+y,-z
-x,-y,-z
x,1/2-y,z
loop_
_atom_site_type_symbol
_atom_site_label
_atom_site_fract_x
_atom_site_fract_y
_atom_site_fract_z
Si Si1 0.028085 0.572802 0.794908
Si Si2 0.358783 0.426326 0.472884
Si Si3 0.948015 0.080342 0.732936
Si Si4 0.505178 0.074028 0.334462
Si Si5 0.652355 0.073666 0.807485
Si Si6 0.795648 0.072648 0.675308
Si Si7 0.232849 0.919199 0.947982
O O1 0.028906 0.750000 0.803641
O O2 0.115735 0.510814 0.554350
O O3 0.959929 0.517627 0.844658
O O4 0.000000 0.500000 0.000000
O O5 0.358575 0.250000 0.454432
O O6 0.433482 0.481023 0.396705
O O7 0.362884 0.495825 0.307473
O O8 0.280129 0.476241 0.733410
O O9 0.977797 0.250000 0.687490
O O10 0.857304 0.079360 0.895721
O O11 0.000000 0.000000 0.500000
O O12 0.501698 0.250000 0.366681
O O13 0.500000 0.000000 0.500000
O O14 0.585805 0.025684 0.072281
O O15 0.650400 0.250000 0.784844
O O16 0.737002 0.022222 0.681513
O O17 0.799712 0.250000 0.676594
O O18 0.762364 0.014943 0.902646
O O19 0.267029 0.750000 0.863657
#
# Coordination Sequence:
#
# PCOD8076632 Si02
#       7
#     4   4   4   4   4   4   4
#     4  11  23  40  59  86 122 159 201 253 304 357
#     4  11  24  39  57  91 127 153 190 247 300 343
#     4  11  22  39  63  89 117 158 205 252 305 360
#     4  10  22  40  64  91 121 156 196 240 291 351
#     4  10  21  39  63  87 116 160 202 236 284 355
#     4   9  19  38  61  84 112 151 202 245 283 347
#     4  10  21  40  63  85 114 159 204 241 292 362
#
# _framework density 19.753563
#
# number of rings (size 3 to 8) (size 9 to 14) (size 15 to 20)
#    0.000    1.714    1.429    2.571    2.000    4.000 
#    0.000    1.429    0.000    0.000    0.000    0.000 
#    0.000    0.000    0.000    0.000    0.000    0.000 
#
# Total GULP energy -347191.386166 kJ/mol
# GULP energy per Si atom -12399.692363 kJ/mol
# Density = 1.970860 g / cm^3
# Si number density = 19.753563 Si / 1000 Ang^3
#
#
#
# Elastic Constant Matrix: (Units=GPa)
#
#
# Indices 1 2 3 4 5 6 
#
# 1 144.3645 45.9563 54.8826 0.0000 24.6618 0.0000
# 2 45.9563 66.8130 43.5812 0.0000 7.5358 0.0000
# 3 54.8826 43.5812 114.4508 0.0000 22.0892 0.0000
# 4 0.0000 0.0000 0.0000 33.2729 0.0000 6.5466
# 5 24.6618 7.5358 22.0892 0.0000 41.3098 0.0000
# 6 0.0000 0.0000 0.0000 6.5466 0.0000 34.0186
#
#
#
# Elastic Compliance Matrix: (Units=1/GPa)
#
#
# Indices 1 2 3 4 5 6 
#
# 1 0.010014 -0.005065 -0.002116 0.000000 -0.003923 0.000000
# 2 -0.005065 0.022483 -0.006606 0.000000 0.002455 0.000000
# 3 -0.002116 -0.006606 0.013148 0.000000 -0.004562 0.000000
# 4 0.000000 0.000000 0.000000 0.031237 0.000000 -0.006011
# 5 -0.003923 0.002455 -0.004562 0.000000 0.028541 0.000000
# 6 0.000000 0.000000 0.000000 -0.006011 0.000000 0.030553
#
#
# Mechanical properties :
#
#
# Convention : Reuss Voigt Hill
#
# Bulk Modulus (GPa) = 55.33906 68.27427 61.80666
# Shear Modulus (GPa) = 29.48551 33.80080 31.64315
#
# Velocity S-wave (km/s) = 3.86770 4.14106 4.00671
# Velocity P-wave (km/s) = 6.92972 7.58304 7.26373
#
# Compressibility (1/GPa) = 0.01807042
#
# Stress axis : x y z
#
# Youngs Moduli (GPa) = 99.86083 44.47722 76.05592
#
# Poissons Ratio (x) = 0.22528 0.16095
# Poissons Ratio (y) = 0.50581 0.50245
# Poissons Ratio (z) = 0.21132 0.29383
#
# Static dielectric constant tensor:
#      x y z
#    x 3.898750 0.000000 -0.003790 
#    y 0.000000 3.510600 0.000000 
#    z -0.003790 0.000000 3.687360 
# 
# 
# High freq. dielectric constant tensor:
#      x y z
#    x 1.789070 0.000000 0.003750 
#    y 0.000000 1.753470 0.000000 
#    z 0.003750 0.000000 1.781070 
# 
# From -- ./inp_files/28307.got.cif
#   From: 2010.06.25/outbox.cif.g09.slc.cpg/sg11_15_cif.got.tgz:28307.got - 2010.06.27 23:14:04.
