data_PCOD8076996
_publ_section_title
;
Structure prediction by ZEFSAII (Michael W. Deem and Ramdas Pophale) SiO2 
 PCOD8076996
Probable space group: P 21/M
;
_chemical_formula_sum "Si O2"
_cell_formula_units_Z 32
_cell_length_a 5.330174
_cell_length_b 14.278302
_cell_length_c 18.573403
_cell_angle_alpha 90.000000
_cell_angle_beta 94.009910
_cell_angle_gamma 90.000000
_cell_volume 1410.083928
_symmetry_space_group_name_H-M "P 21/M"
_symmetry_group_IT_number 11
_symmetry_cell_setting 'monoclinic'
loop_
_space_group_symop_operation_xyz
x,y,z
-x,1/2+y,-z
-x,-y,-z
x,1/2-y,z
loop_
_atom_site_type_symbol
_atom_site_label
_atom_site_fract_x
_atom_site_fract_y
_atom_site_fract_z
Si Si1 0.554848 0.992418 0.788129
Si Si2 0.885447 0.644229 0.873527
Si Si3 0.091938 0.640123 0.028128
Si Si4 0.563245 0.648826 0.540789
Si Si5 0.193408 0.014184 0.347892
Si Si6 0.614260 0.638742 0.109675
Si Si7 0.832995 0.145851 0.270239
Si Si8 0.033981 0.900939 0.466559
O O1 0.668423 0.932141 0.856521
O O2 0.746127 0.027501 0.730482
O O3 0.403163 0.921258 0.735076
O O4 0.401182 0.080920 0.815956
O O5 0.775446 0.750000 0.885617
O O6 0.060221 0.646780 0.808086
O O7 0.042328 0.606618 0.945468
O O8 0.077094 0.750000 0.030435
O O9 0.867328 0.603198 0.075250
O O10 0.368285 0.608397 0.058684
O O11 0.578010 0.750000 0.581439
O O12 0.590110 0.559772 0.595903
O O13 0.289795 0.646662 0.498588
O O14 0.779708 0.653761 0.482630
O O15 0.016961 0.105290 0.334304
O O16 0.061173 0.923674 0.381618
O O17 0.616953 0.750000 0.125687
O O18 0.753663 0.250000 0.292195
O O19 0.000000 0.000000 0.500000
#
# Coordination Sequence:
#
# PCOD8076996 Si02
#       8
#     4   4   4   4   4   4   4   4
#     4  11  24  37  62  88 126 168 207 256 311 376
#     4   9  20  38  57  89 126 159 202 261 324 377
#     4   9  20  39  64  86 117 161 208 266 322 369
#     4  11  23  41  68  99 129 163 209 263 312 368
#     4  10  23  40  62  89 127 168 207 248 317 377
#     4  10  23  42  62  86 117 161 217 266 312 368
#     4  10  22  38  59  90 127 165 209 254 312 385
#     4  10  22  41  66  93 127 166 208 255 307 367
#
# _framework density 22.693686
#
# number of rings (size 3 to 8) (size 9 to 14) (size 15 to 20)
#    0.000    2.000    0.000    2.625   10.500    2.500 
#    0.000    1.250    0.000    0.000    0.000    0.000 
#    0.000    0.000    0.000    0.000    0.000    0.000 
#
# Total GULP energy -396452.224698 kJ/mol
# GULP energy per Si atom -12389.132022 kJ/mol
# Density = 2.264203 g / cm^3
# Si number density = 22.693686 Si / 1000 Ang^3
#
#
#
# Elastic Constant Matrix: (Units=GPa)
#
#
# Indices 1 2 3 4 5 6 
#
# 1 92.8313 -0.6703 -1.2749 0.0000 5.7459 0.0000
# 2 -0.6703 49.7928 1.4409 0.0000 3.5956 0.0000
# 3 -1.2749 1.4409 60.2916 0.0000 8.8287 0.0000
# 4 0.0000 0.0000 0.0000 19.2065 0.0000 7.2507
# 5 5.7459 3.5956 8.8287 0.0000 12.9843 0.0000
# 6 0.0000 0.0000 0.0000 7.2507 0.0000 19.4251
#
#
#
# Elastic Compliance Matrix: (Units=1/GPa)
#
#
# Indices 1 2 3 4 5 6 
#
# 1 0.011151 0.000539 0.001074 0.000000 -0.005814 0.000000
# 2 0.000539 0.020527 0.000431 0.000000 -0.006216 0.000000
# 3 0.001074 0.000431 0.018531 0.000000 -0.013195 0.000000
# 4 0.000000 0.000000 0.000000 0.060606 0.000000 -0.022622
# 5 -0.005814 -0.006216 -0.013195 0.000000 0.090282 0.000000
# 6 0.000000 0.000000 0.000000 -0.022622 0.000000 0.059924
#
#
# Mechanical properties :
#
#
# Convention : Reuss Voigt Hill
#
# Bulk Modulus (GPa) = 18.41735 22.43410 20.42572
# Shear Modulus (GPa) = 18.17984 23.88453 21.03218
#
# Velocity S-wave (km/s) = 2.83344 3.24771 3.04762
# Velocity P-wave (km/s) = 4.34024 4.89597 4.62646
#
# Compressibility (1/GPa) = 0.05429664
#
# Stress axis : x y z
#
# Youngs Moduli (GPa) = 89.68008 48.71662 53.96476
#
# Poissons Ratio (x) = -0.02625 -0.05797
# Poissons Ratio (y) = -0.04833 -0.02326
# Poissons Ratio (z) = -0.09634 -0.02100
#
# Static dielectric constant tensor:
#      x y z
#    x 4.201050 0.000000 0.447790 
#    y 0.000000 4.035330 0.000000 
#    z 0.447790 0.000000 2.428550 
# 
# 
# High freq. dielectric constant tensor:
#      x y z
#    x 1.892960 0.000000 -0.008450 
#    y 0.000000 1.885740 0.000000 
#    z -0.008450 0.000000 1.889100 
# 
# From -- ./inp_files/57067.got.cif
#   From: 2010.06.25/outbox.cif.g09.slc.cpg/sg11_29_cif.got.tgz:57067.got - 2010.06.27 23:14:04.
