data_PCOD8076730
_publ_section_title
;
Structure prediction by ZEFSAII (Michael W. Deem and Ramdas Pophale) SiO2 
 PCOD8076730
Probable space group: P 21/M
;
_chemical_formula_sum "Si O2"
_cell_formula_units_Z 28
_cell_length_a 11.232645
_cell_length_b 8.817553
_cell_length_c 16.765753
_cell_angle_alpha 90.000000
_cell_angle_beta 124.608526
_cell_angle_gamma 90.000000
_cell_volume 1366.722603
_symmetry_space_group_name_H-M "P 21/M"
_symmetry_group_IT_number 11
_symmetry_cell_setting 'monoclinic'
loop_
_space_group_symop_operation_xyz
x,y,z
-x,1/2+y,-z
-x,-y,-z
x,1/2-y,z
loop_
_atom_site_type_symbol
_atom_site_label
_atom_site_fract_x
_atom_site_fract_y
_atom_site_fract_z
Si Si1 0.431060 0.926172 0.737799
Si Si2 0.117802 0.574004 0.815506
Si Si3 0.179947 0.422068 0.386642
Si Si4 0.415101 0.071021 0.893803
Si Si5 0.698850 0.924637 0.732086
Si Si6 0.847129 0.427458 0.461567
Si Si7 0.971634 0.428328 0.904925
O O1 0.429378 0.750000 0.760989
O O2 0.540145 0.955414 0.705859
O O3 0.273064 0.980497 0.648168
O O4 0.483499 0.019810 0.835157
O O5 0.157484 0.750000 0.840359
O O6 0.251002 0.485726 0.828080
O O7 0.981746 0.549500 0.706443
O O8 0.086781 0.504085 0.889791
O O9 0.196566 0.250000 0.422692
O O10 0.295716 0.459110 0.360748
O O11 0.209286 0.530796 0.471972
O O12 0.423371 0.250000 0.905139
O O13 0.500000 0.000000 0.000000
O O14 0.749133 0.750000 0.764966
O O15 0.808027 0.036116 0.818044
O O16 0.867332 0.250000 0.464158
O O17 0.000000 0.500000 0.500000
O O18 0.998197 0.250000 0.916666
O O19 0.000000 0.500000 0.000000
#
# Coordination Sequence:
#
# PCOD8076730 Si02
#       7
#     4   4   4   4   4   4   4
#     4  10  23  43  63  87 123 163 207 256 307 363
#     4  10  21  40  62  86 117 155 202 250 301 360
#     4   9  19  37  62  90 121 157 196 248 307 363
#     4  12  26  42  62  88 120 160 203 252 311 369
#     4   9  20  40  62  85 120 162 204 252 306 362
#     4  11  23  38  61  91 123 162 204 253 306 364
#     4  11  22  36  58  87 119 156 199 249 304 361
#
# _framework density 20.486965999999999
#
# number of rings (size 3 to 8) (size 9 to 14) (size 15 to 20)
#    0.000    1.714    0.000    5.143    2.000    8.571 
#    0.000    0.000    0.000    0.000    0.000    0.000 
#    0.000    0.000    0.000    0.000    0.000    0.000 
#
# Total GULP energy -347283.438407 kJ/mol
# GULP energy per Si atom -12402.979943 kJ/mol
# Density = 2.044034 g / cm^3
# Si number density = 20.486966 Si / 1000 Ang^3
#
#
#
# Elastic Constant Matrix: (Units=GPa)
#
#
# Indices 1 2 3 4 5 6 
#
# 1 110.7999 38.9137 42.2997 0.0000 -9.2045 0.0000
# 2 38.9137 107.5991 53.2227 0.0000 -8.5043 0.0000
# 3 42.2997 53.2227 113.5686 0.0000 -21.5100 0.0000
# 4 0.0000 0.0000 0.0000 35.4458 0.0000 -5.6375
# 5 -9.2045 -8.5043 -21.5100 0.0000 27.5366 0.0000
# 6 0.0000 0.0000 0.0000 -5.6375 0.0000 34.3646
#
#
#
# Elastic Compliance Matrix: (Units=1/GPa)
#
#
# Indices 1 2 3 4 5 6 
#
# 1 0.011046 -0.002565 -0.002773 0.000000 0.000734 0.000000
# 2 -0.002565 0.012709 -0.005187 0.000000 -0.000984 0.000000
# 3 -0.002773 -0.005187 0.013837 0.000000 0.008280 0.000000
# 4 0.000000 0.000000 0.000000 0.028968 0.000000 0.004752
# 5 0.000734 -0.000984 0.008280 0.000000 0.042725 0.000000
# 6 0.000000 0.000000 0.000000 0.004752 0.000000 0.029879
#
#
# Mechanical properties :
#
#
# Convention : Reuss Voigt Hill
#
# Bulk Modulus (GPa) = 60.45252 66.75997 63.60625
# Shear Modulus (GPa) = 30.16982 32.63817 31.40400
#
# Velocity S-wave (km/s) = 3.84166 3.99572 3.91944
# Velocity P-wave (km/s) = 7.01781 7.34473 7.18313
#
# Compressibility (1/GPa) = 0.01654191
#
# Stress axis : x y z
#
# Youngs Moduli (GPa) = 90.53242 78.68175 72.26898
#
# Poissons Ratio (x) = 0.20183 0.20040
# Poissons Ratio (y) = 0.23223 0.37487
# Poissons Ratio (z) = 0.25104 0.40813
#
# Static dielectric constant tensor:
#      x y z
#    x 4.886230 0.000000 -0.033020 
#    y 0.000000 3.986470 0.000000 
#    z -0.033020 0.000000 3.711220 
# 
# 
# High freq. dielectric constant tensor:
#      x y z
#    x 1.809910 0.000000 -0.013130 
#    y 0.000000 1.800370 0.000000 
#    z -0.013130 0.000000 1.801480 
# 
# From -- ./inp_files/49489.got.cif
#   From: 2010.06.25/outbox.cif.g09.slc.cpg/sg11_25_cif.got.tgz:49489.got - 2010.06.27 23:14:04.
