data_PCOD8076846
_publ_section_title
;
Structure prediction by ZEFSAII (Michael W. Deem and Ramdas Pophale) SiO2 
 PCOD8076846
Probable space group: P 21/M
;
_chemical_formula_sum "Si O2"
_cell_formula_units_Z 20
_cell_length_a 9.692820
_cell_length_b 8.849912
_cell_length_c 12.004814
_cell_angle_alpha 90.000000
_cell_angle_beta 77.309244
_cell_angle_gamma 90.000000
_cell_volume 1004.622667
_symmetry_space_group_name_H-M "P 21/M"
_symmetry_group_IT_number 11
_symmetry_cell_setting 'monoclinic'
loop_
_space_group_symop_operation_xyz
x,y,z
-x,1/2+y,-z
-x,-y,-z
x,1/2-y,z
loop_
_atom_site_type_symbol
_atom_site_label
_atom_site_fract_x
_atom_site_fract_y
_atom_site_fract_z
Si Si1 0.651387 0.929205 0.963632
Si Si2 0.352952 0.071883 0.488300
Si Si3 0.892885 0.077729 0.333705
Si Si4 0.134182 0.922414 0.923893
Si Si5 0.790321 0.570829 0.711317
O O1 0.641724 0.750000 0.963722
O O2 0.728488 0.991587 0.838493
O O3 0.500000 0.000000 0.000000
O O4 0.730942 0.984831 0.059319
O O5 0.372814 0.250000 0.488525
O O6 0.311569 0.017292 0.370963
O O7 0.500000 0.000000 0.500000
O O8 0.225490 0.026719 0.591301
O O9 0.874493 0.250000 0.379233
O O10 0.872364 0.069360 0.206406
O O11 0.048856 0.012715 0.336604
O O12 0.142950 0.750000 0.963518
O O13 0.000000 0.000000 0.000000
O O14 0.797909 0.750000 0.716963
#
# Coordination Sequence:
#
# PCOD8076846 Si02
#       5
#     4   4   4   4   4
#     4  11  23  41  62  91 127 165 205 249 306 368
#     4  11  24  41  62  90 121 158 203 251 303 361
#     4  10  21  41  65  88 119 160 200 248 307 362
#     4  11  22  39  64  93 125 162 202 251 307 365
#     4   9  20  41  64  85 119 162 199 244 305 361
#
# _framework density 19.907971
#
# number of rings (size 3 to 8) (size 9 to 14) (size 15 to 20)
#    0.000    1.600    2.000    2.400    2.800    1.600 
#    0.000    4.000    0.000    0.000    0.000    0.000 
#    0.000    0.000    0.000    0.000    0.000    0.000 
#
# Total GULP energy -248025.363684 kJ/mol
# GULP energy per Si atom -12401.268184 kJ/mol
# Density = 1.986266 g / cm^3
# Si number density = 19.907971 Si / 1000 Ang^3
#
#
#
# Elastic Constant Matrix: (Units=GPa)
#
#
# Indices 1 2 3 4 5 6 
#
# 1 187.5602 47.5504 49.7111 0.0000 7.1209 0.0000
# 2 47.5504 80.1378 35.3012 0.0000 3.3796 0.0000
# 3 49.7111 35.3012 76.8869 0.0000 3.4056 0.0000
# 4 0.0000 0.0000 0.0000 31.1897 0.0000 -2.4773
# 5 7.1209 3.3796 3.4056 0.0000 37.2365 0.0000
# 6 0.0000 0.0000 0.0000 -2.4773 0.0000 39.9002
#
#
#
# Elastic Compliance Matrix: (Units=1/GPa)
#
#
# Indices 1 2 3 4 5 6 
#
# 1 0.006879 -0.002638 -0.003201 0.000000 -0.000783 0.000000
# 2 -0.002638 0.016676 -0.005930 0.000000 -0.000467 0.000000
# 3 -0.003201 -0.005930 0.017820 0.000000 -0.000479 0.000000
# 4 0.000000 0.000000 0.000000 0.032221 0.000000 0.002000
# 5 -0.000783 -0.000467 -0.000479 0.000000 0.027091 0.000000
# 6 0.000000 0.000000 0.000000 0.002000 0.000000 0.025187
#
#
# Mechanical properties :
#
#
# Convention : Reuss Voigt Hill
#
# Bulk Modulus (GPa) = 56.06924 67.74559 61.90741
# Shear Modulus (GPa) = 32.18383 35.80009 33.99196
#
# Velocity S-wave (km/s) = 4.02510 4.24521 4.13662
# Velocity P-wave (km/s) = 7.05884 7.62446 7.34709
#
# Compressibility (1/GPa) = 0.01783509
#
# Stress axis : x y z
#
# Youngs Moduli (GPa) = 145.37589 59.96712 56.11719
#
# Poissons Ratio (x) = 0.15821 0.17965
# Poissons Ratio (y) = 0.38354 0.33277
# Poissons Ratio (z) = 0.46541 0.35560
#
# Static dielectric constant tensor:
#      x y z
#    x 3.774280 0.000000 0.034290 
#    y 0.000000 3.520860 0.000000 
#    z 0.034290 0.000000 3.603160 
# 
# 
# High freq. dielectric constant tensor:
#      x y z
#    x 1.795950 0.000000 0.005360 
#    y 0.000000 1.764700 0.000000 
#    z 0.005360 0.000000 1.784120 
# 
# From -- ./inp_files/15894.got.cif
#   From: 2010.06.25/outbox.cif.g09.slc.cpg/sg11_8_cif.got.tgz:15894.got - 2010.06.27 23:14:04.
