data_PCOD8076258
_publ_section_title
;
Structure prediction by ZEFSAII (Michael W. Deem and Ramdas Pophale) SiO2 
 PCOD8076258
Probable space group: P 21/M
;
_chemical_formula_sum "Si O2"
_cell_formula_units_Z 32
_cell_length_a 23.106670
_cell_length_b 8.678288
_cell_length_c 15.566706
_cell_angle_alpha 90.000000
_cell_angle_beta 30.758607
_cell_angle_gamma 90.000000
_cell_volume 1596.421998
_symmetry_space_group_name_H-M "P 21/M"
_symmetry_group_IT_number 11
_symmetry_cell_setting 'monoclinic'
loop_
_space_group_symop_operation_xyz
x,y,z
-x,1/2+y,-z
-x,-y,-z
x,1/2-y,z
loop_
_atom_site_type_symbol
_atom_site_label
_atom_site_fract_x
_atom_site_fract_y
_atom_site_fract_z
Si Si1 0.467816 0.925686 0.351201
Si Si2 0.676413 0.431622 0.813798
Si Si3 0.321366 0.929311 0.856402
Si Si4 0.318357 0.429018 0.681436
Si Si5 0.938637 0.428387 0.811150
Si Si6 0.468061 0.572593 0.159457
Si Si7 0.920170 0.431495 0.030094
Si Si8 0.070188 0.931399 0.489327
O O1 0.451030 0.750000 0.403153
O O2 0.419725 0.949067 0.316724
O O3 0.600748 0.969691 0.180032
O O4 0.405134 0.042588 0.493850
O O5 0.687584 0.250000 0.799302
O O6 0.627648 0.490957 0.783907
O O7 0.801535 0.499593 0.673407
O O8 0.586894 0.482606 0.000052
O O9 0.343229 0.750000 0.844187
O O10 0.355877 0.970470 0.715011
O O11 0.191647 0.972881 0.039914
O O12 0.318220 0.250000 0.706436
O O13 0.196272 0.481389 0.805348
O O14 0.959792 0.250000 0.762962
O O15 0.968412 0.464580 0.872783
O O16 0.015244 0.530118 0.651311
O O17 0.494704 0.750000 0.105021
O O18 0.901211 0.250000 0.067020
O O19 0.000000 0.500000 0.000000
O O20 0.071574 0.750000 0.474973
O O21 0.000000 0.000000 0.500000
#
# Coordination Sequence:
#
# PCOD8076258 Si02
#       8
#     4   4   4   4   4   4   4   4
#     4  11  22  35  55  85 116 147 189 238 290 350
#     4   9  20  40  60  81 113 149 187 235 292 348
#     4  10  21  38  58  80 114 154 191 237 291 346
#     4  11  22  37  56  82 115 152 194 237 289 344
#     4   9  21  40  59  84 117 153 195 242 294 350
#     4   9  20  38  60  85 111 146 190 237 290 348
#     4  10  21  39  62  88 119 156 196 242 294 351
#     4  11  24  39  60  88 119 157 199 246 301 358
#
# _framework density 20.044827000000002
#
# number of rings (size 3 to 8) (size 9 to 14) (size 15 to 20)
#    0.000    2.000    0.000    3.750    1.750    6.000 
#    0.000    1.250    0.000    0.000    0.000    0.000 
#    0.000    0.000    0.000    0.000    0.000    0.000 
#
# Total GULP energy -396823.055380 kJ/mol
# GULP energy per Si atom -12400.720481 kJ/mol
# Density = 1.999920 g / cm^3
# Si number density = 20.044827 Si / 1000 Ang^3
#
#
#
# Elastic Constant Matrix: (Units=GPa)
#
#
# Indices 1 2 3 4 5 6 
#
# 1 110.2702 20.7041 43.1463 0.0000 -11.1521 0.0000
# 2 20.7041 50.6313 22.8423 0.0000 -3.8199 0.0000
# 3 43.1463 22.8423 93.9051 0.0000 -7.1246 0.0000
# 4 0.0000 0.0000 0.0000 34.6178 0.0000 0.0744
# 5 -11.1521 -3.8199 -7.1246 0.0000 25.1711 0.0000
# 6 0.0000 0.0000 0.0000 0.0744 0.0000 32.5622
#
#
#
# Elastic Compliance Matrix: (Units=1/GPa)
#
#
# Indices 1 2 3 4 5 6 
#
# 1 0.011642 -0.002474 -0.004481 0.000000 0.003514 0.000000
# 2 -0.002474 0.022798 -0.004322 0.000000 0.001140 0.000000
# 3 -0.004481 -0.004322 0.013856 0.000000 0.001281 0.000000
# 4 0.000000 0.000000 0.000000 0.028887 0.000000 -0.000066
# 5 0.003514 0.001140 0.001281 0.000000 0.041821 0.000000
# 6 0.000000 0.000000 0.000000 -0.000066 0.000000 0.030711
#
#
# Mechanical properties :
#
#
# Convention : Reuss Voigt Hill
#
# Bulk Modulus (GPa) = 38.84640 47.57690 43.21165
# Shear Modulus (GPa) = 27.64732 29.67783 28.66258
#
# Velocity S-wave (km/s) = 3.71789 3.85200 3.78554
# Velocity P-wave (km/s) = 6.15240 6.60080 6.38054
#
# Compressibility (1/GPa) = 0.02574241
#
# Stress axis : x y z
#
# Youngs Moduli (GPa) = 85.89814 43.86280 72.16917
#
# Poissons Ratio (x) = 0.10852 0.32336
# Poissons Ratio (y) = 0.21251 0.31195
# Poissons Ratio (z) = 0.38487 0.18959
#
# Static dielectric constant tensor:
#      x y z
#    x 3.871740 0.000000 -0.140280 
#    y 0.000000 3.582110 0.000000 
#    z -0.140280 0.000000 3.570400 
# 
# 
# High freq. dielectric constant tensor:
#      x y z
#    x 1.791310 0.000000 -0.000930 
#    y 0.000000 1.781370 0.000000 
#    z -0.000930 0.000000 1.775820 
# 
# From -- ./inp_files/55612.got.cif
#   From: 2010.06.25/outbox.cif.g09.slc.cpg/sg11_28_cif.got.tgz:55612.got - 2010.06.27 23:14:04.
