data_PCOD8076849
_publ_section_title
;
Structure prediction by ZEFSAII (Michael W. Deem and Ramdas Pophale) SiO2 
 PCOD8076849
Probable space group: P 21/M
;
_chemical_formula_sum "Si O2"
_cell_formula_units_Z 32
_cell_length_a 28.553367
_cell_length_b 8.645871
_cell_length_c 12.076812
_cell_angle_alpha 90.000000
_cell_angle_beta 147.282632
_cell_angle_gamma 90.000000
_cell_volume 1611.426020
_symmetry_space_group_name_H-M "P 21/M"
_symmetry_group_IT_number 11
_symmetry_cell_setting 'monoclinic'
loop_
_space_group_symop_operation_xyz
x,y,z
-x,1/2+y,-z
-x,-y,-z
x,1/2-y,z
loop_
_atom_site_type_symbol
_atom_site_label
_atom_site_fract_x
_atom_site_fract_y
_atom_site_fract_z
Si Si1 0.836024 0.425096 0.923665
Si Si2 0.750993 0.568400 0.122939
Si Si3 0.747749 0.433311 0.359171
Si Si4 0.595582 0.565460 0.199704
Si Si5 0.092985 0.924621 0.177783
Si Si6 0.407871 0.066151 0.345307
Si Si7 0.658196 0.929024 0.557102
Si Si8 0.088845 0.432358 0.717940
O O1 0.802893 0.250000 0.877210
O O2 0.901152 0.476822 0.147822
O O3 0.882704 0.439458 0.900615
O O4 0.759131 0.546887 0.774606
O O5 0.746351 0.750000 0.139482
O O6 0.758084 0.477035 0.251730
O O7 0.834279 0.527567 0.214446
O O8 0.665324 0.510711 0.887140
O O9 0.740712 0.250000 0.358900
O O10 0.658904 0.506039 0.229149
O O11 0.831285 0.498856 0.593906
O O12 0.594357 0.750000 0.193054
O O13 0.628461 0.496190 0.382421
O O14 0.500000 0.500000 0.000000
O O15 0.082280 0.750000 0.196201
O O16 0.000000 0.000000 0.000000
O O17 0.408871 0.250000 0.348887
O O18 0.389024 0.998084 0.430145
O O19 0.500000 0.000000 0.500000
O O20 0.636573 0.750000 0.509288
O O21 0.083318 0.250000 0.728034
O O22 0.000000 0.500000 0.500000
#
# Coordination Sequence:
#
# PCOD8076849 Si02
#       8
#     4   4   4   4   4   4   4   4
#     4  11  22  40  65  93 123 158 205 257 309 365
#     4  10  23  43  63  87 124 165 202 251 308 366
#     4  11  24  43  63  90 127 164 207 257 306 368
#     4  11  24  41  65  94 125 165 209 255 313 370
#     4  10  24  42  62  91 124 162 206 254 307 364
#     4  10  22  41  62  90 123 158 202 249 305 361
#     4  10  21  41  65  89 120 161 205 254 307 365
#     4  11  24  43  65  92 126 163 207 256 309 369
#
# _framework density 19.858187000000001
#
# number of rings (size 3 to 8) (size 9 to 14) (size 15 to 20)
#    0.000    1.500    2.500    1.500    3.500    4.500 
#    0.000    0.000    0.000    0.000    0.000    0.000 
#    0.000    0.000    0.000    0.000    0.000    0.000 
#
# Total GULP energy -396777.121898 kJ/mol
# GULP energy per Si atom -12399.285059 kJ/mol
# Density = 1.981299 g / cm^3
# Si number density = 19.858187 Si / 1000 Ang^3
#
#
#
# Elastic Constant Matrix: (Units=GPa)
#
#
# Indices 1 2 3 4 5 6 
#
# 1 104.9140 47.4885 68.1094 0.0000 -2.4460 0.0000
# 2 47.4885 46.7041 27.5019 0.0000 -2.0594 0.0000
# 3 68.1094 27.5019 141.8815 0.0000 1.2460 0.0000
# 4 0.0000 0.0000 0.0000 32.6757 0.0000 6.2549
# 5 -2.4460 -2.0594 1.2460 0.0000 46.7001 0.0000
# 6 0.0000 0.0000 0.0000 6.2549 0.0000 31.1657
#
#
#
# Elastic Compliance Matrix: (Units=1/GPa)
#
#
# Indices 1 2 3 4 5 6 
#
# 1 0.022843 -0.018899 -0.007307 0.000000 0.000558 0.000000
# 2 -0.018899 0.039873 0.001337 0.000000 0.000733 0.000000
# 3 -0.007307 0.001337 0.010302 0.000000 -0.000599 0.000000
# 4 0.000000 0.000000 0.000000 0.031827 0.000000 -0.006388
# 5 0.000558 0.000733 -0.000599 0.000000 0.021491 0.000000
# 6 0.000000 0.000000 0.000000 -0.006388 0.000000 0.033369
#
#
# Mechanical properties :
#
#
# Convention : Reuss Voigt Hill
#
# Bulk Modulus (GPa) = 42.95631 64.41103 53.68367
# Shear Modulus (GPa) = 23.02007 32.13495 27.57751
#
# Velocity S-wave (km/s) = 3.40843 4.02708 3.73060
# Velocity P-wave (km/s) = 6.09659 7.35724 6.75638
#
# Compressibility (1/GPa) = 0.02327947
#
# Stress axis : x y z
#
# Youngs Moduli (GPa) = 43.77725 25.07969 97.06886
#
# Poissons Ratio (x) = 0.47398 0.70930
# Poissons Ratio (y) = 0.82735 -0.12979
# Poissons Ratio (z) = 0.31989 -0.03353
#
# Static dielectric constant tensor:
#      x y z
#    x 3.534320 0.000000 -0.154010 
#    y 0.000000 3.564800 0.000000 
#    z -0.154010 0.000000 3.668260 
# 
# 
# High freq. dielectric constant tensor:
#      x y z
#    x 1.787880 0.000000 -0.005460 
#    y 0.000000 1.767430 0.000000 
#    z -0.005460 0.000000 1.790620 
# 
# From -- ./inp_files/45243.got.cif
#   From: 2010.06.25/outbox.cif.g09.slc.cpg/sg11_23_cif.got.tgz:45243.got - 2010.06.27 23:14:04.
