data_PCOD8076282
_publ_section_title
;
Structure prediction by ZEFSAII (Michael W. Deem and Ramdas Pophale) SiO2 
 PCOD8076282
Probable space group: P 21/M
;
_chemical_formula_sum "Si O2"
_cell_formula_units_Z 28
_cell_length_a 9.292026
_cell_length_b 8.541913
_cell_length_c 29.180992
_cell_angle_alpha 90.000000
_cell_angle_beta 37.564513
_cell_angle_gamma 90.000000
_cell_volume 1412.047397
_symmetry_space_group_name_H-M "P 21/M"
_symmetry_group_IT_number 11
_symmetry_cell_setting 'monoclinic'
loop_
_space_group_symop_operation_xyz
x,y,z
-x,1/2+y,-z
-x,-y,-z
x,1/2-y,z
loop_
_atom_site_type_symbol
_atom_site_label
_atom_site_fract_x
_atom_site_fract_y
_atom_site_fract_z
Si Si1 0.757698 0.068003 0.939498
Si Si2 0.007628 0.433591 0.363539
Si Si3 0.311016 0.566586 0.638953
Si Si4 0.162277 0.428606 0.769542
Si Si5 0.487710 0.066567 0.771950
Si Si6 0.161242 0.433946 0.499198
Si Si7 0.086137 0.932976 0.930808
O O1 0.755849 0.250000 0.954886
O O2 0.899444 0.048760 0.856054
O O3 0.879900 0.963431 0.946879
O O4 0.500000 0.000000 0.000000
O O5 0.970204 0.250000 0.380940
O O6 0.276821 0.466376 0.282476
O O7 0.841771 0.500769 0.364761
O O8 0.947444 0.525407 0.424619
O O9 0.326767 0.750000 0.628525
O O10 0.183829 0.532002 0.718930
O O11 0.574688 0.493908 0.571383
O O12 0.207341 0.250000 0.744144
O O13 0.355501 0.481248 0.758327
O O14 0.545561 0.250000 0.758368
O O15 0.323103 0.023799 0.856425
O O16 0.169728 0.250000 0.490782
O O17 0.000000 0.500000 0.500000
O O18 0.140891 0.750000 0.920559
O O19 0.000000 0.000000 0.000000
#
# Coordination Sequence:
#
# PCOD8076282 Si02
#       7
#     4   4   4   4   4   4   4
#     4  10  21  38  58  85 118 154 196 244 294 349
#     4  11  23  39  58  85 117 151 190 235 284 339
#     4  10  23  39  57  83 116 149 187 233 284 337
#     4   9  20  37  58  82 111 146 188 233 282 339
#     4  10  21  39  60  85 115 150 192 239 288 345
#     4  11  23  40  61  86 114 150 191 235 284 340
#     4  11  22  38  60  86 116 154 196 243 295 351
#
# _framework density 19.829362
#
# number of rings (size 3 to 8) (size 9 to 14) (size 15 to 20)
#    0.000    1.714    0.000    5.143    0.000    9.143 
#    0.000    2.857    0.000    0.000    0.000    0.000 
#    0.000    0.000    0.000    0.000    0.000    0.000 
#
# Total GULP energy -347300.950045 kJ/mol
# GULP energy per Si atom -12403.605359 kJ/mol
# Density = 1.978423 g / cm^3
# Si number density = 19.829362 Si / 1000 Ang^3
#
#
#
# Elastic Constant Matrix: (Units=GPa)
#
#
# Indices 1 2 3 4 5 6 
#
# 1 128.3350 24.7018 73.4934 0.0000 -5.4867 0.0000
# 2 24.7018 53.9213 14.6188 0.0000 0.3380 0.0000
# 3 73.4934 14.6188 126.4809 0.0000 -2.1075 0.0000
# 4 0.0000 0.0000 0.0000 37.3184 0.0000 2.0166
# 5 -5.4867 0.3380 -2.1075 0.0000 43.7175 0.0000
# 6 0.0000 0.0000 0.0000 2.0166 0.0000 32.0263
#
#
#
# Elastic Compliance Matrix: (Units=1/GPa)
#
#
# Indices 1 2 3 4 5 6 
#
# 1 0.012477 -0.003886 -0.006779 0.000000 0.001269 0.000000
# 2 -0.003886 0.020358 -0.000106 0.000000 -0.000650 0.000000
# 3 -0.006779 -0.000106 0.011853 0.000000 -0.000279 0.000000
# 4 0.000000 0.000000 0.000000 0.026888 0.000000 -0.001693
# 5 0.001269 -0.000650 -0.000279 0.000000 0.023025 0.000000
# 6 0.000000 0.000000 0.000000 -0.001693 0.000000 0.031331
#
#
# Mechanical properties :
#
#
# Convention : Reuss Voigt Hill
#
# Bulk Modulus (GPa) = 43.20407 59.37390 51.28899
# Shear Modulus (GPa) = 32.21859 35.67398 33.94629
#
# Velocity S-wave (km/s) = 4.03524 4.24612 4.14202
# Velocity P-wave (km/s) = 6.59895 7.35165 6.98545
#
# Compressibility (1/GPa) = 0.02314597
#
# Stress axis : x y z
#
# Youngs Moduli (GPa) = 80.14970 49.11975 84.36503
#
# Poissons Ratio (x) = 0.19086 0.57195
# Poissons Ratio (y) = 0.31143 0.00895
# Poissons Ratio (z) = 0.54337 0.00521
#
# Static dielectric constant tensor:
#      x y z
#    x 3.755850 0.000000 -0.131320 
#    y 0.000000 3.593280 0.000000 
#    z -0.131320 0.000000 3.734390 
# 
# 
# High freq. dielectric constant tensor:
#      x y z
#    x 1.775150 0.000000 -0.003570 
#    y 0.000000 1.775390 0.000000 
#    z -0.003570 0.000000 1.786680 
# 
# From -- ./inp_files/28583.got.cif
#   From: 2010.06.25/outbox.cif.g09.slc.cpg/sg11_15_cif.got.tgz:28583.got - 2010.06.27 23:14:04.
