data_PCOD8076769
_publ_section_title
;
Structure prediction by ZEFSAII (Michael W. Deem and Ramdas Pophale) SiO2 
 PCOD8076769
Probable space group: P 21/M
;
_chemical_formula_sum "Si O2"
_cell_formula_units_Z 32
_cell_length_a 12.186403
_cell_length_b 13.843830
_cell_length_c 16.450042
_cell_angle_alpha 90.000000
_cell_angle_beta 145.330776
_cell_angle_gamma 90.000000
_cell_volume 1578.655176
_symmetry_space_group_name_H-M "P 21/M"
_symmetry_group_IT_number 11
_symmetry_cell_setting 'monoclinic'
loop_
_space_group_symop_operation_xyz
x,y,z
-x,1/2+y,-z
-x,-y,-z
x,1/2-y,z
loop_
_atom_site_type_symbol
_atom_site_label
_atom_site_fract_x
_atom_site_fract_y
_atom_site_fract_z
Si Si1 0.140829 0.637733 0.561977
Si Si2 0.668879 0.361342 0.484406
Si Si3 0.176514 0.138778 0.515208
Si Si4 0.563667 0.027539 0.721158
Si Si5 0.823686 0.363606 0.754912
Si Si6 0.457659 0.637685 0.876191
Si Si7 0.797558 0.519858 0.022957
Si Si8 0.140536 0.640395 0.813582
O O1 0.131789 0.750000 0.581087
O O2 0.159632 0.619854 0.477205
O O3 0.333829 0.598897 0.723685
O O4 0.942294 0.596187 0.479078
O O5 0.601584 0.250000 0.440806
O O6 0.480335 0.424807 0.348954
O O7 0.756635 0.390926 0.623580
O O8 0.238347 0.250000 0.563731
O O9 0.362540 0.073505 0.624750
O O10 0.045999 0.124201 0.356110
O O11 0.663707 0.098790 0.719029
O O12 0.697986 0.014753 0.880255
O O13 0.846874 0.250000 0.780460
O O14 0.026921 0.412728 0.896991
O O15 0.511207 0.750000 0.900350
O O16 0.337878 0.618099 0.885218
O O17 0.655705 0.578141 0.996717
O O18 0.876632 0.426916 0.118542
O O19 0.144398 0.750000 0.847761
#
# Coordination Sequence:
#
# PCOD8076769 Si02
#       8
#     4   4   4   4   4   4   4   4
#     4   8  15  33  60  91 118 149 195 244 298 358
#     4  10  21  40  64  90 119 154 202 257 300 356
#     4   9  19  38  63  87 121 160 196 247 308 361
#     4  12  24  40  63  92 121 158 205 255 303 358
#     4  11  26  45  62  84 121 162 207 256 302 353
#     4   9  17  35  61  88 124 161 199 244 297 362
#     4  12  23  39  60  89 121 164 205 248 300 363
#     4   9  20  38  60  89 126 164 197 244 303 366
#
# _framework density 20.270419
#
# number of rings (size 3 to 8) (size 9 to 14) (size 15 to 20)
#    0.000    2.000    1.250    4.125    0.000    2.000 
#    4.500    1.875    0.000    0.000    0.000    0.000 
#    0.000    0.000    0.000    0.000    0.000    0.000 
#
# Total GULP energy -396850.465419 kJ/mol
# GULP energy per Si atom -12401.577044 kJ/mol
# Density = 2.022428 g / cm^3
# Si number density = 20.270419 Si / 1000 Ang^3
#
#
#
# Elastic Constant Matrix: (Units=GPa)
#
#
# Indices 1 2 3 4 5 6 
#
# 1 87.5391 45.0677 33.7206 0.0000 -9.8062 0.0000
# 2 45.0677 95.9162 43.7079 0.0000 -8.5934 0.0000
# 3 33.7206 43.7079 64.1276 0.0000 -12.3308 0.0000
# 4 0.0000 0.0000 0.0000 32.1608 0.0000 3.9991
# 5 -9.8062 -8.5934 -12.3308 0.0000 27.4205 0.0000
# 6 0.0000 0.0000 0.0000 3.9991 0.0000 31.0272
#
#
#
# Elastic Compliance Matrix: (Units=1/GPa)
#
#
# Indices 1 2 3 4 5 6 
#
# 1 0.016127 -0.005380 -0.004410 0.000000 0.002098 0.000000
# 2 -0.005380 0.016918 -0.008814 0.000000 -0.000586 0.000000
# 3 -0.004410 -0.008814 0.025271 0.000000 0.007025 0.000000
# 4 0.000000 0.000000 0.000000 0.031600 0.000000 -0.004073
# 5 0.002098 -0.000586 0.007025 0.000000 0.040195 0.000000
# 6 0.000000 0.000000 0.000000 -0.004073 0.000000 0.032755
#
#
# Mechanical properties :
#
#
# Convention : Reuss Voigt Hill
#
# Bulk Modulus (GPa) = 47.37646 54.73058 51.05352
# Shear Modulus (GPa) = 24.14175 26.46082 25.30128
#
# Velocity S-wave (km/s) = 3.45481 3.61694 3.53680
# Velocity P-wave (km/s) = 6.27194 6.67097 6.47453
#
# Compressibility (1/GPa) = 0.02110753
#
# Stress axis : x y z
#
# Youngs Moduli (GPa) = 62.00781 59.10939 39.57074
#
# Poissons Ratio (x) = 0.31801 0.17450
# Poissons Ratio (y) = 0.33360 0.34879
# Poissons Ratio (z) = 0.27344 0.52101
#
# Static dielectric constant tensor:
#      x y z
#    x 3.659630 0.000000 0.054280 
#    y 0.000000 3.778750 0.000000 
#    z 0.054280 0.000000 3.497560 
# 
# 
# High freq. dielectric constant tensor:
#      x y z
#    x 1.791670 0.000000 0.001970 
#    y 0.000000 1.804770 0.000000 
#    z 0.001970 0.000000 1.778220 
# 
# From -- ./inp_files/59531.got.cif
#   From: 2010.06.25/outbox.cif.g09.slc.cpg/sg11_30_cif.got.tgz:59531.got - 2010.06.27 23:14:04.
