data_PCOD8076692
_publ_section_title
;
Structure prediction by ZEFSAII (Michael W. Deem and Ramdas Pophale) SiO2 
 PCOD8076692
Probable space group: P 21/M
;
_chemical_formula_sum "Si O2"
_cell_formula_units_Z 32
_cell_length_a 14.280267
_cell_length_b 14.962047
_cell_length_c 11.375794
_cell_angle_alpha 90.000000
_cell_angle_beta 140.712386
_cell_angle_gamma 90.000000
_cell_volume 1539.073200
_symmetry_space_group_name_H-M "P 21/M"
_symmetry_group_IT_number 11
_symmetry_cell_setting 'monoclinic'
loop_
_space_group_symop_operation_xyz
x,y,z
-x,1/2+y,-z
-x,-y,-z
x,1/2-y,z
loop_
_atom_site_type_symbol
_atom_site_label
_atom_site_fract_x
_atom_site_fract_y
_atom_site_fract_z
Si Si1 0.915921 0.408331 0.411338
Si Si2 0.446383 0.150386 0.691080
Si Si3 0.287716 0.350860 0.036576
Si Si4 0.661247 0.650279 0.655861
Si Si5 0.104000 0.015751 0.208151
Si Si6 0.941598 0.349782 0.698160
Si Si7 0.619616 0.018784 0.018005
Si Si8 0.104529 0.151851 0.391251
O O1 0.901899 0.362048 0.523438
O O2 0.000000 0.500000 0.500000
O O3 0.018571 0.345260 0.430843
O O4 0.754205 0.424962 0.202022
O O5 0.486673 0.250000 0.775969
O O6 0.467652 0.148285 0.568562
O O7 0.555851 0.078041 0.850797
O O8 0.278650 0.126770 0.570432
O O9 0.315604 0.250000 0.015434
O O10 0.381527 0.365720 0.249164
O O11 0.335774 0.421397 0.985963
O O12 0.114426 0.365097 0.894023
O O13 0.736630 0.750000 0.722386
O O14 0.758997 0.568188 0.709750
O O15 0.025888 0.078105 0.231605
O O16 0.149162 0.921217 0.311760
O O17 0.000000 0.000000 0.000000
O O18 0.893163 0.250000 0.688335
O O19 0.500000 0.000000 0.000000
O O20 0.092423 0.250000 0.321971
#
# Coordination Sequence:
#
# PCOD8076692 Si02
#       8
#     4   4   4   4   4   4   4   4
#     4  12  22  41  63  89 123 160 215 260 309 367
#     4   9  21  40  63  90 123 160 205 253 311 373
#     4  10  21  40  64  92 121 161 212 255 305 372
#     4   9  19  38  65  91 119 161 209 254 304 374
#     4  11  19  31  59  93 127 156 199 256 303 367
#     4  11  23  38  60  91 127 165 205 257 313 367
#     4  12  26  40  63  92 124 166 207 260 315 369
#     4  10  21  39  65  92 120 163 208 255 309 369
#
# _framework density 20.791734000000002
#
# number of rings (size 3 to 8) (size 9 to 14) (size 15 to 20)
#    0.000    1.500    3.750    2.250    1.750    2.500 
#    0.000    0.000    0.000    0.000    0.000    0.000 
#    0.000    0.000    0.000    0.000    0.000    0.000 
#
# Total GULP energy -396533.855865 kJ/mol
# GULP energy per Si atom -12391.682996 kJ/mol
# Density = 2.074441 g / cm^3
# Si number density = 20.791734 Si / 1000 Ang^3
#
#
#
# Elastic Constant Matrix: (Units=GPa)
#
#
# Indices 1 2 3 4 5 6 
#
# 1 44.8863 25.4840 15.2937 0.0000 -12.5155 0.0000
# 2 25.4840 150.7545 37.9051 0.0000 -9.4489 0.0000
# 3 15.2937 37.9051 104.9207 0.0000 -15.5410 0.0000
# 4 0.0000 0.0000 0.0000 31.8293 0.0000 -2.7912
# 5 -12.5155 -9.4489 -15.5410 0.0000 30.6124 0.0000
# 6 0.0000 0.0000 0.0000 -2.7912 0.0000 28.3577
#
#
#
# Elastic Compliance Matrix: (Units=1/GPa)
#
#
# Indices 1 2 3 4 5 6 
#
# 1 0.027457 -0.003734 -0.001256 0.000000 0.009436 0.000000
# 2 -0.003734 0.007832 -0.002328 0.000000 -0.000291 0.000000
# 3 -0.001256 -0.002328 0.011216 0.000000 0.004462 0.000000
# 4 0.000000 0.000000 0.000000 0.031691 0.000000 0.003119
# 5 0.009436 -0.000291 0.004462 0.000000 0.038700 0.000000
# 6 0.000000 0.000000 0.000000 0.003119 0.000000 0.035571
#
#
# Mechanical properties :
#
#
# Convention : Reuss Voigt Hill
#
# Bulk Modulus (GPa) = 31.37862 50.88080 41.12971
# Shear Modulus (GPa) = 28.13322 32.95179 30.54251
#
# Velocity S-wave (km/s) = 3.68244 3.98534 3.83688
# Velocity P-wave (km/s) = 5.76239 6.76032 6.28121
#
# Compressibility (1/GPa) = 0.03186883
#
# Stress axis : x y z
#
# Youngs Moduli (GPa) = 36.42011 127.68603 89.15767
#
# Poissons Ratio (x) = 0.47683 0.11194
# Poissons Ratio (y) = 0.13601 0.20758
# Poissons Ratio (z) = 0.04573 0.29728
#
# Static dielectric constant tensor:
#      x y z
#    x 3.466840 0.000000 -0.377900 
#    y 0.000000 3.075470 0.000000 
#    z -0.377900 0.000000 3.545550 
# 
# 
# High freq. dielectric constant tensor:
#      x y z
#    x 1.787740 0.000000 -0.033570 
#    y 0.000000 1.836230 0.000000 
#    z -0.033570 0.000000 1.804640 
# 
# From -- ./inp_files/39697.got.cif
#   From: 2010.06.25/outbox.cif.g09.slc.cpg/sg11_20_cif.got.tgz:39697.got - 2010.06.27 23:14:04.
