data_PCOD8076785
_publ_section_title
;
Structure prediction by ZEFSAII (Michael W. Deem and Ramdas Pophale) SiO2 
 PCOD8076785
Probable space group: P 21/M
;
_chemical_formula_sum "Si O2"
_cell_formula_units_Z 28
_cell_length_a 26.911720
_cell_length_b 8.939626
_cell_length_c 9.248512
_cell_angle_alpha 90.000000
_cell_angle_beta 39.235682
_cell_angle_gamma 90.000000
_cell_volume 1407.347337
_symmetry_space_group_name_H-M "P 21/M"
_symmetry_group_IT_number 11
_symmetry_cell_setting 'monoclinic'
loop_
_space_group_symop_operation_xyz
x,y,z
-x,1/2+y,-z
-x,-y,-z
x,1/2-y,z
loop_
_atom_site_type_symbol
_atom_site_label
_atom_site_fract_x
_atom_site_fract_y
_atom_site_fract_z
Si Si1 0.199300 0.426609 0.831085
Si Si2 0.509651 0.926520 0.822733
Si Si3 0.655786 0.924815 0.303719
Si Si4 0.219475 0.573103 0.484993
Si Si5 0.364384 0.574364 0.959054
Si Si6 0.039657 0.582649 0.280137
Si Si7 0.062916 0.417370 0.762553
O O1 0.192410 0.250000 0.825784
O O2 0.258169 0.466759 0.829271
O O3 0.233478 0.497748 0.608251
O O4 0.113828 0.492198 0.054413
O O5 0.504172 0.750000 0.857758
O O6 0.591968 0.976348 0.566393
O O7 0.441697 0.983292 0.867583
O O8 0.500000 0.000000 0.000000
O O9 0.647494 0.750000 0.293955
O O10 0.641014 0.003675 0.185976
O O11 0.212369 0.750000 0.522995
O O12 0.141940 0.512366 0.582636
O O13 0.290474 0.526217 0.221804
O O14 0.367336 0.750000 0.929505
O O15 0.067135 0.750000 0.261154
O O16 0.000000 0.500000 0.500000
O O17 0.970003 0.592016 0.323056
O O18 0.078859 0.250000 0.787556
O O19 0.000000 0.500000 0.000000
#
# Coordination Sequence:
#
# PCOD8076785 Si02
#       7
#     4   4   4   4   4   4   4
#     4  11  23  40  61  88 120 158 203 250 301 359
#     4  10  21  40  64  92 124 159 201 245 293 353
#     4  10  23  40  61  90 124 159 200 247 297 355
#     4  11  23  39  60  89 121 157 203 250 301 360
#     4  10  23  40  61  91 124 159 200 246 297 355
#     4  11  25  42  62  88 120 158 202 250 304 362
#     4  11  23  40  63  89 118 157 203 250 302 359
#
# _framework density 19.895585000000001
#
# number of rings (size 3 to 8) (size 9 to 14) (size 15 to 20)
#    0.000    1.429    1.429    3.000    2.000    5.143 
#    0.000    0.000    0.000    0.000    0.000    0.000 
#    0.000    0.000    0.000    0.000    0.000    0.000 
#
# Total GULP energy -347286.272345 kJ/mol
# GULP energy per Si atom -12403.081155 kJ/mol
# Density = 1.985030 g / cm^3
# Si number density = 19.895585 Si / 1000 Ang^3
#
#
#
# Elastic Constant Matrix: (Units=GPa)
#
#
# Indices 1 2 3 4 5 6 
#
# 1 126.6335 39.6822 45.8699 0.0000 7.1202 0.0000
# 2 39.6822 86.9754 45.5750 0.0000 8.1911 0.0000
# 3 45.8699 45.5750 106.8399 0.0000 13.3697 0.0000
# 4 0.0000 0.0000 0.0000 32.8193 0.0000 6.7255
# 5 7.1202 8.1911 13.3697 0.0000 41.3883 0.0000
# 6 0.0000 0.0000 0.0000 6.7255 0.0000 36.2641
#
#
#
# Elastic Compliance Matrix: (Units=1/GPa)
#
#
# Indices 1 2 3 4 5 6 
#
# 1 0.009907 -0.002945 -0.002977 0.000000 -0.000160 0.000000
# 2 -0.002945 0.015717 -0.005330 0.000000 -0.000882 0.000000
# 3 -0.002977 -0.005330 0.013251 0.000000 -0.002714 0.000000
# 4 0.000000 0.000000 0.000000 0.031674 0.000000 -0.005874
# 5 -0.000160 -0.000882 -0.002714 0.000000 0.025240 0.000000
# 6 0.000000 0.000000 0.000000 -0.005874 0.000000 0.028665
#
#
# Mechanical properties :
#
#
# Convention : Reuss Voigt Hill
#
# Bulk Modulus (GPa) = 61.08196 64.74479 62.91338
# Shear Modulus (GPa) = 32.80528 34.71578 33.76053
#
# Velocity S-wave (km/s) = 4.06504 4.18173 4.12380
# Velocity P-wave (km/s) = 7.26640 7.47855 7.37324
#
# Compressibility (1/GPa) = 0.01637145
#
# Stress axis : x y z
#
# Youngs Moduli (GPa) = 100.93836 63.62555 75.46563
#
# Poissons Ratio (x) = 0.18738 0.22467
# Poissons Ratio (y) = 0.29726 0.40221
# Poissons Ratio (z) = 0.30051 0.33910
#
# Static dielectric constant tensor:
#      x y z
#    x 3.751440 0.000000 0.066520 
#    y 0.000000 3.715480 0.000000 
#    z 0.066520 0.000000 3.665610 
# 
# 
# High freq. dielectric constant tensor:
#      x y z
#    x 1.791370 0.000000 -0.002810 
#    y 0.000000 1.781970 0.000000 
#    z -0.002810 0.000000 1.786420 
# 
# From -- ./inp_files/28319.got.cif
#   From: 2010.06.25/outbox.cif.g09.slc.cpg/sg11_15_cif.got.tgz:28319.got - 2010.06.27 23:14:04.
