data_PCOD8076703
_publ_section_title
;
Structure prediction by ZEFSAII (Michael W. Deem and Ramdas Pophale) SiO2 
 PCOD8076703
Probable space group: P 21/M
;
_chemical_formula_sum "Si O2"
_cell_formula_units_Z 20
_cell_length_a 6.700438
_cell_length_b 14.540739
_cell_length_c 11.726729
_cell_angle_alpha 90.000000
_cell_angle_beta 54.461356
_cell_angle_gamma 90.000000
_cell_volume 929.701453
_symmetry_space_group_name_H-M "P 21/M"
_symmetry_group_IT_number 11
_symmetry_cell_setting 'monoclinic'
loop_
_space_group_symop_operation_xyz
x,y,z
-x,1/2+y,-z
-x,-y,-z
x,1/2-y,z
loop_
_atom_site_type_symbol
_atom_site_label
_atom_site_fract_x
_atom_site_fract_y
_atom_site_fract_z
Si Si1 0.904676 0.148801 0.746571
Si Si2 0.244918 0.855495 0.446920
Si Si3 0.391696 0.087080 0.973866
Si Si4 0.084519 0.853173 0.748356
Si Si5 0.280472 0.465069 0.761366
O O1 0.019105 0.250000 0.729602
O O2 0.924904 0.120827 0.606113
O O3 0.616558 0.154727 0.872789
O O4 0.040980 0.074359 0.777716
O O5 0.339166 0.750000 0.406317
O O6 0.083328 0.871061 0.612960
O O7 0.477105 0.923406 0.376042
O O8 0.258124 0.057564 0.901576
O O9 0.195009 0.137622 0.118070
O O10 0.500000 0.000000 0.000000
O O11 0.178951 0.750000 0.744863
O O12 0.269151 0.924570 0.748514
#
# Coordination Sequence:
#
# PCOD8076703 Si02
#       5
#     4   4   4   4   4
#     4  10  21  39  66  90 120 165 207 249 303 367
#     4   9  21  41  63  93 127 160 204 251 304 366
#     4  11  23  43  61  88 124 162 207 253 309 367
#     4  11  23  41  63  92 128 160 201 261 310 356
#     4  11  22  41  66  90 123 165 211 246 303 375
#
# _framework density 21.512283
#
# number of rings (size 3 to 8) (size 9 to 14) (size 15 to 20)
#    0.000    1.600    2.000    2.400    0.000    3.200 
#    3.600    1.000    0.000    0.000    0.000    0.000 
#    0.000    0.000    0.000    0.000    0.000    0.000 
#
# Total GULP energy -248039.695165 kJ/mol
# GULP energy per Si atom -12401.984758 kJ/mol
# Density = 2.146332 g / cm^3
# Si number density = 21.512283 Si / 1000 Ang^3
#
#
#
# Elastic Constant Matrix: (Units=GPa)
#
#
# Indices 1 2 3 4 5 6 
#
# 1 96.6166 50.7224 59.7628 0.0000 19.6726 0.0000
# 2 50.7224 124.1742 47.0565 0.0000 11.2450 0.0000
# 3 59.7628 47.0565 163.3871 0.0000 -1.0155 0.0000
# 4 0.0000 0.0000 0.0000 26.9281 0.0000 -1.4390
# 5 19.6726 11.2450 -1.0155 0.0000 24.0103 0.0000
# 6 0.0000 0.0000 0.0000 -1.4390 0.0000 27.1182
#
#
#
# Elastic Compliance Matrix: (Units=1/GPa)
#
#
# Indices 1 2 3 4 5 6 
#
# 1 0.019013 -0.004320 -0.005796 0.000000 -0.013800 0.000000
# 2 -0.004320 0.010499 -0.001452 0.000000 -0.001439 0.000000
# 3 -0.005796 -0.001452 0.008695 0.000000 0.005797 0.000000
# 4 0.000000 0.000000 0.000000 0.037242 0.000000 0.001976
# 5 -0.013800 -0.001439 0.005797 0.000000 0.053875 0.000000
# 6 0.000000 0.000000 0.000000 0.001976 0.000000 0.036980
#
#
# Mechanical properties :
#
#
# Convention : Reuss Voigt Hill
#
# Bulk Modulus (GPa) = 66.36024 77.69571 72.02798
# Shear Modulus (GPa) = 25.71163 30.72039 28.21601
#
# Velocity S-wave (km/s) = 3.46093 3.78304 3.62556
# Velocity P-wave (km/s) = 6.84728 7.43486 7.14711
#
# Compressibility (1/GPa) = 0.01506926
#
# Stress axis : x y z
#
# Youngs Moduli (GPa) = 52.59424 95.25059 115.01112
#
# Poissons Ratio (x) = 0.41152 0.66662
# Poissons Ratio (y) = 0.22723 0.16703
# Poissons Ratio (z) = 0.30484 0.13833
#
# Static dielectric constant tensor:
#      x y z
#    x 3.675640 0.000000 -0.059960 
#    y 0.000000 4.100910 0.000000 
#    z -0.059960 0.000000 4.224130 
# 
# 
# High freq. dielectric constant tensor:
#      x y z
#    x 1.823260 0.000000 0.002410 
#    y 0.000000 1.854040 0.000000 
#    z 0.002410 0.000000 1.859600 
# 
# From -- ./inp_files/10057.got.cif
#   From: 2010.06.25/outbox.cif.g09.slc.cpg/sg11_6_cif.got.tgz:10057.got - 2010.06.27 23:14:04.
