data_PCOD8076176
_publ_section_title
;
Structure prediction by ZEFSAII (Michael W. Deem and Ramdas Pophale) SiO2 
 PCOD8076176
Probable space group: P 21/M
;
_chemical_formula_sum "Si O2"
_cell_formula_units_Z 28
_cell_length_a 8.629888
_cell_length_b 20.917576
_cell_length_c 7.740547
_cell_angle_alpha 90.000000
_cell_angle_beta 106.495458
_cell_angle_gamma 90.000000
_cell_volume 1339.785668
_symmetry_space_group_name_H-M "P 21/M"
_symmetry_group_IT_number 11
_symmetry_cell_setting 'monoclinic'
loop_
_space_group_symop_operation_xyz
x,y,z
-x,1/2+y,-z
-x,-y,-z
x,1/2-y,z
loop_
_atom_site_type_symbol
_atom_site_label
_atom_site_fract_x
_atom_site_fract_y
_atom_site_fract_z
Si Si1 0.181469 0.073914 0.839805
Si Si2 0.509881 0.647069 0.978397
Si Si3 0.885662 0.936766 0.793165
Si Si4 0.762792 0.061511 0.236065
Si Si5 0.617469 0.319657 0.710501
Si Si6 0.360373 0.321223 0.338914
Si Si7 0.163567 0.576404 0.361677
O O1 0.024250 0.097861 0.685601
O O2 0.258755 0.014590 0.762935
O O3 0.313110 0.128281 0.897664
O O4 0.117225 0.049548 0.004451
O O5 0.390085 0.587324 0.917110
O O6 0.530943 0.681834 0.801420
O O7 0.438269 0.689911 0.108622
O O8 0.774714 0.876018 0.711458
O O9 0.067150 0.919052 0.796274
O O10 0.821010 0.001482 0.682448
O O11 0.755905 0.088452 0.427702
O O12 0.688634 0.250000 0.677441
O O13 0.469310 0.337851 0.538774
O O14 0.748875 0.376174 0.744578
O O15 0.283264 0.250000 0.336024
#
# Coordination Sequence:
#
# PCOD8076176 Si02
#       7
#     4   4   4   4   4   4   4
#     4  10  21  37  60  94 126 157 203 254 303 367
#     4  11  22  40  64  91 122 161 206 248 309 359
#     4  10  21  38  64  89 125 162 204 252 306 359
#     4  11  21  37  61  94 127 161 199 258 304 360
#     4  11  24  42  64  88 124 165 203 254 307 362
#     4  10  23  43  61  92 125 158 205 254 305 364
#     4  11  22  39  62  92 126 160 208 249 304 366
#
# _framework density 20.898864
#
# number of rings (size 3 to 8) (size 9 to 14) (size 15 to 20)
#    0.000    1.429    1.429    6.000    4.000    1.714 
#    0.000    8.571    0.000    0.000    0.000    0.000 
#    0.000    0.000    0.000    0.000    0.000    0.000 
#
# Total GULP energy -347109.502495 kJ/mol
# GULP energy per Si atom -12396.767946 kJ/mol
# Density = 2.085130 g / cm^3
# Si number density = 20.898864 Si / 1000 Ang^3
#
#
#
# Elastic Constant Matrix: (Units=GPa)
#
#
# Indices 1 2 3 4 5 6 
#
# 1 51.8775 38.7144 2.3064 0.0000 -4.1276 0.0000
# 2 38.7144 96.3259 7.5963 0.0000 13.5437 0.0000
# 3 2.3064 7.5963 81.9350 0.0000 -1.3302 0.0000
# 4 0.0000 0.0000 0.0000 14.9180 0.0000 -5.9705
# 5 -4.1276 13.5437 -1.3302 0.0000 31.8074 0.0000
# 6 0.0000 0.0000 0.0000 -5.9705 0.0000 13.0726
#
#
#
# Elastic Compliance Matrix: (Units=1/GPa)
#
#
# Indices 1 2 3 4 5 6 
#
# 1 0.030097 -0.013501 0.000562 0.000000 0.009678 0.000000
# 2 -0.013501 0.017199 -0.001363 0.000000 -0.009133 0.000000
# 3 0.000562 -0.001363 0.012334 0.000000 0.001169 0.000000
# 4 0.000000 0.000000 0.000000 0.082027 0.000000 0.037463
# 5 0.009678 -0.009133 0.001169 0.000000 0.036633 0.000000
# 6 0.000000 0.000000 0.000000 0.037463 0.000000 0.093606
#
#
# Mechanical properties :
#
#
# Convention : Reuss Voigt Hill
#
# Bulk Modulus (GPa) = 32.23151 36.37474 34.30312
# Shear Modulus (GPa) = 16.08534 24.06103 20.07318
#
# Velocity S-wave (km/s) = 2.77731 3.39677 3.10254
# Velocity P-wave (km/s) = 5.07353 5.72949 5.41146
#
# Compressibility (1/GPa) = 0.03102554
#
# Stress axis : x y z
#
# Youngs Moduli (GPa) = 33.22613 58.14205 81.07464
#
# Poissons Ratio (x) = 0.78499 -0.04554
# Poissons Ratio (y) = 0.44859 0.11049
# Poissons Ratio (z) = -0.01866 0.07924
#
# Static dielectric constant tensor:
#      x y z
#    x 3.688220 0.000000 -0.086910 
#    y 0.000000 3.538090 0.000000 
#    z -0.086910 0.000000 3.962350 
# 
# 
# High freq. dielectric constant tensor:
#      x y z
#    x 1.808780 0.000000 -0.002390 
#    y 0.000000 1.806680 0.000000 
#    z -0.002390 0.000000 1.836450 
# 
# From -- ./inp_files/14073.got.cif
#   From: 2010.06.25/outbox.cif.g09.slc.cpg/sg11_8_cif.got.tgz:14073.got - 2010.06.27 23:14:04.
