data_PCOD8076285
_publ_section_title
;
Structure prediction by ZEFSAII (Michael W. Deem and Ramdas Pophale) SiO2 
 PCOD8076285
Probable space group: P 21/M
;
_chemical_formula_sum "Si O2"
_cell_formula_units_Z 32
_cell_length_a 12.848538
_cell_length_b 12.068212
_cell_length_c 11.313054
_cell_angle_alpha 90.000000
_cell_angle_beta 108.510306
_cell_angle_gamma 90.000000
_cell_volume 1663.439240
_symmetry_space_group_name_H-M "P 21/M"
_symmetry_group_IT_number 11
_symmetry_cell_setting 'monoclinic'
loop_
_space_group_symop_operation_xyz
x,y,z
-x,1/2+y,-z
-x,-y,-z
x,1/2-y,z
loop_
_atom_site_type_symbol
_atom_site_label
_atom_site_fract_x
_atom_site_fract_y
_atom_site_fract_z
Si Si1 0.302611 0.872388 0.664165
Si Si2 0.078075 0.962487 0.633482
Si Si3 0.839257 0.492796 0.956711
Si Si4 0.797575 0.872056 0.165654
Si Si5 0.628347 0.126996 0.804513
Si Si6 0.427463 0.041790 0.866553
Si Si7 0.983694 0.623276 0.840581
Si Si8 0.568415 0.118465 0.522912
O O1 0.337144 0.750000 0.711557
O O2 0.170403 0.880037 0.615835
O O3 0.346495 0.902594 0.550850
O O4 0.360280 0.941257 0.787250
O O5 0.009385 0.905868 0.713944
O O6 0.146359 0.066483 0.705128
O O7 0.000000 0.000000 0.500000
O O8 0.714856 0.455265 0.894161
O O9 0.886951 0.542499 0.852017
O O10 0.840949 0.586931 0.055795
O O11 0.912082 0.391787 0.034243
O O12 0.842067 0.750000 0.194633
O O13 0.664840 0.872767 0.122478
O O14 0.656125 0.250000 0.859124
O O15 0.504599 0.097190 0.796523
O O16 0.637627 0.119083 0.667407
O O17 0.500000 0.000000 0.000000
O O18 0.944724 0.750000 0.832554
O O19 0.516263 0.250000 0.492739
O O20 0.500000 0.000000 0.500000
#
# Coordination Sequence:
#
# PCOD8076285 Si02
#       8
#     4   4   4   4   4   4   4   4
#     4  10  22  40  63  86 119 158 200 249 302 361
#     4  10  23  40  61  86 117 153 201 255 297 364
#     4  10  21  38  59  86 118 149 196 246 296 357
#     4  10  21  38  58  86 121 158 195 244 303 357
#     4  11  22  37  61  87 117 156 200 244 295 361
#     4  11  21  38  57  89 124 157 197 240 294 363
#     4  10  21  39  61  83 114 153 193 246 303 353
#     4  10  21  40  63  87 118 159 200 245 297 356
#
# _framework density 19.237251000000001
#
# number of rings (size 3 to 8) (size 9 to 14) (size 15 to 20)
#    0.000    1.750    2.500    1.500    1.750    2.000 
#    0.000    1.875    0.000    0.000    0.000    0.000 
#    0.000    0.000    0.000    0.000    0.000    0.000 
#
# Total GULP energy -396502.104133 kJ/mol
# GULP energy per Si atom -12390.690754 kJ/mol
# Density = 1.919347 g / cm^3
# Si number density = 19.237251 Si / 1000 Ang^3
#
#
#
# Elastic Constant Matrix: (Units=GPa)
#
#
# Indices 1 2 3 4 5 6 
#
# 1 106.8027 28.1927 37.5991 0.0000 -9.5024 0.0000
# 2 28.1927 107.6939 29.4262 0.0000 -0.7620 0.0000
# 3 37.5991 29.4262 99.3445 0.0000 -3.3574 0.0000
# 4 0.0000 0.0000 0.0000 17.4595 0.0000 -2.4267
# 5 -9.5024 -0.7620 -3.3574 0.0000 34.5743 0.0000
# 6 0.0000 0.0000 0.0000 -2.4267 0.0000 21.2432
#
#
#
# Elastic Compliance Matrix: (Units=1/GPa)
#
#
# Indices 1 2 3 4 5 6 
#
# 1 0.011409 -0.001972 -0.003641 0.000000 0.002739 0.000000
# 2 -0.001972 0.010444 -0.002365 0.000000 -0.000542 0.000000
# 3 -0.003641 -0.002365 0.012149 0.000000 0.000127 0.000000
# 4 0.000000 0.000000 0.000000 0.058199 0.000000 0.006648
# 5 0.002739 -0.000542 0.000127 0.000000 0.029676 0.000000
# 6 0.000000 0.000000 0.000000 0.006648 0.000000 0.047833
#
#
# Mechanical properties :
#
#
# Convention : Reuss Voigt Hill
#
# Bulk Modulus (GPa) = 55.41902 56.03080 55.72491
# Shear Modulus (GPa) = 26.08449 29.23029 27.65739
#
# Velocity S-wave (km/s) = 3.68630 3.90226 3.79581
# Velocity P-wave (km/s) = 6.85486 7.03512 6.94558
#
# Compressibility (1/GPa) = 0.01804435
#
# Stress axis : x y z
#
# Youngs Moduli (GPa) = 87.64790 95.74471 82.31092
#
# Poissons Ratio (x) = 0.18885 0.29972
# Poissons Ratio (y) = 0.17288 0.19470
# Poissons Ratio (z) = 0.31915 0.22648
#
# Static dielectric constant tensor:
#      x y z
#    x 3.761210 0.000000 -0.196000 
#    y 0.000000 3.873810 0.000000 
#    z -0.196000 0.000000 3.379920 
# 
# 
# High freq. dielectric constant tensor:
#      x y z
#    x 1.751940 0.000000 -0.018660 
#    y 0.000000 1.755230 0.000000 
#    z -0.018660 0.000000 1.744410 
# 
# From -- ./inp_files/35109.got.cif
#   From: 2010.06.25/outbox.cif.g09.slc.cpg/sg11_18_cif.got.tgz:35109.got - 2010.06.27 23:14:04.
