data_PCOD8076905
_publ_section_title
;
Structure prediction by ZEFSAII (Michael W. Deem and Ramdas Pophale) SiO2 
 PCOD8076905
Probable space group: P 21/M
;
_chemical_formula_sum "Si O2"
_cell_formula_units_Z 28
_cell_length_a 29.452770
_cell_length_b 8.455316
_cell_length_c 9.825709
_cell_angle_alpha 90.000000
_cell_angle_beta 147.179226
_cell_angle_gamma 90.000000
_cell_volume 1326.262665
_symmetry_space_group_name_H-M "P 21/M"
_symmetry_group_IT_number 11
_symmetry_cell_setting 'monoclinic'
loop_
_space_group_symop_operation_xyz
x,y,z
-x,1/2+y,-z
-x,-y,-z
x,1/2-y,z
loop_
_atom_site_type_symbol
_atom_site_label
_atom_site_fract_x
_atom_site_fract_y
_atom_site_fract_z
Si Si1 0.429987 0.934503 0.562211
Si Si2 0.310692 0.063519 0.037541
Si Si3 0.858031 0.566467 0.982453
Si Si4 0.332182 0.066961 0.562849
Si Si5 0.007445 0.565303 0.867244
Si Si6 0.131827 0.061848 0.689743
Si Si7 0.609375 0.068350 0.016991
O O1 0.407396 0.750000 0.505585
O O2 0.386463 0.020953 0.327296
O O3 0.401447 0.016734 0.628848
O O4 0.529135 0.956231 0.797853
O O5 0.308269 0.250000 0.006708
O O6 0.323070 0.974811 0.926940
O O7 0.223434 0.000183 0.878802
O O8 0.878856 0.750000 0.014659
O O9 0.759240 0.535021 0.728034
O O10 0.888899 0.504308 0.208457
O O11 0.902937 0.472940 0.973713
O O12 0.345244 0.250000 0.633659
O O13 0.344193 0.959840 0.724501
O O14 0.994556 0.750000 0.845780
O O15 0.936033 0.492493 0.587601
O O16 0.000000 0.500000 0.000000
O O17 0.131462 0.250000 0.688123
O O18 0.581420 0.250000 0.934395
#
# Coordination Sequence:
#
# PCOD8076905 Si02
#       7
#     4   4   4   4   4   4   4
#     4  12  24  42  65  94 127 166 214 265 320 378
#     4  11  22  42  67  93 125 169 217 262 317 379
#     4  10  21  42  68  93 123 165 210 256 314 376
#     4  11  23  42  67  93 125 169 214 263 320 381
#     4  11  24  41  64  97 132 167 206 255 311 372
#     4   9  20  41  67  92 123 166 210 253 310 375
#     4  12  26  42  61  92 131 169 212 266 322 377
#
# _framework density 21.111955999999999
#
# number of rings (size 3 to 8) (size 9 to 14) (size 15 to 20)
#    0.000    1.143    1.429    5.143    2.000    1.143 
#    0.000    2.857    0.000    0.000    0.000    0.000 
#    0.000    0.000    0.000    0.000    0.000    0.000 
#
# Total GULP energy -347361.222840 kJ/mol
# GULP energy per Si atom -12405.757959 kJ/mol
# Density = 2.106390 g / cm^3
# Si number density = 21.111956 Si / 1000 Ang^3
#
#
#
# Elastic Constant Matrix: (Units=GPa)
#
#
# Indices 1 2 3 4 5 6 
#
# 1 144.6512 24.3260 26.8946 0.0000 -18.6759 0.0000
# 2 24.3260 65.8334 20.2234 0.0000 -1.0567 0.0000
# 3 26.8946 20.2234 75.1980 0.0000 -7.5095 0.0000
# 4 0.0000 0.0000 0.0000 31.0350 0.0000 -5.3296
# 5 -18.6759 -1.0567 -7.5095 0.0000 41.6594 0.0000
# 6 0.0000 0.0000 0.0000 -5.3296 0.0000 47.9164
#
#
#
# Elastic Compliance Matrix: (Units=1/GPa)
#
#
# Indices 1 2 3 4 5 6 
#
# 1 0.008082 -0.002339 -0.001941 0.000000 0.003214 0.000000
# 2 -0.002339 0.017241 -0.003932 0.000000 -0.001320 0.000000
# 3 -0.001941 -0.003932 0.015227 0.000000 0.001775 0.000000
# 4 0.000000 0.000000 0.000000 0.032849 0.000000 0.003654
# 5 0.003214 -0.001320 0.001775 0.000000 0.025732 0.000000
# 6 0.000000 0.000000 0.000000 0.003654 0.000000 0.021276
#
#
# Mechanical properties :
#
#
# Convention : Reuss Voigt Hill
#
# Bulk Modulus (GPa) = 41.44697 47.61894 44.53296
# Shear Modulus (GPa) = 34.51321 38.40474 36.45898
#
# Velocity S-wave (km/s) = 4.04762 4.26972 4.16015
# Velocity P-wave (km/s) = 6.44351 6.84921 6.64946
#
# Compressibility (1/GPa) = 0.02412721
#
# Stress axis : x y z
#
# Youngs Moduli (GPa) = 123.72738 58.00218 65.67262
#
# Poissons Ratio (x) = 0.13565 0.12745
# Poissons Ratio (y) = 0.28936 0.25823
# Poissons Ratio (z) = 0.24012 0.22807
#
# Static dielectric constant tensor:
#      x y z
#    x 3.757880 0.000000 -0.012410 
#    y 0.000000 3.658730 0.000000 
#    z -0.012410 0.000000 3.918940 
# 
# 
# High freq. dielectric constant tensor:
#      x y z
#    x 1.842360 0.000000 -0.005010 
#    y 0.000000 1.816890 0.000000 
#    z -0.005010 0.000000 1.834530 
# 
# From -- ./inp_files/28566.got.cif
#   From: 2010.06.25/outbox.cif.g09.slc.cpg/sg11_15_cif.got.tgz:28566.got - 2010.06.27 23:14:04.
