data_PCOD8076707
_publ_section_title
;
Structure prediction by ZEFSAII (Michael W. Deem and Ramdas Pophale) SiO2 
 PCOD8076707
Probable space group: P 21/M
;
_chemical_formula_sum "Si O2"
_cell_formula_units_Z 28
_cell_length_a 22.075632
_cell_length_b 8.979190
_cell_length_c 24.263548
_cell_angle_alpha 90.000000
_cell_angle_beta 17.257232
_cell_angle_gamma 90.000000
_cell_volume 1426.811845
_symmetry_space_group_name_H-M "P 21/M"
_symmetry_group_IT_number 11
_symmetry_cell_setting 'monoclinic'
loop_
_space_group_symop_operation_xyz
x,y,z
-x,1/2+y,-z
-x,-y,-z
x,1/2-y,z
loop_
_atom_site_type_symbol
_atom_site_label
_atom_site_fract_x
_atom_site_fract_y
_atom_site_fract_z
Si Si1 0.876310 0.575374 0.032316
Si Si2 0.289609 0.074824 0.703116
Si Si3 0.821146 0.925487 0.872500
Si Si4 0.050681 0.909554 0.509607
Si Si5 0.374901 0.409784 0.064574
Si Si6 0.246541 0.574485 0.446834
Si Si7 0.657318 0.073686 0.121151
O O1 0.909800 0.750000 0.993194
O O2 0.748443 0.545676 0.199136
O O3 0.742310 0.504781 0.101163
O O4 0.098085 0.497963 0.838039
O O5 0.298525 0.250000 0.681849
O O6 0.500000 0.000000 0.500000
O O7 0.790532 0.750000 0.910759
O O8 0.652610 0.978958 0.972827
O O9 0.049488 0.959672 0.654745
O O10 0.788264 0.021219 0.955299
O O11 0.131677 0.750000 0.418382
O O12 0.214046 0.978020 0.410875
O O13 0.851578 0.885285 0.718209
O O14 0.000000 0.000000 0.500000
O O15 0.485299 0.250000 0.964003
O O16 0.500000 0.500000 0.000000
O O17 0.300748 0.750000 0.400985
O O18 0.424309 0.475877 0.317453
O O19 0.671844 0.250000 0.115000
#
# Coordination Sequence:
#
# PCOD8076707 Si02
#       7
#     4   4   4   4   4   4   4
#     4  10  22  41  63  90 124 163 206 244 285 346
#     4  10  21  39  66  97 129 164 201 243 290 339
#     4   9  20  40  60  78 109 152 196 241 293 358
#     4   9  19  34  52  76 104 135 178 230 287 350
#     4   9  19  34  52  76 104 136 179 231 288 351
#     4   9  20  40  60  78 108 151 196 240 291 358
#     4  12  25  38  59  89 121 156 196 249 302 350
#
# _framework density 19.624171
#
# number of rings (size 3 to 8) (size 9 to 14) (size 15 to 20)
#    0.000    2.286    0.000    3.857    2.000    5.143 
#    0.000    4.286    0.000    0.000    0.000    0.000 
#    0.000    0.000    0.000    0.000    0.000    0.000 
#
# Total GULP energy -346970.389444 kJ/mol
# GULP energy per Si atom -12391.799623 kJ/mol
# Density = 1.957951 g / cm^3
# Si number density = 19.624171 Si / 1000 Ang^3
#
#
#
# Elastic Constant Matrix: (Units=GPa)
#
#
# Indices 1 2 3 4 5 6 
#
# 1 149.5143 66.9851 52.7469 0.0000 -20.5813 0.0000
# 2 66.9851 106.7461 50.8985 0.0000 -7.7813 0.0000
# 3 52.7469 50.8985 115.3096 0.0000 -7.7957 0.0000
# 4 0.0000 0.0000 0.0000 31.7829 0.0000 -3.4813
# 5 -20.5813 -7.7813 -7.7957 0.0000 30.1270 0.0000
# 6 0.0000 0.0000 0.0000 -3.4813 0.0000 37.9053
#
#
#
# Elastic Compliance Matrix: (Units=1/GPa)
#
#
# Indices 1 2 3 4 5 6 
#
# 1 0.010493 -0.005169 -0.002161 0.000000 0.005274 0.000000
# 2 -0.005169 0.014502 -0.004094 0.000000 -0.000845 0.000000
# 3 -0.002161 -0.004094 0.011498 0.000000 0.000441 0.000000
# 4 0.000000 0.000000 0.000000 0.031783 0.000000 0.002919
# 5 0.005274 -0.000845 0.000441 0.000000 0.036691 0.000000
# 6 0.000000 0.000000 0.000000 0.002919 0.000000 0.026650
#
#
# Mechanical properties :
#
#
# Convention : Reuss Voigt Hill
#
# Bulk Modulus (GPa) = 73.29442 79.20345 76.24893
# Shear Modulus (GPa) = 31.44365 33.35901 32.40133
#
# Velocity S-wave (km/s) = 4.00721 4.12745 4.06777
# Velocity P-wave (km/s) = 7.67075 7.94747 7.81033
#
# Compressibility (1/GPa) = 0.01364360
#
# Stress axis : x y z
#
# Youngs Moduli (GPa) = 95.30369 68.95448 86.97206
#
# Poissons Ratio (x) = 0.35645 0.18799
# Poissons Ratio (y) = 0.49266 0.35606
# Poissons Ratio (z) = 0.20600 0.28229
#
# Static dielectric constant tensor:
#      x y z
#    x 2.619310 0.000000 0.173090 
#    y 0.000000 3.403470 0.000000 
#    z 0.173090 0.000000 3.584370 
# 
# 
# High freq. dielectric constant tensor:
#      x y z
#    x 1.772610 0.000000 -0.001790 
#    y 0.000000 1.756580 0.000000 
#    z -0.001790 0.000000 1.772610 
# 
# From -- ./inp_files/69788.got.cif
#   From: 2010.06.25/outbox.cif.g09.slc.cpg/sg11_35_cif.got.tgz:69788.got - 2010.06.27 23:14:04.
