data_PCOD8076487
_publ_section_title
;
Structure prediction by ZEFSAII (Michael W. Deem and Ramdas Pophale) SiO2 
 PCOD8076487
Probable space group: P 21/M
;
_chemical_formula_sum "Si O2"
_cell_formula_units_Z 28
_cell_length_a 15.271935
_cell_length_b 8.462976
_cell_length_c 12.481969
_cell_angle_alpha 90.000000
_cell_angle_beta 127.162837
_cell_angle_gamma 90.000000
_cell_volume 1285.630123
_symmetry_space_group_name_H-M "P 21/M"
_symmetry_group_IT_number 11
_symmetry_cell_setting 'monoclinic'
loop_
_space_group_symop_operation_xyz
x,y,z
-x,1/2+y,-z
-x,-y,-z
x,1/2-y,z
loop_
_atom_site_type_symbol
_atom_site_label
_atom_site_fract_x
_atom_site_fract_y
_atom_site_fract_z
Si Si1 0.229546 0.570084 0.115381
Si Si2 0.864588 0.934132 0.742168
Si Si3 0.602640 0.930804 0.018567
Si Si4 0.464685 0.930488 0.240373
Si Si5 0.911259 0.933585 0.169996
Si Si6 0.798605 0.431329 0.277814
Si Si7 0.714117 0.564310 0.440356
O O1 0.201089 0.750000 0.065830
O O2 0.158093 0.519907 0.163510
O O3 0.360467 0.555324 0.244561
O O4 0.195264 0.469284 0.983993
O O5 0.843265 0.750000 0.743260
O O6 0.783761 0.003300 0.590930
O O7 0.989294 0.963654 0.801644
O O8 0.630791 0.750000 0.071797
O O9 0.574088 0.942042 0.873985
O O10 0.500000 0.000000 0.000000
O O11 0.698334 0.048571 0.122652
O O12 0.472681 0.750000 0.202343
O O13 0.586148 0.981949 0.369712
O O14 0.940047 0.750000 0.184257
O O15 0.895435 0.977150 0.284954
O O16 0.832463 0.250000 0.315314
O O17 0.765056 0.496449 0.368890
O O18 0.727803 0.750000 0.441878
#
# Coordination Sequence:
#
# PCOD8076487 Si02
#       7
#     4   4   4   4   4   4   4
#     4  11  23  41  67  97 128 163 210 266 322 376
#     4  11  25  45  66  90 126 170 217 265 316 375
#     4  12  22  34  57  91 129 168 208 257 314 375
#     4  10  21  38  63  93 128 166 208 259 312 372
#     4  12  25  43  68  95 125 163 213 268 322 379
#     4  12  24  39  63  96 130 165 207 261 320 383
#     4  10  23  43  65  92 129 173 214 256 310 379
#
# _framework density 21.779204
#
# number of rings (size 3 to 8) (size 9 to 14) (size 15 to 20)
#    0.000    0.857    2.857    5.143    0.000    2.857 
#    0.000    0.000    0.000    0.000    0.000    0.000 
#    0.000    0.000    0.000    0.000    0.000    0.000 
#
# Total GULP energy -346986.665842 kJ/mol
# GULP energy per Si atom -12392.380923 kJ/mol
# Density = 2.172963 g / cm^3
# Si number density = 21.779204 Si / 1000 Ang^3
#
#
#
# Elastic Constant Matrix: (Units=GPa)
#
#
# Indices 1 2 3 4 5 6 
#
# 1 107.8543 0.9520 12.6043 0.0000 6.5791 0.0000
# 2 0.9520 58.5345 9.6663 0.0000 -1.6872 0.0000
# 3 12.6043 9.6663 74.0525 0.0000 8.1620 0.0000
# 4 0.0000 0.0000 0.0000 23.9912 0.0000 -1.4945
# 5 6.5791 -1.6872 8.1620 0.0000 21.4528 0.0000
# 6 0.0000 0.0000 0.0000 -1.4945 0.0000 23.3001
#
#
#
# Elastic Compliance Matrix: (Units=1/GPa)
#
#
# Indices 1 2 3 4 5 6 
#
# 1 0.009579 0.000000 -0.001364 0.000000 -0.002419 0.000000
# 2 0.000000 0.017573 -0.002553 0.000000 0.002354 0.000000
# 3 -0.001364 -0.002553 0.014660 0.000000 -0.005360 0.000000
# 4 0.000000 0.000000 0.000000 0.041849 0.000000 0.002684
# 5 -0.002419 0.002354 -0.005360 0.000000 0.049580 0.000000
# 6 0.000000 0.000000 0.000000 0.002684 0.000000 0.043090
#
#
# Mechanical properties :
#
#
# Convention : Reuss Voigt Hill
#
# Bulk Modulus (GPa) = 29.43115 31.87629 30.65372
# Shear Modulus (GPa) = 25.57642 28.23006 26.90324
#
# Velocity S-wave (km/s) = 3.43060 3.60417 3.51846
# Velocity P-wave (km/s) = 5.40692 5.65579 5.53275
#
# Compressibility (1/GPa) = 0.03397761
#
# Stress axis : x y z
#
# Youngs Moduli (GPa) = 104.39846 56.90402 68.21213
#
# Poissons Ratio (x) = 0.00002 0.09302
# Poissons Ratio (y) = 0.00003 0.17417
# Poissons Ratio (z) = 0.14237 0.14529
#
# Static dielectric constant tensor:
#      x y z
#    x 4.125380 0.000000 0.113920 
#    y 0.000000 3.600720 0.000000 
#    z 0.113920 0.000000 3.904290 
# 
# 
# High freq. dielectric constant tensor:
#      x y z
#    x 1.878680 0.000000 0.004290 
#    y 0.000000 1.853350 0.000000 
#    z 0.004290 0.000000 1.835460 
# 
# From -- ./inp_files/38463.got.cif
#   From: 2010.06.25/outbox.cif.g09.slc.cpg/sg11_20_cif.got.tgz:38463.got - 2010.06.27 23:14:04.
