data_PCOD8076131
_publ_section_title
;
Structure prediction by ZEFSAII (Michael W. Deem and Ramdas Pophale) SiO2 
 PCOD8076131
Probable space group: P 21/M
;
_chemical_formula_sum "Si O2"
_cell_formula_units_Z 32
_cell_length_a 28.260989
_cell_length_b 9.123710
_cell_length_c 11.803293
_cell_angle_alpha 90.000000
_cell_angle_beta 32.118512
_cell_angle_gamma 90.000000
_cell_volume 1618.102439
_symmetry_space_group_name_H-M "P 21/M"
_symmetry_group_IT_number 11
_symmetry_cell_setting 'monoclinic'
loop_
_space_group_symop_operation_xyz
x,y,z
-x,1/2+y,-z
-x,-y,-z
x,1/2-y,z
loop_
_atom_site_type_symbol
_atom_site_label
_atom_site_fract_x
_atom_site_fract_y
_atom_site_fract_z
Si Si1 0.059497 0.583803 0.042270
Si Si2 0.074190 0.576650 0.272854
Si Si3 0.871879 0.583774 0.303295
Si Si4 0.294261 0.576289 0.305526
Si Si5 0.274898 0.923425 0.911262
Si Si6 0.584327 0.915868 0.783353
Si Si7 0.609507 0.424108 0.114342
Si Si8 0.413213 0.084902 0.488945
O O1 0.096687 0.750000 0.959404
O O2 0.062435 0.528053 0.165871
O O3 0.960138 0.576649 0.197920
O O4 0.118709 0.479246 0.843192
O O5 0.062031 0.750000 0.310604
O O6 0.000000 0.500000 0.500000
O O7 0.172201 0.525093 0.115743
O O8 0.837193 0.750000 0.362212
O O9 0.805116 0.482876 0.510759
O O10 0.294333 0.750000 0.317346
O O11 0.328707 0.501107 0.350377
O O12 0.354967 0.520843 0.078621
O O13 0.279239 0.750000 0.894338
O O14 0.323087 0.983654 0.926761
O O15 0.330363 0.986478 0.693898
O O16 0.583104 0.750000 0.832221
O O17 0.583759 0.916473 0.650943
O O18 0.500000 0.000000 0.000000
O O19 0.608937 0.250000 0.114964
O O20 0.508324 0.479770 0.340711
O O21 0.399388 0.250000 0.562622
#
# Coordination Sequence:
#
# PCOD8076131 Si02
#       8
#     4   4   4   4   4   4   4   4
#     4   9  20  40  60  83 119 155 192 241 298 355
#     4  10  23  41  61  87 118 153 194 243 293 350
#     4  10  21  37  59  88 117 150 196 245 291 353
#     4  11  22  37  59  85 119 158 193 240 296 350
#     4  10  22  39  61  88 115 151 200 241 286 349
#     4  11  22  38  58  85 120 156 196 238 289 347
#     4   9  19  38  59  83 118 156 196 241 288 342
#     4  10  21  39  60  84 118 154 192 241 292 343
#
# _framework density 19.776250999999998
#
# number of rings (size 3 to 8) (size 9 to 14) (size 15 to 20)
#    0.000    2.000    1.250    1.500    3.500    2.500 
#    0.000    1.250    0.000    0.000    0.000    0.000 
#    0.000    0.000    0.000    0.000    0.000    0.000 
#
# Total GULP energy -396794.943463 kJ/mol
# GULP energy per Si atom -12399.841983 kJ/mol
# Density = 1.973124 g / cm^3
# Si number density = 19.776251 Si / 1000 Ang^3
#
#
#
# Elastic Constant Matrix: (Units=GPa)
#
#
# Indices 1 2 3 4 5 6 
#
# 1 100.7608 35.4767 44.9231 0.0000 -0.0619 0.0000
# 2 35.4767 81.3600 48.4156 0.0000 -2.9495 0.0000
# 3 44.9231 48.4156 131.5814 0.0000 -12.1801 0.0000
# 4 0.0000 0.0000 0.0000 37.8371 0.0000 -1.2583
# 5 -0.0619 -2.9495 -12.1801 0.0000 22.6824 0.0000
# 6 0.0000 0.0000 0.0000 -1.2583 0.0000 26.0191
#
#
#
# Elastic Compliance Matrix: (Units=1/GPa)
#
#
# Indices 1 2 3 4 5 6 
#
# 1 0.012633 -0.003715 -0.003144 0.000000 -0.002137 0.000000
# 2 -0.003715 0.016856 -0.004979 0.000000 -0.000492 0.000000
# 3 -0.003144 -0.004979 0.010991 0.000000 0.005246 0.000000
# 4 0.000000 0.000000 0.000000 0.026472 0.000000 0.001280
# 5 -0.002137 -0.000492 0.005246 0.000000 0.046834 0.000000
# 6 0.000000 0.000000 0.000000 0.001280 0.000000 0.038495
#
#
# Mechanical properties :
#
#
# Convention : Reuss Voigt Hill
#
# Bulk Modulus (GPa) = 59.51195 63.48146 61.49671
# Shear Modulus (GPa) = 27.53921 29.63351 28.58636
#
# Velocity S-wave (km/s) = 3.73572 3.87517 3.80608
# Velocity P-wave (km/s) = 6.98323 7.22441 7.10484
#
# Compressibility (1/GPa) = 0.01680335
#
# Stress axis : x y z
#
# Youngs Moduli (GPa) = 79.15861 59.32465 90.98365
#
# Poissons Ratio (x) = 0.22040 0.28603
# Poissons Ratio (y) = 0.29409 0.45305
# Poissons Ratio (z) = 0.24886 0.29541
#
# Static dielectric constant tensor:
#      x y z
#    x 3.608310 0.000000 0.727840 
#    y 0.000000 3.602530 0.000000 
#    z 0.727840 0.000000 2.264200 
# 
# 
# High freq. dielectric constant tensor:
#      x y z
#    x 1.779770 0.000000 -0.006100 
#    y 0.000000 1.758600 0.000000 
#    z -0.006100 0.000000 1.775470 
# 
# From -- ./inp_files/45215.got.cif
#   From: 2010.06.25/outbox.cif.g09.slc.cpg/sg11_23_cif.got.tgz:45215.got - 2010.06.27 23:14:04.
