data_PCOD8076221
_publ_section_title
;
Structure prediction by ZEFSAII (Michael W. Deem and Ramdas Pophale) SiO2 
 PCOD8076221
Probable space group: P 21/M
;
_chemical_formula_sum "Si O2"
_cell_formula_units_Z 28
_cell_length_a 9.593476
_cell_length_b 25.499417
_cell_length_c 6.883973
_cell_angle_alpha 90.000000
_cell_angle_beta 47.983401
_cell_angle_gamma 90.000000
_cell_volume 1251.138939
_symmetry_space_group_name_H-M "P 21/M"
_symmetry_group_IT_number 11
_symmetry_cell_setting 'monoclinic'
loop_
_space_group_symop_operation_xyz
x,y,z
-x,1/2+y,-z
-x,-y,-z
x,1/2-y,z
loop_
_atom_site_type_symbol
_atom_site_label
_atom_site_fract_x
_atom_site_fract_y
_atom_site_fract_z
Si Si1 0.249999 0.658184 0.250001
Si Si2 0.249999 0.113850 0.750000
Si Si3 0.750000 0.513767 0.750000
Si Si4 0.889168 0.691239 0.791745
Si Si5 0.544209 0.431330 0.745675
Si Si6 0.044211 0.568670 0.245675
Si Si7 0.610831 0.691238 0.708257
O O1 0.360340 0.624211 0.306083
O O2 0.102279 0.691967 0.511936
O O3 0.139656 0.624213 0.193921
O O4 0.397721 0.691966 0.988066
O O5 0.411726 0.075152 0.681865
O O6 0.088274 0.075151 0.818133
O O7 0.353687 0.149849 0.495418
O O8 0.146311 0.149848 0.004584
O O9 0.702186 0.477657 0.601524
O O10 0.921706 0.552382 0.547693
O O11 0.797808 0.477655 0.898480
O O12 0.578297 0.552383 0.952306
O O13 0.845835 0.750000 0.908411
O O14 0.749999 0.675155 0.750002
O O15 0.654160 0.750000 0.591596
#
# Coordination Sequence:
#
# PCOD8076221 Si02
#       7
#     4   4   4   4   4   4   4
#     4  11  21  44  69  98 130 186 211 268 331 403
#     4  12  23  42  68 104 130 174 220 282 319 394
#     4   9  20  42  61  94 134 180 211 272 328 395
#     4  11  24  44  68  98 137 174 217 274 333 391
#     4  10  21  37  66  93 134 169 221 267 328 382
#     4  10  21  37  66  93 134 169 221 267 328 382
#     4  11  24  44  68  98 137 174 217 274 333 391
#
# _framework density 22.379608999999999
#
# number of rings (size 3 to 8) (size 9 to 14) (size 15 to 20)
#    0.000    1.429    2.857    2.571    0.000    2.286 
#    0.000    1.429    0.000    0.000    0.000    0.000 
#    0.000    0.000    0.000    0.000    0.000    0.000 
#
# Total GULP energy -346954.551907 kJ/mol
# GULP energy per Si atom -12391.233997 kJ/mol
# Density = 2.232867 g / cm^3
# Si number density = 22.379609 Si / 1000 Ang^3
#
#
#
# Elastic Constant Matrix: (Units=GPa)
#
#
# Indices 1 2 3 4 5 6 
#
# 1 161.5260 47.5031 31.0121 0.0000 7.8182 0.0000
# 2 47.5031 77.2307 28.5480 0.0000 7.6527 0.0000
# 3 31.0121 28.5480 92.5050 0.0000 -9.3183 0.0000
# 4 0.0000 0.0000 0.0000 26.3996 0.0000 7.6615
# 5 7.8182 7.6527 -9.3183 0.0000 36.0494 0.0000
# 6 0.0000 0.0000 0.0000 7.6615 0.0000 27.4607
#
#
#
# Elastic Compliance Matrix: (Units=1/GPa)
#
#
# Indices 1 2 3 4 5 6 
#
# 1 0.007733 -0.004106 -0.001444 0.000000 -0.001179 0.000000
# 2 -0.004106 0.017502 -0.004425 0.000000 -0.003969 0.000000
# 3 -0.001444 -0.004425 0.013128 0.000000 0.004646 0.000000
# 4 0.000000 0.000000 0.000000 0.041217 0.000000 -0.011499
# 5 -0.001179 -0.003969 0.004646 0.000000 0.030039 0.000000
# 6 0.000000 0.000000 0.000000 -0.011499 0.000000 0.039624
#
#
# Mechanical properties :
#
#
# Convention : Reuss Voigt Hill
#
# Bulk Modulus (GPa) = 54.30665 60.59868 57.45266
# Shear Modulus (GPa) = 28.51775 32.92850 30.72312
#
# Velocity S-wave (km/s) = 3.57357 3.83999 3.70918
# Velocity P-wave (km/s) = 6.43009 6.84084 6.63864
#
# Compressibility (1/GPa) = 0.01841395
#
# Stress axis : x y z
#
# Youngs Moduli (GPa) = 129.32121 57.13511 76.17373
#
# Poissons Ratio (x) = 0.23458 0.11000
# Poissons Ratio (y) = 0.53094 0.33705
# Poissons Ratio (z) = 0.18675 0.25281
#
# Static dielectric constant tensor:
#      x y z
#    x 4.371060 0.000000 -0.310920 
#    y 0.000000 4.057640 0.000000 
#    z -0.310920 0.000000 3.716160 
# 
# 
# High freq. dielectric constant tensor:
#      x y z
#    x 1.897140 0.000000 -0.024690 
#    y 0.000000 1.891380 0.000000 
#    z -0.024690 0.000000 1.847850 
# 
# From -- ./inp_files/3326.got.cif
#   From: 2010.06.25/outbox.cif.g09.slc.cpg/sg11_2_cif.got.tgz:3326.got - 2010.06.27 23:14:04.
