data_PCOD8076805
_publ_section_title
;
Structure prediction by ZEFSAII (Michael W. Deem and Ramdas Pophale) SiO2 
 PCOD8076805
Probable space group: P 21/M
;
_chemical_formula_sum "Si O2"
_cell_formula_units_Z 32
_cell_length_a 15.032233
_cell_length_b 18.474918
_cell_length_c 9.217215
_cell_angle_alpha 90.000000
_cell_angle_beta 40.185140
_cell_angle_gamma 90.000000
_cell_volume 1651.734314
_symmetry_space_group_name_H-M "P 21/M"
_symmetry_group_IT_number 11
_symmetry_cell_setting 'monoclinic'
loop_
_space_group_symop_operation_xyz
x,y,z
-x,1/2+y,-z
-x,-y,-z
x,1/2-y,z
loop_
_atom_site_type_symbol
_atom_site_label
_atom_site_fract_x
_atom_site_fract_y
_atom_site_fract_z
Si Si1 0.383896 0.955097 0.564706
Si Si2 0.237628 0.168510 0.238085
Si Si3 0.916867 0.964826 0.476975
Si Si4 0.495730 0.332542 0.419653
Si Si5 0.903879 0.981008 0.990670
Si Si6 0.213924 0.332416 0.934088
Si Si7 0.516812 0.166342 0.060269
Si Si8 0.627943 0.040338 0.765437
O O1 0.396837 0.873819 0.610183
O O2 0.397657 0.955921 0.374466
O O3 0.500000 0.000000 0.500000
O O4 0.246227 0.991396 0.789628
O O5 0.188561 0.250000 0.328705
O O6 0.113582 0.118383 0.447057
O O7 0.372831 0.150087 0.160971
O O8 0.269397 0.155745 0.028432
O O9 0.773746 0.004327 0.618129
O O10 0.000000 0.000000 0.500000
O O11 0.029052 0.968852 0.213236
O O12 0.541287 0.250000 0.373459
O O13 0.339433 0.343860 0.667213
O O14 0.503155 0.359837 0.243968
O O15 0.900408 0.894310 0.958376
O O16 0.000000 0.000000 0.000000
O O17 0.153627 0.250000 0.991873
O O18 0.558878 0.250000 0.997211
O O19 0.632879 0.120459 0.830757
O O20 0.500000 0.000000 0.000000
#
# Coordination Sequence:
#
# PCOD8076805 Si02
#       8
#     4   4   4   4   4   4   4   4
#     4  12  25  41  67  94 127 171 218 266 317 381
#     4  10  21  40  65  95 127 169 218 265 322 391
#     4  12  26  43  65  96 133 173 212 269 326 384
#     4  10  22  39  64  97 129 166 215 270 325 382
#     4  12  26  45  63  95 135 172 217 264 323 389
#     4  10  21  40  66  94 126 170 218 264 321 392
#     4  10  22  39  64  97 130 164 212 273 326 380
#     4  12  25  41  66  97 127 167 220 266 320 382
#
# _framework density 19.373574999999999
#
# number of rings (size 3 to 8) (size 9 to 14) (size 15 to 20)
#    0.000    1.000    5.000    1.500    5.250    1.500 
#    0.000    2.500    0.000    0.000    0.000    0.000 
#    0.000    0.000    0.000    0.000    0.000    0.000 
#
# Total GULP energy -396672.033131 kJ/mol
# GULP energy per Si atom -12396.001035 kJ/mol
# Density = 1.932948 g / cm^3
# Si number density = 19.373575 Si / 1000 Ang^3
#
#
#
# Elastic Constant Matrix: (Units=GPa)
#
#
# Indices 1 2 3 4 5 6 
#
# 1 145.5421 54.8259 55.0572 0.0000 18.0139 0.0000
# 2 54.8259 122.0762 54.0598 0.0000 4.9720 0.0000
# 3 55.0572 54.0598 130.8638 0.0000 20.2715 0.0000
# 4 0.0000 0.0000 0.0000 36.2989 0.0000 -0.7103
# 5 18.0139 4.9720 20.2715 0.0000 37.1756 0.0000
# 6 0.0000 0.0000 0.0000 -0.7103 0.0000 32.3631
#
#
#
# Elastic Compliance Matrix: (Units=1/GPa)
#
#
# Indices 1 2 3 4 5 6 
#
# 1 0.009195 -0.003055 -0.002162 0.000000 -0.002868 0.000000
# 2 -0.003055 0.011075 -0.003593 0.000000 0.001958 0.000000
# 3 -0.002162 -0.003593 0.010703 0.000000 -0.004308 0.000000
# 4 0.000000 0.000000 0.000000 0.027561 0.000000 0.000605
# 5 -0.002868 0.001958 -0.004308 0.000000 0.030376 0.000000
# 6 0.000000 0.000000 0.000000 0.000605 0.000000 0.030913
#
#
# Mechanical properties :
#
#
# Convention : Reuss Voigt Hill
#
# Bulk Modulus (GPa) = 74.89611 80.70754 77.80182
# Shear Modulus (GPa) = 35.23770 36.80347 36.02059
#
# Velocity S-wave (km/s) = 4.26943 4.36325 4.31660
# Velocity P-wave (km/s) = 7.94021 8.19347 8.06783
#
# Compressibility (1/GPa) = 0.01335183
#
# Stress axis : x y z
#
# Youngs Moduli (GPa) = 108.75977 90.29252 93.43361
#
# Poissons Ratio (x) = 0.27586 0.20201
# Poissons Ratio (y) = 0.33228 0.33572
# Poissons Ratio (z) = 0.23514 0.32443
#
# Static dielectric constant tensor:
#      x y z
#    x 3.451730 0.000000 0.361410 
#    y 0.000000 4.136830 0.000000 
#    z 0.361410 0.000000 3.414190 
# 
# 
# High freq. dielectric constant tensor:
#      x y z
#    x 1.757340 0.000000 0.024030 
#    y 0.000000 1.770430 0.000000 
#    z 0.024030 0.000000 1.751080 
# 
# From -- ./inp_files/23076.got.cif
#   From: 2010.06.25/outbox.cif.g09.slc.cpg/sg11_12_cif.got.tgz:23076.got - 2010.06.27 23:14:04.
