data_PCOD8076958
_publ_section_title
;
Structure prediction by ZEFSAII (Michael W. Deem and Ramdas Pophale) SiO2 
 PCOD8076958
Probable space group: P 21/M
;
_chemical_formula_sum "Si O2"
_cell_formula_units_Z 32
_cell_length_a 27.351960
_cell_length_b 9.415844
_cell_length_c 19.403821
_cell_angle_alpha 90.000000
_cell_angle_beta 159.468308
_cell_angle_gamma 90.000000
_cell_volume 1752.678349
_symmetry_space_group_name_H-M "P 21/M"
_symmetry_group_IT_number 11
_symmetry_cell_setting 'monoclinic'
loop_
_space_group_symop_operation_xyz
x,y,z
-x,1/2+y,-z
-x,-y,-z
x,1/2-y,z
loop_
_atom_site_type_symbol
_atom_site_label
_atom_site_fract_x
_atom_site_fract_y
_atom_site_fract_z
Si Si1 0.312799 0.911657 0.049260
Si Si2 0.843348 0.415797 0.029093
Si Si3 0.098607 0.586191 0.042346
Si Si4 0.460871 0.914811 0.734428
Si Si5 0.982750 0.407271 0.411418
Si Si6 0.173196 0.915474 0.290955
Si Si7 0.131334 0.416880 0.470308
Si Si8 0.587471 0.417959 0.173415
O O1 0.368204 0.750000 0.125460
O O2 0.426283 0.005446 0.161677
O O3 0.277710 0.975351 0.079823
O O4 0.171354 0.923124 0.820568
O O5 0.848576 0.250000 0.054049
O O6 0.999284 0.471378 0.251342
O O7 0.808358 0.448729 0.902835
O O8 0.052503 0.750000 0.980382
O O9 0.188061 0.551148 0.228577
O O10 0.958405 0.496518 0.852509
O O11 0.474371 0.750000 0.734275
O O12 0.309545 0.970652 0.510375
O O13 0.483922 0.942138 0.846184
O O14 0.010959 0.250000 0.474725
O O15 0.000000 0.500000 0.500000
O O16 0.097235 0.446123 0.505204
O O17 0.148012 0.750000 0.270913
O O18 0.166058 0.250000 0.503285
O O19 0.259325 0.516412 0.618979
O O20 0.594959 0.250000 0.165818
O O21 0.500000 0.500000 0.000000
#
# Coordination Sequence:
#
# PCOD8076958 Si02
#       8
#     4   4   4   4   4   4   4   4
#     4   9  19  35  53  74  99 133 174 211 247 297
#     4   8  15  31  54  78 103 131 166 209 252 293
#     4   9  16  29  54  81 104 133 170 208 249 299
#     4  10  22  38  52  70 104 141 168 205 258 307
#     4   9  19  33  51  74  98 125 161 209 256 295
#     4   9  18  32  50  77 109 137 166 206 254 301
#     4   9  18  34  53  74 101 128 161 206 254 300
#     4  11  24  38  52  72  99 132 170 210 255 305
#
# _framework density 18.257770000000001
#
# number of rings (size 3 to 8) (size 9 to 14) (size 15 to 20)
#    0.000    2.750    0.000    2.625    1.750    2.500 
#    0.000    3.125    0.000    0.000    0.000    0.000 
#    0.000    0.000    0.000    0.000    0.000    0.000 
#
# Total GULP energy -396626.597433 kJ/mol
# GULP energy per Si atom -12394.581170 kJ/mol
# Density = 1.821621 g / cm^3
# Si number density = 18.257770 Si / 1000 Ang^3
#
#
#
# Elastic Constant Matrix: (Units=GPa)
#
#
# Indices 1 2 3 4 5 6 
#
# 1 133.4146 48.0397 41.6166 0.0000 -1.0651 0.0000
# 2 48.0397 58.1979 28.3220 0.0000 6.8296 0.0000
# 3 41.6166 28.3220 54.1483 0.0000 10.2056 0.0000
# 4 0.0000 0.0000 0.0000 29.4412 0.0000 4.7882
# 5 -1.0651 6.8296 10.2056 0.0000 25.5229 0.0000
# 6 0.0000 0.0000 0.0000 4.7882 0.0000 26.9099
#
#
#
# Elastic Compliance Matrix: (Units=1/GPa)
#
#
# Indices 1 2 3 4 5 6 
#
# 1 0.012280 -0.007613 -0.006421 0.000000 0.005117 0.000000
# 2 -0.007613 0.027819 -0.007827 0.000000 -0.004632 0.000000
# 3 -0.006421 -0.007827 0.029365 0.000000 -0.009916 0.000000
# 4 0.000000 0.000000 0.000000 0.034978 0.000000 -0.006224
# 5 0.005117 -0.004632 -0.009916 0.000000 0.044598 0.000000
# 6 0.000000 0.000000 0.000000 -0.006224 0.000000 0.038268
#
#
# Mechanical properties :
#
#
# Convention : Reuss Voigt Hill
#
# Bulk Modulus (GPa) = 38.84393 53.52416 46.18405
# Shear Modulus (GPa) = 20.86707 24.89364 22.88035
#
# Velocity S-wave (km/s) = 3.38437 3.69650 3.54388
# Velocity P-wave (km/s) = 6.04925 6.89915 6.48813
#
# Compressibility (1/GPa) = 0.02574405
#
# Stress axis : x y z
#
# Youngs Moduli (GPa) = 81.43108 35.94654 34.05365
#
# Poissons Ratio (x) = 0.27364 0.21866
# Poissons Ratio (y) = 0.61990 0.26653
# Poissons Ratio (z) = 0.52287 0.28135
#
# Static dielectric constant tensor:
#      x y z
#    x 3.075550 0.000000 -0.273100 
#    y 0.000000 2.988880 0.000000 
#    z -0.273100 0.000000 3.086800 
# 
# 
# High freq. dielectric constant tensor:
#      x y z
#    x 1.726090 0.000000 -0.002990 
#    y 0.000000 1.692860 0.000000 
#    z -0.002990 0.000000 1.688600 
# 
# From -- ./inp_files/67295.got.cif
#   From: 2010.06.25/outbox.cif.g09.slc.cpg/sg11_34_cif.got.tgz:67295.got - 2010.06.27 23:14:04.
