data_PCOD8076830
_publ_section_title
;
Structure prediction by ZEFSAII (Michael W. Deem and Ramdas Pophale) SiO2 
 PCOD8076830
Probable space group: P 21/M
;
_chemical_formula_sum "Si O2"
_cell_formula_units_Z 32
_cell_length_a 11.416965
_cell_length_b 23.490664
_cell_length_c 6.436016
_cell_angle_alpha 90.000000
_cell_angle_beta 73.101500
_cell_angle_gamma 90.000000
_cell_volume 1651.558131
_symmetry_space_group_name_H-M "P 21/M"
_symmetry_group_IT_number 11
_symmetry_cell_setting 'monoclinic'
loop_
_space_group_symop_operation_xyz
x,y,z
-x,1/2+y,-z
-x,-y,-z
x,1/2-y,z
loop_
_atom_site_type_symbol
_atom_site_label
_atom_site_fract_x
_atom_site_fract_y
_atom_site_fract_z
Si Si1 0.314136 0.395842 0.376596
Si Si2 0.815903 0.092707 0.937556
Si Si3 0.060264 0.966605 0.780153
Si Si4 0.529100 0.120050 0.587056
Si Si5 0.384142 0.518106 0.194638
Si Si6 0.057371 0.075333 0.544362
Si Si7 0.561132 0.812790 0.975634
Si Si8 0.669095 0.187086 0.192263
O O1 0.407217 0.384722 0.513710
O O2 0.320284 0.461453 0.307025
O O3 0.173742 0.383244 0.520646
O O4 0.336534 0.355138 0.167334
O O5 0.713068 0.053008 0.890801
O O6 0.939378 0.095231 0.736968
O O7 0.835832 0.070979 0.164341
O O8 0.766498 0.156793 0.989070
O O9 0.971241 0.925967 0.689044
O O10 0.107260 0.013092 0.590770
O O11 0.000000 0.000000 0.000000
O O12 0.570298 0.057494 0.639377
O O13 0.498046 0.161579 0.789718
O O14 0.643144 0.148343 0.407605
O O15 0.500000 0.500000 0.000000
O O16 0.616926 0.750000 0.994321
O O17 0.458197 0.806203 0.857108
O O18 0.718769 0.250000 0.227977
#
# Coordination Sequence:
#
# PCOD8076830 Si02
#       8
#     4   4   4   4   4   4   4   4
#     4  11  23  37  60  89 126 156 199 243 297 368
#     4  11  23  38  60  88 124 160 203 251 299 367
#     4   9  19  35  56  82 116 160 200 236 287 355
#     4  11  22  38  61  91 119 162 190 249 313 363
#     4  12  22  37  58  96 130 153 190 251 317 363
#     4  10  22  38  56  86 120 170 199 238 298 363
#     4  10  21  41  61  86 121 157 203 250 301 365
#     4  10  22  40  62  89 118 158 208 256 304 362
#
# _framework density 19.375643
#
# number of rings (size 3 to 8) (size 9 to 14) (size 15 to 20)
#    0.000    1.500    2.500    3.750    5.250    2.500 
#    0.000    0.625    0.000    2.250    0.000    0.000 
#    0.000    0.000    0.000    0.000    0.000    0.000 
#
# Total GULP energy -396602.076852 kJ/mol
# GULP energy per Si atom -12393.814902 kJ/mol
# Density = 1.933154 g / cm^3
# Si number density = 19.375643 Si / 1000 Ang^3
#
#
#
# Elastic Constant Matrix: (Units=GPa)
#
#
# Indices 1 2 3 4 5 6 
#
# 1 86.0069 29.8283 38.9182 0.0000 -16.8154 0.0000
# 2 29.8283 126.6213 46.3210 0.0000 -19.3265 0.0000
# 3 38.9182 46.3210 100.4679 0.0000 -7.4241 0.0000
# 4 0.0000 0.0000 0.0000 18.6937 0.0000 5.5159
# 5 -16.8154 -19.3265 -7.4241 0.0000 36.0607 0.0000
# 6 0.0000 0.0000 0.0000 5.5159 0.0000 14.4285
#
#
#
# Elastic Compliance Matrix: (Units=1/GPa)
#
#
# Indices 1 2 3 4 5 6 
#
# 1 0.015353 -0.000883 -0.005124 0.000000 0.005631 0.000000
# 2 -0.000883 0.010240 -0.004066 0.000000 0.004239 0.000000
# 3 -0.005124 -0.004066 0.013684 0.000000 -0.001751 0.000000
# 4 0.000000 0.000000 0.000000 0.060295 0.000000 -0.023051
# 5 0.005631 0.004239 -0.001751 0.000000 0.032268 0.000000
# 6 0.000000 0.000000 0.000000 -0.023051 0.000000 0.078119
#
#
# Mechanical properties :
#
#
# Convention : Reuss Voigt Hill
#
# Bulk Modulus (GPa) = 52.27184 60.35899 56.31542
# Shear Modulus (GPa) = 21.14329 27.03850 24.09089
#
# Velocity S-wave (km/s) = 3.30696 3.73968 3.52996
# Velocity P-wave (km/s) = 6.45120 7.06162 6.76330
#
# Compressibility (1/GPa) = 0.01913076
#
# Stress axis : x y z
#
# Youngs Moduli (GPa) = 65.13514 97.65640 73.08040
#
# Poissons Ratio (x) = 0.08620 0.37447
# Poissons Ratio (y) = 0.05749 0.29714
# Poissons Ratio (z) = 0.33376 0.39707
#
# Static dielectric constant tensor:
#      x y z
#    x 3.655640 0.000000 0.211190 
#    y 0.000000 4.837810 0.000000 
#    z 0.211190 0.000000 3.781360 
# 
# 
# High freq. dielectric constant tensor:
#      x y z
#    x 1.745290 0.000000 0.003700 
#    y 0.000000 1.741310 0.000000 
#    z 0.003700 0.000000 1.765360 
# 
# From -- ./inp_files/5462.got.cif
#   From: 2010.06.25/outbox.cif.g09.slc.cpg/sg11_3_cif.got.tgz:5462.got - 2010.06.27 23:14:04.
