data_PCOD8076367
_publ_section_title
;
Structure prediction by ZEFSAII (Michael W. Deem and Ramdas Pophale) SiO2 
 PCOD8076367
Probable space group: P 21/M
;
_chemical_formula_sum "Si O2"
_cell_formula_units_Z 32
_cell_length_a 17.004472
_cell_length_b 14.598548
_cell_length_c 12.353608
_cell_angle_alpha 90.000000
_cell_angle_beta 28.711560
_cell_angle_gamma 90.000000
_cell_volume 1473.228274
_symmetry_space_group_name_H-M "P 21/M"
_symmetry_group_IT_number 11
_symmetry_cell_setting 'monoclinic'
loop_
_space_group_symop_operation_xyz
x,y,z
-x,1/2+y,-z
-x,-y,-z
x,1/2-y,z
loop_
_atom_site_type_symbol
_atom_site_label
_atom_site_fract_x
_atom_site_fract_y
_atom_site_fract_z
Si Si1 0.413463 0.151396 0.410294
Si Si2 0.627032 0.355028 0.735527
Si Si3 0.992771 0.351733 0.351648
Si Si4 0.692432 0.350182 0.242763
Si Si5 0.370991 0.355088 0.214481
Si Si6 0.977083 0.644108 0.436650
Si Si7 0.565518 0.041590 0.594311
Si Si8 0.189862 0.985023 0.047600
O O1 0.316000 0.250000 0.543232
O O2 0.583814 0.163106 0.266640
O O3 0.444368 0.133307 0.245671
O O4 0.335053 0.055290 0.547763
O O5 0.587433 0.250000 0.753703
O O6 0.799024 0.364351 0.587874
O O7 0.637063 0.412154 0.613977
O O8 0.493834 0.399537 0.977958
O O9 0.039599 0.250000 0.253250
O O10 0.057863 0.366461 0.394210
O O11 0.079635 0.424356 0.167857
O O12 0.765262 0.250000 0.187346
O O13 0.585958 0.390199 0.469377
O O14 0.829218 0.424163 0.040378
O O15 0.359663 0.250000 0.194734
O O16 0.185957 0.393642 0.427976
O O17 0.018748 0.750000 0.356547
O O18 0.126791 0.578726 0.222060
O O19 0.375537 0.017993 0.841593
#
# Coordination Sequence:
#
# PCOD8076367 Si02
#       8
#     4   4   4   4   4   4   4   4
#     4   9  19  35  58  89 122 151 195 255 302 349
#     4  10  22  39  61  89 123 167 210 252 301 360
#     4  10  23  39  58  88 130 170 202 248 310 366
#     4  10  22  42  67  91 119 157 207 260 306 362
#     4   9  19  36  60  90 122 161 208 249 299 362
#     4  10  21  38  60  89 130 171 203 246 304 369
#     4  11  23  39  64  89 118 160 213 255 301 360
#     4  11  22  38  60  94 119 158 205 253 310 364
#
# _framework density 21.721007
#
# number of rings (size 3 to 8) (size 9 to 14) (size 15 to 20)
#    0.000    2.000    0.000    3.375    5.250    3.000 
#    0.000    1.250    2.750    0.000    0.000    0.000 
#    0.000    0.000    0.000    0.000    0.000    0.000 
#
# Total GULP energy -396429.829314 kJ/mol
# GULP energy per Si atom -12388.432166 kJ/mol
# Density = 2.167157 g / cm^3
# Si number density = 21.721007 Si / 1000 Ang^3
#
#
#
# Elastic Constant Matrix: (Units=GPa)
#
#
# Indices 1 2 3 4 5 6 
#
# 1 80.4060 28.3359 36.7881 0.0000 10.3458 0.0000
# 2 28.3359 161.4236 59.3876 0.0000 6.4877 0.0000
# 3 36.7881 59.3876 80.8597 0.0000 8.5015 0.0000
# 4 0.0000 0.0000 0.0000 38.5919 0.0000 11.3831
# 5 10.3458 6.4877 8.5015 0.0000 18.4352 0.0000
# 6 0.0000 0.0000 0.0000 11.3831 0.0000 18.7573
#
#
#
# Elastic Compliance Matrix: (Units=1/GPa)
#
#
# Indices 1 2 3 4 5 6 
#
# 1 0.016323 -0.000170 -0.006668 0.000000 -0.006026 0.000000
# 2 -0.000170 0.008491 -0.006153 0.000000 -0.000055 0.000000
# 3 -0.006668 -0.006153 0.020282 0.000000 -0.003446 0.000000
# 4 0.000000 0.000000 0.000000 0.031562 0.000000 -0.019154
# 5 -0.006026 -0.000055 -0.003446 0.000000 0.059234 0.000000
# 6 0.000000 0.000000 0.000000 -0.019154 0.000000 0.064936
#
#
# Mechanical properties :
#
#
# Convention : Reuss Voigt Hill
#
# Bulk Modulus (GPa) = 52.31756 63.52362 57.92059
# Shear Modulus (GPa) = 21.44264 28.36871 24.90568
#
# Velocity S-wave (km/s) = 3.14536 3.61785 3.38985
# Velocity P-wave (km/s) = 6.10979 6.83817 6.48421
#
# Compressibility (1/GPa) = 0.01911404
#
# Stress axis : x y z
#
# Youngs Moduli (GPa) = 61.26369 117.77827 49.30494
#
# Poissons Ratio (x) = 0.02002 0.32876
# Poissons Ratio (y) = 0.01041 0.30336
# Poissons Ratio (z) = 0.40850 0.72466
#
# Static dielectric constant tensor:
#      x y z
#    x 3.674420 0.000000 0.037140 
#    y 0.000000 4.826590 0.000000 
#    z 0.037140 0.000000 3.644980 
# 
# 
# High freq. dielectric constant tensor:
#      x y z
#    x 1.835870 0.000000 0.008590 
#    y 0.000000 1.883800 0.000000 
#    z 0.008590 0.000000 1.815950 
# 
# From -- ./inp_files/41646.got.cif
#   From: 2010.06.25/outbox.cif.g09.slc.cpg/sg11_21_cif.got.tgz:41646.got - 2010.06.27 23:14:04.
