data_PCOD8076444
_publ_section_title
;
Structure prediction by ZEFSAII (Michael W. Deem and Ramdas Pophale) SiO2 
 PCOD8076444
Probable space group: P 21/M
;
_chemical_formula_sum "Si O2"
_cell_formula_units_Z 28
_cell_length_a 21.567889
_cell_length_b 8.916875
_cell_length_c 14.446751
_cell_angle_alpha 90.000000
_cell_angle_beta 148.819153
_cell_angle_gamma 90.000000
_cell_volume 1438.477599
_symmetry_space_group_name_H-M "P 21/M"
_symmetry_group_IT_number 11
_symmetry_cell_setting 'monoclinic'
loop_
_space_group_symop_operation_xyz
x,y,z
-x,1/2+y,-z
-x,-y,-z
x,1/2-y,z
loop_
_atom_site_type_symbol
_atom_site_label
_atom_site_fract_x
_atom_site_fract_y
_atom_site_fract_z
Si Si1 0.124887 0.426202 0.955248
Si Si2 0.237285 0.922667 0.277848
Si Si3 0.853646 0.079063 0.640801
Si Si4 0.286470 0.924141 0.014783
Si Si5 0.523628 0.575684 0.432996
Si Si6 0.606206 0.924338 0.015619
Si Si7 0.637367 0.576262 0.268276
O O1 0.148113 0.250000 0.989788
O O2 0.984953 0.465693 0.774094
O O3 0.184855 0.498659 0.121141
O O4 0.180351 0.492126 0.932577
O O5 0.260487 0.750000 0.281735
O O6 0.147918 0.940790 0.250076
O O7 0.361607 0.998963 0.467424
O O8 0.821666 0.250000 0.573423
O O9 0.761034 0.969816 0.473118
O O10 0.253932 0.750000 0.967230
O O11 0.411255 0.954022 0.224749
O O12 0.298125 0.991403 0.926956
O O13 0.500000 0.500000 0.500000
O O14 0.549228 0.750000 0.480518
O O15 0.606676 0.750000 0.991709
O O16 0.472310 0.985232 0.827460
O O17 0.647920 0.957394 0.173009
O O18 0.612099 0.750000 0.255755
#
# Coordination Sequence:
#
# PCOD8076444 Si02
#       7
#     4   4   4   4   4   4   4
#     4  11  23  39  58  81 114 155 196 238 285 340
#     4  11  22  37  57  83 115 151 194 239 286 341
#     4  10  23  40  59  84 114 152 195 238 287 340
#     4  11  23  38  58  86 117 152 194 237 286 343
#     4  11  22  35  54  81 114 148 187 233 284 338
#     4  10  21  38  62  90 119 150 185 232 289 345
#     4  10  21  38  62  91 118 147 188 236 286 340
#
# _framework density 19.465025000000001
#
# number of rings (size 3 to 8) (size 9 to 14) (size 15 to 20)
#    0.000    1.429    1.429    3.857    0.000    8.000 
#    0.000    0.714    0.000    0.000    0.000    0.000 
#    0.000    0.000    0.000    0.000    0.000    0.000 
#
# Total GULP energy -347374.326393 kJ/mol
# GULP energy per Si atom -12406.225943 kJ/mol
# Density = 1.942072 g / cm^3
# Si number density = 19.465025 Si / 1000 Ang^3
#
#
#
# Elastic Constant Matrix: (Units=GPa)
#
#
# Indices 1 2 3 4 5 6 
#
# 1 124.9284 50.9622 35.4012 0.0000 16.7321 0.0000
# 2 50.9622 93.7977 27.7399 0.0000 10.4177 0.0000
# 3 35.4012 27.7399 58.5194 0.0000 13.7868 0.0000
# 4 0.0000 0.0000 0.0000 31.1022 0.0000 -0.4768
# 5 16.7321 10.4177 13.7868 0.0000 25.3752 0.0000
# 6 0.0000 0.0000 0.0000 -0.4768 0.0000 33.7614
#
#
#
# Elastic Compliance Matrix: (Units=1/GPa)
#
#
# Indices 1 2 3 4 5 6 
#
# 1 0.011501 -0.004704 -0.003894 0.000000 -0.003536 0.000000
# 2 -0.004704 0.014429 -0.003818 0.000000 -0.000748 0.000000
# 3 -0.003894 -0.003818 0.023257 0.000000 -0.008500 0.000000
# 4 0.000000 0.000000 0.000000 0.032159 0.000000 0.000454
# 5 -0.003536 -0.000748 -0.008500 0.000000 0.046666 0.000000
# 6 0.000000 0.000000 0.000000 0.000454 0.000000 0.029626
#
#
# Mechanical properties :
#
#
# Convention : Reuss Voigt Hill
#
# Bulk Modulus (GPa) = 41.06130 56.16134 48.61132
# Shear Modulus (GPa) = 26.23456 28.92391 27.57924
#
# Velocity S-wave (km/s) = 3.67519 3.85897 3.76821
# Velocity P-wave (km/s) = 6.25701 6.98360 6.63026
#
# Compressibility (1/GPa) = 0.02435383
#
# Stress axis : x y z
#
# Youngs Moduli (GPa) = 86.95129 69.30363 42.99829
#
# Poissons Ratio (x) = 0.32601 0.16745
# Poissons Ratio (y) = 0.40903 0.16417
# Poissons Ratio (z) = 0.33862 0.26460
#
# Static dielectric constant tensor:
#      x y z
#    x 3.707540 0.000000 0.125630 
#    y 0.000000 3.701070 0.000000 
#    z 0.125630 0.000000 4.653140 
# 
# 
# High freq. dielectric constant tensor:
#      x y z
#    x 1.770590 0.000000 0.003610 
#    y 0.000000 1.773400 0.000000 
#    z 0.003610 0.000000 1.742260 
# 
# From -- ./inp_files/37669.got.cif
#   From: 2010.06.25/outbox.cif.g09.slc.cpg/sg11_19_cif.got.tgz:37669.got - 2010.06.27 23:14:04.
