data_PCOD8076338
_publ_section_title
;
Structure prediction by ZEFSAII (Michael W. Deem and Ramdas Pophale) SiO2 
 PCOD8076338
Probable space group: P 21/M
;
_chemical_formula_sum "Si O2"
_cell_formula_units_Z 32
_cell_length_a 17.007919
_cell_length_b 18.411457
_cell_length_c 16.194598
_cell_angle_alpha 90.000000
_cell_angle_beta 162.294687
_cell_angle_gamma 90.000000
_cell_volume 1542.256072
_symmetry_space_group_name_H-M "P 21/M"
_symmetry_group_IT_number 11
_symmetry_cell_setting 'monoclinic'
loop_
_space_group_symop_operation_xyz
x,y,z
-x,1/2+y,-z
-x,-y,-z
x,1/2-y,z
loop_
_atom_site_type_symbol
_atom_site_label
_atom_site_fract_x
_atom_site_fract_y
_atom_site_fract_z
Si Si1 0.996930 0.411092 0.196865
Si Si2 0.999993 0.835194 0.630472
Si Si3 0.496011 0.547039 0.912392
Si Si4 0.499592 0.664217 0.036178
Si Si5 0.988184 0.663531 0.160948
Si Si6 0.995379 0.950872 0.301694
Si Si7 0.487425 0.597754 0.575933
Si Si8 0.495901 0.072759 0.598214
O O1 0.999338 0.493864 0.229389
O O2 0.997718 0.355277 0.272374
O O3 0.244631 0.393870 0.389389
O O4 0.747100 0.394262 0.892500
O O5 0.999831 0.750000 0.621412
O O6 0.746133 0.866801 0.332268
O O7 0.251980 0.866790 0.837296
O O8 0.240661 0.533021 0.604131
O O9 0.500000 0.500000 0.000000
O O10 0.500081 0.631295 0.944724
O O11 0.742237 0.532673 0.101822
O O12 0.500015 0.750000 0.027232
O O13 0.004027 0.750000 0.186773
O O14 0.722052 0.641271 0.851238
O O15 0.999536 0.629132 0.264924
O O16 0.222880 0.634313 0.340617
O O17 0.505641 0.601699 0.495994
O O18 0.496068 0.513755 0.609789
#
# Coordination Sequence:
#
# PCOD8076338 Si02
#       8
#     4   4   4   4   4   4   4   4
#     4  12  21  39  62  96 123 162 201 261 304 373
#     4  10  21  38  60  85 119 159 201 252 316 377
#     4  12  24  39  60  90 122 159 202 271 310 360
#     4  10  21  39  59  80 113 162 207 246 307 381
#     4  12  25  44  66  93 134 173 210 259 310 369
#     4  12  24  39  62  90 126 158 213 249 317 371
#     4  11  22  44  64  95 123 165 216 251 305 368
#     4  11  22  38  69  91 124 160 207 259 302 365
#
# _framework density 20.748823999999999
#
# number of rings (size 3 to 8) (size 9 to 14) (size 15 to 20)
#    0.000    0.750    2.500    6.000    0.000    3.000 
#    0.000    3.750    0.000    0.000    0.000    0.000 
#    0.000    0.000    0.000    0.000    0.000    0.000 
#
# Total GULP energy -396925.980165 kJ/mol
# GULP energy per Si atom -12403.936880 kJ/mol
# Density = 2.070160 g / cm^3
# Si number density = 20.748824 Si / 1000 Ang^3
#
#
#
# Elastic Constant Matrix: (Units=GPa)
#
#
# Indices 1 2 3 4 5 6 
#
# 1 112.6106 24.1655 45.6158 0.0000 27.0294 0.0000
# 2 24.1655 45.9811 9.4102 0.0000 3.8278 0.0000
# 3 45.6158 9.4102 154.3876 0.0000 9.2263 0.0000
# 4 0.0000 0.0000 0.0000 11.3708 0.0000 -6.1070
# 5 27.0294 3.8278 9.2263 0.0000 64.5600 0.0000
# 6 0.0000 0.0000 0.0000 -6.1070 0.0000 33.1433
#
#
#
# Elastic Compliance Matrix: (Units=1/GPa)
#
#
# Indices 1 2 3 4 5 6 
#
# 1 0.012356 -0.005502 -0.003052 0.000000 -0.004411 0.000000
# 2 -0.005502 0.024554 0.000079 0.000000 0.000836 0.000000
# 3 -0.003052 0.000079 0.007361 0.000000 0.000221 0.000000
# 4 0.000000 0.000000 0.000000 0.097603 0.000000 0.017984
# 5 -0.004411 0.000836 0.000221 0.000000 0.017255 0.000000
# 6 0.000000 0.000000 0.000000 0.017984 0.000000 0.033486
#
#
# Mechanical properties :
#
#
# Convention : Reuss Voigt Hill
#
# Bulk Modulus (GPa) = 36.60157 52.37359 44.48758
# Shear Modulus (GPa) = 22.86546 37.40068 30.13307
#
# Velocity S-wave (km/s) = 3.32326 4.25024 3.81501
# Velocity P-wave (km/s) = 5.69245 7.02728 6.39479
#
# Compressibility (1/GPa) = 0.02732123
#
# Stress axis : x y z
#
# Youngs Moduli (GPa) = 80.93464 40.72687 135.85400
#
# Poissons Ratio (x) = 0.22407 0.41459
# Poissons Ratio (y) = 0.44529 -0.01074
# Poissons Ratio (z) = 0.24699 -0.00322
#
# Static dielectric constant tensor:
#      x y z
#    x 3.884600 0.000000 0.090500 
#    y 0.000000 3.689990 0.000000 
#    z 0.090500 0.000000 4.095900 
# 
# 
# High freq. dielectric constant tensor:
#      x y z
#    x 1.822630 0.000000 0.004560 
#    y 0.000000 1.804850 0.000000 
#    z 0.004560 0.000000 1.835480 
# 
# From -- ./inp_files/52727.got.cif
#   From: 2010.06.25/outbox.cif.g09.slc.cpg/sg11_27_cif.got.tgz:52727.got - 2010.06.27 23:14:04.
