data_PCOD8076851
_publ_section_title
;
Structure prediction by ZEFSAII (Michael W. Deem and Ramdas Pophale) SiO2 
 PCOD8076851
Probable space group: P 21/M
;
_chemical_formula_sum "Si O2"
_cell_formula_units_Z 28
_cell_length_a 9.426290
_cell_length_b 8.430682
_cell_length_c 27.285364
_cell_angle_alpha 90.000000
_cell_angle_beta 141.593519
_cell_angle_gamma 90.000000
_cell_volume 1347.070011
_symmetry_space_group_name_H-M "P 21/M"
_symmetry_group_IT_number 11
_symmetry_cell_setting 'monoclinic'
loop_
_space_group_symop_operation_xyz
x,y,z
-x,1/2+y,-z
-x,-y,-z
x,1/2-y,z
loop_
_atom_site_type_symbol
_atom_site_label
_atom_site_fract_x
_atom_site_fract_y
_atom_site_fract_z
Si Si1 0.247115 0.566218 0.058621
Si Si2 0.284218 0.432832 0.967423
Si Si3 0.309707 0.936350 0.346760
Si Si4 0.515386 0.066489 0.219564
Si Si5 0.983925 0.437628 0.640768
Si Si6 0.828212 0.561041 0.495195
Si Si7 0.817747 0.061633 0.794617
O O1 0.237696 0.750000 0.042475
O O2 0.404342 0.542288 0.147958
O O3 0.341227 0.467593 0.038862
O O4 0.000000 0.500000 0.000000
O O5 0.265635 0.250000 0.951309
O O6 0.046139 0.506596 0.882833
O O7 0.500000 0.500000 0.000000
O O8 0.311444 0.750000 0.352833
O O9 0.571073 0.994243 0.412713
O O10 0.176238 0.986967 0.261097
O O11 0.179572 0.003147 0.359656
O O12 0.471527 0.250000 0.196001
O O13 0.781602 0.032263 0.292574
O O14 0.402308 0.020646 0.240719
O O15 0.028025 0.250000 0.657250
O O16 0.874671 0.477365 0.559241
O O17 0.852424 0.750000 0.506499
O O18 0.000000 0.500000 0.500000
O O19 0.791944 0.250000 0.794114
#
# Coordination Sequence:
#
# PCOD8076851 Si02
#       7
#     4   4   4   4   4   4   4
#     4  12  24  42  66  92 125 167 215 267 324 384
#     4  11  24  40  63  93 129 169 215 267 323 382
#     4   9  21  40  64  92 124 164 209 256 310 371
#     4  12  25  41  63  94 127 164 213 265 319 380
#     4  11  23  41  65  93 127 167 208 257 316 375
#     4  11  22  40  66  96 129 165 209 257 308 375
#     4  10  21  41  65  90 122 167 215 262 316 377
#
# _framework density 20.785855000000002
#
# number of rings (size 3 to 8) (size 9 to 14) (size 15 to 20)
#    0.000    1.143    1.429    5.143    2.000    1.714 
#    0.000    4.286    0.000    0.000    0.000    0.000 
#    0.000    0.000    0.000    0.000    0.000    0.000 
#
# Total GULP energy -347226.998452 kJ/mol
# GULP energy per Si atom -12400.964230 kJ/mol
# Density = 2.073855 g / cm^3
# Si number density = 20.785855 Si / 1000 Ang^3
#
#
#
# Elastic Constant Matrix: (Units=GPa)
#
#
# Indices 1 2 3 4 5 6 
#
# 1 178.7500 27.2763 49.4363 0.0000 -0.8518 0.0000
# 2 27.2763 59.4074 19.7717 0.0000 7.4228 0.0000
# 3 49.4363 19.7717 101.0840 0.0000 -4.9915 0.0000
# 4 0.0000 0.0000 0.0000 32.1997 0.0000 -1.2846
# 5 -0.8518 7.4228 -4.9915 0.0000 42.0047 0.0000
# 6 0.0000 0.0000 0.0000 -1.2846 0.0000 33.2243
#
#
#
# Elastic Compliance Matrix: (Units=1/GPa)
#
#
# Indices 1 2 3 4 5 6 
#
# 1 0.006713 -0.002155 -0.002853 0.000000 0.000178 0.000000
# 2 -0.002155 0.019262 -0.002901 0.000000 -0.003792 0.000000
# 3 -0.002853 -0.002901 0.011948 0.000000 0.001875 0.000000
# 4 0.000000 0.000000 0.000000 0.031104 0.000000 0.001203
# 5 0.000178 -0.003792 0.001875 0.000000 0.024703 0.000000
# 6 0.000000 0.000000 0.000000 0.001203 0.000000 0.030145
#
#
# Mechanical properties :
#
#
# Convention : Reuss Voigt Hill
#
# Bulk Modulus (GPa) = 45.23799 59.13446 52.18623
# Shear Modulus (GPa) = 33.99952 37.66955 35.83453
#
# Velocity S-wave (km/s) = 4.04877 4.26169 4.15660
# Velocity P-wave (km/s) = 6.60816 7.26135 6.94244
#
# Compressibility (1/GPa) = 0.02210531
#
# Stress axis : x y z
#
# Youngs Moduli (GPa) = 148.96267 51.91667 83.69657
#
# Poissons Ratio (x) = 0.11188 0.23877
# Poissons Ratio (y) = 0.32102 0.24279
# Poissons Ratio (z) = 0.42496 0.15060
#
# Static dielectric constant tensor:
#      x y z
#    x 3.802150 0.000000 0.070170 
#    y 0.000000 3.634290 0.000000 
#    z 0.070170 0.000000 3.558440 
# 
# 
# High freq. dielectric constant tensor:
#      x y z
#    x 1.830940 0.000000 -0.001980 
#    y 0.000000 1.803890 0.000000 
#    z -0.001980 0.000000 1.824920 
# 
# From -- ./inp_files/28309.got.cif
#   From: 2010.06.25/outbox.cif.g09.slc.cpg/sg11_15_cif.got.tgz:28309.got - 2010.06.27 23:14:04.
