data_PCOD8076777
_publ_section_title
;
Structure prediction by ZEFSAII (Michael W. Deem and Ramdas Pophale) SiO2 
 PCOD8076777
Probable space group: P 21/M
;
_chemical_formula_sum "Si O2"
_cell_formula_units_Z 28
_cell_length_a 25.865918
_cell_length_b 8.938861
_cell_length_c 9.925873
_cell_angle_alpha 90.000000
_cell_angle_beta 38.867011
_cell_angle_gamma 90.000000
_cell_volume 1440.133703
_symmetry_space_group_name_H-M "P 21/M"
_symmetry_group_IT_number 11
_symmetry_cell_setting 'monoclinic'
loop_
_space_group_symop_operation_xyz
x,y,z
-x,1/2+y,-z
-x,-y,-z
x,1/2-y,z
loop_
_atom_site_type_symbol
_atom_site_label
_atom_site_fract_x
_atom_site_fract_y
_atom_site_fract_z
Si Si1 0.064068 0.425391 0.771158
Si Si2 0.774297 0.080887 0.472931
Si Si3 0.749985 0.574345 0.990342
Si Si4 0.517390 0.575539 0.822623
Si Si5 0.346993 0.919499 0.041508
Si Si6 0.318802 0.924392 0.606986
Si Si7 0.933881 0.573741 0.537595
O O1 0.052390 0.250000 0.804399
O O2 0.155928 0.464637 0.628842
O O3 0.048707 0.481385 0.649888
O O4 0.000000 0.500000 0.000000
O O5 0.809008 0.250000 0.412772
O O6 0.696381 0.058086 0.726963
O O7 0.745632 0.044048 0.380909
O O8 0.744455 0.750000 0.031328
O O9 0.688692 0.535686 0.993064
O O10 0.842128 0.523872 0.764624
O O11 0.724317 0.481704 0.171781
O O12 0.529333 0.750000 0.826398
O O13 0.597083 0.511343 0.588155
O O14 0.500000 0.500000 0.000000
O O15 0.442852 0.545907 0.870209
O O16 0.333750 0.750000 0.015505
O O17 0.339789 0.750000 0.576505
O O18 0.943314 0.750000 0.529978
O O19 0.000000 0.500000 0.500000
#
# Coordination Sequence:
#
# PCOD8076777 Si02
#       7
#     4   4   4   4   4   4   4
#     4  11  24  42  63  94 126 159 204 254 307 367
#     4  10  21  40  64  91 123 161 207 253 304 365
#     4  11  24  43  63  92 125 162 209 255 306 370
#     4  11  22  39  63  94 128 163 208 258 310 368
#     4  10  21  40  65  91 121 163 207 250 306 369
#     4  11  24  42  63  93 127 165 209 257 310 368
#     4  10  24  43  63  89 123 160 203 249 304 365
#
# _framework density 19.442640000000001
#
# number of rings (size 3 to 8) (size 9 to 14) (size 15 to 20)
#    0.000    1.429    2.857    1.714    2.000    5.143 
#    0.000    0.000    0.000    0.000    0.000    0.000 
#    0.000    0.000    0.000    0.000    0.000    0.000 
#
# Total GULP energy -347342.697358 kJ/mol
# GULP energy per Si atom -12405.096334 kJ/mol
# Density = 1.939839 g / cm^3
# Si number density = 19.442640 Si / 1000 Ang^3
#
#
#
# Elastic Constant Matrix: (Units=GPa)
#
#
# Indices 1 2 3 4 5 6 
#
# 1 135.2867 63.4909 72.2590 0.0000 4.0605 0.0000
# 2 63.4909 77.5864 50.2733 0.0000 -4.6424 0.0000
# 3 72.2590 50.2733 133.8838 0.0000 5.7236 0.0000
# 4 0.0000 0.0000 0.0000 37.2101 0.0000 -0.6046
# 5 4.0605 -4.6424 5.7236 0.0000 31.3525 0.0000
# 6 0.0000 0.0000 0.0000 -0.6046 0.0000 38.0349
#
#
#
# Elastic Compliance Matrix: (Units=1/GPa)
#
#
# Indices 1 2 3 4 5 6 
#
# 1 0.013720 -0.008767 -0.004012 0.000000 -0.002343 0.000000
# 2 -0.008767 0.023077 -0.004161 0.000000 0.005312 0.000000
# 3 -0.004012 -0.004161 0.011289 0.000000 -0.002157 0.000000
# 4 0.000000 0.000000 0.000000 0.026881 0.000000 0.000427
# 5 -0.002343 0.005312 -0.002157 0.000000 0.033379 0.000000
# 6 0.000000 0.000000 0.000000 0.000427 0.000000 0.026298
#
#
# Mechanical properties :
#
#
# Convention : Reuss Voigt Hill
#
# Bulk Modulus (GPa) = 70.39672 79.86702 75.13187
# Shear Modulus (GPa) = 28.85809 32.03507 30.44658
#
# Velocity S-wave (km/s) = 3.85680 4.06355 3.96153
# Velocity P-wave (km/s) = 7.49127 7.94884 7.72345
#
# Compressibility (1/GPa) = 0.01420521
#
# Stress axis : x y z
#
# Youngs Moduli (GPa) = 72.88765 43.33257 88.57953
#
# Poissons Ratio (x) = 0.37992 0.35542
# Poissons Ratio (y) = 0.63904 0.36855
# Poissons Ratio (z) = 0.29246 0.18029
#
# Static dielectric constant tensor:
#      x y z
#    x 3.741040 0.000000 -0.127450 
#    y 0.000000 3.447860 0.000000 
#    z -0.127450 0.000000 3.826130 
# 
# 
# High freq. dielectric constant tensor:
#      x y z
#    x 1.766900 0.000000 0.000120 
#    y 0.000000 1.762070 0.000000 
#    z 0.000120 0.000000 1.766940 
# 
# From -- ./inp_files/28375.got.cif
#   From: 2010.06.25/outbox.cif.g09.slc.cpg/sg11_15_cif.got.tgz:28375.got - 2010.06.27 23:14:04.
