data_PCOD8076122
_publ_section_title
;
Structure prediction by ZEFSAII (Michael W. Deem and Ramdas Pophale) SiO2 
 PCOD8076122
Probable space group: P 21/M
;
_chemical_formula_sum "Si O2"
_cell_formula_units_Z 28
_cell_length_a 22.208692
_cell_length_b 13.249690
_cell_length_c 5.045227
_cell_angle_alpha 90.000000
_cell_angle_beta 75.558452
_cell_angle_gamma 90.000000
_cell_volume 1437.690300
_symmetry_space_group_name_H-M "P 21/M"
_symmetry_group_IT_number 11
_symmetry_cell_setting 'monoclinic'
loop_
_space_group_symop_operation_xyz
x,y,z
-x,1/2+y,-z
-x,-y,-z
x,1/2-y,z
loop_
_atom_site_type_symbol
_atom_site_label
_atom_site_fract_x
_atom_site_fract_y
_atom_site_fract_z
Si Si1 0.868660 0.538640 0.100639
Si Si2 0.374783 0.869311 0.599750
Si Si3 0.671917 0.868312 0.822347
Si Si4 0.726114 0.965598 0.255309
Si Si5 0.928302 0.750000 0.097483
Si Si6 0.429792 0.530689 0.031161
Si Si7 0.984726 0.250000 0.499093
Si Si8 0.068001 0.957689 0.468561
O O1 0.797562 0.513674 0.242934
O O2 0.882469 0.656064 0.122194
O O3 0.911469 0.474857 0.252303
O O4 0.883300 0.508613 0.783197
O O5 0.362693 0.750000 0.634769
O O6 0.423675 0.907052 0.765955
O O7 0.309046 0.926664 0.711115
O O8 0.403930 0.895641 0.285227
O O9 0.660062 0.750000 0.869840
O O10 0.696539 0.890853 0.502773
O O11 0.722142 0.909037 0.978105
O O12 0.607279 0.925574 0.944472
O O13 0.960073 0.750000 0.349102
O O14 0.982845 0.750000 0.822500
O O15 0.500000 0.500000 0.000000
O O16 0.936398 0.340165 0.584840
O O17 0.000000 0.000000 0.500000
#
# Coordination Sequence:
#
# PCOD8076122 Si02
#       8
#     4   4   4   4   2   4   2   4
#     4  12  24  40  63  87 117 152 194 245 289 353
#     4  10  21  40  63  85 121 166 200 241 293 342
#     4  10  21  37  59  86 122 157 188 239 297 340
#     4  10  23  41  58  87 118 153 199 243 286 345
#     4  12  22  36  62  92 110 152 194 228 296 366
#     4  10  21  38  60  92 124 154 201 246 286 345
#     4  12  24  40  62  84 118 152 188 232 304 364
#     4  12  23  43  60  86 119 151 189 243 301 349
#
# _framework density 19.475681000000002
#
# number of rings (size 3 to 8) (size 9 to 14) (size 15 to 20)
#    0.000    1.143    2.857    3.429    2.000    1.143 
#    2.571    0.000    0.000    0.000    0.000    0.000 
#    0.000    0.000    0.000    0.000    0.000    0.000 
#
# Total GULP energy -347349.662226 kJ/mol
# GULP energy per Si atom -12405.345079 kJ/mol
# Density = 1.943135 g / cm^3
# Si number density = 19.475681 Si / 1000 Ang^3
#
#
#
# Elastic Constant Matrix: (Units=GPa)
#
#
# Indices 1 2 3 4 5 6 
#
# 1 111.1732 47.0681 15.2308 0.0000 -0.4048 0.0000
# 2 47.0681 160.5225 22.7817 0.0000 -1.3321 0.0000
# 3 15.2308 22.7817 60.2155 0.0000 12.6763 0.0000
# 4 0.0000 0.0000 0.0000 26.2904 0.0000 4.6078
# 5 -0.4048 -1.3321 12.6763 0.0000 31.4616 0.0000
# 6 0.0000 0.0000 0.0000 4.6078 0.0000 16.3708
#
#
#
# Elastic Compliance Matrix: (Units=1/GPa)
#
#
# Indices 1 2 3 4 5 6 
#
# 1 0.010421 -0.002805 -0.001724 0.000000 0.000710 0.000000
# 2 -0.002805 0.007395 -0.002346 0.000000 0.001222 0.000000
# 3 -0.001724 -0.002346 0.019620 0.000000 -0.008027 0.000000
# 4 0.000000 0.000000 0.000000 0.040011 0.000000 -0.011262
# 5 0.000710 0.001222 -0.008027 0.000000 0.035080 0.000000
# 6 0.000000 0.000000 0.000000 -0.011262 0.000000 0.064254
#
#
# Mechanical properties :
#
#
# Convention : Reuss Voigt Hill
#
# Bulk Modulus (GPa) = 42.21706 55.78583 49.00144
# Shear Modulus (GPa) = 25.19818 31.27992 28.23905
#
# Velocity S-wave (km/s) = 3.60088 4.01197 3.81197
# Velocity P-wave (km/s) = 6.24599 7.08288 6.67756
#
# Compressibility (1/GPa) = 0.02368711
#
# Stress axis : x y z
#
# Youngs Moduli (GPa) = 95.95637 135.22247 50.96757
#
# Poissons Ratio (x) = 0.37932 0.08787
# Poissons Ratio (y) = 0.26917 0.11955
# Poissons Ratio (z) = 0.16544 0.31718
#
# Static dielectric constant tensor:
#      x y z
#    x 3.517050 0.000000 0.168410 
#    y 0.000000 3.431510 0.000000 
#    z 0.168410 0.000000 3.720920 
# 
# 
# High freq. dielectric constant tensor:
#      x y z
#    x 1.755450 0.000000 0.013880 
#    y 0.000000 1.763660 0.000000 
#    z 0.013880 0.000000 1.773170 
# 
# From -- ./inp_files/8797.got.cif
#   From: 2010.06.25/outbox.cif.g09.slc.cpg/sg11_5_cif.got.tgz:8797.got - 2010.06.27 23:14:04.
