data_PCOD8076348
_publ_section_title
;
Structure prediction by ZEFSAII (Michael W. Deem and Ramdas Pophale) SiO2 
 PCOD8076348
Probable space group: P 21/M
;
_chemical_formula_sum "Si O2"
_cell_formula_units_Z 32
_cell_length_a 15.428753
_cell_length_b 20.903336
_cell_length_c 15.176342
_cell_angle_alpha 90.000000
_cell_angle_beta 161.150281
_cell_angle_gamma 90.000000
_cell_volume 1581.368443
_symmetry_space_group_name_H-M "P 21/M"
_symmetry_group_IT_number 11
_symmetry_cell_setting 'monoclinic'
loop_
_space_group_symop_operation_xyz
x,y,z
-x,1/2+y,-z
-x,-y,-z
x,1/2-y,z
loop_
_atom_site_type_symbol
_atom_site_label
_atom_site_fract_x
_atom_site_fract_y
_atom_site_fract_z
Si Si1 0.873678 0.677431 0.283416
Si Si2 0.866651 0.133482 0.643475
Si Si3 0.739616 0.010321 0.418832
Si Si4 0.256957 0.572579 0.926008
Si Si5 0.160651 0.825361 0.975594
Si Si6 0.335985 0.605838 0.806807
Si Si7 0.372435 0.325143 0.447049
Si Si8 0.676779 0.824420 0.797117
O O1 0.792098 0.750000 0.224838
O O2 0.009984 0.671986 0.319376
O O3 0.087162 0.655032 0.562358
O O4 0.606642 0.635196 0.027412
O O5 0.803326 0.060282 0.557717
O O6 0.592814 0.168281 0.406308
O O7 0.079417 0.135067 0.927443
O O8 0.738266 0.043864 0.322168
O O9 0.962069 0.955519 0.631236
O O10 0.451851 0.978180 0.161534
O O11 0.386469 0.587376 0.955948
O O12 0.246625 0.638311 0.970168
O O13 0.170676 0.750000 0.963636
O O14 0.352999 0.843953 0.241587
O O15 0.870670 0.850702 0.726830
O O16 0.338968 0.250000 0.405917
O O17 0.368785 0.353121 0.344643
O O18 0.760631 0.750000 0.876548
#
# Coordination Sequence:
#
# PCOD8076348 Si02
#       8
#     4   4   4   4   4   4   4   4
#     4  11  22  37  56  85 127 157 180 229 298 346
#     4  11  22  36  56  86 119 154 191 233 275 335
#     4  11  23  40  59  83 116 152 198 240 280 325
#     4  12  23  40  64  83 108 153 199 240 283 341
#     4  10  21  38  60  87 115 142 183 240 298 343
#     4  11  23  39  59  86 114 155 201 242 276 326
#     4   9  19  36  58  86 117 147 181 232 288 341
#     4  11  20  34  61  90 116 150 191 229 280 345
#
# _framework density 20.235638000000002
#
# number of rings (size 3 to 8) (size 9 to 14) (size 15 to 20)
#    0.000    1.250    0.000    8.250    0.000    3.000 
#    0.000    1.250    0.000   15.000    0.000    0.000 
#    0.000    0.000    0.000    0.000    0.000    0.000 
#
# Total GULP energy -396969.477892 kJ/mol
# GULP energy per Si atom -12405.296184 kJ/mol
# Density = 2.018958 g / cm^3
# Si number density = 20.235638 Si / 1000 Ang^3
#
#
#
# Elastic Constant Matrix: (Units=GPa)
#
#
# Indices 1 2 3 4 5 6 
#
# 1 86.3791 43.7787 22.4727 0.0000 -9.9652 0.0000
# 2 43.7787 81.2525 36.0870 0.0000 -11.7224 0.0000
# 3 22.4727 36.0870 104.7244 0.0000 1.3061 0.0000
# 4 0.0000 0.0000 0.0000 35.1411 0.0000 1.5754
# 5 -9.9652 -11.7224 1.3061 0.0000 24.0812 0.0000
# 6 0.0000 0.0000 0.0000 1.5754 0.0000 20.6257
#
#
#
# Elastic Compliance Matrix: (Units=1/GPa)
#
#
# Indices 1 2 3 4 5 6 
#
# 1 0.016128 -0.007941 -0.000760 0.000000 0.002850 0.000000
# 2 -0.007941 0.019869 -0.005226 0.000000 0.006669 0.000000
# 3 -0.000760 -0.005226 0.011556 0.000000 -0.003485 0.000000
# 4 0.000000 0.000000 0.000000 0.028554 0.000000 -0.002181
# 5 0.002850 0.006669 -0.003485 0.000000 0.046141 0.000000
# 6 0.000000 0.000000 0.000000 -0.002181 0.000000 0.048650
#
#
# Mechanical properties :
#
#
# Convention : Reuss Voigt Hill
#
# Bulk Modulus (GPa) = 50.76266 53.00363 51.88314
# Shear Modulus (GPa) = 24.35236 27.30412 25.82824
#
# Velocity S-wave (km/s) = 3.47283 3.67728 3.57651
# Velocity P-wave (km/s) = 6.42035 6.65431 6.53838
#
# Compressibility (1/GPa) = 0.01969952
#
# Stress axis : x y z
#
# Youngs Moduli (GPa) = 62.00376 50.32939 86.53369
#
# Poissons Ratio (x) = 0.39967 0.06577
# Poissons Ratio (y) = 0.49238 0.45221
# Poissons Ratio (z) = 0.04712 0.26301
#
# Static dielectric constant tensor:
#      x y z
#    x 3.636920 0.000000 -0.056180 
#    y 0.000000 3.522580 0.000000 
#    z -0.056180 0.000000 3.928580 
# 
# 
# High freq. dielectric constant tensor:
#      x y z
#    x 1.783250 0.000000 0.000940 
#    y 0.000000 1.770920 0.000000 
#    z 0.000940 0.000000 1.814420 
# 
# From -- ./inp_files/52682.got.cif
#   From: 2010.06.25/outbox.cif.g09.slc.cpg/sg11_27_cif.got.tgz:52682.got - 2010.06.27 23:14:04.
