data_PCOD8076950
_publ_section_title
;
Structure prediction by ZEFSAII (Michael W. Deem and Ramdas Pophale) SiO2 
 PCOD8076950
Probable space group: P 21/M
;
_chemical_formula_sum "Si O2"
_cell_formula_units_Z 26
_cell_length_a 7.343295
_cell_length_b 11.978924
_cell_length_c 23.552529
_cell_angle_alpha 90.000000
_cell_angle_beta 141.211131
_cell_angle_gamma 90.000000
_cell_volume 1297.879600
_symmetry_space_group_name_H-M "P 21/M"
_symmetry_group_IT_number 11
_symmetry_cell_setting 'monoclinic'
loop_
_space_group_symop_operation_xyz
x,y,z
-x,1/2+y,-z
-x,-y,-z
x,1/2-y,z
loop_
_atom_site_type_symbol
_atom_site_label
_atom_site_fract_x
_atom_site_fract_y
_atom_site_fract_z
Si Si1 0.219823 0.478606 0.603769
Si Si2 0.799020 0.478607 0.603769
Si Si3 0.766704 0.505292 0.106682
Si Si4 0.785883 0.119759 0.228112
Si Si5 0.354679 0.119759 0.228113
Si Si6 0.069588 0.250000 0.827836
Si Si7 0.019638 0.750000 0.321270
Si Si8 0.413285 0.250000 0.678730
O O1 0.468904 0.572362 0.673699
O O2 0.356487 0.357582 0.625486
O O3 0.000000 0.500000 0.500000
O O4 0.053997 0.472790 0.621599
O O5 0.500000 0.500000 0.500000
O O6 0.899593 0.572362 0.673699
O O7 0.770942 0.357583 0.625486
O O8 0.694261 0.447009 0.149421
O O9 0.789237 0.637755 0.115695
O O10 0.052846 0.447009 0.149422
O O11 0.500000 0.500000 0.000000
O O12 0.829838 0.250000 0.224886
O O13 0.533559 0.102080 0.213424
O O14 0.294595 0.250000 0.224887
O O15 0.127883 0.250000 0.775131
O O16 0.747772 0.250000 0.775133
O O17 0.770192 0.750000 0.308076
#
# Coordination Sequence:
#
# PCOD8076950 Si02
#       8
#     4   4   4   4   4   2   2   2
#     4  10  22  37  59  91 127 168 216 262 315 379
#     4  10  22  37  59  91 127 168 216 262 315 379
#     4  12  27  44  71 100 128 165 220 275 334 388
#     4  10  23  45  66  92 132 174 213 266 323 388
#     4  10  23  45  66  92 132 174 213 266 323 388
#     4  12  24  42  72  90 126 178 208 276 336 368
#     4  10  22  42  60  87 127 171 217 266 316 386
#     4  10  22  42  60  87 127 171 217 266 316 386
#
# _framework density 20.032674
#
# number of rings (size 3 to 8) (size 9 to 14) (size 15 to 20)
#    0.000    1.538    3.077    0.462    8.615    0.615 
#    0.000    0.000    0.000    0.000    0.000    0.000 
#    0.000    0.000    0.000    0.000    0.000    0.000 
#
# Total GULP energy -322202.838118 kJ/mol
# GULP energy per Si atom -12392.416851 kJ/mol
# Density = 1.998708 g / cm^3
# Si number density = 20.032674 Si / 1000 Ang^3
#
#
#
# Elastic Constant Matrix: (Units=GPa)
#
#
# Indices 1 2 3 4 5 6 
#
# 1 72.2170 43.1673 40.1219 0.0000 -0.4332 0.0000
# 2 43.1673 213.8976 97.0654 0.0000 -1.5074 0.0000
# 3 40.1219 97.0654 190.6401 0.0000 -2.8792 0.0000
# 4 0.0000 0.0000 0.0000 35.9541 0.0000 -0.5576
# 5 -0.4332 -1.5074 -2.8792 0.0000 23.8586 0.0000
# 6 0.0000 0.0000 0.0000 -0.5576 0.0000 16.0125
#
#
#
# Elastic Compliance Matrix: (Units=1/GPa)
#
#
# Indices 1 2 3 4 5 6 
#
# 1 0.016494 -0.002280 -0.002312 0.000000 -0.000124 0.000000
# 2 -0.002280 0.006395 -0.002776 0.000000 0.000028 0.000000
# 3 -0.002312 -0.002776 0.007155 0.000000 0.000646 0.000000
# 4 0.000000 0.000000 0.000000 0.027828 0.000000 0.000969
# 5 -0.000124 0.000028 0.000646 0.000000 0.041991 0.000000
# 6 0.000000 0.000000 0.000000 0.000969 0.000000 0.062485
#
#
# Mechanical properties :
#
#
# Convention : Reuss Voigt Hill
#
# Bulk Modulus (GPa) = 65.32611 93.05156 79.18884
# Shear Modulus (GPa) = 27.44421 34.92504 31.18462
#
# Velocity S-wave (km/s) = 3.70533 4.17994 3.94977
# Velocity P-wave (km/s) = 7.14048 8.35743 7.77281
#
# Compressibility (1/GPa) = 0.01530781
#
# Stress axis : x y z
#
# Youngs Moduli (GPa) = 60.62795 156.36794 139.75913
#
# Poissons Ratio (x) = 0.35657 0.32314
# Poissons Ratio (y) = 0.13825 0.38794
# Poissons Ratio (z) = 0.14018 0.43405
#
# Static dielectric constant tensor:
#      x y z
#    x 3.398830 0.000000 -0.002070 
#    y 0.000000 3.472100 0.000000 
#    z -0.002070 0.000000 3.473590 
# 
# 
# High freq. dielectric constant tensor:
#      x y z
#    x 1.789670 0.000000 0.000630 
#    y 0.000000 1.806600 0.000000 
#    z 0.000630 0.000000 1.767020 
# 
# From -- ./inp_files/71074.got.cif
#   From: 2010.06.25/outbox.cif.g09.slc.cpg/sg11_36_cif.got.tgz:71074.got - 2010.06.27 23:14:04.
