data_PCOD8076599
_publ_section_title
;
Structure prediction by ZEFSAII (Michael W. Deem and Ramdas Pophale) SiO2 
 PCOD8076599
Probable space group: P 21/M
;
_chemical_formula_sum "Si O2"
_cell_formula_units_Z 16
_cell_length_a 7.136029
_cell_length_b 14.467365
_cell_length_c 9.398978
_cell_angle_alpha 90.000000
_cell_angle_beta 53.399467
_cell_angle_gamma 90.000000
_cell_volume 779.005448
_symmetry_space_group_name_H-M "P 21/M"
_symmetry_group_IT_number 11
_symmetry_cell_setting 'monoclinic'
loop_
_space_group_symop_operation_xyz
x,y,z
-x,1/2+y,-z
-x,-y,-z
x,1/2-y,z
loop_
_atom_site_type_symbol
_atom_site_label
_atom_site_fract_x
_atom_site_fract_y
_atom_site_fract_z
Si Si1 0.935821 0.145115 0.350789
Si Si2 0.241363 0.971076 0.823931
Si Si3 0.533797 0.899223 0.925635
Si Si4 0.541984 0.350052 0.734924
O O1 0.920319 0.250000 0.299276
O O2 0.204876 0.118306 0.246485
O O3 0.808794 0.135121 0.561209
O O4 0.799995 0.075307 0.308803
O O5 0.388554 0.065782 0.744115
O O6 0.365759 0.892142 0.864759
O O7 0.000000 0.000000 0.000000
O O8 0.461704 0.836498 0.092011
O O9 0.500000 0.000000 0.000000
O O10 0.451600 0.250000 0.715857
#
# Coordination Sequence:
#
# PCOD8076599 Si02
#       4
#     4   4   4   4
#     4  11  23  41  63  91 127 164 206 258 304 361
#     4  11  22  40  66  92 122 166 205 251 311 363
#     4  10  21  39  62  86 118 160 204 250 309 357
#     4  10  22  41  63  90 128 165 204 256 307 360
#
# _framework density 20.539007999999999
#
# number of rings (size 3 to 8) (size 9 to 14) (size 15 to 20)
#    0.000    1.500    5.000    1.500    0.000    6.000 
#    4.500    0.000    0.000    0.000    0.000    0.000 
#    0.000    0.000    0.000    0.000    0.000    0.000 
#
# Total GULP energy -198224.524471 kJ/mol
# GULP energy per Si atom -12389.032779 kJ/mol
# Density = 2.049226 g / cm^3
# Si number density = 20.539008 Si / 1000 Ang^3
#
#
#
# Elastic Constant Matrix: (Units=GPa)
#
#
# Indices 1 2 3 4 5 6 
#
# 1 133.3179 41.6231 69.0198 0.0000 -13.6112 0.0000
# 2 41.6231 118.3256 35.3410 0.0000 -18.6303 0.0000
# 3 69.0198 35.3410 132.0169 0.0000 -39.8065 0.0000
# 4 0.0000 0.0000 0.0000 27.5909 0.0000 -3.9338
# 5 -13.6112 -18.6303 -39.8065 0.0000 35.0121 0.0000
# 6 0.0000 0.0000 0.0000 -3.9338 0.0000 24.1048
#
#
#
# Elastic Compliance Matrix: (Units=1/GPa)
#
#
# Indices 1 2 3 4 5 6 
#
# 1 0.011263 -0.002722 -0.006507 0.000000 -0.004468 0.000000
# 2 -0.002722 0.010083 0.000034 0.000000 0.004346 0.000000
# 3 -0.006507 0.000034 0.015536 0.000000 0.015153 0.000000
# 4 0.000000 0.000000 0.000000 0.037107 0.000000 0.006056
# 5 -0.004468 0.004346 0.015153 0.000000 0.046365 0.000000
# 6 0.000000 0.000000 0.000000 0.006056 0.000000 0.042474
#
#
# Mechanical properties :
#
#
# Convention : Reuss Voigt Hill
#
# Bulk Modulus (GPa) = 54.07419 75.06980 64.57200
# Shear Modulus (GPa) = 26.68349 33.18668 29.93509
#
# Velocity S-wave (km/s) = 3.60830 4.02405 3.82183
# Velocity P-wave (km/s) = 6.61396 7.63019 7.14018
#
# Compressibility (1/GPa) = 0.01849311
#
# Stress axis : x y z
#
# Youngs Moduli (GPa) = 88.78371 99.17890 64.36492
#
# Poissons Ratio (x) = 0.26997 0.41883
# Poissons Ratio (y) = 0.24167 -0.00221
# Poissons Ratio (z) = 0.57772 -0.00341
#
# Static dielectric constant tensor:
#      x y z
#    x 4.549170 0.000000 0.716390 
#    y 0.000000 4.935810 0.000000 
#    z 0.716390 0.000000 4.508080 
# 
# 
# High freq. dielectric constant tensor:
#      x y z
#    x 1.779620 0.000000 -0.016880 
#    y 0.000000 1.817380 0.000000 
#    z -0.016880 0.000000 1.817480 
# 
# From -- ./inp_files/9921.got.cif
#   From: 2010.06.25/outbox.cif.g09.slc.cpg/sg11_5_cif.got.tgz:9921.got - 2010.06.27 23:14:04.
