data_PCOD8077332
_publ_section_title
;
Structure prediction by ZEFSAII (Michael W. Deem and Ramdas Pophale) SiO2 
 PCOD8077332
Probable space group: P 21/M
;
_chemical_formula_sum "Si O2"
_cell_formula_units_Z 32
_cell_length_a 14.814295
_cell_length_b 13.777903
_cell_length_c 20.347702
_cell_angle_alpha 90.000000
_cell_angle_beta 158.475108
_cell_angle_gamma 90.000000
_cell_volume 1523.819739
_symmetry_space_group_name_H-M "P 21/M"
_symmetry_group_IT_number 11
_symmetry_cell_setting 'monoclinic'
loop_
_space_group_symop_operation_xyz
x,y,z
-x,1/2+y,-z
-x,-y,-z
x,1/2-y,z
loop_
_atom_site_type_symbol
_atom_site_label
_atom_site_fract_x
_atom_site_fract_y
_atom_site_fract_z
Si Si1 0.253863 0.555249 0.818392
Si Si2 0.016493 0.558474 0.903563
Si Si3 0.848085 0.142760 0.773298
Si Si4 0.495895 0.860653 0.581646
Si Si5 0.719551 0.024518 0.301686
Si Si6 0.734249 0.030502 0.455858
Si Si7 0.400880 0.640571 0.261112
Si Si8 0.331670 0.860111 0.004467
O O1 0.291943 0.598067 0.769343
O O2 0.227424 0.633334 0.858903
O O3 0.028391 0.477753 0.664232
O O4 0.500000 0.500000 0.000000
O O5 0.052574 0.441618 0.920087
O O6 0.727755 0.574705 0.718885
O O7 0.104524 0.612874 0.897812
O O8 0.159888 0.595111 0.064279
O O9 0.974447 0.250000 0.860619
O O10 0.715802 0.125522 0.614830
O O11 0.640865 0.137583 0.689364
O O12 0.584186 0.750000 0.647356
O O13 0.383186 0.893015 0.574456
O O14 0.642796 0.066142 0.321115
O O15 0.561493 0.928640 0.177036
O O16 0.000000 0.000000 0.500000
O O17 0.639061 0.921003 0.403475
O O18 0.443871 0.750000 0.264790
O O19 0.415187 0.750000 0.073831
#
# Coordination Sequence:
#
# PCOD8077332 Si02
#       8
#     4   4   4   4   4   4   4   4
#     4   9  21  41  63  90 122 159 211 270 334 380
#     4  12  22  39  61  93 134 173 208 259 317 374
#     4  10  23  40  59  86 126 175 216 258 305 370
#     4  11  24  40  59  91 131 172 219 259 311 381
#     4   9  20  41  64  85 120 163 210 264 330 375
#     4  11  21  39  64  89 126 175 211 261 326 383
#     4  11  23  37  58  92 129 169 216 261 310 371
#     4  11  22  37  64  98 127 164 211 262 321 384
#
# _framework density 20.999859000000001
#
# number of rings (size 3 to 8) (size 9 to 14) (size 15 to 20)
#    0.000    1.500    2.500    2.625    1.750    0.500 
#    0.000    8.125    0.000    7.500    0.000    0.000 
#    0.000    0.000    0.000    0.000    0.000    0.000 
#
# Total GULP energy -396568.315042 kJ/mol
# GULP energy per Si atom -12392.759845 kJ/mol
# Density = 2.095206 g / cm^3
# Si number density = 20.999859 Si / 1000 Ang^3
#
#
#
# Elastic Constant Matrix: (Units=GPa)
#
#
# Indices 1 2 3 4 5 6 
#
# 1 169.9996 35.0270 37.8418 0.0000 -25.8014 0.0000
# 2 35.0270 87.0745 24.6025 0.0000 -6.7229 0.0000
# 3 37.8418 24.6025 71.4736 0.0000 -4.9547 0.0000
# 4 0.0000 0.0000 0.0000 20.1132 0.0000 -9.4362
# 5 -25.8014 -6.7229 -4.9547 0.0000 33.4066 0.0000
# 6 0.0000 0.0000 0.0000 -9.4362 0.0000 9.9981
#
#
#
# Elastic Compliance Matrix: (Units=1/GPa)
#
#
# Indices 1 2 3 4 5 6 
#
# 1 0.007732 -0.001836 -0.003105 0.000000 0.005142 0.000000
# 2 -0.001836 0.013282 -0.003549 0.000000 0.000728 0.000000
# 3 -0.003105 -0.003549 0.016814 0.000000 -0.000619 0.000000
# 4 0.000000 0.000000 0.000000 0.089228 0.000000 0.084213
# 5 0.005142 0.000728 -0.000619 0.000000 0.033960 0.000000
# 6 0.000000 0.000000 0.000000 0.084213 0.000000 0.179500
#
#
# Mechanical properties :
#
#
# Convention : Reuss Voigt Hill
#
# Bulk Modulus (GPa) = 47.96857 58.16560 53.06709
# Shear Modulus (GPa) = 13.71942 28.10868 20.91405
#
# Velocity S-wave (km/s) = 2.55877 3.66254 3.15923
# Velocity P-wave (km/s) = 5.62331 6.75602 6.21552
#
# Compressibility (1/GPa) = 0.02084698
#
# Stress axis : x y z
#
# Youngs Moduli (GPa) = 129.32684 75.28943 59.47348
#
# Poissons Ratio (x) = 0.13823 0.18469
# Poissons Ratio (y) = 0.23745 0.21109
# Poissons Ratio (z) = 0.40162 0.26723
#
# Static dielectric constant tensor:
#      x y z
#    x 5.175350 0.000000 -0.504780 
#    y 0.000000 3.780170 0.000000 
#    z -0.504780 0.000000 3.804940 
# 
# 
# High freq. dielectric constant tensor:
#      x y z
#    x 1.849020 0.000000 -0.013730 
#    y 0.000000 1.795300 0.000000 
#    z -0.013730 0.000000 1.820950 
# 
# From -- ./inp_files/65796.got.cif
#   From: 2010.06.25/outbox.cif.g09.slc.cpg/sg11_33_cif.got.tgz:65796.got - 2010.06.27 23:14:04.
