data_PCOD8077764
_publ_section_title
;
Structure prediction by ZEFSAII (Michael W. Deem and Ramdas Pophale) SiO2 
 PCOD8077764
Probable space group: P 21/M
;
_chemical_formula_sum "Si O2"
_cell_formula_units_Z 28
_cell_length_a 11.944038
_cell_length_b 16.029652
_cell_length_c 14.895658
_cell_angle_alpha 90.000000
_cell_angle_beta 150.505303
_cell_angle_gamma 90.000000
_cell_volume 1404.115174
_symmetry_space_group_name_H-M "P 21/M"
_symmetry_group_IT_number 11
_symmetry_cell_setting 'monoclinic'
loop_
_space_group_symop_operation_xyz
x,y,z
-x,1/2+y,-z
-x,-y,-z
x,1/2-y,z
loop_
_atom_site_type_symbol
_atom_site_label
_atom_site_fract_x
_atom_site_fract_y
_atom_site_fract_z
Si Si1 0.132301 0.153874 0.758833
Si Si2 0.366319 0.073568 0.080600
Si Si3 0.520119 0.651787 0.310652
Si Si4 0.756616 0.956357 0.324922
Si Si5 0.621121 0.344712 0.417961
Si Si6 0.596324 0.906707 0.562671
Si Si7 0.071640 0.945808 0.965020
O O1 0.130656 0.250000 0.731436
O O2 0.262752 0.104944 0.772629
O O3 0.875148 0.118542 0.585323
O O4 0.266823 0.144600 0.946557
O O5 0.442562 0.106771 0.231217
O O6 0.580760 0.030542 0.183074
O O7 0.167297 0.006932 0.955622
O O8 0.546258 0.750000 0.306739
O O9 0.688647 0.596708 0.366071
O O10 0.587326 0.633672 0.459247
O O11 0.258314 0.624428 0.117592
O O12 0.000000 0.000000 0.500000
O O13 0.618720 0.250000 0.384444
O O14 0.552835 0.351344 0.474005
O O15 0.855935 0.899581 0.774085
O O16 0.500000 0.000000 0.500000
O O17 0.000000 0.000000 0.000000
#
# Coordination Sequence:
#
# PCOD8077764 Si02
#       7
#     4   4   4   4   4   4   4
#     4  11  24  41  64  94 126 161 206 266 321 368
#     4  11  22  41  65  93 121 164 211 255 314 375
#     4  11  26  44  64  95 133 171 214 271 326 374
#     4  11  23  44  70  89 122 170 217 264 315 384
#     4  11  23  38  59  94 129 159 204 259 313 370
#     4  12  22  40  66  94 130 172 216 252 313 387
#     4  11  22  40  65  93 128 172 211 255 305 387
#
# _framework density 19.941383999999999
#
# number of rings (size 3 to 8) (size 9 to 14) (size 15 to 20)
#    0.000    0.857    4.286    3.429    2.000    1.143 
#    0.000    0.000    0.000    0.000    0.000    0.000 
#    0.000    0.000    0.000    0.000    0.000    0.000 
#
# Total GULP energy -347273.255570 kJ/mol
# GULP energy per Si atom -12402.616270 kJ/mol
# Density = 1.989600 g / cm^3
# Si number density = 19.941384 Si / 1000 Ang^3
#
#
#
# Elastic Constant Matrix: (Units=GPa)
#
#
# Indices 1 2 3 4 5 6 
#
# 1 106.8305 24.5098 46.2602 0.0000 0.4159 0.0000
# 2 24.5098 85.4669 32.4474 0.0000 4.0677 0.0000
# 3 46.2602 32.4474 107.6569 0.0000 -1.3856 0.0000
# 4 0.0000 0.0000 0.0000 30.4600 0.0000 -1.4773
# 5 0.4159 4.0677 -1.3856 0.0000 38.7329 0.0000
# 6 0.0000 0.0000 0.0000 -1.4773 0.0000 34.5802
#
#
#
# Elastic Compliance Matrix: (Units=1/GPa)
#
#
# Indices 1 2 3 4 5 6 
#
# 1 0.011700 -0.001626 -0.004539 0.000000 -0.000117 0.000000
# 2 -0.001626 0.013530 -0.003399 0.000000 -0.001525 0.000000
# 3 -0.004539 -0.003399 0.012274 0.000000 0.000845 0.000000
# 4 0.000000 0.000000 0.000000 0.032898 0.000000 0.001405
# 5 -0.000117 -0.001525 0.000845 0.000000 0.026009 0.000000
# 6 0.000000 0.000000 0.000000 0.001405 0.000000 0.028978
#
#
# Mechanical properties :
#
#
# Convention : Reuss Voigt Hill
#
# Bulk Modulus (GPa) = 54.41820 56.26548 55.34184
# Shear Modulus (GPa) = 33.19127 33.87041 33.53084
#
# Velocity S-wave (km/s) = 4.08418 4.12576 4.10502
# Velocity P-wave (km/s) = 7.04195 7.13950 7.09089
#
# Compressibility (1/GPa) = 0.01837620
#
# Stress axis : x y z
#
# Youngs Moduli (GPa) = 85.47331 73.91144 81.47181
#
# Poissons Ratio (x) = 0.12022 0.36977
# Poissons Ratio (y) = 0.13902 0.27688
# Poissons Ratio (z) = 0.38793 0.25119
#
# Static dielectric constant tensor:
#      x y z
#    x 3.802790 0.000000 0.178890 
#    y 0.000000 3.616430 0.000000 
#    z 0.178890 0.000000 3.330980 
# 
# 
# High freq. dielectric constant tensor:
#      x y z
#    x 1.788550 0.000000 0.005340 
#    y 0.000000 1.777490 0.000000 
#    z 0.005340 0.000000 1.785490 
# 
# From -- ./inp_files/50546.got.cif
#   From: 2010.06.25/outbox.cif.g09.slc.cpg/sg11_26_cif.got.tgz:50546.got - 2010.06.27 23:14:04.
