data_PCOD8077769
_publ_section_title
;
Structure prediction by ZEFSAII (Michael W. Deem and Ramdas Pophale) SiO2 
 PCOD8077769
Probable space group: P 21/M
;
_chemical_formula_sum "Si O2"
_cell_formula_units_Z 32
_cell_length_a 12.915942
_cell_length_b 8.747070
_cell_length_c 14.657164
_cell_angle_alpha 90.000000
_cell_angle_beta 100.803835
_cell_angle_gamma 90.000000
_cell_volume 1626.565650
_symmetry_space_group_name_H-M "P 21/M"
_symmetry_group_IT_number 11
_symmetry_cell_setting 'monoclinic'
loop_
_space_group_symop_operation_xyz
x,y,z
-x,1/2+y,-z
-x,-y,-z
x,1/2-y,z
loop_
_atom_site_type_symbol
_atom_site_label
_atom_site_fract_x
_atom_site_fract_y
_atom_site_fract_z
Si Si1 0.132417 0.081210 0.149560
Si Si2 0.032878 0.070892 0.411157
Si Si3 0.701642 0.569801 0.136016
Si Si4 0.755128 0.580692 0.639700
Si Si5 0.459530 0.927965 0.400708
Si Si6 0.323729 0.431573 0.073451
Si Si7 0.928005 0.433631 0.208532
Si Si8 0.479190 0.568583 0.776690
O O1 0.109085 0.250000 0.107360
O O2 0.195360 0.092689 0.253353
O O3 0.211651 0.996727 0.091136
O O4 0.018000 0.005484 0.151351
O O5 0.019315 0.250000 0.415223
O O6 0.155060 0.027558 0.416000
O O7 0.960622 0.011773 0.315572
O O8 0.000000 0.000000 0.500000
O O9 0.695869 0.750000 0.150885
O O10 0.820558 0.514228 0.164856
O O11 0.629847 0.486022 0.197770
O O12 0.659965 0.523151 0.028852
O O13 0.710585 0.750000 0.606252
O O14 0.665138 0.454294 0.624416
O O15 0.485135 0.750000 0.402473
O O16 0.500000 0.000000 0.500000
O O17 0.517158 0.006646 0.325109
O O18 0.318519 0.250000 0.085941
O O19 0.422173 0.496442 0.148007
O O20 0.919165 0.250000 0.202483
O O21 0.481051 0.750000 0.774360
#
# Coordination Sequence:
#
# PCOD8077769 Si02
#       8
#     4   4   4   4   4   4   4   4
#     4   8  14  31  60  84 107 146 194 241 288 344
#     4   9  19  34  57  84 110 147 192 237 285 344
#     4  11  23  37  55  86 125 158 194 244 296 351
#     4   9  17  35  59  81 109 148 191 236 290 343
#     4  12  25  40  60  89 119 150 190 239 293 350
#     4   9  18  34  61  89 113 151 198 244 299 352
#     4   9  19  36  56  80 113 155 198 236 287 352
#     4  11  22  41  65  84 112 156 202 245 294 351
#
# _framework density 19.673352000000001
#
# number of rings (size 3 to 8) (size 9 to 14) (size 15 to 20)
#    0.000    2.250    1.250    3.750    0.000    2.500 
#    0.000    6.250    0.000    0.000    0.000    0.000 
#    0.000    0.000    0.000    0.000    0.000    0.000 
#
# Total GULP energy -396639.090529 kJ/mol
# GULP energy per Si atom -12394.971579 kJ/mol
# Density = 1.962858 g / cm^3
# Si number density = 19.673352 Si / 1000 Ang^3
#
#
#
# Elastic Constant Matrix: (Units=GPa)
#
#
# Indices 1 2 3 4 5 6 
#
# 1 128.3031 36.3773 53.8263 0.0000 -13.4661 0.0000
# 2 36.3773 63.5237 35.0924 0.0000 -3.7298 0.0000
# 3 53.8263 35.0924 100.8315 0.0000 -18.7484 0.0000
# 4 0.0000 0.0000 0.0000 23.6938 0.0000 -1.4243
# 5 -13.4661 -3.7298 -18.7484 0.0000 31.2639 0.0000
# 6 0.0000 0.0000 0.0000 -1.4243 0.0000 21.8444
#
#
#
# Elastic Compliance Matrix: (Units=1/GPa)
#
#
# Indices 1 2 3 4 5 6 
#
# 1 0.010776 -0.003800 -0.004110 0.000000 0.001724 0.000000
# 2 -0.003800 0.020936 -0.005738 0.000000 -0.002580 0.000000
# 3 -0.004110 -0.005738 0.015365 0.000000 0.006760 0.000000
# 4 0.000000 0.000000 0.000000 0.042371 0.000000 0.002763
# 5 0.001724 -0.002580 0.006760 0.000000 0.036474 0.000000
# 6 0.000000 0.000000 0.000000 0.002763 0.000000 0.045958
#
#
# Mechanical properties :
#
#
# Convention : Reuss Voigt Hill
#
# Bulk Modulus (GPa) = 50.54719 60.36115 55.45417
# Shear Modulus (GPa) = 24.29890 26.51791 25.40841
#
# Velocity S-wave (km/s) = 3.51824 3.67537 3.59766
# Velocity P-wave (km/s) = 6.50023 6.98280 6.74583
#
# Compressibility (1/GPa) = 0.01978350
#
# Stress axis : x y z
#
# Youngs Moduli (GPa) = 92.79518 47.76400 65.08191
#
# Poissons Ratio (x) = 0.18148 0.26748
# Poissons Ratio (y) = 0.35258 0.37343
# Poissons Ratio (z) = 0.38137 0.27406
#
# Static dielectric constant tensor:
#      x y z
#    x 3.935640 0.000000 -0.109300 
#    y 0.000000 3.167700 0.000000 
#    z -0.109300 0.000000 3.449070 
# 
# 
# High freq. dielectric constant tensor:
#      x y z
#    x 1.779800 0.000000 -0.012600 
#    y 0.000000 1.736160 0.000000 
#    z -0.012600 0.000000 1.768450 
# 
# From -- ./inp_files/49381.got.cif
#   From: 2010.06.25/outbox.cif.g09.slc.cpg/sg11_25_cif.got.tgz:49381.got - 2010.06.27 23:14:04.
