data_PCOD8077621
_publ_section_title
;
Structure prediction by ZEFSAII (Michael W. Deem and Ramdas Pophale) SiO2 
 PCOD8077621
Probable space group: P 21/M
;
_chemical_formula_sum "Si O2"
_cell_formula_units_Z 28
_cell_length_a 10.243029
_cell_length_b 9.093323
_cell_length_c 29.371981
_cell_angle_alpha 90.000000
_cell_angle_beta 143.361634
_cell_angle_gamma 90.000000
_cell_volume 1632.622025
_symmetry_space_group_name_H-M "P 21/M"
_symmetry_group_IT_number 11
_symmetry_cell_setting 'monoclinic'
loop_
_space_group_symop_operation_xyz
x,y,z
-x,1/2+y,-z
-x,-y,-z
x,1/2-y,z
loop_
_atom_site_type_symbol
_atom_site_label
_atom_site_fract_x
_atom_site_fract_y
_atom_site_fract_z
Si Si1 0.869185 0.923359 0.503386
Si Si2 0.827456 0.582648 0.351545
Si Si3 0.166661 0.421448 0.192727
Si Si4 0.786231 0.577775 0.959540
Si Si5 0.485937 0.585878 0.337952
Si Si6 0.488934 0.081091 0.204597
Si Si7 0.303137 0.925630 0.971155
O O1 0.920198 0.750000 0.517500
O O2 0.610212 0.952217 0.420421
O O3 0.000000 0.000000 0.500000
O O4 0.947875 0.995405 0.573083
O O5 0.888966 0.750000 0.357668
O O6 0.661962 0.567547 0.347135
O O7 0.710925 0.511348 0.274835
O O8 0.185903 0.250000 0.202963
O O9 0.274328 0.486243 0.268905
O O10 0.295298 0.476061 0.183712
O O11 0.915400 0.469237 0.117650
O O12 0.835481 0.750000 0.982539
O O13 0.588427 0.559942 0.868580
O O14 0.706575 0.494620 0.981793
O O15 0.000000 0.500000 0.000000
O O16 0.394505 0.750000 0.314065
O O17 0.542428 0.250000 0.230531
O O18 0.331780 0.750000 0.982779
O O19 0.500000 0.000000 0.000000
#
# Coordination Sequence:
#
# PCOD8077621 Si02
#       7
#     4   4   4   4   4   4   4
#     4   9  15  23  34  52  81 118 155 192 234 285
#     4   9  16  24  36  58  86 119 156 194 238 287
#     4   9  17  30  46  65  92 123 160 202 245 295
#     4  11  21  35  55  78 102 133 170 213 257 305
#     4   8  15  24  36  57  83 115 157 195 234 285
#     4   9  17  30  46  67  94 125 161 201 246 293
#     4  11  23  39  54  75 102 134 172 213 261 310
#
# _framework density 17.150327000000001
#
# number of rings (size 3 to 8) (size 9 to 14) (size 15 to 20)
#    0.000    2.571    1.429    2.571    0.000    6.286 
#    0.000    0.000    0.000    0.000    0.000    0.000 
#    0.000    1.143    0.000    3.714    0.000    5.714 
#
# Total GULP energy -347013.924422 kJ/mol
# GULP energy per Si atom -12393.354444 kJ/mol
# Density = 1.711129 g / cm^3
# Si number density = 17.150327 Si / 1000 Ang^3
#
#
#
# Elastic Constant Matrix: (Units=GPa)
#
#
# Indices 1 2 3 4 5 6 
#
# 1 58.6367 32.4152 38.6317 0.0000 1.1858 0.0000
# 2 32.4152 97.0860 76.4651 0.0000 -1.1240 0.0000
# 3 38.6317 76.4651 162.4592 0.0000 0.0649 0.0000
# 4 0.0000 0.0000 0.0000 38.1571 0.0000 -0.9283
# 5 1.1858 -1.1240 0.0649 0.0000 9.8985 0.0000
# 6 0.0000 0.0000 0.0000 -0.9283 0.0000 18.0507
#
#
#
# Elastic Compliance Matrix: (Units=1/GPa)
#
#
# Indices 1 2 3 4 5 6 
#
# 1 0.021775 -0.005132 -0.002761 0.000000 -0.003173 0.000000
# 2 -0.005132 0.017614 -0.007071 0.000000 0.002661 0.000000
# 3 -0.002761 -0.007071 0.010140 0.000000 -0.000539 0.000000
# 4 0.000000 0.000000 0.000000 0.026240 0.000000 0.001350
# 5 -0.003173 0.002661 -0.000539 0.000000 0.101711 0.000000
# 6 0.000000 0.000000 0.000000 0.001350 0.000000 0.055469
#
#
# Mechanical properties :
#
#
# Convention : Reuss Voigt Hill
#
# Bulk Modulus (GPa) = 51.02018 68.13398 59.57708
# Shear Modulus (GPa) = 18.55908 24.59926 21.57917
#
# Velocity S-wave (km/s) = 3.29316 3.79137 3.55101
# Velocity P-wave (km/s) = 6.65382 7.67982 7.18516
#
# Compressibility (1/GPa) = 0.01960009
#
# Stress axis : x y z
#
# Youngs Moduli (GPa) = 45.92514 56.77443 98.61740
#
# Poissons Ratio (x) = 0.29139 0.27228
# Poissons Ratio (y) = 0.23570 0.69731
# Poissons Ratio (z) = 0.12680 0.40144
#
# Static dielectric constant tensor:
#      x y z
#    x 2.523220 0.000000 -0.034370 
#    y 0.000000 3.337450 0.000000 
#    z -0.034370 0.000000 3.889000 
# 
# 
# High freq. dielectric constant tensor:
#      x y z
#    x 1.579880 0.000000 -0.006490 
#    y 0.000000 1.674070 0.000000 
#    z -0.006490 0.000000 1.687600 
# 
# From -- ./inp_files/61255.got.cif
#   From: 2010.06.25/outbox.cif.g09.slc.cpg/sg11_31_cif.got.tgz:61255.got - 2010.06.27 23:14:04.
