data_PCOD8077669
_publ_section_title
;
Structure prediction by ZEFSAII (Michael W. Deem and Ramdas Pophale) SiO2 
 PCOD8077669
Probable space group: P 21/M
;
_chemical_formula_sum "Si O2"
_cell_formula_units_Z 18
_cell_length_a 7.837544
_cell_length_b 21.814198
_cell_length_c 5.309020
_cell_angle_alpha 90.000000
_cell_angle_beta 121.324308
_cell_angle_gamma 90.000000
_cell_volume 775.376557
_symmetry_space_group_name_H-M "P 21/M"
_symmetry_group_IT_number 11
_symmetry_cell_setting 'monoclinic'
loop_
_space_group_symop_operation_xyz
x,y,z
-x,1/2+y,-z
-x,-y,-z
x,1/2-y,z
loop_
_atom_site_type_symbol
_atom_site_label
_atom_site_fract_x
_atom_site_fract_y
_atom_site_fract_z
Si Si1 0.233252 0.380829 0.186762
Si Si2 0.979240 0.927935 0.478353
Si Si3 0.641926 0.355895 0.338368
Si Si4 0.565949 0.750000 0.117533
Si Si5 0.254589 0.750000 0.256913
Si Si6 0.135172 0.250000 0.277546
O O1 0.472137 0.395830 0.352893
O O2 0.210818 0.307251 0.170723
O O3 0.155068 0.407130 0.390739
O O4 0.117182 0.409429 0.861585
O O5 0.202250 0.899849 0.684048
O O6 0.000000 0.000000 0.500000
O O7 0.780400 0.312447 0.616366
O O8 0.509263 0.313154 0.054606
O O9 0.482045 0.750000 0.340226
O O10 0.801409 0.750000 0.375989
O O11 0.106424 0.750000 0.902218
#
# Coordination Sequence:
#
# PCOD8077669 Si02
#       6
#     4   4   4   2   2   2
#     4  12  26  46  77 109 151 190 246 310 377 447
#     4  12  29  50  74 107 148 204 261 303 358 436
#     4  11  25  44  72 105 150 192 242 305 381 437
#     4  11  22  41  67 111 152 185 237 303 388 467
#     4  11  21  41  67 109 147 186 230 305 377 458
#     4  12  21  42  74 110 145 183 235 302 387 439
#
# _framework density 23.214525999999999
#
# number of rings (size 3 to 8) (size 9 to 14) (size 15 to 20)
#    0.000    0.444    4.444    4.000    0.000    3.556 
#    0.000    0.000    0.000    0.000    0.000    0.000 
#    0.000    0.000    0.000    0.000    0.000    0.000 
#
# Total GULP energy -223125.762325 kJ/mol
# GULP energy per Si atom -12395.875685 kJ/mol
# Density = 2.316169 g / cm^3
# Si number density = 23.214526 Si / 1000 Ang^3
#
#
#
# Elastic Constant Matrix: (Units=GPa)
#
#
# Indices 1 2 3 4 5 6 
#
# 1 149.6799 58.2082 44.1981 0.0000 4.8786 0.0000
# 2 58.2082 148.8985 46.5014 0.0000 0.8163 0.0000
# 3 44.1981 46.5014 159.7932 0.0000 9.9509 0.0000
# 4 0.0000 0.0000 0.0000 24.2401 0.0000 -7.1320
# 5 4.8786 0.8163 9.9509 0.0000 43.8139 0.0000
# 6 0.0000 0.0000 0.0000 -7.1320 0.0000 12.8286
#
#
#
# Elastic Compliance Matrix: (Units=1/GPa)
#
#
# Indices 1 2 3 4 5 6 
#
# 1 0.008191 -0.002752 -0.001431 0.000000 -0.000536 0.000000
# 2 -0.002752 0.008318 -0.001693 0.000000 0.000536 0.000000
# 3 -0.001431 -0.001693 0.007237 0.000000 -0.001453 0.000000
# 4 0.000000 0.000000 0.000000 0.049321 0.000000 0.027420
# 5 -0.000536 0.000536 -0.001453 0.000000 0.023203 0.000000
# 6 0.000000 0.000000 0.000000 0.027420 0.000000 0.093195
#
#
# Mechanical properties :
#
#
# Convention : Reuss Voigt Hill
#
# Bulk Modulus (GPa) = 83.37874 84.02076 83.69975
# Shear Modulus (GPa) = 24.36455 36.80745 30.58600
#
# Velocity S-wave (km/s) = 3.24317 3.98620 3.63373
# Velocity P-wave (km/s) = 7.07240 7.58011 7.33065
#
# Compressibility (1/GPa) = 0.01199346
#
# Stress axis : x y z
#
# Youngs Moduli (GPa) = 122.07984 120.22737 138.17803
#
# Poissons Ratio (x) = 0.33089 0.19779
# Poissons Ratio (y) = 0.33599 0.23388
# Poissons Ratio (z) = 0.17475 0.20350
#
# Static dielectric constant tensor:
#      x y z
#    x 4.610310 0.000000 0.043410 
#    y 0.000000 4.887030 0.000000 
#    z 0.043410 0.000000 4.158370 
# 
# 
# High freq. dielectric constant tensor:
#      x y z
#    x 1.939670 0.000000 0.007880 
#    y 0.000000 1.897010 0.000000 
#    z 0.007880 0.000000 1.928320 
# 
# From -- ./inp_files/2118.got.cif
#   From: 2010.06.25/outbox.cif.g09.slc.cpg/sg11_2_cif.got.tgz:2118.got - 2010.06.27 23:14:04.
