data_PCOD8077034
_publ_section_title
;
Structure prediction by ZEFSAII (Michael W. Deem and Ramdas Pophale) SiO2 
 PCOD8077034
Probable space group: P 21/M
;
_chemical_formula_sum "Si O2"
_cell_formula_units_Z 28
_cell_length_a 12.216265
_cell_length_b 8.929618
_cell_length_c 15.231662
_cell_angle_alpha 90.000000
_cell_angle_beta 63.082535
_cell_angle_gamma 90.000000
_cell_volume 1481.554724
_symmetry_space_group_name_H-M "P 21/M"
_symmetry_group_IT_number 11
_symmetry_cell_setting 'monoclinic'
loop_
_space_group_symop_operation_xyz
x,y,z
-x,1/2+y,-z
-x,-y,-z
x,1/2-y,z
loop_
_atom_site_type_symbol
_atom_site_label
_atom_site_fract_x
_atom_site_fract_y
_atom_site_fract_z
Si Si1 0.330960 0.574106 0.996592
Si Si2 0.366292 0.081630 0.686422
Si Si3 0.132812 0.577608 0.743794
Si Si4 0.924537 0.575380 0.950333
Si Si5 0.427301 0.925451 0.151108
Si Si6 0.245338 0.417842 0.556745
Si Si7 0.391185 0.072289 0.338315
O O1 0.331698 0.750000 0.977913
O O2 0.438691 0.499960 0.900905
O O3 0.204628 0.504846 0.011163
O O4 0.350137 0.537182 0.092201
O O5 0.380681 0.250000 0.718830
O O6 0.362709 0.083116 0.580854
O O7 0.474384 0.979487 0.682306
O O8 0.234829 0.011897 0.765071
O O9 0.170306 0.750000 0.731816
O O10 0.998519 0.551030 0.832531
O O11 0.137552 0.518736 0.640348
O O12 0.905690 0.750000 0.977355
O O13 0.000000 0.500000 0.000000
O O14 0.444164 0.750000 0.158676
O O15 0.354151 0.996897 0.259525
O O16 0.193346 0.250000 0.564119
O O17 0.291314 0.481878 0.446751
O O18 0.390492 0.250000 0.330026
#
# Coordination Sequence:
#
# PCOD8077034 Si02
#       7
#     4   4   4   4   4   4   4
#     4  10  22  41  62  82 110 146 185 229 278 330
#     4   9  18  31  47  71 107 146 181 221 272 324
#     4   9  19  34  51  74 106 143 179 220 272 324
#     4  11  24  39  59  86 114 146 186 229 277 331
#     4  10  22  39  59  84 111 145 185 228 279 330
#     4   8  18  32  48  73 107 146 182 222 275 327
#     4  11  20  31  51  79 109 142 184 228 272 328
#
# _framework density 18.899066000000001
#
# number of rings (size 3 to 8) (size 9 to 14) (size 15 to 20)
#    0.857    1.429    0.000    2.571    2.000    5.143 
#    0.000    0.000    0.000    0.857    0.000    0.000 
#    0.000    0.000    0.000    0.000    0.000    0.000 
#
# Total GULP energy -347045.216876 kJ/mol
# GULP energy per Si atom -12394.472031 kJ/mol
# Density = 1.885605 g / cm^3
# Si number density = 18.899066 Si / 1000 Ang^3
#
#
#
# Elastic Constant Matrix: (Units=GPa)
#
#
# Indices 1 2 3 4 5 6 
#
# 1 73.7991 34.5058 28.7913 0.0000 -3.0960 0.0000
# 2 34.5058 99.0290 42.4804 0.0000 -1.8019 0.0000
# 3 28.7913 42.4804 90.6263 0.0000 5.8236 0.0000
# 4 0.0000 0.0000 0.0000 33.6235 0.0000 0.3015
# 5 -3.0960 -1.8019 5.8236 0.0000 17.4351 0.0000
# 6 0.0000 0.0000 0.0000 0.3015 0.0000 26.3411
#
#
#
# Elastic Compliance Matrix: (Units=1/GPa)
#
#
# Indices 1 2 3 4 5 6 
#
# 1 0.017171 -0.004341 -0.003666 0.000000 0.003825 0.000000
# 2 -0.004341 0.013932 -0.005309 0.000000 0.002442 0.000000
# 3 -0.003666 -0.005309 0.015088 0.000000 -0.006239 0.000000
# 4 0.000000 0.000000 0.000000 0.029744 0.000000 -0.000340
# 5 0.003825 0.002442 -0.006239 0.000000 0.060371 0.000000
# 6 0.000000 0.000000 0.000000 -0.000340 0.000000 0.037967
#
#
# Mechanical properties :
#
#
# Convention : Reuss Voigt Hill
#
# Bulk Modulus (GPa) = 51.12368 52.77881 51.95124
# Shear Modulus (GPa) = 24.10515 25.99173 25.04844
#
# Velocity S-wave (km/s) = 3.57524 3.71252 3.64453
# Velocity P-wave (km/s) = 6.64476 6.80914 6.72745
#
# Compressibility (1/GPa) = 0.01956041
#
# Stress axis : x y z
#
# Youngs Moduli (GPa) = 58.23913 71.77634 66.27664
#
# Poissons Ratio (x) = 0.31156 0.24298
# Poissons Ratio (y) = 0.25280 0.35183
# Poissons Ratio (z) = 0.21351 0.38103
#
# Static dielectric constant tensor:
#      x y z
#    x 3.052890 0.000000 0.028830 
#    y 0.000000 3.539980 0.000000 
#    z 0.028830 0.000000 3.689600 
# 
# 
# High freq. dielectric constant tensor:
#      x y z
#    x 1.691920 0.000000 -0.000210 
#    y 0.000000 1.748960 0.000000 
#    z -0.000210 0.000000 1.740100 
# 
# From -- ./inp_files/48904.got.cif
#   From: 2010.06.25/outbox.cif.g09.slc.cpg/sg11_25_cif.got.tgz:48904.got - 2010.06.27 23:14:04.
