data_PCOD8077666
_publ_section_title
;
Structure prediction by ZEFSAII (Michael W. Deem and Ramdas Pophale) SiO2 
 PCOD8077666
Probable space group: P 21/M
;
_chemical_formula_sum "Si O2"
_cell_formula_units_Z 20
_cell_length_a 7.950013
_cell_length_b 17.517981
_cell_length_c 9.757688
_cell_angle_alpha 90.000000
_cell_angle_beta 45.650767
_cell_angle_gamma 90.000000
_cell_volume 971.764302
_symmetry_space_group_name_H-M "P 21/M"
_symmetry_group_IT_number 11
_symmetry_cell_setting 'monoclinic'
loop_
_space_group_symop_operation_xyz
x,y,z
-x,1/2+y,-z
-x,-y,-z
x,1/2-y,z
loop_
_atom_site_type_symbol
_atom_site_label
_atom_site_fract_x
_atom_site_fract_y
_atom_site_fract_z
Si Si1 0.844716 0.338240 0.382820
Si Si2 0.826992 0.544087 0.699657
Si Si3 0.526452 0.837757 0.172311
Si Si4 0.324099 0.921220 0.022776
Si Si5 0.976423 0.411013 0.044793
O O1 0.890595 0.250000 0.321138
O O2 0.622358 0.349841 0.606097
O O3 0.075302 0.371109 0.328455
O O4 0.804107 0.388753 0.269176
O O5 0.556898 0.553413 0.802464
O O6 0.000000 0.500000 0.500000
O O7 0.813808 0.497836 0.850775
O O8 0.560702 0.750000 0.116106
O O9 0.394797 0.874557 0.117654
O O10 0.775751 0.873415 0.064458
O O11 0.149916 0.875623 0.019919
O O12 0.000000 0.500000 0.000000
#
# Coordination Sequence:
#
# PCOD8077666 Si02
#       5
#     4   4   4   4   4
#     4  11  24  43  66  94 136 179 215 274 344 393
#     4  11  21  40  68  99 133 168 223 274 327 400
#     4  11  25  45  66  95 137 176 220 281 341 396
#     4  11  23  40  68 100 124 177 226 267 332 397
#     4  12  24  41  67 101 133 173 227 277 331 398
#
# _framework density 20.581122000000001
#
# number of rings (size 3 to 8) (size 9 to 14) (size 15 to 20)
#    0.000    0.800    6.000    1.800    0.000    4.000 
#    0.000    0.000    0.000    0.000    0.000    0.000 
#    0.000    0.000    0.000    0.000    0.000    0.000 
#
# Total GULP energy -247858.071621 kJ/mol
# GULP energy per Si atom -12392.903581 kJ/mol
# Density = 2.053428 g / cm^3
# Si number density = 20.581122 Si / 1000 Ang^3
#
#
#
# Elastic Constant Matrix: (Units=GPa)
#
#
# Indices 1 2 3 4 5 6 
#
# 1 132.1360 51.1113 53.6584 0.0000 22.1631 0.0000
# 2 51.1113 127.8715 61.2174 0.0000 7.3904 0.0000
# 3 53.6584 61.2174 132.2420 0.0000 0.2043 0.0000
# 4 0.0000 0.0000 0.0000 35.6843 0.0000 -2.3889
# 5 22.1631 7.3904 0.2043 0.0000 25.1811 0.0000
# 6 0.0000 0.0000 0.0000 -2.3889 0.0000 23.0616
#
#
#
# Elastic Compliance Matrix: (Units=1/GPa)
#
#
# Indices 1 2 3 4 5 6 
#
# 1 0.011501 -0.002346 -0.003566 0.000000 -0.009405 0.000000
# 2 -0.002346 0.010744 -0.004020 0.000000 -0.001055 0.000000
# 3 -0.003566 -0.004020 0.010863 0.000000 0.004230 0.000000
# 4 0.000000 0.000000 0.000000 0.028219 0.000000 0.002923
# 5 -0.009405 -0.001055 0.004230 0.000000 0.048266 0.000000
# 6 0.000000 0.000000 0.000000 0.002923 0.000000 0.043665
#
#
# Mechanical properties :
#
#
# Convention : Reuss Voigt Hill
#
# Bulk Modulus (GPa) = 75.50756 80.46930 77.98843
# Shear Modulus (GPa) = 28.16324 31.86957 30.01640
#
# Velocity S-wave (km/s) = 3.70320 3.93935 3.82310
# Velocity P-wave (km/s) = 7.41973 7.73788 7.58047
#
# Compressibility (1/GPa) = 0.01324371
#
# Stress axis : x y z
#
# Youngs Moduli (GPa) = 86.94772 93.07844 92.05455
#
# Poissons Ratio (x) = 0.21839 0.32827
# Poissons Ratio (y) = 0.20401 0.37004
# Poissons Ratio (z) = 0.31006 0.37415
#
# Static dielectric constant tensor:
#      x y z
#    x 4.368660 0.000000 0.317970 
#    y 0.000000 4.077430 0.000000 
#    z 0.317970 0.000000 4.303650 
# 
# 
# High freq. dielectric constant tensor:
#      x y z
#    x 1.799790 0.000000 -0.004520 
#    y 0.000000 1.805180 0.000000 
#    z -0.004520 0.000000 1.821710 
# 
# From -- ./inp_files/13420.got.cif
#   From: 2010.06.25/outbox.cif.g09.slc.cpg/sg11_7_cif.got.tgz:13420.got - 2010.06.27 23:14:04.
