data_PCOD8077463
_publ_section_title
;
Structure prediction by ZEFSAII (Michael W. Deem and Ramdas Pophale) SiO2 
 PCOD8077463
Probable space group: P 21/M
;
_chemical_formula_sum "Si O2"
_cell_formula_units_Z 24
_cell_length_a 14.480367
_cell_length_b 8.612176
_cell_length_c 9.533144
_cell_angle_alpha 90.000000
_cell_angle_beta 81.482156
_cell_angle_gamma 90.000000
_cell_volume 1175.740940
_symmetry_space_group_name_H-M "P 21/M"
_symmetry_group_IT_number 11
_symmetry_cell_setting 'monoclinic'
loop_
_space_group_symop_operation_xyz
x,y,z
-x,1/2+y,-z
-x,-y,-z
x,1/2-y,z
loop_
_atom_site_type_symbol
_atom_site_label
_atom_site_fract_x
_atom_site_fract_y
_atom_site_fract_z
Si Si1 0.251128 0.935335 0.340814
Si Si2 0.564899 0.069220 0.101133
Si Si3 0.923546 0.574086 0.115143
Si Si4 0.088470 0.435832 0.563820
Si Si5 0.749071 0.571622 0.957059
Si Si6 0.540513 0.431177 0.629892
O O1 0.245709 0.750000 0.330040
O O2 0.356621 0.994570 0.350794
O O3 0.183268 0.994609 0.478247
O O4 0.216989 0.010781 0.202135
O O5 0.546121 0.250000 0.128215
O O6 0.669926 0.042016 0.030879
O O7 0.540254 0.975186 0.244573
O O8 0.500000 0.000000 0.000000
O O9 0.953777 0.750000 0.127629
O O10 0.917575 0.502981 0.273631
O O11 0.826893 0.555590 0.057160
O O12 0.000000 0.500000 0.000000
O O13 0.091731 0.250000 0.553802
O O14 0.000000 0.500000 0.500000
O O15 0.715473 0.750000 0.950671
O O16 0.500000 0.500000 0.500000
O O17 0.549539 0.250000 0.611488
#
# Coordination Sequence:
#
# PCOD8077463 Si02
#       6
#     4   4   4   4   4   4
#     4  11  24  42  64  94 128 168 213 261 319 382
#     4  12  24  41  65  95 129 171 218 266 319 379
#     4  10  24  43  65  95 126 161 206 257 314 374
#     4  11  24  43  66  94 128 166 208 261 318 381
#     4  11  23  41  66  95 127 168 214 264 319 379
#     4  11  25  43  64  93 131 172 218 268 321 381
#
# _framework density 20.412659000000001
#
# number of rings (size 3 to 8) (size 9 to 14) (size 15 to 20)
#    0.000    1.000    1.667    4.500    2.333    7.333 
#    0.000    0.000    0.000    0.000    0.000    0.000 
#    0.000    0.000    0.000    0.000    0.000    0.000 
#
# Total GULP energy -297615.766468 kJ/mol
# GULP energy per Si atom -12400.656936 kJ/mol
# Density = 2.036620 g / cm^3
# Si number density = 20.412659 Si / 1000 Ang^3
#
#
#
# Elastic Constant Matrix: (Units=GPa)
#
#
# Indices 1 2 3 4 5 6 
#
# 1 81.3376 38.8072 54.6526 0.0000 -6.3478 0.0000
# 2 38.8072 68.6534 31.7050 0.0000 10.4023 0.0000
# 3 54.6526 31.7050 185.4940 0.0000 3.4144 0.0000
# 4 0.0000 0.0000 0.0000 38.8785 0.0000 -3.6788
# 5 -6.3478 10.4023 3.4144 0.0000 41.3054 0.0000
# 6 0.0000 0.0000 0.0000 -3.6788 0.0000 36.7085
#
#
#
# Elastic Compliance Matrix: (Units=1/GPa)
#
#
# Indices 1 2 3 4 5 6 
#
# 1 0.020867 -0.010697 -0.004435 0.000000 0.006267 0.000000
# 2 -0.010697 0.021905 -0.000461 0.000000 -0.007122 0.000000
# 3 -0.004435 -0.000461 0.006797 0.000000 -0.001127 0.000000
# 4 0.000000 0.000000 0.000000 0.025967 0.000000 0.002602
# 5 0.006267 -0.007122 -0.001127 0.000000 0.027060 0.000000
# 6 0.000000 0.000000 0.000000 0.002602 0.000000 0.027502
#
#
# Mechanical properties :
#
#
# Convention : Reuss Voigt Hill
#
# Bulk Modulus (GPa) = 54.39928 65.09051 59.74490
# Shear Modulus (GPa) = 29.86623 37.39983 33.63303
#
# Velocity S-wave (km/s) = 3.82923 4.28505 4.06354
# Velocity P-wave (km/s) = 6.80134 7.51257 7.16579
#
# Compressibility (1/GPa) = 0.01838259
#
# Stress axis : x y z
#
# Youngs Moduli (GPa) = 47.92189 45.65253 147.11609
#
# Poissons Ratio (x) = 0.48834 0.65249
# Poissons Ratio (y) = 0.51261 0.06785
# Poissons Ratio (z) = 0.21254 0.02106
#
# Static dielectric constant tensor:
#      x y z
#    x 3.396410 0.000000 0.067630 
#    y 0.000000 3.877180 0.000000 
#    z 0.067630 0.000000 3.595180 
# 
# 
# High freq. dielectric constant tensor:
#      x y z
#    x 1.806670 0.000000 -0.000260 
#    y 0.000000 1.805370 0.000000 
#    z -0.000260 0.000000 1.818680 
# 
# From -- ./inp_files/20321.got.cif
#   From: 2010.06.25/outbox.cif.g09.slc.cpg/sg11_11_cif.got.tgz:20321.got - 2010.06.27 23:14:04.
