data_PCOD8077727
_publ_section_title
;
Structure prediction by ZEFSAII (Michael W. Deem and Ramdas Pophale) SiO2 
 PCOD8077727
Probable space group: P 21/M
;
_chemical_formula_sum "Si O2"
_cell_formula_units_Z 20
_cell_length_a 5.161652
_cell_length_b 8.349893
_cell_length_c 23.787864
_cell_angle_alpha 90.000000
_cell_angle_beta 109.030472
_cell_angle_gamma 90.000000
_cell_volume 969.204773
_symmetry_space_group_name_H-M "P 21/M"
_symmetry_group_IT_number 11
_symmetry_cell_setting 'monoclinic'
loop_
_space_group_symop_operation_xyz
x,y,z
-x,1/2+y,-z
-x,-y,-z
x,1/2-y,z
loop_
_atom_site_type_symbol
_atom_site_label
_atom_site_fract_x
_atom_site_fract_y
_atom_site_fract_z
Si Si1 0.106538 0.559439 0.236054
Si Si2 0.504499 0.941083 0.167723
Si Si3 0.706072 0.437816 0.628895
Si Si4 0.300299 0.939118 0.033471
Si Si5 0.112279 0.563026 0.566350
O O1 0.099697 0.750000 0.234924
O O2 0.307785 0.491962 0.202526
O O3 0.207558 0.498473 0.303666
O O4 0.806018 0.490655 0.201536
O O5 0.504459 0.750000 0.167768
O O6 0.401036 0.007229 0.100545
O O7 0.639867 0.250000 0.624826
O O8 0.436278 0.531838 0.590925
O O9 0.958315 0.470633 0.605261
O O10 0.302241 0.750000 0.034746
O O11 0.500000 0.000000 0.000000
O O12 0.000000 0.000000 0.000000
O O13 0.051823 0.750000 0.567719
O O14 0.000000 0.500000 0.500000
#
# Coordination Sequence:
#
# PCOD8077727 Si02
#       5
#     4   4   4   4   4
#     4   9  17  31  55  84 111 141 188 240 282 333
#     4   9  17  31  53  82 111 146 191 238 282 335
#     4  11  22  39  64  92 118 149 192 243 293 344
#     4  11  22  37  59  85 117 154 197 244 293 346
#     4  12  25  42  62  87 121 158 195 237 286 344
#
# _framework density 20.635472
#
# number of rings (size 3 to 8) (size 9 to 14) (size 15 to 20)
#    0.000    1.600    0.000    6.000    0.000    6.400 
#    0.000    0.000    0.000   24.000    0.000    0.000 
#    0.000    0.000    0.000    0.000    0.000    0.000 
#
# Total GULP energy -248084.113120 kJ/mol
# GULP energy per Si atom -12404.205656 kJ/mol
# Density = 2.058850 g / cm^3
# Si number density = 20.635472 Si / 1000 Ang^3
#
#
#
# Elastic Constant Matrix: (Units=GPa)
#
#
# Indices 1 2 3 4 5 6 
#
# 1 161.9886 15.7891 71.4600 0.0000 0.7031 0.0000
# 2 15.7891 46.0364 32.5189 0.0000 2.8527 0.0000
# 3 71.4600 32.5189 184.3785 0.0000 -0.4916 0.0000
# 4 0.0000 0.0000 0.0000 23.6625 0.0000 0.2115
# 5 0.7031 2.8527 -0.4916 0.0000 51.8439 0.0000
# 6 0.0000 0.0000 0.0000 0.2115 0.0000 28.1337
#
#
#
# Elastic Compliance Matrix: (Units=1/GPa)
#
#
# Indices 1 2 3 4 5 6 
#
# 1 0.007461 -0.000583 -0.002789 0.000000 -0.000096 0.000000
# 2 -0.000583 0.024962 -0.004180 0.000000 -0.001405 0.000000
# 3 -0.002789 -0.004180 0.007243 0.000000 0.000337 0.000000
# 4 0.000000 0.000000 0.000000 0.042264 0.000000 -0.000318
# 5 -0.000096 -0.001405 0.000337 0.000000 0.019370 0.000000
# 6 0.000000 0.000000 0.000000 -0.000318 0.000000 0.035547
#
#
# Mechanical properties :
#
#
# Convention : Reuss Voigt Hill
#
# Bulk Modulus (GPa) = 40.71510 70.21551 55.46531
# Shear Modulus (GPa) = 31.22305 38.90374 35.06339
#
# Velocity S-wave (km/s) = 3.89405 4.34670 4.12658
# Velocity P-wave (km/s) = 6.32389 7.70014 7.04570
#
# Compressibility (1/GPa) = 0.02456091
#
# Stress axis : x y z
#
# Youngs Moduli (GPa) = 134.03238 40.06121 138.06816
#
# Poissons Ratio (x) = 0.02335 0.38509
# Poissons Ratio (y) = 0.07811 0.57718
# Poissons Ratio (z) = 0.37383 0.16747
#
# Static dielectric constant tensor:
#      x y z
#    x 3.913830 0.000000 0.030840 
#    y 0.000000 3.369460 0.000000 
#    z 0.030840 0.000000 4.065460 
# 
# 
# High freq. dielectric constant tensor:
#      x y z
#    x 1.826770 0.000000 0.000010 
#    y 0.000000 1.773910 0.000000 
#    z 0.000010 0.000000 1.829240 
# 
# From -- ./inp_files/8474.got.cif
#   From: 2010.06.25/outbox.cif.g09.slc.cpg/sg11_5_cif.got.tgz:8474.got - 2010.06.27 23:14:04.
