data_PCOD8077021
_publ_section_title
;
Structure prediction by ZEFSAII (Michael W. Deem and Ramdas Pophale) SiO2 
 PCOD8077021
Probable space group: P 21/M
;
_chemical_formula_sum "Si O2"
_cell_formula_units_Z 32
_cell_length_a 21.598486
_cell_length_b 8.613346
_cell_length_c 27.063033
_cell_angle_alpha 90.000000
_cell_angle_beta 19.656378
_cell_angle_gamma 90.000000
_cell_volume 1693.556684
_symmetry_space_group_name_H-M "P 21/M"
_symmetry_group_IT_number 11
_symmetry_cell_setting 'monoclinic'
loop_
_space_group_symop_operation_xyz
x,y,z
-x,1/2+y,-z
-x,-y,-z
x,1/2-y,z
loop_
_atom_site_type_symbol
_atom_site_label
_atom_site_fract_x
_atom_site_fract_y
_atom_site_fract_z
Si Si1 0.252939 0.568128 0.168326
Si Si2 0.423753 0.927459 0.133379
Si Si3 0.347763 0.067171 0.839461
Si Si4 0.645901 0.566009 0.053634
Si Si5 0.988513 0.932388 0.062838
Si Si6 0.600225 0.566028 0.568848
Si Si7 0.610106 0.066991 0.371854
Si Si8 0.015844 0.929665 0.257692
O O1 0.313803 0.750000 0.118650
O O2 0.247237 0.519735 0.231815
O O3 0.064088 0.542823 0.279862
O O4 0.399557 0.453732 0.033724
O O5 0.394425 0.750000 0.168175
O O6 0.477429 0.005987 0.146051
O O7 0.309234 0.250000 0.864729
O O8 0.521360 0.021337 0.675780
O O9 0.389306 0.012171 0.864088
O O10 0.169893 0.973537 0.956352
O O11 0.646566 0.750000 0.049609
O O12 0.844679 0.512733 0.884404
O O13 0.966599 0.750000 0.075339
O O14 0.815283 0.002146 0.221652
O O15 0.000000 0.000000 0.000000
O O16 0.589501 0.750000 0.585714
O O17 0.483561 0.513905 0.608921
O O18 0.809611 0.508601 0.403942
O O19 0.614458 0.250000 0.372445
O O20 0.500000 0.000000 0.500000
O O21 0.027053 0.750000 0.235701
#
# Coordination Sequence:
#
# PCOD8077021 Si02
#       8
#     4   4   4   4   4   4   4   4
#     4   8  13  23  43  70  99 133 169 209 258 310
#     4   8  13  24  43  68 101 134 166 210 260 306
#     4  11  23  38  57  80 106 142 183 221 264 319
#     4   9  19  33  50  78 108 136 175 219 263 313
#     4  12  24  41  63  85 109 140 179 223 268 321
#     4  10  22  39  56  76 106 143 179 218 266 319
#     4  11  24  41  60  85 113 143 179 222 269 318
#     4   9  18  32  51  78 107 136 176 219 264 318
#
# _framework density 18.895146
#
# number of rings (size 3 to 8) (size 9 to 14) (size 15 to 20)
#    0.000    2.250    1.250    1.875    1.750    2.000 
#    0.000    0.000    0.000    0.750    0.000    0.000 
#    0.000    0.000    0.000    0.000    0.000    0.125 
#
# Total GULP energy -396428.203982 kJ/mol
# GULP energy per Si atom -12388.381374 kJ/mol
# Density = 1.885214 g / cm^3
# Si number density = 18.895146 Si / 1000 Ang^3
#
#
#
# Elastic Constant Matrix: (Units=GPa)
#
#
# Indices 1 2 3 4 5 6 
#
# 1 134.7110 28.7623 29.2482 0.0000 17.4920 0.0000
# 2 28.7623 37.3648 17.5731 0.0000 5.9359 0.0000
# 3 29.2482 17.5731 59.4633 0.0000 17.5840 0.0000
# 4 0.0000 0.0000 0.0000 26.0200 0.0000 3.4472
# 5 17.4920 5.9359 17.5840 0.0000 26.1008 0.0000
# 6 0.0000 0.0000 0.0000 3.4472 0.0000 22.2987
#
#
#
# Elastic Compliance Matrix: (Units=1/GPa)
#
#
# Indices 1 2 3 4 5 6 
#
# 1 0.009580 -0.005903 -0.001831 0.000000 -0.003845 0.000000
# 2 -0.005903 0.034746 -0.007740 0.000000 0.001268 0.000000
# 3 -0.001831 -0.007740 0.023879 0.000000 -0.013100 0.000000
# 4 0.000000 0.000000 0.000000 0.039235 0.000000 -0.006065
# 5 -0.003845 0.001268 -0.013100 0.000000 0.049426 0.000000
# 6 0.000000 0.000000 0.000000 -0.006065 0.000000 0.045783
#
#
# Mechanical properties :
#
#
# Convention : Reuss Voigt Hill
#
# Bulk Modulus (GPa) = 26.84036 42.52291 34.68164
# Shear Modulus (GPa) = 20.32385 25.28096 22.80240
#
# Velocity S-wave (km/s) = 3.28321 3.66178 3.47765
# Velocity P-wave (km/s) = 5.34868 6.35860 5.87538
#
# Compressibility (1/GPa) = 0.03725732
#
# Stress axis : x y z
#
# Youngs Moduli (GPa) = 104.38032 28.78060 41.87805
#
# Poissons Ratio (x) = 0.16989 0.07668
# Poissons Ratio (y) = 0.61613 0.32414
# Poissons Ratio (z) = 0.19112 0.22276
#
# Static dielectric constant tensor:
#      x y z
#    x 5.110550 0.000000 -0.694600 
#    y 0.000000 3.397140 0.000000 
#    z -0.694600 0.000000 3.578960 
# 
# 
# High freq. dielectric constant tensor:
#      x y z
#    x 1.759530 0.000000 -0.014740 
#    y 0.000000 1.728080 0.000000 
#    z -0.014740 0.000000 1.698340 
# 
# From -- ./inp_files/72033.got.cif
#   From: 2010.06.25/outbox.cif.g09.slc.cpg/sg11_37_cif.got.tgz:72033.got - 2010.06.27 23:14:04.
