data_PCOD8077721
_publ_section_title
;
Structure prediction by ZEFSAII (Michael W. Deem and Ramdas Pophale) SiO2 
 PCOD8077721
Probable space group: P 21/M
;
_chemical_formula_sum "Si O2"
_cell_formula_units_Z 28
_cell_length_a 31.676287
_cell_length_b 8.478776
_cell_length_c 32.523383
_cell_angle_alpha 90.000000
_cell_angle_beta 170.804834
_cell_angle_gamma 90.000000
_cell_volume 1395.835440
_symmetry_space_group_name_H-M "P 21/M"
_symmetry_group_IT_number 11
_symmetry_cell_setting 'monoclinic'
loop_
_space_group_symop_operation_xyz
x,y,z
-x,1/2+y,-z
-x,-y,-z
x,1/2-y,z
loop_
_atom_site_type_symbol
_atom_site_label
_atom_site_fract_x
_atom_site_fract_y
_atom_site_fract_z
Si Si1 0.860366 0.562641 0.453458
Si Si2 0.284231 0.936839 0.261408
Si Si3 0.284214 0.437678 0.594722
Si Si4 0.856003 0.061786 0.118633
Si Si5 0.429269 0.063534 0.976421
Si Si6 0.999792 0.438115 0.166640
Si Si7 0.428290 0.937749 0.309398
O O1 0.864348 0.750000 0.454808
O O2 0.787954 0.502130 0.429321
O O3 0.144378 0.497770 0.715104
O O4 0.643420 0.497792 0.214148
O O5 0.282484 0.750000 0.260822
O O6 0.356331 0.000213 0.285436
O O7 0.500000 0.000000 0.500000
O O8 0.000000 0.000000 0.000000
O O9 0.286077 0.250000 0.595405
O O10 0.069583 0.504073 0.356292
O O11 0.570192 0.504116 0.856889
O O12 0.855781 0.250000 0.118529
O O13 0.927888 0.997251 0.142623
O O14 0.430555 0.250000 0.976852
O O15 0.500000 0.000000 0.000000
O O16 0.999890 0.250000 0.166712
O O17 0.285673 0.503928 0.428459
O O18 0.786158 0.503902 0.928929
O O19 0.429522 0.750000 0.309827
#
# Coordination Sequence:
#
# PCOD8077721 Si02
#       7
#     4   4   4   4   4   4   4
#     4  11  22  39  61  86 118 155 190 228 278 333
#     4  11  22  37  56  79 110 145 186 232 284 340
#     4   9  17  28  45  71 105 141 175 214 265 319
#     4   9  15  24  40  67 103 140 173 211 263 324
#     4  12  25  42  62  87 117 150 191 237 284 334
#     4   9  15  24  40  64  99 138 172 209 266 328
#     4   9  17  28  43  66  98 137 174 217 272 328
#
# _framework density 20.059670000000001
#
# number of rings (size 3 to 8) (size 9 to 14) (size 15 to 20)
#    0.000    2.000    0.000    5.143    0.000    8.000 
#    0.000    0.000    0.000    0.000    0.000    0.000 
#    0.000   80.000    0.000    0.000    0.000    0.000 
#
# Total GULP energy -347250.629486 kJ/mol
# GULP energy per Si atom -12401.808196 kJ/mol
# Density = 2.001401 g / cm^3
# Si number density = 20.059670 Si / 1000 Ang^3
#
#
#
# Elastic Constant Matrix: (Units=GPa)
#
#
# Indices 1 2 3 4 5 6 
#
# 1 237.0171 35.7670 134.3872 0.0000 0.0071 0.0000
# 2 35.7670 55.1876 30.2333 0.0000 -0.0078 0.0000
# 3 134.3872 30.2333 239.0400 0.0000 0.0137 0.0000
# 4 0.0000 0.0000 0.0000 23.1065 0.0000 0.0071
# 5 0.0071 -0.0078 0.0137 0.0000 52.3501 0.0000
# 6 0.0000 0.0000 0.0000 0.0071 0.0000 20.0322
#
#
#
# Elastic Compliance Matrix: (Units=1/GPa)
#
#
# Indices 1 2 3 4 5 6 
#
# 1 0.006468 -0.002364 -0.003337 0.000000 0.000000 0.000000
# 2 -0.002364 0.020333 -0.001243 0.000000 0.000004 0.000000
# 3 -0.003337 -0.001243 0.006217 0.000000 -0.000001 0.000000
# 4 0.000000 0.000000 0.000000 0.043278 0.000000 -0.000015
# 5 0.000000 0.000004 -0.000001 0.000000 0.019102 0.000000
# 6 0.000000 0.000000 0.000000 -0.000015 0.000000 0.049920
#
#
# Mechanical properties :
#
#
# Convention : Reuss Voigt Hill
#
# Bulk Modulus (GPa) = 52.27393 103.55774 77.91583
# Shear Modulus (GPa) = 30.19661 41.15491 35.67576
#
# Velocity S-wave (km/s) = 3.88408 4.53440 4.22178
# Velocity P-wave (km/s) = 6.79931 8.89670 7.91776
#
# Compressibility (1/GPa) = 0.01913000
#
# Stress axis : x y z
#
# Youngs Moduli (GPa) = 154.60606 49.18177 160.85345
#
# Poissons Ratio (x) = 0.11625 0.53683
# Poissons Ratio (y) = 0.36543 0.19991
# Poissons Ratio (z) = 0.51598 0.06112
#
# Static dielectric constant tensor:
#      x y z
#    x 4.002000 0.000000 -0.000080 
#    y 0.000000 3.158830 0.000000 
#    z -0.000080 0.000000 3.893500 
# 
# 
# High freq. dielectric constant tensor:
#      x y z
#    x 1.806420 0.000000 0.000010 
#    y 0.000000 1.728610 0.000000 
#    z 0.000010 0.000000 1.806940 
# 
# From -- ./inp_files/73831.got.cif
#   From: 2010.06.25/outbox.cif.g09.slc.cpg/sg11_37_cif.got.tgz:73831.got - 2010.06.27 23:14:04.
