data_PCOD8077854
_publ_section_title
;
Structure prediction by ZEFSAII (Michael W. Deem and Ramdas Pophale) SiO2 
 PCOD8077854
Probable space group: P 21/M
;
_chemical_formula_sum "Si O2"
_cell_formula_units_Z 20
_cell_length_a 5.894398
_cell_length_b 22.632627
_cell_length_c 8.858511
_cell_angle_alpha 90.000000
_cell_angle_beta 130.797906
_cell_angle_gamma 90.000000
_cell_volume 894.626781
_symmetry_space_group_name_H-M "P 21/M"
_symmetry_group_IT_number 11
_symmetry_cell_setting 'monoclinic'
loop_
_space_group_symop_operation_xyz
x,y,z
-x,1/2+y,-z
-x,-y,-z
x,1/2-y,z
loop_
_atom_site_type_symbol
_atom_site_label
_atom_site_fract_x
_atom_site_fract_y
_atom_site_fract_z
Si Si1 0.098345 0.635103 0.219767
Si Si2 0.095790 0.638935 0.879955
Si Si3 0.449270 0.439341 0.061809
Si Si4 0.918084 0.250000 0.624757
Si Si5 0.453928 0.061885 0.400740
Si Si6 0.195405 0.250000 0.403025
O O1 0.949533 0.690409 0.243144
O O2 0.388519 0.614372 0.438569
O O3 0.174220 0.657354 0.085002
O O4 0.898330 0.576548 0.109923
O O5 0.405785 0.619759 0.942367
O O6 0.890656 0.580351 0.770536
O O7 0.944876 0.693028 0.732781
O O8 0.581128 0.445422 0.287302
O O9 0.500000 0.500000 0.000000
O O10 0.554495 0.250000 0.515278
O O11 0.057995 0.250000 0.515530
O O12 0.500000 0.000000 0.500000
#
# Coordination Sequence:
#
# PCOD8077854 Si02
#       6
#     4   4   4   2   4   2
#     4  11  25  44  69 100 139 184 237 291 360 421
#     4  11  25  44  69  98 141 181 235 296 354 424
#     4  11  25  42  67 104 139 184 238 294 357 427
#     4  12  27  47  76 107 140 192 240 294 359 428
#     4  11  23  42  67  97 139 182 235 292 354 426
#     4  12  27  47  76 105 144 186 244 294 357 426
#
# _framework density 22.355692000000001
#
# number of rings (size 3 to 8) (size 9 to 14) (size 15 to 20)
#    0.000    0.800    2.000    4.200    5.600   10.400 
#    0.000    0.000    0.000    0.000    0.000    0.000 
#    0.000    0.000    0.000    0.000    0.000    0.000 
#
# Total GULP energy -247764.146110 kJ/mol
# GULP energy per Si atom -12388.207305 kJ/mol
# Density = 2.230481 g / cm^3
# Si number density = 22.355692 Si / 1000 Ang^3
#
#
#
# Elastic Constant Matrix: (Units=GPa)
#
#
# Indices 1 2 3 4 5 6 
#
# 1 114.1177 24.2866 48.9619 0.0000 -34.3347 0.0000
# 2 24.2866 117.1675 39.8268 0.0000 -22.0679 0.0000
# 3 48.9619 39.8268 133.8508 0.0000 -37.9896 0.0000
# 4 0.0000 0.0000 0.0000 44.8401 0.0000 -6.3361
# 5 -34.3347 -22.0679 -37.9896 0.0000 47.5181 0.0000
# 6 0.0000 0.0000 0.0000 -6.3361 0.0000 36.7546
#
#
#
# Elastic Compliance Matrix: (Units=1/GPa)
#
#
# Indices 1 2 3 4 5 6 
#
# 1 0.011806 -0.000431 -0.002362 0.000000 0.006442 0.000000
# 2 -0.000431 0.009804 -0.002012 0.000000 0.002633 0.000000
# 3 -0.002362 -0.002012 0.010586 0.000000 0.005822 0.000000
# 4 0.000000 0.000000 0.000000 0.022858 0.000000 0.003941
# 5 0.006442 0.002633 0.005822 0.000000 0.031577 0.000000
# 6 0.000000 0.000000 0.000000 0.003941 0.000000 0.027887
#
#
# Mechanical properties :
#
#
# Convention : Reuss Voigt Hill
#
# Bulk Modulus (GPa) = 44.27492 65.69850 54.98671
# Shear Modulus (GPa) = 37.97727 42.62662 40.30195
#
# Velocity S-wave (km/s) = 4.12609 4.37137 4.25050
# Velocity P-wave (km/s) = 6.52283 7.41148 6.98131
#
# Compressibility (1/GPa) = 0.02258615
#
# Stress axis : x y z
#
# Youngs Moduli (GPa) = 84.70056 101.99915 94.46248
#
# Poissons Ratio (x) = 0.04396 0.22312
# Poissons Ratio (y) = 0.03650 0.19008
# Poissons Ratio (z) = 0.20006 0.20524
#
# Static dielectric constant tensor:
#      x y z
#    x 4.396450 0.000000 -0.077030 
#    y 0.000000 4.072200 0.000000 
#    z -0.077030 0.000000 4.241160 
# 
# 
# High freq. dielectric constant tensor:
#      x y z
#    x 1.878650 0.000000 -0.011370 
#    y 0.000000 1.900480 0.000000 
#    z -0.011370 0.000000 1.893350 
# 
# From -- ./inp_files/823.got.cif
#   From: 2010.06.25/outbox.cif.g09.slc.cpg/sg11_1_cif.got.tgz:823.got - 2010.06.27 23:14:04.
