data_PCOD8077123
_publ_section_title
;
Structure prediction by ZEFSAII (Michael W. Deem and Ramdas Pophale) SiO2 
 PCOD8077123
Probable space group: P 21/M
;
_chemical_formula_sum "Si O2"
_cell_formula_units_Z 28
_cell_length_a 26.168337
_cell_length_b 8.713752
_cell_length_c 10.008985
_cell_angle_alpha 90.000000
_cell_angle_beta 38.221839
_cell_angle_gamma 90.000000
_cell_volume 1412.072554
_symmetry_space_group_name_H-M "P 21/M"
_symmetry_group_IT_number 11
_symmetry_cell_setting 'monoclinic'
loop_
_space_group_symop_operation_xyz
x,y,z
-x,1/2+y,-z
-x,-y,-z
x,1/2-y,z
loop_
_atom_site_type_symbol
_atom_site_label
_atom_site_fract_x
_atom_site_fract_y
_atom_site_fract_z
Si Si1 0.059330 0.430508 0.768371
Si Si2 0.759151 0.929308 0.505689
Si Si3 0.754758 0.432133 0.966006
Si Si4 0.514902 0.430216 0.824951
Si Si5 0.357820 0.931293 0.042056
Si Si6 0.300834 0.931083 0.630273
Si Si7 0.937528 0.432289 0.522309
O O1 0.044979 0.250000 0.788223
O O2 0.152779 0.472479 0.613981
O O3 0.036123 0.507558 0.676335
O O4 0.000000 0.500000 0.000000
O O5 0.740078 0.750000 0.557264
O O6 0.689029 0.023770 0.726246
O O7 0.757199 0.981462 0.355867
O O8 0.753701 0.250000 0.963355
O O9 0.691833 0.496554 0.983607
O O10 0.846152 0.493662 0.745966
O O11 0.726214 0.491749 0.168921
O O12 0.504831 0.250000 0.857337
O O13 0.604258 0.477191 0.586546
O O14 0.500000 0.500000 0.000000
O O15 0.448525 0.494760 0.855796
O O16 0.367146 0.750000 0.017769
O O17 0.286542 0.750000 0.644761
O O18 0.941760 0.250000 0.515932
O O19 0.000000 0.500000 0.500000
#
# Coordination Sequence:
#
# PCOD8077123 Si02
#       7
#     4   4   4   4   4   4   4
#     4  11  25  43  64  94 127 163 206 258 311 369
#     4  11  23  39  61  91 123 156 204 256 301 357
#     4   9  21  41  63  88 119 160 206 246 301 371
#     4  11  22  36  58  89 124 159 205 256 305 360
#     4  11  21  38  64  88 118 163 204 247 305 366
#     4  10  22  40  62  88 120 162 206 249 304 367
#     4  11  23  42  65  92 126 165 206 254 309 373
#
# _framework density 19.82901
#
# number of rings (size 3 to 8) (size 9 to 14) (size 15 to 20)
#    0.000    1.429    2.857    2.143    2.000    2.857 
#    0.000    2.143    0.000    0.000    0.000    0.000 
#    0.000    0.000    0.000    0.000    0.000    0.000 
#
# Total GULP energy -347361.698977 kJ/mol
# GULP energy per Si atom -12405.774963 kJ/mol
# Density = 1.978388 g / cm^3
# Si number density = 19.829010 Si / 1000 Ang^3
#
#
#
# Elastic Constant Matrix: (Units=GPa)
#
#
# Indices 1 2 3 4 5 6 
#
# 1 165.2212 44.5303 57.1258 0.0000 11.4136 0.0000
# 2 44.5303 68.7173 36.1365 0.0000 -4.9969 0.0000
# 3 57.1258 36.1365 122.5398 0.0000 16.7315 0.0000
# 4 0.0000 0.0000 0.0000 24.1768 0.0000 -0.7533
# 5 11.4136 -4.9969 16.7315 0.0000 35.7760 0.0000
# 6 0.0000 0.0000 0.0000 -0.7533 0.0000 37.3652
#
#
#
# Elastic Compliance Matrix: (Units=1/GPa)
#
#
# Indices 1 2 3 4 5 6 
#
# 1 0.008117 -0.004235 -0.002244 0.000000 -0.002132 0.000000
# 2 -0.004235 0.020353 -0.004914 0.000000 0.006492 0.000000
# 3 -0.002244 -0.004914 0.011379 0.000000 -0.005292 0.000000
# 4 0.000000 0.000000 0.000000 0.041388 0.000000 0.000834
# 5 -0.002132 0.006492 -0.005292 0.000000 0.032013 0.000000
# 6 0.000000 0.000000 0.000000 0.000834 0.000000 0.026780
#
#
# Mechanical properties :
#
#
# Convention : Reuss Voigt Hill
#
# Bulk Modulus (GPa) = 58.60944 70.22927 64.41936
# Shear Modulus (GPa) = 29.67298 34.04265 31.85781
#
# Velocity S-wave (km/s) = 3.87259 4.14794 4.01262
# Velocity P-wave (km/s) = 7.04397 7.64427 7.35025
#
# Compressibility (1/GPa) = 0.01706210
#
# Stress axis : x y z
#
# Youngs Moduli (GPa) = 123.19762 49.13280 87.88493
#
# Poissons Ratio (x) = 0.20807 0.19722
# Poissons Ratio (y) = 0.52173 0.43189
# Poissons Ratio (z) = 0.27647 0.24145
#
# Static dielectric constant tensor:
#      x y z
#    x 3.893040 0.000000 -0.060020 
#    y 0.000000 3.516690 0.000000 
#    z -0.060020 0.000000 3.717200 
# 
# 
# High freq. dielectric constant tensor:
#      x y z
#    x 1.791420 0.000000 -0.001400 
#    y 0.000000 1.766910 0.000000 
#    z -0.001400 0.000000 1.775620 
# 
# From -- ./inp_files/28377.got.cif
#   From: 2010.06.25/outbox.cif.g09.slc.cpg/sg11_15_cif.got.tgz:28377.got - 2010.06.27 23:14:04.
