data_PCOD8077993
_publ_section_title
;
Structure prediction by ZEFSAII (Michael W. Deem and Ramdas Pophale) SiO2 
 PCOD8077993
Probable space group: P 21/M
;
_chemical_formula_sum "Si O2"
_cell_formula_units_Z 32
_cell_length_a 15.000000
_cell_length_b 9.000000
_cell_length_c 27.000000
_cell_angle_alpha 90.000000
_cell_angle_beta 30.000000
_cell_angle_gamma 90.000000
_cell_volume 1822.500000
_symmetry_space_group_name_H-M "P 21/M"
_symmetry_group_IT_number 11
_symmetry_cell_setting 'monoclinic'
loop_
_space_group_symop_operation_xyz
x,y,z
-x,1/2+y,-z
-x,-y,-z
x,1/2-y,z
loop_
_atom_site_type_symbol
_atom_site_label
_atom_site_fract_x
_atom_site_fract_y
_atom_site_fract_z
Si Si1 0.288187 0.430310 0.327289
Si Si2 0.920050 0.429036 0.929684
Si Si3 0.308458 0.079715 0.767694
Si Si4 0.293121 0.569279 0.432541
Si Si5 0.691872 0.925288 0.845073
Si Si6 0.046691 0.931244 0.360419
Si Si7 0.656710 0.924783 0.134177
Si Si8 0.317662 0.423997 0.034150
O O1 0.280912 0.250000 0.332867
O O2 0.252003 0.502132 0.398203
O O3 0.135631 0.497078 0.365874
O O4 0.473390 0.485320 0.213816
O O5 0.906355 0.250000 0.939772
O O6 0.842249 0.490446 0.915861
O O7 0.126891 0.486540 0.831171
O O8 0.811349 0.503110 0.026911
O O9 0.310105 0.250000 0.753162
O O10 0.500191 0.019071 0.654934
O O11 0.288134 0.053588 0.835790
O O12 0.273787 0.750000 0.440913
O O13 0.158538 0.493963 0.537605
O O14 0.684743 0.750000 0.834182
O O15 0.724546 0.946443 0.887752
O O16 0.850089 0.006826 0.738170
O O17 0.501475 0.002392 0.926057
O O18 0.048838 0.750000 0.359457
O O19 0.630386 0.750000 0.133762
O O20 0.323826 0.250000 0.017198
#
# Coordination Sequence:
#
# PCOD8077993 Si02
#       8
#     4   4   4   4   4   4   4   4
#     4  11  21  34  51  75 106 140 176 212 254 303
#     4  11  20  32  52  78 105 136 174 211 254 307
#     4   8  18  34  52  73 101 138 176 215 255 297
#     4  10  20  37  55  74 103 138 176 216 257 298
#     4  10  21  38  58  79 104 135 169 207 254 307
#     4  12  23  35  53  78 105 135 172 212 257 307
#     4  10  19  33  50  73 106 141 176 214 256 299
#     4  10  21  37  56  80 108 135 165 206 257 308
#
# _framework density 17.558299000000002
#
# number of rings (size 3 to 8) (size 9 to 14) (size 15 to 20)
#    0.000    1.750    0.000    6.375    0.000    1.500 
#    0.000    6.875    0.000    0.750    0.000    0.000 
#    0.000    0.000    0.000    0.000    0.000    0.000 
#
# Total GULP energy -396583.859037 kJ/mol
# GULP energy per Si atom -12393.245595 kJ/mol
# Density = 1.751834 g / cm^3
# Si number density = 17.558299 Si / 1000 Ang^3
#
#
#
# Elastic Constant Matrix: (Units=GPa)
#
#
# Indices 1 2 3 4 5 6 
#
# 1 67.5798 33.5803 52.9194 0.0000 -13.0585 0.0000
# 2 33.5803 152.4967 56.0860 0.0000 -4.8812 0.0000
# 3 52.9194 56.0860 164.6803 0.0000 -9.4153 0.0000
# 4 0.0000 0.0000 0.0000 39.4492 0.0000 2.5282
# 5 -13.0585 -4.8812 -9.4153 0.0000 31.7546 0.0000
# 6 0.0000 0.0000 0.0000 2.5282 0.0000 28.6146
#
#
#
# Elastic Compliance Matrix: (Units=1/GPa)
#
#
# Indices 1 2 3 4 5 6 
#
# 1 0.021902 -0.002468 -0.005803 0.000000 0.006907 0.000000
# 2 -0.002468 0.007780 -0.001878 0.000000 -0.000376 0.000000
# 3 -0.005803 -0.001878 0.008569 0.000000 -0.000134 0.000000
# 4 0.000000 0.000000 0.000000 0.025493 0.000000 -0.002252
# 5 0.006907 -0.000376 -0.000134 0.000000 0.034234 0.000000
# 6 0.000000 0.000000 0.000000 -0.002252 0.000000 0.035146
#
#
# Mechanical properties :
#
#
# Convention : Reuss Voigt Hill
#
# Bulk Modulus (GPa) = 55.69888 74.43646 65.06767
# Shear Modulus (GPa) = 31.36636 36.10841 33.73739
#
# Velocity S-wave (km/s) = 4.23118 4.53977 4.38819
# Velocity P-wave (km/s) = 7.46067 8.36452 7.92549
#
# Compressibility (1/GPa) = 0.01795368
#
# Stress axis : x y z
#
# Youngs Moduli (GPa) = 45.65758 128.54141 116.69909
#
# Poissons Ratio (x) = 0.31719 0.67719
# Poissons Ratio (y) = 0.11267 0.21917
# Poissons Ratio (z) = 0.26495 0.24141
#
# Static dielectric constant tensor:
#      x y z
#    x 3.277830 0.000000 -0.212040 
#    y 0.000000 3.620340 0.000000 
#    z -0.212040 0.000000 3.742420 
# 
# 
# High freq. dielectric constant tensor:
#      x y z
#    x 1.663000 0.000000 -0.007930 
#    y 0.000000 1.704900 0.000000 
#    z -0.007930 0.000000 1.704010 
# 
# From -- ./inp_files/71605.got.cif
#   From: 2010.06.25/outbox.ucp.g09.slc.cvg/sg11_36_cif.got.tgz:71605.got - 2010.06.28 13:43:20.
