data_PCOD8077765
_publ_section_title
;
Structure prediction by ZEFSAII (Michael W. Deem and Ramdas Pophale) SiO2 
 PCOD8077765
Probable space group: P 21/M
;
_chemical_formula_sum "Si O2"
_cell_formula_units_Z 32
_cell_length_a 16.320425
_cell_length_b 16.885459
_cell_length_c 12.700998
_cell_angle_alpha 90.000000
_cell_angle_beta 154.121395
_cell_angle_gamma 90.000000
_cell_volume 1527.680210
_symmetry_space_group_name_H-M "P 21/M"
_symmetry_group_IT_number 11
_symmetry_cell_setting 'monoclinic'
loop_
_space_group_symop_operation_xyz
x,y,z
-x,1/2+y,-z
-x,-y,-z
x,1/2-y,z
loop_
_atom_site_type_symbol
_atom_site_label
_atom_site_fract_x
_atom_site_fract_y
_atom_site_fract_z
Si Si1 0.053308 0.409242 0.539221
Si Si2 0.085539 0.839180 0.049986
Si Si3 0.021031 0.945417 0.168922
Si Si4 0.860715 0.660096 0.573203
Si Si5 0.386223 0.040491 0.615462
Si Si6 0.160213 0.659834 0.520764
Si Si7 0.525548 0.568858 0.945861
Si Si8 0.349818 0.547746 0.262155
O O1 0.015053 0.384040 0.373248
O O2 0.000000 0.500000 0.500000
O O3 0.938304 0.351483 0.480974
O O4 0.270930 0.392767 0.813095
O O5 0.112552 0.750000 0.121999
O O6 0.987195 0.889044 0.029298
O O7 0.289999 0.874998 0.259508
O O8 0.965005 0.841744 0.804817
O O9 0.063900 0.896037 0.323118
O O10 0.193516 0.005083 0.341702
O O11 0.834390 0.995591 0.975994
O O12 0.815376 0.750000 0.486556
O O13 0.667669 0.610620 0.364905
O O14 0.537170 0.076901 0.709700
O O15 0.494483 0.968729 0.795664
O O16 0.141525 0.750000 0.461754
O O17 0.377195 0.639025 0.789878
O O18 0.500000 0.500000 0.000000
O O19 0.500000 0.500000 0.500000
#
# Coordination Sequence:
#
# PCOD8077765 Si02
#       8
#     4   4   4   4   4   4   4   4
#     4  12  23  43  68  96 131 174 228 271 328 406
#     4  11  24  42  65  95 135 172 211 274 336 385
#     4  11  22  46  68  92 134 172 220 274 326 397
#     4  11  24  41  63  95 135 174 209 268 340 392
#     4  11  22  40  67  95 123 170 223 264 323 394
#     4  11  25  42  68  99 130 174 223 280 337 389
#     4  11  22  41  64  95 125 169 220 268 327 392
#     4  12  23  38  69 100 122 173 227 260 322 401
#
# _framework density 20.946791000000001
#
# number of rings (size 3 to 8) (size 9 to 14) (size 15 to 20)
#    0.000    0.750    5.000    3.375    1.750    1.500 
#    0.000    1.250    0.000    0.000    0.000    0.000 
#    0.000    0.000    0.000    0.000    0.000    0.000 
#
# Total GULP energy -396797.274433 kJ/mol
# GULP energy per Si atom -12399.914826 kJ/mol
# Density = 2.089912 g / cm^3
# Si number density = 20.946791 Si / 1000 Ang^3
#
#
#
# Elastic Constant Matrix: (Units=GPa)
#
#
# Indices 1 2 3 4 5 6 
#
# 1 135.6723 39.1552 20.1357 0.0000 10.1744 0.0000
# 2 39.1552 128.7259 19.4931 0.0000 6.5196 0.0000
# 3 20.1357 19.4931 87.0174 0.0000 11.8979 0.0000
# 4 0.0000 0.0000 0.0000 27.5104 0.0000 0.4139
# 5 10.1744 6.5196 11.8979 0.0000 34.0682 0.0000
# 6 0.0000 0.0000 0.0000 0.4139 0.0000 33.0246
#
#
#
# Elastic Compliance Matrix: (Units=1/GPa)
#
#
# Indices 1 2 3 4 5 6 
#
# 1 0.008325 -0.002269 -0.001195 0.000000 -0.001635 0.000000
# 2 -0.002269 0.008689 -0.001351 0.000000 -0.000513 0.000000
# 3 -0.001195 -0.001351 0.012588 0.000000 -0.003781 0.000000
# 4 0.000000 0.000000 0.000000 0.036357 0.000000 -0.000456
# 5 -0.001635 -0.000513 -0.003781 0.000000 0.031260 0.000000
# 6 0.000000 0.000000 0.000000 -0.000456 0.000000 0.030286
#
#
# Mechanical properties :
#
#
# Convention : Reuss Voigt Hill
#
# Bulk Modulus (GPa) = 50.06713 56.55373 53.31043
# Shear Modulus (GPa) = 34.77236 37.09609 35.93422
#
# Velocity S-wave (km/s) = 4.07877 4.21285 4.14635
# Velocity P-wave (km/s) = 6.79233 7.12190 6.95907
#
# Compressibility (1/GPa) = 0.01997319
#
# Stress axis : x y z
#
# Youngs Moduli (GPa) = 120.11494 115.08615 79.44025
#
# Poissons Ratio (x) = 0.26109 0.09491
# Poissons Ratio (y) = 0.27250 0.10735
# Poissons Ratio (z) = 0.14350 0.15552
#
# Static dielectric constant tensor:
#      x y z
#    x 4.562030 0.000000 0.138890 
#    y 0.000000 3.989270 0.000000 
#    z 0.138890 0.000000 3.954510 
# 
# 
# High freq. dielectric constant tensor:
#      x y z
#    x 1.834250 0.000000 -0.005250 
#    y 0.000000 1.815540 0.000000 
#    z -0.005250 0.000000 1.817180 
# 
# From -- ./inp_files/40061.got.cif
#   From: 2010.06.25/outbox.cif.g09.slc.cpg/sg11_21_cif.got.tgz:40061.got - 2010.06.27 23:14:04.
