data_PCOD8077356
_publ_section_title
;
Structure prediction by ZEFSAII (Michael W. Deem and Ramdas Pophale) SiO2 
 PCOD8077356
Probable space group: P 21/M
;
_chemical_formula_sum "Si O2"
_cell_formula_units_Z 28
_cell_length_a 15.602011
_cell_length_b 8.732460
_cell_length_c 11.947057
_cell_angle_alpha 90.000000
_cell_angle_beta 59.302104
_cell_angle_gamma 90.000000
_cell_volume 1399.624166
_symmetry_space_group_name_H-M "P 21/M"
_symmetry_group_IT_number 11
_symmetry_cell_setting 'monoclinic'
loop_
_space_group_symop_operation_xyz
x,y,z
-x,1/2+y,-z
-x,-y,-z
x,1/2-y,z
loop_
_atom_site_type_symbol
_atom_site_label
_atom_site_fract_x
_atom_site_fract_y
_atom_site_fract_z
Si Si1 0.800404 0.069154 0.372019
Si Si2 0.477352 0.569698 0.183949
Si Si3 0.859686 0.929002 0.866691
Si Si4 0.572690 0.068672 0.541849
Si Si5 0.891266 0.431093 0.073703
Si Si6 0.971772 0.931756 0.397986
Si Si7 0.648304 0.572377 0.910835
O O1 0.810557 0.250000 0.384298
O O2 0.686497 0.012229 0.453749
O O3 0.838345 0.020424 0.223897
O O4 0.863129 0.987020 0.428754
O O5 0.474452 0.750000 0.190872
O O6 0.470752 0.504216 0.312874
O O7 0.379406 0.515072 0.183433
O O8 0.578832 0.509315 0.058346
O O9 0.886303 0.750000 0.858332
O O10 0.763218 0.959498 0.856326
O O11 0.950958 0.015341 0.748387
O O12 0.834281 0.995415 0.006092
O O13 0.569339 0.250000 0.535003
O O14 0.500000 0.000000 0.500000
O O15 0.895019 0.250000 0.057313
O O16 0.000000 0.500000 0.000000
O O17 0.972365 0.750000 0.408261
O O18 0.000000 0.000000 0.500000
O O19 0.625778 0.750000 0.908754
#
# Coordination Sequence:
#
# PCOD8077356 Si02
#       7
#     4   4   4   4   4   4   4
#     4  10  23  43  63  89 125 163 207 259 309 364
#     4   9  19  38  60  85 117 154 198 248 301 357
#     4  11  23  39  61  91 125 157 201 252 301 363
#     4  10  23  41  62  89 121 160 205 252 304 361
#     4  11  22  38  61  87 120 159 202 249 304 358
#     4  12  26  43  65  92 125 164 206 250 308 371
#     4   9  20  37  59  87 118 154 196 247 301 355
#
# _framework density 20.005369000000002
#
# number of rings (size 3 to 8) (size 9 to 14) (size 15 to 20)
#    0.000    1.714    1.429    2.143    4.000    2.857 
#    0.000    0.000    0.000    0.000    0.000    0.000 
#    0.000    0.000    0.000    0.000    0.000    0.000 
#
# Total GULP energy -347236.903056 kJ/mol
# GULP energy per Si atom -12401.317966 kJ/mol
# Density = 1.995984 g / cm^3
# Si number density = 20.005369 Si / 1000 Ang^3
#
#
#
# Elastic Constant Matrix: (Units=GPa)
#
#
# Indices 1 2 3 4 5 6 
#
# 1 135.6666 45.2390 77.4067 0.0000 7.2161 0.0000
# 2 45.2390 65.4876 36.6268 0.0000 5.3546 0.0000
# 3 77.4067 36.6268 110.9407 0.0000 19.2152 0.0000
# 4 0.0000 0.0000 0.0000 27.1725 0.0000 5.8295
# 5 7.2161 5.3546 19.2152 0.0000 38.5650 0.0000
# 6 0.0000 0.0000 0.0000 5.8295 0.0000 38.2576
#
#
#
# Elastic Compliance Matrix: (Units=1/GPa)
#
#
# Indices 1 2 3 4 5 6 
#
# 1 0.013617 -0.004978 -0.008248 0.000000 0.002253 0.000000
# 2 -0.004978 0.020558 -0.003262 0.000000 -0.000297 0.000000
# 3 -0.008248 -0.003262 0.016964 0.000000 -0.006456 0.000000
# 4 0.000000 0.000000 0.000000 0.038046 0.000000 -0.005797
# 5 0.002253 -0.000297 -0.006456 0.000000 0.028767 0.000000
# 6 0.000000 0.000000 0.000000 -0.005797 0.000000 0.027022
#
#
# Mechanical properties :
#
#
# Convention : Reuss Voigt Hill
#
# Bulk Modulus (GPa) = 55.05825 70.07109 62.56467
# Shear Modulus (GPa) = 27.17347 30.98717 29.08032
#
# Velocity S-wave (km/s) = 3.68952 3.93993 3.81678
# Velocity P-wave (km/s) = 6.76251 7.46991 7.12500
#
# Compressibility (1/GPa) = 0.01816258
#
# Stress axis : x y z
#
# Youngs Moduli (GPa) = 73.43772 48.64340 58.94931
#
# Poissons Ratio (x) = 0.24215 0.48620
# Poissons Ratio (y) = 0.36557 0.19231
# Poissons Ratio (z) = 0.60569 0.15869
#
# Static dielectric constant tensor:
#      x y z
#    x 3.797830 0.000000 0.237230 
#    y 0.000000 3.631790 0.000000 
#    z 0.237230 0.000000 4.311230 
# 
# 
# High freq. dielectric constant tensor:
#      x y z
#    x 1.790740 0.000000 0.005280 
#    y 0.000000 1.774940 0.000000 
#    z 0.005280 0.000000 1.790460 
# 
# From -- ./inp_files/37869.got.cif
#   From: 2010.06.25/outbox.cif.g09.slc.cpg/sg11_19_cif.got.tgz:37869.got - 2010.06.27 23:14:04.
