data_PCOD8077434
_publ_section_title
;
Structure prediction by ZEFSAII (Michael W. Deem and Ramdas Pophale) SiO2 
 PCOD8077434
Probable space group: P 21/M
;
_chemical_formula_sum "Si O2"
_cell_formula_units_Z 32
_cell_length_a 11.813718
_cell_length_b 8.440262
_cell_length_c 27.887457
_cell_angle_alpha 90.000000
_cell_angle_beta 146.736449
_cell_angle_gamma 90.000000
_cell_volume 1525.179469
_symmetry_space_group_name_H-M "P 21/M"
_symmetry_group_IT_number 11
_symmetry_cell_setting 'monoclinic'
loop_
_space_group_symop_operation_xyz
x,y,z
-x,1/2+y,-z
-x,-y,-z
x,1/2-y,z
loop_
_atom_site_type_symbol
_atom_site_label
_atom_site_fract_x
_atom_site_fract_y
_atom_site_fract_z
Si Si1 0.537776 0.064984 0.913133
Si Si2 0.789961 0.068121 0.649571
Si Si3 0.549068 0.433465 0.403796
Si Si4 0.168656 0.934153 0.836775
Si Si5 0.358234 0.934545 0.753598
Si Si6 0.114424 0.433251 0.415625
Si Si7 0.925103 0.933884 0.094124
Si Si8 0.636626 0.936030 0.762094
O O1 0.559779 0.250000 0.930678
O O2 0.399412 0.988913 0.906207
O O3 0.442549 0.036123 0.827382
O O4 0.761959 0.983037 0.995477
O O5 0.731107 0.250000 0.638016
O O6 0.628179 0.958469 0.619686
O O7 0.782504 0.033451 0.590519
O O8 0.018912 0.033465 0.749448
O O9 0.606008 0.250000 0.420797
O O10 0.756706 0.528506 0.490775
O O11 0.468683 0.496352 0.324201
O O12 0.140325 0.750000 0.814833
O O13 0.118497 0.963139 0.874207
O O14 0.379581 0.750000 0.774185
O O15 0.485423 0.979937 0.751657
O O16 0.122154 0.981918 0.659746
O O17 0.132326 0.250000 0.408542
O O18 0.905626 0.750000 0.100028
O O19 0.151424 0.970900 0.154165
O O20 0.684303 0.750000 0.776215
#
# Coordination Sequence:
#
# PCOD8077434 Si02
#       8
#     4   4   4   4   4   4   4   4
#     4  12  25  42  66  96 129 167 210 259 314 376
#     4  12  23  38  63  95 129 165 208 256 313 382
#     4  11  23  40  64  93 129 168 210 261 315 375
#     4  12  23  40  65  95 131 167 204 254 315 380
#     4  10  23  44  67  91 124 168 216 265 316 371
#     4  11  23  40  64  93 129 168 210 261 315 375
#     4  12  25  42  66  96 129 167 210 259 314 376
#     4  10  23  44  67  91 124 168 216 265 316 371
#
# _framework density 20.981135999999999
#
# number of rings (size 3 to 8) (size 9 to 14) (size 15 to 20)
#    0.000    0.750    2.500    6.000    0.000    2.500 
#    0.000    0.000    0.000    0.000    0.000    0.000 
#    0.000    0.000    0.000    0.000    0.000    0.000 
#
# Total GULP energy -397082.668262 kJ/mol
# GULP energy per Si atom -12408.833383 kJ/mol
# Density = 2.093338 g / cm^3
# Si number density = 20.981136 Si / 1000 Ang^3
#
#
#
# Elastic Constant Matrix: (Units=GPa)
#
#
# Indices 1 2 3 4 5 6 
#
# 1 109.0664 23.7880 35.4919 0.0000 16.7352 0.0000
# 2 23.7880 76.0217 27.3566 0.0000 2.5837 0.0000
# 3 35.4919 27.3566 128.4639 0.0000 8.6837 0.0000
# 4 0.0000 0.0000 0.0000 36.9041 0.0000 -0.1259
# 5 16.7352 2.5837 8.6837 0.0000 14.9468 0.0000
# 6 0.0000 0.0000 0.0000 -0.1259 0.0000 24.7898
#
#
#
# Elastic Compliance Matrix: (Units=1/GPa)
#
#
# Indices 1 2 3 4 5 6 
#
# 1 0.012266 -0.002709 -0.001994 0.000000 -0.012107 0.000000
# 2 -0.002709 0.014852 -0.002546 0.000000 0.001945 0.000000
# 3 -0.001994 -0.002546 0.009052 0.000000 -0.002587 0.000000
# 4 0.000000 0.000000 0.000000 0.027098 0.000000 0.000138
# 5 -0.012107 0.001945 -0.002587 0.000000 0.081627 0.000000
# 6 0.000000 0.000000 0.000000 0.000138 0.000000 0.040340
#
#
# Mechanical properties :
#
#
# Convention : Reuss Voigt Hill
#
# Bulk Modulus (GPa) = 46.14050 54.09167 50.11608
# Shear Modulus (GPa) = 24.15975 30.45583 27.30779
#
# Velocity S-wave (km/s) = 3.39706 3.81410 3.61160
# Velocity P-wave (km/s) = 6.11766 6.72559 6.42881
#
# Compressibility (1/GPa) = 0.02167294
#
# Stress axis : x y z
#
# Youngs Moduli (GPa) = 81.52536 67.33155 110.47250
#
# Poissons Ratio (x) = 0.18242 0.22023
# Poissons Ratio (y) = 0.22088 0.28123
# Poissons Ratio (z) = 0.16252 0.17141
#
# Static dielectric constant tensor:
#      x y z
#    x 3.669460 0.000000 0.036040 
#    y 0.000000 3.699370 0.000000 
#    z 0.036040 0.000000 4.009640 
# 
# 
# High freq. dielectric constant tensor:
#      x y z
#    x 1.812330 0.000000 0.002430 
#    y 0.000000 1.824710 0.000000 
#    z 0.002430 0.000000 1.838540 
# 
# From -- ./inp_files/73181.got.cif
#   From: 2010.06.25/outbox.cif.g09.slc.cpg/sg11_37_cif.got.tgz:73181.got - 2010.06.27 23:14:04.
