data_PCOD8077503
_publ_section_title
;
Structure prediction by ZEFSAII (Michael W. Deem and Ramdas Pophale) SiO2 
 PCOD8077503
Probable space group: P 21/M
;
_chemical_formula_sum "Si O2"
_cell_formula_units_Z 18
_cell_length_a 10.424015
_cell_length_b 12.055237
_cell_length_c 12.811552
_cell_angle_alpha 90.000000
_cell_angle_beta 144.453287
_cell_angle_gamma 90.000000
_cell_volume 935.971301
_symmetry_space_group_name_H-M "P 21/M"
_symmetry_group_IT_number 11
_symmetry_cell_setting 'monoclinic'
loop_
_space_group_symop_operation_xyz
x,y,z
-x,1/2+y,-z
-x,-y,-z
x,1/2-y,z
loop_
_atom_site_type_symbol
_atom_site_label
_atom_site_fract_x
_atom_site_fract_y
_atom_site_fract_z
Si Si1 0.221754 0.750000 0.456115
Si Si2 0.974382 0.627083 0.750000
Si Si3 0.809524 0.750000 0.043885
Si Si4 0.396708 0.481519 0.043982
Si Si5 0.271430 0.250000 0.250000
Si Si6 0.191257 0.981519 0.543983
O O1 0.466022 0.750000 0.571624
O O2 0.178851 0.854948 0.500468
O O3 0.058922 0.750000 0.250000
O O4 0.039117 0.750000 0.750000
O O5 0.819263 0.640262 0.750000
O O6 0.836854 0.562538 0.572049
O O7 0.192756 0.562538 0.927951
O O8 0.677915 0.854948 0.999532
O O9 0.822774 0.750000 0.928376
O O10 0.573269 0.508860 0.250000
O O11 0.500000 0.500000 0.000000
O O12 0.000000 0.000000 0.500000
#
# Coordination Sequence:
#
# PCOD8077503 Si02
#       6
#     2   4   2   4   2   4
#     4  12  24  45  69 102 131 183 228 267 346 394
#     4  10  26  46  63 104 131 180 229 266 338 400
#     4  12  24  45  69 102 131 183 228 267 346 394
#     4  12  24  43  72 101 136 177 219 289 337 398
#     4  10  26  46  68  94 142 180 222 282 314 422
#     4  12  24  43  72 101 136 177 219 289 337 398
#
# _framework density 19.231359999999999
#
# number of rings (size 3 to 8) (size 9 to 14) (size 15 to 20)
#    0.667    0.000    6.667    0.000    3.111    4.444 
#    0.000    0.000    0.000    0.000    0.000    0.000 
#    0.000    0.000    0.000    0.000    0.000    0.000 
#
# Total GULP energy -223238.298432 kJ/mol
# GULP energy per Si atom -12402.127691 kJ/mol
# Density = 1.918759 g / cm^3
# Si number density = 19.231360 Si / 1000 Ang^3
#
#
#
# Elastic Constant Matrix: (Units=GPa)
#
#
# Indices 1 2 3 4 5 6 
#
# 1 161.8996 76.3606 76.0253 0.0000 0.3130 0.0000
# 2 76.3606 169.2934 74.1816 0.0000 0.1348 0.0000
# 3 76.0253 74.1816 218.7995 0.0000 -3.8320 0.0000
# 4 0.0000 0.0000 0.0000 33.3746 0.0000 0.3967
# 5 0.3130 0.1348 -3.8320 0.0000 40.6633 0.0000
# 6 0.0000 0.0000 0.0000 0.3967 0.0000 39.7880
#
#
#
# Elastic Compliance Matrix: (Units=1/GPa)
#
#
# Indices 1 2 3 4 5 6 
#
# 1 0.008496 -0.002979 -0.001946 0.000000 -0.000239 0.000000
# 2 -0.002979 0.007985 -0.001675 0.000000 -0.000161 0.000000
# 3 -0.001946 -0.001675 0.005824 0.000000 0.000569 0.000000
# 4 0.000000 0.000000 0.000000 0.029966 0.000000 -0.000299
# 5 -0.000239 -0.000161 0.000569 0.000000 0.024648 0.000000
# 6 0.000000 0.000000 0.000000 -0.000299 0.000000 0.025136
#
#
# Mechanical properties :
#
#
# Convention : Reuss Voigt Hill
#
# Bulk Modulus (GPa) = 109.83192 111.45862 110.64527
# Shear Modulus (GPa) = 42.26838 44.32684 43.29761
#
# Velocity S-wave (km/s) = 4.69325 4.80617 4.75005
# Velocity P-wave (km/s) = 9.30611 9.42770 9.36710
#
# Compressibility (1/GPa) = 0.00910482
#
# Stress axis : x y z
#
# Youngs Moduli (GPa) = 117.69922 125.23956 171.69067
#
# Poissons Ratio (x) = 0.37312 0.33415
# Poissons Ratio (y) = 0.35066 0.28754
# Poissons Ratio (z) = 0.22907 0.20975
#
# Static dielectric constant tensor:
#      x y z
#    x 3.461890 0.000000 -0.056870 
#    y 0.000000 3.622090 0.000000 
#    z -0.056870 0.000000 4.381590 
# 
# 
# High freq. dielectric constant tensor:
#      x y z
#    x 1.748150 0.000000 -0.001380 
#    y 0.000000 1.758040 0.000000 
#    z -0.001380 0.000000 1.770380 
# 
# From -- ./inp_files/49973.got.cif
#   From: 2010.06.25/outbox.cif.g09.slc.cpg/sg11_25_cif.got.tgz:49973.got - 2010.06.27 23:14:04.
