data_PCOD8077992
_publ_section_title
;
Structure prediction by ZEFSAII (Michael W. Deem and Ramdas Pophale) SiO2 
 PCOD8077992
Probable space group: P 21/M
;
_chemical_formula_sum "Si O2"
_cell_formula_units_Z 28
_cell_length_a 12.000000
_cell_length_b 9.000000
_cell_length_c 15.000000
_cell_angle_alpha 90.000000
_cell_angle_beta 70.000000
_cell_angle_gamma 90.000000
_cell_volume 1522.302046
_symmetry_space_group_name_H-M "P 21/M"
_symmetry_group_IT_number 11
_symmetry_cell_setting 'monoclinic'
loop_
_space_group_symop_operation_xyz
x,y,z
-x,1/2+y,-z
-x,-y,-z
x,1/2-y,z
loop_
_atom_site_type_symbol
_atom_site_label
_atom_site_fract_x
_atom_site_fract_y
_atom_site_fract_z
Si Si1 0.245739 0.923534 0.099796
Si Si2 0.371912 0.426502 0.911281
Si Si3 0.377323 0.583287 0.430281
Si Si4 0.975405 0.582392 0.915522
Si Si5 0.654658 0.584578 0.391004
Si Si6 0.764817 0.083090 0.200236
Si Si7 0.616608 0.422944 0.766752
O O1 0.241854 0.750000 0.077538
O O2 0.275607 0.951905 0.195304
O O3 0.119559 0.995581 0.116967
O O4 0.348583 0.998955 0.013043
O O5 0.372384 0.250000 0.922286
O O6 0.267812 0.475645 0.872838
O O7 0.495471 0.490784 0.839779
O O8 0.324241 0.750000 0.452419
O O9 0.516220 0.589032 0.410470
O O10 0.315109 0.476758 0.518943
O O11 0.353494 0.511234 0.338954
O O12 0.930253 0.750000 0.947103
O O13 0.094463 0.584013 0.825433
O O14 0.000000 0.500000 0.000000
O O15 0.708570 0.750000 0.367153
O O16 0.712181 0.473527 0.306120
O O17 0.718135 0.250000 0.193570
O O18 0.591123 0.250000 0.758925
#
# Coordination Sequence:
#
# PCOD8077992 Si02
#       7
#     4   4   4   4   4   4   4
#     4  11  22  36  54  78 109 145 185 220 264 321
#     4  11  20  34  54  78 110 145 180 218 265 316
#     4   9  17  33  53  76 109 143 174 212 263 319
#     4  11  23  38  56  77 105 140 183 228 270 311
#     4  10  19  32  53  81 109 138 173 217 268 320
#     4  11  22  35  54  79 107 140 178 222 270 319
#     4   9  19  35  54  78 110 147 180 217 264 320
#
# _framework density 18.393196
#
# number of rings (size 3 to 8) (size 9 to 14) (size 15 to 20)
#    0.000    1.714    2.857    2.571    0.000    2.286 
#    0.000    3.571    0.000    0.857    0.000    0.000 
#    0.000    0.000    0.000    0.000    0.000    0.000 
#
# Total GULP energy -347188.120007 kJ/mol
# GULP energy per Si atom -12399.575715 kJ/mol
# Density = 1.835133 g / cm^3
# Si number density = 18.393196 Si / 1000 Ang^3
#
#
#
# Elastic Constant Matrix: (Units=GPa)
#
#
# Indices 1 2 3 4 5 6 
#
# 1 41.9359 16.9144 -11.6697 0.0000 21.7299 0.0000
# 2 16.9144 93.3363 17.7006 0.0000 12.4261 0.0000
# 3 -11.6697 17.7006 46.8602 0.0000 31.5929 0.0000
# 4 0.0000 0.0000 0.0000 23.7873 0.0000 -0.0955
# 5 21.7299 12.4261 31.5929 0.0000 24.7258 0.0000
# 6 0.0000 0.0000 0.0000 -0.0955 0.0000 21.8728
#
#
#
# Elastic Compliance Matrix: (Units=1/GPa)
#
#
# Indices 1 2 3 4 5 6 
#
# 1 -0.004545 0.000896 -0.027854 0.000000 0.039134 0.000000
# 2 0.000896 0.011373 0.002248 0.000000 -0.009375 0.000000
# 3 -0.027854 0.002248 -0.015790 0.000000 0.043526 0.000000
# 4 0.000000 0.000000 0.000000 0.042040 0.000000 0.000184
# 5 0.039134 -0.009375 0.043526 0.000000 -0.044852 0.000000
# 6 0.000000 0.000000 0.000000 0.000184 0.000000 0.045720
#
#
# Mechanical properties :
#
#
# Convention : Reuss Voigt Hill
#
# Bulk Modulus (GPa) = -17.12811 25.33589 4.10389
# Shear Modulus (GPa) = 78.23931 24.68964 51.46448
#
# Velocity S-wave (km/s) = 6.52912 3.66775 5.29537
# Velocity P-wave (km/s) = 6.89252 5.63392 6.29475
#
# Compressibility (1/GPa) = -0.05838355
#
# Stress axis : x y z
#
# Youngs Moduli (GPa) = -220.02603 87.92404 -63.32955
#
# Poissons Ratio (x) = -0.07878 -1.76401
# Poissons Ratio (y) = 0.19714 0.14234
# Poissons Ratio (z) = -6.12870 -0.19762
#
# Static dielectric constant tensor:
#      x y z
#    x 6.960100 0.000000 0.055950 
#    y 0.000000 3.501530 0.000000 
#    z 0.055950 0.000000 3.478120 
# 
# 
# High freq. dielectric constant tensor:
#      x y z
#    x 1.682620 0.000000 0.009370 
#    y 0.000000 1.715240 0.000000 
#    z 0.009370 0.000000 1.709670 
# 
# From -- ./inp_files/37408.got.cif
#   From: 2010.06.25/outbox.ucp.g09.slc.cvg/sg11_19_cif.got.tgz:37408.got - 2010.06.28 13:43:20.
