data_PCOD8077118
_publ_section_title
;
Structure prediction by ZEFSAII (Michael W. Deem and Ramdas Pophale) SiO2 
 PCOD8077118
Probable space group: P 21/M
;
_chemical_formula_sum "Si O2"
_cell_formula_units_Z 32
_cell_length_a 16.172671
_cell_length_b 8.718697
_cell_length_c 24.013173
_cell_angle_alpha 90.000000
_cell_angle_beta 28.704672
_cell_angle_gamma 90.000000
_cell_volume 1626.263707
_symmetry_space_group_name_H-M "P 21/M"
_symmetry_group_IT_number 11
_symmetry_cell_setting 'monoclinic'
loop_
_space_group_symop_operation_xyz
x,y,z
-x,1/2+y,-z
-x,-y,-z
x,1/2-y,z
loop_
_atom_site_type_symbol
_atom_site_label
_atom_site_fract_x
_atom_site_fract_y
_atom_site_fract_z
Si Si1 0.133173 0.421494 0.867109
Si Si2 0.367100 0.078729 0.632590
Si Si3 0.459864 0.933567 0.195594
Si Si4 0.614009 0.567890 0.881838
Si Si5 0.193301 0.430286 0.953544
Si Si6 0.748587 0.069541 0.398560
Si Si7 0.149457 0.067018 0.448880
Si Si8 0.984740 0.068375 0.357927
O O1 0.062380 0.250000 0.918154
O O2 0.310039 0.421361 0.729681
O O3 0.184848 0.497962 0.895474
O O4 0.990904 0.513964 0.914297
O O5 0.379311 0.250000 0.600985
O O6 0.556324 0.002683 0.523388
O O7 0.222375 0.987571 0.681735
O O8 0.442238 0.750000 0.204180
O O9 0.645801 0.993663 0.106735
O O10 0.442826 0.998649 0.143555
O O11 0.325515 0.999910 0.319740
O O12 0.588401 0.750000 0.896678
O O13 0.815492 0.523928 0.768880
O O14 0.500000 0.500000 0.000000
O O15 0.210533 0.250000 0.943405
O O16 0.756131 0.250000 0.398441
O O17 0.887743 0.005941 0.360053
O O18 0.153883 0.250000 0.442498
O O19 0.000000 0.000000 0.500000
O O20 0.109703 0.015625 0.535241
O O21 0.965103 0.250000 0.378881
#
# Coordination Sequence:
#
# PCOD8077118 Si02
#       8
#     4   4   4   4   4   4   4   4
#     4   9  18  34  55  80 112 150 190 236 286 338
#     4   9  18  33  54  79 111 148 187 233 285 338
#     4  11  23  40  63  89 120 158 200 244 296 357
#     4  11  24  42  63  87 119 156 200 248 297 353
#     4   9  20  36  56  82 112 150 192 235 284 342
#     4   9  19  35  56  80 110 147 188 234 284 340
#     4  12  24  39  62  91 123 156 192 243 300 354
#     4  10  22  40  62  87 116 155 199 245 294 354
#
# _framework density 19.677005999999999
#
# number of rings (size 3 to 8) (size 9 to 14) (size 15 to 20)
#    0.000    2.000    1.250    1.875    1.750    3.500 
#    0.000    3.750    0.000    0.000    0.000    0.000 
#    0.000    0.000    0.000    0.000    0.000    0.000 
#
# Total GULP energy -396485.413918 kJ/mol
# GULP energy per Si atom -12390.169185 kJ/mol
# Density = 1.963222 g / cm^3
# Si number density = 19.677006 Si / 1000 Ang^3
#
#
#
# Elastic Constant Matrix: (Units=GPa)
#
#
# Indices 1 2 3 4 5 6 
#
# 1 150.7729 42.9063 69.5903 0.0000 -23.8600 0.0000
# 2 42.9063 61.0763 40.7023 0.0000 -1.1068 0.0000
# 3 69.5903 40.7023 110.2508 0.0000 2.2301 0.0000
# 4 0.0000 0.0000 0.0000 30.8078 0.0000 2.3481
# 5 -23.8600 -1.1068 2.2301 0.0000 36.5152 0.0000
# 6 0.0000 0.0000 0.0000 2.3481 0.0000 31.8255
#
#
#
# Elastic Compliance Matrix: (Units=1/GPa)
#
#
# Indices 1 2 3 4 5 6 
#
# 1 0.011925 -0.004121 -0.006169 0.000000 0.008044 0.000000
# 2 -0.004121 0.023188 -0.005926 0.000000 -0.001628 0.000000
# 3 -0.006169 -0.005926 0.015256 0.000000 -0.005142 0.000000
# 4 0.000000 0.000000 0.000000 0.032643 0.000000 -0.002408
# 5 0.008044 -0.001628 -0.005142 0.000000 0.032907 0.000000
# 6 0.000000 0.000000 0.000000 -0.002408 0.000000 0.031599
#
#
# Mechanical properties :
#
#
# Convention : Reuss Voigt Hill
#
# Bulk Modulus (GPa) = 55.75049 69.83308 62.79179
# Shear Modulus (GPa) = 26.89198 31.08977 28.99088
#
# Velocity S-wave (km/s) = 3.70086 3.97924 3.84257
# Velocity P-wave (km/s) = 6.83053 7.52856 7.18802
#
# Compressibility (1/GPa) = 0.01793706
#
# Stress axis : x y z
#
# Youngs Moduli (GPa) = 83.85453 43.12595 65.54880
#
# Poissons Ratio (x) = 0.17772 0.40435
# Poissons Ratio (y) = 0.34556 0.38847
# Poissons Ratio (z) = 0.51727 0.25558
#
# Static dielectric constant tensor:
#      x y z
#    x 3.758830 0.000000 -0.272650 
#    y 0.000000 3.608740 0.000000 
#    z -0.272650 0.000000 3.479970 
# 
# 
# High freq. dielectric constant tensor:
#      x y z
#    x 1.774410 0.000000 -0.001990 
#    y 0.000000 1.761430 0.000000 
#    z -0.001990 0.000000 1.770140 
# 
# From -- ./inp_files/69020.got.cif
#   From: 2010.06.25/outbox.cif.g09.slc.cpg/sg11_35_cif.got.tgz:69020.got - 2010.06.27 23:14:04.
