data_PCOD8077841
_publ_section_title
;
Structure prediction by ZEFSAII (Michael W. Deem and Ramdas Pophale) SiO2 
 PCOD8077841
Probable space group: P 21/M
;
_chemical_formula_sum "Si O2"
_cell_formula_units_Z 24
_cell_length_a 9.877219
_cell_length_b 18.956544
_cell_length_c 14.615530
_cell_angle_alpha 90.000000
_cell_angle_beta 155.029285
_cell_angle_gamma 90.000000
_cell_volume 1155.261570
_symmetry_space_group_name_H-M "P 21/M"
_symmetry_group_IT_number 11
_symmetry_cell_setting 'monoclinic'
loop_
_space_group_symop_operation_xyz
x,y,z
-x,1/2+y,-z
-x,-y,-z
x,1/2-y,z
loop_
_atom_site_type_symbol
_atom_site_label
_atom_site_fract_x
_atom_site_fract_y
_atom_site_fract_z
Si Si1 0.570369 0.417698 0.456404
Si Si2 0.320170 0.072321 0.867244
Si Si3 0.575382 0.172049 0.170220
Si Si4 0.423642 0.572092 0.331140
Si Si5 0.127387 0.077315 0.558511
Si Si6 0.864110 0.670620 0.934278
O O1 0.365635 0.487963 0.304984
O O2 0.524282 0.397697 0.535021
O O3 0.420843 0.353033 0.308442
O O4 0.943780 0.431554 0.662552
O O5 0.372056 0.091709 0.792014
O O6 0.497340 0.134351 0.028032
O O7 0.500000 0.000000 0.000000
O O8 0.700644 0.250000 0.223702
O O9 0.258124 0.174060 0.036924
O O10 0.840121 0.132054 0.391618
O O11 0.732228 0.584947 0.456791
O O12 0.143721 0.612616 0.105429
O O13 0.000000 0.000000 0.500000
O O14 0.978613 0.750000 0.975860
#
# Coordination Sequence:
#
# PCOD8077841 Si02
#       6
#     4   4   4   4   4   4
#     4  11  23  41  67  95 126 169 218 266 324 384
#     4  12  23  40  68  99 129 171 223 271 325 385
#     4  11  24  42  66  98 133 173 220 271 331 398
#     4  11  24  41  66  97 128 167 217 277 319 379
#     4  12  23  43  67  96 131 175 219 272 325 392
#     4  11  24  42  67  96 131 174 215 266 331 396
#
# _framework density 20.774515000000001
#
# number of rings (size 3 to 8) (size 9 to 14) (size 15 to 20)
#    0.000    0.667    6.667    0.500    0.000    6.667 
#    0.000    1.667    0.000    0.000    0.000    0.000 
#    0.000    0.000    0.000    0.000    0.000    0.000 
#
# Total GULP energy -297543.714775 kJ/mol
# GULP energy per Si atom -12397.654782 kJ/mol
# Density = 2.072723 g / cm^3
# Si number density = 20.774515 Si / 1000 Ang^3
#
#
#
# Elastic Constant Matrix: (Units=GPa)
#
#
# Indices 1 2 3 4 5 6 
#
# 1 118.2088 24.9302 31.4087 0.0000 -10.2385 0.0000
# 2 24.9302 146.5490 66.2385 0.0000 -9.2749 0.0000
# 3 31.4087 66.2385 106.5368 0.0000 -11.0896 0.0000
# 4 0.0000 0.0000 0.0000 29.6814 0.0000 -4.4200
# 5 -10.2385 -9.2749 -11.0896 0.0000 37.1346 0.0000
# 6 0.0000 0.0000 0.0000 -4.4200 0.0000 26.3403
#
#
#
# Elastic Compliance Matrix: (Units=1/GPa)
#
#
# Indices 1 2 3 4 5 6 
#
# 1 0.009314 -0.000437 -0.002289 0.000000 0.001775 0.000000
# 2 -0.000437 0.009526 -0.005737 0.000000 0.000545 0.000000
# 3 -0.002289 -0.005737 0.013844 0.000000 0.002070 0.000000
# 4 0.000000 0.000000 0.000000 0.034555 0.000000 0.005798
# 5 0.001775 0.000545 0.002070 0.000000 0.028173 0.000000
# 6 0.000000 0.000000 0.000000 0.005798 0.000000 0.038938
#
#
# Mechanical properties :
#
#
# Convention : Reuss Voigt Hill
#
# Bulk Modulus (GPa) = 63.46630 68.49440 65.98035
# Shear Modulus (GPa) = 31.94345 35.21240 33.57793
#
# Velocity S-wave (km/s) = 3.92551 4.12148 4.02469
# Velocity P-wave (km/s) = 7.15280 7.46263 7.30936
#
# Compressibility (1/GPa) = 0.01575639
#
# Stress axis : x y z
#
# Youngs Moduli (GPa) = 107.36709 104.98129 72.23591
#
# Poissons Ratio (x) = 0.04592 0.16536
# Poissons Ratio (y) = 0.04696 0.41440
# Poissons Ratio (z) = 0.24578 0.60225
#
# Static dielectric constant tensor:
#      x y z
#    x 4.087060 0.000000 -0.237980 
#    y 0.000000 3.911940 0.000000 
#    z -0.237980 0.000000 3.725770 
# 
# 
# High freq. dielectric constant tensor:
#      x y z
#    x 1.819830 0.000000 -0.014720 
#    y 0.000000 1.808810 0.000000 
#    z -0.014720 0.000000 1.808930 
# 
# From -- ./inp_files/59673.got.cif
#   From: 2010.06.25/outbox.cif.g09.slc.cpg/sg11_30_cif.got.tgz:59673.got - 2010.06.27 23:14:04.
