data_PCOD8077771
_publ_section_title
;
Structure prediction by ZEFSAII (Michael W. Deem and Ramdas Pophale) SiO2 
 PCOD8077771
Probable space group: P 21/M
;
_chemical_formula_sum "Si O2"
_cell_formula_units_Z 28
_cell_length_a 27.239859
_cell_length_b 8.532859
_cell_length_c 9.415177
_cell_angle_alpha 90.000000
_cell_angle_beta 141.716313
_cell_angle_gamma 90.000000
_cell_volume 1355.839176
_symmetry_space_group_name_H-M "P 21/M"
_symmetry_group_IT_number 11
_symmetry_cell_setting 'monoclinic'
loop_
_space_group_symop_operation_xyz
x,y,z
-x,1/2+y,-z
-x,-y,-z
x,1/2-y,z
loop_
_atom_site_type_symbol
_atom_site_label
_atom_site_fract_x
_atom_site_fract_y
_atom_site_fract_z
Si Si1 0.367070 0.066780 0.534884
Si Si2 0.509314 0.933965 0.679029
Si Si3 0.654679 0.564902 0.194097
Si Si4 0.766778 0.429983 0.953271
Si Si5 0.965645 0.067905 0.780846
Si Si6 0.204034 0.434103 0.680100
Si Si7 0.943966 0.431290 0.255656
O O1 0.387465 0.250000 0.582477
O O2 0.356751 0.998915 0.671861
O O3 0.436052 0.974124 0.612910
O O4 0.286944 0.039657 0.266000
O O5 0.516464 0.750000 0.678108
O O6 0.500000 0.000000 0.500000
O O7 0.587682 0.002284 0.934908
O O8 0.646689 0.750000 0.184122
O O9 0.741070 0.517238 0.329423
O O10 0.739809 0.250000 0.877343
O O11 0.760785 0.478566 0.103419
O O12 0.854745 0.456414 0.098542
O O13 0.946036 0.250000 0.748017
O O14 0.885900 0.981075 0.553369
O O15 0.037966 0.035658 0.839631
O O16 0.000000 0.000000 0.000000
O O17 0.208422 0.250000 0.719286
O O18 0.963604 0.250000 0.271427
O O19 0.000000 0.500000 0.500000
#
# Coordination Sequence:
#
# PCOD8077771 Si02
#       7
#     4   4   4   4   4   4   4
#     4  11  23  41  64  93 127 166 208 256 314 372
#     4  11  22  41  67  96 128 164 208 255 307 374
#     4   9  22  41  63  92 126 163 206 255 310 371
#     4  11  24  41  62  93 127 164 212 263 315 378
#     4  12  26  43  63  91 127 168 215 267 324 384
#     4  11  22  41  66  93 124 165 213 264 318 377
#     4  11  23  41  65  93 126 165 213 266 322 380
#
# _framework density 20.651418
#
# number of rings (size 3 to 8) (size 9 to 14) (size 15 to 20)
#    0.000    1.143    1.429    4.714    2.000    2.857 
#    0.000    6.429    0.000    0.000    0.000    0.000 
#    0.000    0.000    0.000    0.000    0.000    0.000 
#
# Total GULP energy -347251.172115 kJ/mol
# GULP energy per Si atom -12401.827576 kJ/mol
# Density = 2.060441 g / cm^3
# Si number density = 20.651418 Si / 1000 Ang^3
#
#
#
# Elastic Constant Matrix: (Units=GPa)
#
#
# Indices 1 2 3 4 5 6 
#
# 1 144.0547 28.2657 41.7223 0.0000 -18.9826 0.0000
# 2 28.2657 45.7599 18.3736 0.0000 5.2549 0.0000
# 3 41.7223 18.3736 108.9629 0.0000 -17.0098 0.0000
# 4 0.0000 0.0000 0.0000 32.8860 0.0000 -1.2432
# 5 -18.9826 5.2549 -17.0098 0.0000 40.8719 0.0000
# 6 0.0000 0.0000 0.0000 -1.2432 0.0000 33.5123
#
#
#
# Elastic Compliance Matrix: (Units=1/GPa)
#
#
# Indices 1 2 3 4 5 6 
#
# 1 0.009084 -0.005300 -0.001946 0.000000 0.004091 0.000000
# 2 -0.005300 0.027521 -0.003794 0.000000 -0.007579 0.000000
# 3 -0.001946 -0.003794 0.011227 0.000000 0.004256 0.000000
# 4 0.000000 0.000000 0.000000 0.030451 0.000000 0.001130
# 5 0.004091 -0.007579 0.004256 0.000000 0.029112 0.000000
# 6 0.000000 0.000000 0.000000 0.001130 0.000000 0.029882
#
#
# Mechanical properties :
#
#
# Convention : Reuss Voigt Hill
#
# Bulk Modulus (GPa) = 38.83304 52.83338 45.83321
# Shear Modulus (GPa) = 29.77231 35.48177 32.62704
#
# Velocity S-wave (km/s) = 3.80104 4.14953 3.97910
# Velocity P-wave (km/s) = 6.17323 6.97116 6.58429
#
# Compressibility (1/GPa) = 0.02575127
#
# Stress axis : x y z
#
# Youngs Moduli (GPa) = 110.07882 36.33632 89.07157
#
# Poissons Ratio (x) = 0.19257 0.17335
# Poissons Ratio (y) = 0.58338 0.33798
# Poissons Ratio (z) = 0.21424 0.13788
#
# Static dielectric constant tensor:
#      x y z
#    x 3.905160 0.000000 -0.108050 
#    y 0.000000 3.759050 0.000000 
#    z -0.108050 0.000000 3.893010 
# 
# 
# High freq. dielectric constant tensor:
#      x y z
#    x 1.827330 0.000000 -0.002440 
#    y 0.000000 1.804820 0.000000 
#    z -0.002440 0.000000 1.819250 
# 
# From -- ./inp_files/28541.got.cif
#   From: 2010.06.25/outbox.cif.g09.slc.cpg/sg11_15_cif.got.tgz:28541.got - 2010.06.27 23:14:04.
