data_PCOD8077915
_publ_section_title
;
Structure prediction by ZEFSAII (Michael W. Deem and Ramdas Pophale) SiO2 
 PCOD8077915
Probable space group: P 21/M
;
_chemical_formula_sum "Si O2"
_cell_formula_units_Z 24
_cell_length_a 22.972612
_cell_length_b 8.884954
_cell_length_c 16.583705
_cell_angle_alpha 90.000000
_cell_angle_beta 23.706845
_cell_angle_gamma 90.000000
_cell_volume 1360.927319
_symmetry_space_group_name_H-M "P 21/M"
_symmetry_group_IT_number 11
_symmetry_cell_setting 'monoclinic'
loop_
_space_group_symop_operation_xyz
x,y,z
-x,1/2+y,-z
-x,-y,-z
x,1/2-y,z
loop_
_atom_site_type_symbol
_atom_site_label
_atom_site_fract_x
_atom_site_fract_y
_atom_site_fract_z
Si Si1 0.932260 0.573319 0.354525
Si Si2 0.582972 0.570917 0.969671
Si Si3 0.913982 0.415533 0.996287
Si Si4 0.634968 0.573408 0.642362
Si Si5 0.216507 0.415564 0.703246
Si Si6 0.896861 0.429259 0.564763
O O1 0.956767 0.750000 0.341374
O O2 0.768334 0.547007 0.533637
O O3 0.961438 0.473371 0.395857
O O4 0.044808 0.514301 0.143119
O O5 0.591043 0.750000 0.949620
O O6 0.741296 0.502784 0.774083
O O7 0.500000 0.500000 0.000000
O O8 0.499606 0.525692 0.157218
O O9 0.852582 0.250000 0.059275
O O10 0.057677 0.408826 0.867196
O O11 0.787495 0.500095 0.205798
O O12 0.594960 0.750000 0.691239
O O13 0.675798 0.513872 0.500536
O O14 0.272785 0.250000 0.652011
O O15 0.888371 0.250000 0.584195
O O16 0.000000 0.500000 0.500000
#
# Coordination Sequence:
#
# PCOD8077915 Si02
#       6
#     4   4   4   4   4   4
#     4   9  17  31  50  72 102 138 176 217 261 309
#     4  12  23  36  55  80 107 139 179 221 265 317
#     4   8  14  24  40  64  96 134 168 206 255 304
#     4   9  17  30  49  73 104 139 175 215 261 308
#     4   8  14  24  39  64  98 134 167 207 254 302
#     4  12  25  40  57  78 105 140 179 222 269 317
#
# _framework density 17.635034999999998
#
# number of rings (size 3 to 8) (size 9 to 14) (size 15 to 20)
#    0.000    2.333    1.667    5.000    0.000    1.333 
#    0.000    3.333    0.000    0.000    0.000    1.167 
#    0.000    0.000    0.000    0.000    0.000    0.000 
#
# Total GULP energy -297429.461129 kJ/mol
# GULP energy per Si atom -12392.894214 kJ/mol
# Density = 1.759490 g / cm^3
# Si number density = 17.635035 Si / 1000 Ang^3
#
#
#
# Elastic Constant Matrix: (Units=GPa)
#
#
# Indices 1 2 3 4 5 6 
#
# 1 95.6789 57.5529 71.2703 0.0000 23.3717 0.0000
# 2 57.5529 114.8017 56.6030 0.0000 14.8862 0.0000
# 3 71.2703 56.6030 101.8312 0.0000 27.9146 0.0000
# 4 0.0000 0.0000 0.0000 29.2611 0.0000 8.6585
# 5 23.3717 14.8862 27.9146 0.0000 35.7898 0.0000
# 6 0.0000 0.0000 0.0000 8.6585 0.0000 27.5538
#
#
#
# Elastic Compliance Matrix: (Units=1/GPa)
#
#
# Indices 1 2 3 4 5 6 
#
# 1 0.024168 -0.005228 -0.013074 0.000000 -0.003411 0.000000
# 2 -0.005228 0.013132 -0.003917 0.000000 0.001007 0.000000
# 3 -0.013074 -0.003917 0.023354 0.000000 -0.008048 0.000000
# 4 0.000000 0.000000 0.000000 0.037679 0.000000 -0.011840
# 5 -0.003411 0.001007 -0.008048 0.000000 0.036027 0.000000
# 6 0.000000 0.000000 0.000000 -0.011840 0.000000 0.040013
#
#
# Mechanical properties :
#
#
# Convention : Reuss Voigt Hill
#
# Bulk Modulus (GPa) = 61.66289 75.90713 68.78501
# Shear Modulus (GPa) = 22.29997 26.97999 24.63998
#
# Velocity S-wave (km/s) = 3.55988 3.91565 3.74199
# Velocity P-wave (km/s) = 7.20687 7.97370 7.59996
#
# Compressibility (1/GPa) = 0.01621721
#
# Stress axis : x y z
#
# Youngs Moduli (GPa) = 41.37673 76.15020 42.81924
#
# Poissons Ratio (x) = 0.39808 0.55983
# Poissons Ratio (y) = 0.21630 0.16771
# Poissons Ratio (z) = 0.54097 0.29825
#
# Static dielectric constant tensor:
#      x y z
#    x 1.375320 0.000000 3.484480 
#    y 0.000000 3.476910 0.000000 
#    z 3.484480 0.000000 -1.698460 
# 
# 
# High freq. dielectric constant tensor:
#      x y z
#    x 1.655650 0.000000 0.045970 
#    y 0.000000 1.678420 0.000000 
#    z 0.045970 0.000000 1.669490 
# 
# From -- ./inp_files/48700.got.cif
#   From: 2010.06.25/outbox.cif.g09.slc.cpg/sg11_25_cif.got.tgz:48700.got - 2010.06.27 23:14:04.
