data_PCOD8077197
_publ_section_title
;
Structure prediction by ZEFSAII (Michael W. Deem and Ramdas Pophale) SiO2 
 PCOD8077197
Probable space group: P 21/M
;
_chemical_formula_sum "Si O2"
_cell_formula_units_Z 32
_cell_length_a 14.962388
_cell_length_b 9.051270
_cell_length_c 11.592719
_cell_angle_alpha 90.000000
_cell_angle_beta 92.379648
_cell_angle_gamma 90.000000
_cell_volume 1568.631972
_symmetry_space_group_name_H-M "P 21/M"
_symmetry_group_IT_number 11
_symmetry_cell_setting 'monoclinic'
loop_
_space_group_symop_operation_xyz
x,y,z
-x,1/2+y,-z
-x,-y,-z
x,1/2-y,z
loop_
_atom_site_type_symbol
_atom_site_label
_atom_site_fract_x
_atom_site_fract_y
_atom_site_fract_z
Si Si1 0.735646 0.079795 0.488394
Si Si2 0.420809 0.578813 0.929037
Si Si3 0.389824 0.579760 0.310644
Si Si4 0.435936 0.578397 0.661255
Si Si5 0.684746 0.918883 0.907882
Si Si6 0.112350 0.082194 0.071253
Si Si7 0.957679 0.576749 0.175040
Si Si8 0.083066 0.073579 0.570378
O O1 0.760549 0.250000 0.463275
O O2 0.698097 0.061725 0.615631
O O3 0.656232 0.023445 0.400791
O O4 0.823575 0.980528 0.478734
O O5 0.421997 0.750000 0.958953
O O6 0.424898 0.548137 0.795071
O O7 0.500000 0.500000 0.000000
O O8 0.329869 0.505960 0.973246
O O9 0.406678 0.750000 0.281024
O O10 0.478449 0.515352 0.378965
O O11 0.376850 0.487728 0.193984
O O12 0.452040 0.750000 0.631104
O O13 0.654545 0.750000 0.921478
O O14 0.787454 0.933281 0.879495
O O15 0.078120 0.250000 0.075240
O O16 0.103523 0.026845 0.937354
O O17 0.056041 0.988159 0.159078
O O18 0.968047 0.750000 0.182500
O O19 0.918625 0.521533 0.295345
O O20 0.076512 0.250000 0.557091
O O21 0.000000 0.000000 0.500000
#
# Coordination Sequence:
#
# PCOD8077197 Si02
#       8
#     4   4   4   4   4   4   4   4
#     4  10  24  44  64  91 122 158 204 253 304 361
#     4  11  22  37  58  87 121 159 198 239 295 354
#     4  11  23  39  62  89 122 161 206 254 302 358
#     4  10  22  41  64  89 123 160 201 252 303 361
#     4  11  23  37  58  87 122 159 200 248 297 358
#     4   9  20  38  61  89 118 153 195 242 296 356
#     4   9  20  40  62  87 118 151 194 245 299 355
#     4  11  25  43  65  91 122 161 202 251 303 360
#
# _framework density 20.399941999999999
#
# number of rings (size 3 to 8) (size 9 to 14) (size 15 to 20)
#    0.000    1.750    1.250    1.875    3.500    4.000 
#    0.000    0.000    0.000    0.000    0.000    0.000 
#    0.000    0.000    0.000    0.000    0.000    0.000 
#
# Total GULP energy -396804.871691 kJ/mol
# GULP energy per Si atom -12400.152240 kJ/mol
# Density = 2.035351 g / cm^3
# Si number density = 20.399942 Si / 1000 Ang^3
#
#
#
# Elastic Constant Matrix: (Units=GPa)
#
#
# Indices 1 2 3 4 5 6 
#
# 1 114.4000 45.7648 27.5134 0.0000 -1.7646 0.0000
# 2 45.7648 79.5915 32.6810 0.0000 -4.0825 0.0000
# 3 27.5134 32.6810 60.0675 0.0000 -6.0554 0.0000
# 4 0.0000 0.0000 0.0000 27.0654 0.0000 -4.7504
# 5 -1.7646 -4.0825 -6.0554 0.0000 30.7485 0.0000
# 6 0.0000 0.0000 0.0000 -4.7504 0.0000 39.8451
#
#
#
# Elastic Compliance Matrix: (Units=1/GPa)
#
#
# Indices 1 2 3 4 5 6 
#
# 1 0.011575 -0.005774 -0.002215 0.000000 -0.000538 0.000000
# 2 -0.005774 0.019064 -0.007658 0.000000 0.000692 0.000000
# 3 -0.002215 -0.007658 0.022153 0.000000 0.003219 0.000000
# 4 0.000000 0.000000 0.000000 0.037737 0.000000 0.004499
# 5 -0.000538 0.000692 0.003219 0.000000 0.033217 0.000000
# 6 0.000000 0.000000 0.000000 0.004499 0.000000 0.025634
#
#
# Mechanical properties :
#
#
# Convention : Reuss Voigt Hill
#
# Bulk Modulus (GPa) = 46.51252 51.77527 49.14390
# Shear Modulus (GPa) = 26.61840 29.40512 28.01176
#
# Velocity S-wave (km/s) = 3.61616 3.80074 3.70960
# Velocity P-wave (km/s) = 6.34707 6.68551 6.51849
#
# Compressibility (1/GPa) = 0.02149959
#
# Stress axis : x y z
#
# Youngs Moduli (GPa) = 86.38952 52.45489 45.14002
#
# Poissons Ratio (x) = 0.30288 0.09998
# Poissons Ratio (y) = 0.49882 0.34567
# Poissons Ratio (z) = 0.19134 0.40168
#
# Static dielectric constant tensor:
#      x y z
#    x 3.425810 0.000000 -0.115800 
#    y 0.000000 3.789050 0.000000 
#    z -0.115800 0.000000 3.939630 
# 
# 
# High freq. dielectric constant tensor:
#      x y z
#    x 1.799940 0.000000 -0.004210 
#    y 0.000000 1.796920 0.000000 
#    z -0.004210 0.000000 1.804910 
# 
# From -- ./inp_files/38216.got.cif
#   From: 2010.06.25/outbox.cif.g09.slc.cpg/sg11_20_cif.got.tgz:38216.got - 2010.06.27 23:14:04.
