data_PCOD8077247
_publ_section_title
;
Structure prediction by ZEFSAII (Michael W. Deem and Ramdas Pophale) SiO2 
 PCOD8077247
Probable space group: P 21/M
;
_chemical_formula_sum "Si O2"
_cell_formula_units_Z 20
_cell_length_a 8.872699
_cell_length_b 21.261310
_cell_length_c 5.347862
_cell_angle_alpha 90.000000
_cell_angle_beta 122.974020
_cell_angle_gamma 90.000000
_cell_volume 846.340617
_symmetry_space_group_name_H-M "P 21/M"
_symmetry_group_IT_number 11
_symmetry_cell_setting 'monoclinic'
loop_
_space_group_symop_operation_xyz
x,y,z
-x,1/2+y,-z
-x,-y,-z
x,1/2-y,z
loop_
_atom_site_type_symbol
_atom_site_label
_atom_site_fract_x
_atom_site_fract_y
_atom_site_fract_z
Si Si1 0.160522 0.381652 0.058938
Si Si2 0.276507 0.446967 0.650928
Si Si3 0.659309 0.083307 0.143764
Si Si4 0.509663 0.182717 0.368024
Si Si5 0.162888 0.819599 0.006360
O O1 0.177136 0.432410 0.299430
O O2 0.302863 0.326931 0.256018
O O3 0.967350 0.346994 0.895286
O O4 0.190336 0.409692 0.809049
O O5 0.244897 0.520762 0.669833
O O6 0.491552 0.433973 0.808240
O O7 0.566208 0.120441 0.280013
O O8 0.821866 0.127007 0.191340
O O9 0.526770 0.250000 0.235607
O O10 0.632834 0.188023 0.721534
O O11 0.097142 0.750000 0.852964
#
# Coordination Sequence:
#
# PCOD8077247 Si02
#       5
#     4   4   4   4   4
#     4  11  24  44  65  97 128 171 212 267 322 384
#     4  10  24  42  70  95 132 170 214 264 327 380
#     4  10  22  41  68  94 130 170 218 265 320 386
#     4  10  22  42  64  91 129 172 212 266 322 379
#     4  11  24  41  65  95 127 170 219 266 316 385
#
# _framework density 23.631149000000001
#
# number of rings (size 3 to 8) (size 9 to 14) (size 15 to 20)
#    0.000    1.600    2.000    1.200    5.600    4.000 
#    0.000    2.000    0.000    0.000    0.000    0.000 
#    0.000    0.000    0.000    0.000    0.000    0.000 
#
# Total GULP energy -247782.767451 kJ/mol
# GULP energy per Si atom -12389.138373 kJ/mol
# Density = 2.357736 g / cm^3
# Si number density = 23.631149 Si / 1000 Ang^3
#
#
#
# Elastic Constant Matrix: (Units=GPa)
#
#
# Indices 1 2 3 4 5 6 
#
# 1 103.5605 40.5846 -0.2312 0.0000 -3.2393 0.0000
# 2 40.5846 166.0653 1.1684 0.0000 2.2936 0.0000
# 3 -0.2312 1.1684 40.8713 0.0000 -8.2195 0.0000
# 4 0.0000 0.0000 0.0000 24.0782 0.0000 -1.7608
# 5 -3.2393 2.2936 -8.2195 0.0000 24.7779 0.0000
# 6 0.0000 0.0000 0.0000 -1.7608 0.0000 35.5211
#
#
#
# Elastic Compliance Matrix: (Units=1/GPa)
#
#
# Indices 1 2 3 4 5 6 
#
# 1 0.010756 -0.002657 0.000503 0.000000 0.001819 0.000000
# 2 -0.002657 0.006689 -0.000429 0.000000 -0.001109 0.000000
# 3 0.000503 -0.000429 0.026255 0.000000 0.008815 0.000000
# 4 0.000000 0.000000 0.000000 0.041682 0.000000 0.002066
# 5 0.001819 -0.001109 0.008815 0.000000 0.043623 0.000000
# 6 0.000000 0.000000 0.000000 0.002066 0.000000 0.028255
#
#
# Mechanical properties :
#
#
# Convention : Reuss Voigt Hill
#
# Bulk Modulus (GPa) = 25.95245 43.72675 34.83960
# Shear Modulus (GPa) = 28.52711 34.80713 31.66712
#
# Velocity S-wave (km/s) = 3.47822 3.84205 3.66465
# Velocity P-wave (km/s) = 5.20930 6.18270 5.71676
#
# Compressibility (1/GPa) = 0.03853201
#
# Stress axis : x y z
#
# Youngs Moduli (GPa) = 92.97537 149.48894 38.08820
#
# Poissons Ratio (x) = 0.39722 -0.01914
# Poissons Ratio (y) = 0.24705 0.01635
# Poissons Ratio (z) = -0.04673 0.06418
#
# Static dielectric constant tensor:
#      x y z
#    x 4.393090 0.000000 0.381480 
#    y 0.000000 4.774920 0.000000 
#    z 0.381480 0.000000 3.922600 
# 
# 
# High freq. dielectric constant tensor:
#      x y z
#    x 1.935680 0.000000 0.014790 
#    y 0.000000 1.955100 0.000000 
#    z 0.014790 0.000000 1.905660 
# 
# From -- ./inp_files/1984.got.cif
#   From: 2010.06.25/outbox.cif.g09.slc.cpg/sg11_1_cif.got.tgz:1984.got - 2010.06.27 23:14:04.
