data_PCOD8077364
_publ_section_title
;
Structure prediction by ZEFSAII (Michael W. Deem and Ramdas Pophale) SiO2 
 PCOD8077364
Probable space group: P 21/M
;
_chemical_formula_sum "Si O2"
_cell_formula_units_Z 22
_cell_length_a 10.969691
_cell_length_b 14.370005
_cell_length_c 6.800691
_cell_angle_alpha 90.000000
_cell_angle_beta 95.401157
_cell_angle_gamma 90.000000
_cell_volume 1067.263908
_symmetry_space_group_name_H-M "P 21/M"
_symmetry_group_IT_number 11
_symmetry_cell_setting 'monoclinic'
loop_
_space_group_symop_operation_xyz
x,y,z
-x,1/2+y,-z
-x,-y,-z
x,1/2-y,z
loop_
_atom_site_type_symbol
_atom_site_label
_atom_site_fract_x
_atom_site_fract_y
_atom_site_fract_z
Si Si1 0.958338 0.250000 0.230752
Si Si2 0.698705 0.750000 0.905880
Si Si3 0.951830 0.750000 0.168524
Si Si4 0.551826 0.250000 0.965423
Si Si5 0.334573 0.408390 0.412176
Si Si6 0.932426 0.598628 0.490480
Si Si7 0.412770 0.889452 0.349941
Si Si8 0.306403 0.750000 0.622838
O O1 0.825002 0.250000 0.301233
O O2 0.029792 0.157376 0.310939
O O3 0.947544 0.250000 0.991418
O O4 0.690490 0.840460 0.770364
O O5 0.822431 0.750000 0.044514
O O6 0.594735 0.750000 0.055609
O O7 0.969161 0.657652 0.302834
O O8 0.602522 0.341444 0.863782
O O9 0.591038 0.250000 0.195889
O O10 0.213681 0.417585 0.528293
O O11 0.446282 0.374378 0.564451
O O12 0.372672 0.505200 0.318429
O O13 0.000000 0.500000 0.500000
O O14 0.323138 0.841971 0.494752
#
# Coordination Sequence:
#
# PCOD8077364 Si02
#       8
#     2   2   2   2   4   4   4   2
#     4  11  24  42  63  94 132 165 229 261 315 387
#     4  12  20  42  68  96 126 166 212 268 316 382
#     4  11  24  43  68  94 126 165 220 269 314 382
#     4  11  22  39  66  92 126 167 208 257 332 370
#     4  11  21  42  67  93 132 166 212 260 321 383
#     4  11  24  44  67  93 129 178 213 265 322 379
#     4  10  23  41  64  96 129 168 208 265 319 384
#     4  11  22  42  61  92 128 169 211 267 315 375
#
# _framework density 20.613458999999999
#
# number of rings (size 3 to 8) (size 9 to 14) (size 15 to 20)
#    0.000    1.091    3.636    3.273    0.000    5.818 
#    6.545    0.000    0.000    0.000    0.000    0.000 
#    0.000    0.000    0.000    0.000    0.000    0.000 
#
# Total GULP energy -272873.544104 kJ/mol
# GULP energy per Si atom -12403.342914 kJ/mol
# Density = 2.056654 g / cm^3
# Si number density = 20.613459 Si / 1000 Ang^3
#
#
#
# Elastic Constant Matrix: (Units=GPa)
#
#
# Indices 1 2 3 4 5 6 
#
# 1 117.0723 29.6544 22.8194 0.0000 -24.2439 0.0000
# 2 29.6544 142.2687 54.7376 0.0000 2.6191 0.0000
# 3 22.8194 54.7376 115.9639 0.0000 -14.6419 0.0000
# 4 0.0000 0.0000 0.0000 13.2293 0.0000 5.4497
# 5 -24.2439 2.6191 -14.6419 0.0000 34.0782 0.0000
# 6 0.0000 0.0000 0.0000 5.4497 0.0000 33.8967
#
#
#
# Elastic Compliance Matrix: (Units=1/GPa)
#
#
# Indices 1 2 3 4 5 6 
#
# 1 0.010772 -0.002389 -0.000001 0.000000 0.007847 0.000000
# 2 -0.002389 0.009332 -0.004483 0.000000 -0.004343 0.000000
# 3 -0.000001 -0.004483 0.011402 0.000000 0.005242 0.000000
# 4 0.000000 0.000000 0.000000 0.080951 0.000000 -0.013015
# 5 0.007847 -0.004343 0.005242 0.000000 0.037513 0.000000
# 6 0.000000 0.000000 0.000000 -0.013015 0.000000 0.031594
#
#
# Mechanical properties :
#
#
# Convention : Reuss Voigt Hill
#
# Bulk Modulus (GPa) = 56.31128 65.52530 60.91829
# Shear Modulus (GPa) = 24.84721 34.11373 29.48047
#
# Velocity S-wave (km/s) = 3.47564 4.07249 3.78584
# Velocity P-wave (km/s) = 6.59422 7.34644 6.98047
#
# Compressibility (1/GPa) = 0.01775843
#
# Stress axis : x y z
#
# Youngs Moduli (GPa) = 92.83246 107.16082 87.70681
#
# Poissons Ratio (x) = 0.25604 0.00010
# Poissons Ratio (y) = 0.22181 0.39319
# Poissons Ratio (z) = 0.00011 0.48040
#
# Static dielectric constant tensor:
#      x y z
#    x 3.920860 0.000000 -0.044430 
#    y 0.000000 2.730110 0.000000 
#    z -0.044430 0.000000 3.799830 
# 
# 
# High freq. dielectric constant tensor:
#      x y z
#    x 1.820240 0.000000 -0.008310 
#    y 0.000000 1.812590 0.000000 
#    z -0.008310 0.000000 1.802760 
# 
# From -- ./inp_files/4290.got.cif
#   From: 2010.06.25/outbox.cif.g09.slc.cpg/sg11_3_cif.got.tgz:4290.got - 2010.06.27 23:14:04.
