data_PCOD8077517
_publ_section_title
;
Structure prediction by ZEFSAII (Michael W. Deem and Ramdas Pophale) SiO2 
 PCOD8077517
Probable space group: P 21/M
;
_chemical_formula_sum "Si O2"
_cell_formula_units_Z 32
_cell_length_a 11.476495
_cell_length_b 21.704885
_cell_length_c 7.303034
_cell_angle_alpha 90.000000
_cell_angle_beta 94.759582
_cell_angle_gamma 90.000000
_cell_volume 1812.883481
_symmetry_space_group_name_H-M "P 21/M"
_symmetry_group_IT_number 11
_symmetry_cell_setting 'monoclinic'
loop_
_space_group_symop_operation_xyz
x,y,z
-x,1/2+y,-z
-x,-y,-z
x,1/2-y,z
loop_
_atom_site_type_symbol
_atom_site_label
_atom_site_fract_x
_atom_site_fract_y
_atom_site_fract_z
Si Si1 0.965589 0.318718 0.269412
Si Si2 0.235756 0.820387 0.478568
Si Si3 0.387285 0.567667 0.596308
Si Si4 0.141664 0.633709 0.092319
Si Si5 0.881253 0.929692 0.617305
Si Si6 0.963369 0.957626 0.236803
Si Si7 0.637358 0.531397 0.710128
Si Si8 0.258510 0.977442 0.931311
O O1 0.015020 0.250000 0.311309
O O2 0.876953 0.338784 0.417632
O O3 0.068946 0.368207 0.282756
O O4 0.899236 0.318203 0.066679
O O5 0.273818 0.750000 0.518200
O O6 0.341800 0.863423 0.557608
O O7 0.203376 0.829467 0.263015
O O8 0.521393 0.572714 0.677566
O O9 0.375901 0.531880 0.403872
O O10 0.312875 0.530327 0.737506
O O11 0.026983 0.597253 0.141420
O O12 0.238289 0.588974 0.017859
O O13 0.900200 0.928021 0.403219
O O14 0.744472 0.929527 0.644158
O O15 0.940284 0.991331 0.702353
O O16 0.865612 0.987560 0.094388
O O17 0.655396 0.516101 0.926770
#
# Coordination Sequence:
#
# PCOD8077517 Si02
#       8
#     4   4   4   4   4   4   4   4
#     4  11  23  37  57  82 113 150 184 228 278 335
#     4  11  22  38  57  80 111 148 189 228 272 324
#     4  11  22  39  54  84 110 145 189 234 270 328
#     4  12  20  34  56  88 115 142 177 225 283 340
#     4  11  19  36  55  82 113 148 181 220 276 341
#     4  11  20  31  58  86 115 142 174 225 284 337
#     4  11  23  36  59  79 114 147 183 229 287 319
#     4  12  20  34  56  87 115 143 176 224 287 334
#
# _framework density 17.651439
#
# number of rings (size 3 to 8) (size 9 to 14) (size 15 to 20)
#    0.000    0.750    7.500    1.875    0.000    0.000 
#    0.000    0.625    0.000    0.000    0.000    1.750 
#    0.000    0.000    0.000    0.000    0.000    0.000 
#
# Total GULP energy -396945.977866 kJ/mol
# GULP energy per Si atom -12404.561808 kJ/mol
# Density = 1.761126 g / cm^3
# Si number density = 17.651439 Si / 1000 Ang^3
#
#
#
# Elastic Constant Matrix: (Units=GPa)
#
#
# Indices 1 2 3 4 5 6 
#
# 1 85.8402 27.5685 3.1552 0.0000 7.6468 0.0000
# 2 27.5685 69.0348 3.0179 0.0000 2.9141 0.0000
# 3 3.1552 3.0179 70.9318 0.0000 6.5712 0.0000
# 4 0.0000 0.0000 0.0000 22.1288 0.0000 3.1176
# 5 7.6468 2.9141 6.5712 0.0000 23.9458 0.0000
# 6 0.0000 0.0000 0.0000 3.1176 0.0000 21.0912
#
#
#
# Elastic Compliance Matrix: (Units=1/GPa)
#
#
# Indices 1 2 3 4 5 6 
#
# 1 0.013686 -0.005307 -0.000039 0.000000 -0.003714 0.000000
# 2 -0.005307 0.016633 -0.000453 0.000000 -0.000205 0.000000
# 3 -0.000039 -0.000453 0.014481 0.000000 -0.003906 0.000000
# 4 0.000000 0.000000 0.000000 0.046151 0.000000 -0.006822
# 5 -0.003714 -0.000205 -0.003906 0.000000 0.044044 0.000000
# 6 0.000000 0.000000 0.000000 -0.006822 0.000000 0.048422
#
#
# Mechanical properties :
#
#
# Convention : Reuss Voigt Hill
#
# Bulk Modulus (GPa) = 30.11751 32.58779 31.35265
# Shear Modulus (GPa) = 24.26220 26.23749 25.24985
#
# Velocity S-wave (km/s) = 3.71147 3.85960 3.78626
# Velocity P-wave (km/s) = 5.95534 6.19386 6.07577
#
# Compressibility (1/GPa) = 0.03320328
#
# Stress axis : x y z
#
# Youngs Moduli (GPa) = 73.06616 60.12069 69.05632
#
# Poissons Ratio (x) = 0.31906 0.00269
# Poissons Ratio (y) = 0.38776 0.03126
# Poissons Ratio (z) = 0.00284 0.02721
#
# Static dielectric constant tensor:
#      x y z
#    x 3.194100 0.000000 -0.014060 
#    y 0.000000 3.039270 0.000000 
#    z -0.014060 0.000000 3.544530 
# 
# 
# High freq. dielectric constant tensor:
#      x y z
#    x 1.666630 0.000000 -0.000970 
#    y 0.000000 1.661350 0.000000 
#    z -0.000970 0.000000 1.707100 
# 
# From -- ./inp_files/5387.got.cif
#   From: 2010.06.25/outbox.cif.g09.slc.cpg/sg11_3_cif.got.tgz:5387.got - 2010.06.27 23:14:04.
