data_PCOD8077865
_publ_section_title
;
Structure prediction by ZEFSAII (Michael W. Deem and Ramdas Pophale) SiO2 
 PCOD8077865
Probable space group: P 21/M
;
_chemical_formula_sum "Si O2"
_cell_formula_units_Z 32
_cell_length_a 15.619437
_cell_length_b 18.620194
_cell_length_c 5.141730
_cell_angle_alpha 90.000000
_cell_angle_beta 86.941385
_cell_angle_gamma 90.000000
_cell_volume 1493.274809
_symmetry_space_group_name_H-M "P 21/M"
_symmetry_group_IT_number 11
_symmetry_cell_setting 'monoclinic'
loop_
_space_group_symop_operation_xyz
x,y,z
-x,1/2+y,-z
-x,-y,-z
x,1/2-y,z
loop_
_atom_site_type_symbol
_atom_site_label
_atom_site_fract_x
_atom_site_fract_y
_atom_site_fract_z
Si Si1 0.772861 0.031913 0.785948
Si Si2 0.378025 0.326817 0.116953
Si Si3 0.536981 0.168399 0.462269
Si Si4 0.970601 0.456058 0.757105
Si Si5 0.096034 0.167776 0.822352
Si Si6 0.799473 0.867611 0.690448
Si Si7 0.455752 0.053269 0.805543
Si Si8 0.333395 0.937730 0.678793
O O1 0.724138 0.074113 0.566124
O O2 0.869834 0.059656 0.784820
O O3 0.772752 0.949736 0.703438
O O4 0.725512 0.044279 0.065981
O O5 0.396174 0.250000 0.968861
O O6 0.447846 0.335950 0.329100
O O7 0.284070 0.319711 0.252613
O O8 0.381392 0.395885 0.933680
O O9 0.556487 0.250000 0.553845
O O10 0.527917 0.109137 0.693458
O O11 0.616364 0.137794 0.278487
O O12 0.013870 0.378369 0.755970
O O13 0.000000 0.500000 0.500000
O O14 0.000000 0.500000 0.000000
O O15 0.067180 0.250000 0.818608
O O16 0.170138 0.152130 0.602630
O O17 0.128339 0.148339 0.105739
O O18 0.404327 0.001716 0.612992
O O19 0.500000 0.000000 0.000000
#
# Coordination Sequence:
#
# PCOD8077865 Si02
#       8
#     4   4   4   4   4   4   4   4
#     4  12  24  43  70 105 131 172 230 284 330 404
#     4  11  24  39  61  96 135 178 222 277 343 412
#     4  11  26  45  64  92 134 187 234 286 346 400
#     4  12  23  44  71 101 132 173 224 271 331 404
#     4  12  25  44  67  99 139 176 214 268 343 413
#     4  12  24  42  66 101 139 173 214 273 338 416
#     4  12  23  41  65  95 129 179 234 289 337 401
#     4  12  25  43  69 100 136 179 231 285 339 394
#
# _framework density 21.429413
#
# number of rings (size 3 to 8) (size 9 to 14) (size 15 to 20)
#    0.000    0.250    5.000    4.875    1.750    0.000 
#    0.000    1.250    0.000    0.000    0.000    0.000 
#    0.000    0.000    0.000    0.000    0.000    0.000 
#
# Total GULP energy -396753.717772 kJ/mol
# GULP energy per Si atom -12398.553680 kJ/mol
# Density = 2.138064 g / cm^3
# Si number density = 21.429413 Si / 1000 Ang^3
#
#
#
# Elastic Constant Matrix: (Units=GPa)
#
#
# Indices 1 2 3 4 5 6 
#
# 1 110.5264 45.4705 14.0581 0.0000 13.3259 0.0000
# 2 45.4705 139.3636 21.0361 0.0000 -0.4459 0.0000
# 3 14.0581 21.0361 77.7104 0.0000 5.2389 0.0000
# 4 0.0000 0.0000 0.0000 15.4907 0.0000 -9.6510
# 5 13.3259 -0.4459 5.2389 0.0000 33.5623 0.0000
# 6 0.0000 0.0000 0.0000 -9.6510 0.0000 9.6267
#
#
#
# Elastic Compliance Matrix: (Units=1/GPa)
#
#
# Indices 1 2 3 4 5 6 
#
# 1 0.011119 -0.003526 -0.000764 0.000000 -0.004342 0.000000
# 2 -0.003526 0.008605 -0.001813 0.000000 0.001797 0.000000
# 3 -0.000764 -0.001813 0.013622 0.000000 -0.001847 0.000000
# 4 0.000000 0.000000 0.000000 0.171958 0.000000 0.172392
# 5 -0.004342 0.001797 -0.001847 0.000000 0.031832 0.000000
# 6 0.000000 0.000000 0.000000 0.172392 0.000000 0.276705
#
#
# Mechanical properties :
#
#
# Convention : Reuss Voigt Hill
#
# Bulk Modulus (GPa) = 47.30428 54.30332 50.80380
# Shear Modulus (GPa) = 9.37921 28.20499 18.79210
#
# Velocity S-wave (km/s) = 2.09435 3.63186 2.96451
# Velocity P-wave (km/s) = 5.28874 6.55612 5.95624
#
# Compressibility (1/GPa) = 0.02113974
#
# Stress axis : x y z
#
# Youngs Moduli (GPa) = 89.93510 116.20586 73.41206
#
# Poissons Ratio (x) = 0.40979 0.05610
# Poissons Ratio (y) = 0.31715 0.13307
# Poissons Ratio (z) = 0.06872 0.21065
#
# Static dielectric constant tensor:
#      x y z
#    x 4.154280 0.000000 -0.116370 
#    y 0.000000 4.097750 0.000000 
#    z -0.116370 0.000000 3.897060 
# 
# 
# High freq. dielectric constant tensor:
#      x y z
#    x 1.841880 0.000000 -0.002080 
#    y 0.000000 1.847480 0.000000 
#    z -0.002080 0.000000 1.841960 
# 
# From -- ./inp_files/6836.got.cif
#   From: 2010.06.25/outbox.cif.g09.slc.cpg/sg11_4_cif.got.tgz:6836.got - 2010.06.27 23:14:04.
