data_PCOD8077768
_publ_section_title
;
Structure prediction by ZEFSAII (Michael W. Deem and Ramdas Pophale) SiO2 
 PCOD8077768
Probable space group: P 21/M
;
_chemical_formula_sum "Si O2"
_cell_formula_units_Z 32
_cell_length_a 8.115924
_cell_length_b 24.837907
_cell_length_c 13.892971
_cell_angle_alpha 90.000000
_cell_angle_beta 148.036311
_cell_angle_gamma 90.000000
_cell_volume 1482.576221
_symmetry_space_group_name_H-M "P 21/M"
_symmetry_group_IT_number 11
_symmetry_cell_setting 'monoclinic'
loop_
_space_group_symop_operation_xyz
x,y,z
-x,1/2+y,-z
-x,-y,-z
x,1/2-y,z
loop_
_atom_site_type_symbol
_atom_site_label
_atom_site_fract_x
_atom_site_fract_y
_atom_site_fract_z
Si Si1 0.159787 0.876260 0.661187
Si Si2 0.798063 0.595170 0.294926
Si Si3 0.153161 0.625734 0.283754
Si Si4 0.218317 0.186589 0.381861
Si Si5 0.950055 0.941478 0.012201
Si Si6 0.229440 0.190931 0.036715
Si Si7 0.378393 0.979878 0.837098
Si Si8 0.864948 0.351889 0.023129
O O1 0.124598 0.930928 0.712261
O O2 0.034813 0.888618 0.494065
O O3 0.950248 0.829195 0.602810
O O4 0.503940 0.852617 0.812919
O O5 0.706260 0.532538 0.266509
O O6 0.503096 0.635399 0.150759
O O7 0.978742 0.595740 0.283548
O O8 0.478228 0.649676 0.480808
O O9 0.192134 0.584098 0.211546
O O10 0.940876 0.676225 0.147181
O O11 0.301286 0.250000 0.422679
O O12 0.976559 0.172503 0.178272
O O13 0.957568 0.906933 0.918006
O O14 0.622757 0.942749 0.902271
O O15 0.000000 0.000000 0.000000
O O16 0.375908 0.250000 0.102033
O O17 0.960954 0.189878 0.986438
O O18 0.500000 0.000000 0.000000
#
# Coordination Sequence:
#
# PCOD8077768 Si02
#       8
#     4   4   4   4   4   4   4   4
#     4  12  25  43  68 101 133 178 226 280 334 410
#     4  12  25  43  68  98 140 179 221 271 338 412
#     4  11  24  44  67  98 135 177 224 280 340 405
#     4  12  27  47  68  97 134 179 235 293 342 397
#     4  11  22  40  71 103 137 180 217 274 338 412
#     4  11  22  43  68  94 129 172 224 286 344 394
#     4  12  22  43  69 100 140 181 216 270 342 408
#     4  11  23  43  69  97 134 176 227 279 335 407
#
# _framework density 21.584049
#
# number of rings (size 3 to 8) (size 9 to 14) (size 15 to 20)
#    0.000    0.500    5.000    5.250    0.000    0.000 
#    0.000    6.875    0.000    0.000    0.000    0.000 
#    0.000    0.000    0.000    0.000    0.000    0.000 
#
# Total GULP energy -396470.212925 kJ/mol
# GULP energy per Si atom -12389.694154 kJ/mol
# Density = 2.153492 g / cm^3
# Si number density = 21.584049 Si / 1000 Ang^3
#
#
#
# Elastic Constant Matrix: (Units=GPa)
#
#
# Indices 1 2 3 4 5 6 
#
# 1 76.4734 27.2341 21.0721 0.0000 -4.5329 0.0000
# 2 27.2341 154.0956 44.3832 0.0000 -11.3357 0.0000
# 3 21.0721 44.3832 99.8234 0.0000 -1.6962 0.0000
# 4 0.0000 0.0000 0.0000 28.4918 0.0000 3.2955
# 5 -4.5329 -11.3357 -1.6962 0.0000 36.7208 0.0000
# 6 0.0000 0.0000 0.0000 3.2955 0.0000 30.1815
#
#
#
# Elastic Compliance Matrix: (Units=1/GPa)
#
#
# Indices 1 2 3 4 5 6 
#
# 1 0.014402 -0.001827 -0.002209 0.000000 0.001112 0.000000
# 2 -0.001827 0.007847 -0.003068 0.000000 0.002055 0.000000
# 3 -0.002209 -0.003068 0.011837 0.000000 -0.000673 0.000000
# 4 0.000000 0.000000 0.000000 0.035547 0.000000 -0.003881
# 5 0.001112 0.002055 -0.000673 0.000000 0.027973 0.000000
# 6 0.000000 0.000000 0.000000 -0.003881 0.000000 0.033557
#
#
# Mechanical properties :
#
#
# Convention : Reuss Voigt Hill
#
# Bulk Modulus (GPa) = 50.30979 57.30792 53.80885
# Shear Modulus (GPa) = 32.89540 34.92571 33.91055
#
# Velocity S-wave (km/s) = 3.90816 4.02696 3.96800
# Velocity P-wave (km/s) = 6.61244 6.94482 6.78067
#
# Compressibility (1/GPa) = 0.01987685
#
# Stress axis : x y z
#
# Youngs Moduli (GPa) = 69.43622 127.43084 84.48242
#
# Poissons Ratio (x) = 0.23286 0.18660
# Poissons Ratio (y) = 0.12688 0.25923
# Poissons Ratio (z) = 0.15337 0.39101
#
# Static dielectric constant tensor:
#      x y z
#    x 2.927990 0.000000 -0.351220 
#    y 0.000000 4.103550 0.000000 
#    z -0.351220 0.000000 3.681000 
# 
# 
# High freq. dielectric constant tensor:
#      x y z
#    x 1.851060 0.000000 -0.001090 
#    y 0.000000 1.863720 0.000000 
#    z -0.001090 0.000000 1.837500 
# 
# From -- ./inp_files/48456.got.cif
#   From: 2010.06.25/outbox.cif.g09.slc.cpg/sg11_25_cif.got.tgz:48456.got - 2010.06.27 23:14:04.
