data_PCOD8077308
_publ_section_title
;
Structure prediction by ZEFSAII (Michael W. Deem and Ramdas Pophale) SiO2 
 PCOD8077308
Probable space group: P 21/M
;
_chemical_formula_sum "Si O2"
_cell_formula_units_Z 20
_cell_length_a 14.411576
_cell_length_b 9.864331
_cell_length_c 21.010217
_cell_angle_alpha 90.000000
_cell_angle_beta 160.856304
_cell_angle_gamma 90.000000
_cell_volume 979.494501
_symmetry_space_group_name_H-M "P 21/M"
_symmetry_group_IT_number 11
_symmetry_cell_setting 'monoclinic'
loop_
_space_group_symop_operation_xyz
x,y,z
-x,1/2+y,-z
-x,-y,-z
x,1/2-y,z
loop_
_atom_site_type_symbol
_atom_site_label
_atom_site_fract_x
_atom_site_fract_y
_atom_site_fract_z
Si Si1 0.819469 0.489588 0.070034
Si Si2 0.754784 0.979503 0.542479
Si Si3 0.888591 0.084745 0.868037
Si Si4 0.559207 0.750000 0.960165
Si Si5 0.985524 0.750000 0.340928
Si Si6 0.380364 0.250000 0.775964
Si Si7 0.098124 0.250000 0.457604
O O1 0.066768 0.445470 0.278711
O O2 0.937636 0.523353 0.077543
O O3 0.670591 0.622228 0.996442
O O4 0.575952 0.379055 0.912267
O O5 0.432078 0.958151 0.353047
O O6 0.823957 0.882144 0.529968
O O7 0.820756 0.126091 0.556169
O O8 0.920608 0.250000 0.896291
O O9 0.000000 0.000000 0.000000
O O10 0.229278 0.750000 0.742549
O O11 0.675681 0.750000 0.107566
O O12 0.898358 0.750000 0.358777
O O13 0.267964 0.250000 0.632329
#
# Coordination Sequence:
#
# PCOD8077308 Si02
#       7
#     4   4   4   2   2   2   2
#     4  11  24  45  70  97 131 179 227 277 324 396
#     4  11  24  45  70  96 133 176 229 275 327 394
#     4  12  27  46  69 102 138 174 218 276 337 396
#     4  10  22  43  68  95 132 173 227 277 329 390
#     4  10  24  43  68 101 128 175 225 275 327 398
#     4  12  26  41  66 103 138 175 221 271 343 396
#     4  12  24  41  64  99 138 177 217 279 337 398
#
# _framework density 20.418696000000001
#
# number of rings (size 3 to 8) (size 9 to 14) (size 15 to 20)
#    0.000    0.800    2.000    4.800    2.800    8.000 
#    0.000    0.000    0.000    0.000    0.000    0.000 
#    0.000    0.000    0.000    0.000    0.000    0.000 
#
# Total GULP energy -247954.621460 kJ/mol
# GULP energy per Si atom -12397.731073 kJ/mol
# Density = 2.037222 g / cm^3
# Si number density = 20.418696 Si / 1000 Ang^3
#
#
#
# Elastic Constant Matrix: (Units=GPa)
#
#
# Indices 1 2 3 4 5 6 
#
# 1 126.3228 26.2429 55.6969 0.0000 -32.4588 0.0000
# 2 26.2429 102.9340 19.0627 0.0000 -20.8247 0.0000
# 3 55.6969 19.0627 185.4121 0.0000 -43.0880 0.0000
# 4 0.0000 0.0000 0.0000 -10.7232 0.0000 -53.7780
# 5 -32.4588 -20.8247 -43.0880 0.0000 50.3287 0.0000
# 6 0.0000 0.0000 0.0000 -53.7780 0.0000 -26.1208
#
#
#
# Elastic Compliance Matrix: (Units=1/GPa)
#
#
# Indices 1 2 3 4 5 6 
#
# 1 0.010156 -0.001355 -0.001897 0.000000 0.004365 0.000000
# 2 -0.001355 0.010784 0.000165 0.000000 0.003730 0.000000
# 3 -0.001897 0.000165 0.007088 0.000000 0.004913 0.000000
# 4 0.000000 0.000000 0.000000 0.010000 0.000000 -0.020589
# 5 0.004365 0.003730 0.004913 0.000000 0.028434 0.000000
# 6 0.000000 0.000000 0.000000 -0.020589 0.000000 0.004105
#
#
# Mechanical properties :
#
#
# Convention : Reuss Voigt Hill
#
# Bulk Modulus (GPa) = 45.75722 68.51934 57.13828
# Shear Modulus (GPa) = 59.50499 23.60803 41.55651
#
# Velocity S-wave (km/s) = 5.40423 3.40398 4.51623
# Velocity P-wave (km/s) = 7.83575 7.00567 7.43231
#
# Compressibility (1/GPa) = 0.02185447
#
# Stress axis : x y z
#
# Youngs Moduli (GPa) = 98.46676 92.72668 141.08269
#
# Poissons Ratio (x) = 0.12562 0.26764
# Poissons Ratio (y) = 0.13340 -0.02327
# Poissons Ratio (z) = 0.18679 -0.01530
#
# Static dielectric constant tensor:
#      x y z
#    x 3.818190 0.000000 -0.169470 
#    y 0.000000 3.997380 0.000000 
#    z -0.169470 0.000000 3.768070 
# 
# 
# High freq. dielectric constant tensor:
#      x y z
#    x 1.817380 0.000000 0.001600 
#    y 0.000000 1.820510 0.000000 
#    z 0.001600 0.000000 1.810320 
# 
# From -- ./inp_files/16041.got.cif
#   From: 2010.06.25/outbox.cif.g09.slc.cpg/sg11_9_cif.got.tgz:16041.got - 2010.06.27 23:14:04.
