data_PCOD8077715
_publ_section_title
;
Structure prediction by ZEFSAII (Michael W. Deem and Ramdas Pophale) SiO2 
 PCOD8077715
Probable space group: P 21/M
;
_chemical_formula_sum "Si O2"
_cell_formula_units_Z 24
_cell_length_a 14.551747
_cell_length_b 15.932719
_cell_length_c 4.959047
_cell_angle_alpha 90.000000
_cell_angle_beta 80.533713
_cell_angle_gamma 90.000000
_cell_volume 1134.092909
_symmetry_space_group_name_H-M "P 21/M"
_symmetry_group_IT_number 11
_symmetry_cell_setting 'monoclinic'
loop_
_space_group_symop_operation_xyz
x,y,z
-x,1/2+y,-z
-x,-y,-z
x,1/2-y,z
loop_
_atom_site_type_symbol
_atom_site_label
_atom_site_fract_x
_atom_site_fract_y
_atom_site_fract_z
Si Si1 0.954197 0.655828 0.857251
Si Si2 0.848436 0.601549 0.402342
Si Si3 0.833091 0.346242 0.164891
Si Si4 0.356557 0.346800 0.619197
Si Si5 0.767655 0.438624 0.672592
Si Si6 0.406400 0.047730 0.116262
O O1 0.940649 0.750000 0.973730
O O2 0.897800 0.595602 0.087471
O O3 0.914284 0.651289 0.575529
O O4 0.062383 0.632629 0.792656
O O5 0.749968 0.648859 0.426722
O O6 0.836757 0.508138 0.518482
O O7 0.820326 0.250000 0.084425
O O8 0.764250 0.365293 0.449430
O O9 0.807988 0.405216 0.930121
O O10 0.386242 0.250000 0.644807
O O11 0.422244 0.389860 0.361566
O O12 0.367366 0.396971 0.891013
O O13 0.665498 0.475164 0.768781
O O14 0.500000 0.000000 0.000000
#
# Coordination Sequence:
#
# PCOD8077715 Si02
#       6
#     4   4   4   4   4   4
#     4  11  22  36  56  86 124 163 201 242 290 342
#     4  11  22  36  60  90 121 158 197 246 299 356
#     4  11  24  41  59  83 120 163 206 248 288 344
#     4  11  22  40  66  95 126 157 196 245 303 364
#     4  11  23  41  61  85 115 155 201 246 307 359
#     4  11  24  44  66  91 124 158 195 250 310 364
#
# _framework density 21.162286000000002
#
# number of rings (size 3 to 8) (size 9 to 14) (size 15 to 20)
#    0.000    1.000    0.000    9.000    0.000    6.667 
#    0.000    5.000    0.000    0.000    0.000    0.000 
#    0.000    0.000    0.000    0.000    0.000    0.000 
#
# Total GULP energy -297723.732083 kJ/mol
# GULP energy per Si atom -12405.155503 kJ/mol
# Density = 2.111412 g / cm^3
# Si number density = 21.162286 Si / 1000 Ang^3
#
#
#
# Elastic Constant Matrix: (Units=GPa)
#
#
# Indices 1 2 3 4 5 6 
#
# 1 67.8136 58.3596 25.9426 0.0000 -7.8076 0.0000
# 2 58.3596 72.1491 19.7520 0.0000 -17.8120 0.0000
# 3 25.9426 19.7520 110.7091 0.0000 -4.9238 0.0000
# 4 0.0000 0.0000 0.0000 33.7688 0.0000 -4.4599
# 5 -7.8076 -17.8120 -4.9238 0.0000 32.5252 0.0000
# 6 0.0000 0.0000 0.0000 -4.4599 0.0000 17.2244
#
#
#
# Elastic Compliance Matrix: (Units=1/GPa)
#
#
# Indices 1 2 3 4 5 6 
#
# 1 0.055205 -0.046422 -0.005230 0.000000 -0.012962 0.000000
# 2 -0.046422 0.055773 0.001802 0.000000 0.019673 0.000000
# 3 -0.005230 0.001802 0.009992 0.000000 0.001244 0.000000
# 4 0.000000 0.000000 0.000000 0.030662 0.000000 0.007939
# 5 -0.012962 0.019673 0.001244 0.000000 0.038596 0.000000
# 6 0.000000 0.000000 0.000000 0.007939 0.000000 0.060113
#
#
# Mechanical properties :
#
#
# Convention : Reuss Voigt Hill
#
# Bulk Modulus (GPa) = 47.01460 50.97559 48.99510
# Shear Modulus (GPa) = 14.00043 26.47820 20.23931
#
# Velocity S-wave (km/s) = 2.57490 3.54106 3.09590
# Velocity P-wave (km/s) = 5.57715 6.39211 5.99849
#
# Compressibility (1/GPa) = 0.02126999
#
# Stress axis : x y z
#
# Youngs Moduli (GPa) = 18.11418 17.92970 100.07907
#
# Poissons Ratio (x) = 0.83234 0.52346
# Poissons Ratio (y) = 0.84090 -0.18039
# Poissons Ratio (z) = 0.09475 -0.03232
#
# Static dielectric constant tensor:
#      x y z
#    x 3.578730 0.000000 -0.031830 
#    y 0.000000 4.140120 0.000000 
#    z -0.031830 0.000000 4.046520 
# 
# 
# High freq. dielectric constant tensor:
#      x y z
#    x 1.808680 0.000000 0.002680 
#    y 0.000000 1.838300 0.000000 
#    z 0.002680 0.000000 1.851970 
# 
# From -- ./inp_files/6405.got.cif
#   From: 2010.06.25/outbox.cif.g09.slc.cpg/sg11_4_cif.got.tgz:6405.got - 2010.06.27 23:14:04.
