data_PCOD8077584
_publ_section_title
;
Structure prediction by ZEFSAII (Michael W. Deem and Ramdas Pophale) SiO2 
 PCOD8077584
Probable space group: P 21/M
;
_chemical_formula_sum "Si O2"
_cell_formula_units_Z 24
_cell_length_a 9.167015
_cell_length_b 19.525615
_cell_length_c 9.474577
_cell_angle_alpha 90.000000
_cell_angle_beta 133.757225
_cell_angle_gamma 90.000000
_cell_volume 1224.887302
_symmetry_space_group_name_H-M "P 21/M"
_symmetry_group_IT_number 11
_symmetry_cell_setting 'monoclinic'
loop_
_space_group_symop_operation_xyz
x,y,z
-x,1/2+y,-z
-x,-y,-z
x,1/2-y,z
loop_
_atom_site_type_symbol
_atom_site_label
_atom_site_fract_x
_atom_site_fract_y
_atom_site_fract_z
Si Si1 0.595849 0.102046 0.474592
Si Si2 0.306785 0.053397 0.508540
Si Si3 0.573336 0.827988 0.912957
Si Si4 0.022653 0.828907 0.137788
Si Si5 0.947889 0.437675 0.069864
Si Si6 0.518677 0.433086 0.919560
O O1 0.446107 0.103440 0.507825
O O2 0.498110 0.144886 0.284779
O O3 0.808866 0.135259 0.654799
O O4 0.618975 0.024329 0.442982
O O5 0.327263 0.076451 0.685696
O O6 0.077239 0.058055 0.300206
O O7 0.504029 0.750000 0.881421
O O8 0.814594 0.835881 0.084593
O O9 0.467604 0.867734 0.970302
O O10 0.077667 0.750000 0.145418
O O11 0.003872 0.866389 0.974780
O O12 0.714342 0.440904 0.952356
O O13 0.000000 0.500000 0.000000
O O14 0.500000 0.500000 0.000000
#
# Coordination Sequence:
#
# PCOD8077584 Si02
#       6
#     4   4   4   4   4   4
#     4  11  20  40  68  95 124 164 219 265 315 379
#     4  11  22  37  68  99 122 163 217 270 314 378
#     4  11  25  44  63  92 134 171 211 265 329 390
#     4  11  23  40  66  94 124 170 216 261 318 383
#     4  12  22  41  68  95 129 165 216 271 310 383
#     4  12  25  41  63  98 132 168 207 268 331 379
#
# _framework density 19.593640000000001
#
# number of rings (size 3 to 8) (size 9 to 14) (size 15 to 20)
#    0.000    0.667    6.667    2.500    0.000    2.667 
#    0.000    0.833    0.000    0.000    0.000    0.000 
#    0.000    0.000    0.000    0.000    0.000    0.000 
#
# Total GULP energy -297685.879728 kJ/mol
# GULP energy per Si atom -12403.578322 kJ/mol
# Density = 1.954904 g / cm^3
# Si number density = 19.593640 Si / 1000 Ang^3
#
#
#
# Elastic Constant Matrix: (Units=GPa)
#
#
# Indices 1 2 3 4 5 6 
#
# 1 75.3349 50.2697 28.0853 0.0000 -7.4381 0.0000
# 2 50.2697 125.0134 46.6752 0.0000 -15.2217 0.0000
# 3 28.0853 46.6752 153.0781 0.0000 -9.9951 0.0000
# 4 0.0000 0.0000 0.0000 -26.4454 0.0000 22.0695
# 5 -7.4381 -15.2217 -9.9951 0.0000 34.6096 0.0000
# 6 0.0000 0.0000 0.0000 22.0695 0.0000 21.3081
#
#
#
# Elastic Compliance Matrix: (Units=1/GPa)
#
#
# Indices 1 2 3 4 5 6 
#
# 1 0.018366 -0.006851 -0.001243 0.000000 0.000575 0.000000
# 2 -0.006851 0.011953 -0.002182 0.000000 0.003155 0.000000
# 3 -0.001243 -0.002182 0.007487 0.000000 0.000936 0.000000
# 4 0.000000 0.000000 0.000000 -0.020283 0.000000 0.021007
# 5 0.000575 0.003155 0.000936 0.000000 0.030675 0.000000
# 6 0.000000 0.000000 0.000000 0.021007 0.000000 0.025173
#
#
# Mechanical properties :
#
#
# Convention : Reuss Voigt Hill
#
# Bulk Modulus (GPa) = 57.95741 67.05409 62.50575
# Shear Modulus (GPa) = 50.16399 21.12087 35.64243
#
# Velocity S-wave (km/s) = 5.06535 3.28677 4.26970
# Velocity P-wave (km/s) = 7.99089 6.97857 7.50182
#
# Compressibility (1/GPa) = 0.01725405
#
# Stress axis : x y z
#
# Youngs Moduli (GPa) = 54.44893 83.66347 133.56568
#
# Poissons Ratio (x) = 0.57318 0.16603
# Poissons Ratio (y) = 0.37303 0.29138
# Poissons Ratio (z) = 0.06769 0.18252
#
# Static dielectric constant tensor:
#      x y z
#    x 3.745730 0.000000 0.036650 
#    y 0.000000 3.793020 0.000000 
#    z 0.036650 0.000000 3.787600 
# 
# 
# High freq. dielectric constant tensor:
#      x y z
#    x 1.749810 0.000000 0.003860 
#    y 0.000000 1.763320 0.000000 
#    z 0.003860 0.000000 1.783700 
# 
# From -- ./inp_files/14208.got.cif
#   From: 2010.06.25/outbox.cif.g09.slc.cpg/sg11_8_cif.got.tgz:14208.got - 2010.06.27 23:14:04.
