data_PCOD8077838
_publ_section_title
;
Structure prediction by ZEFSAII (Michael W. Deem and Ramdas Pophale) SiO2 
 PCOD8077838
Probable space group: P 21/M
;
_chemical_formula_sum "Si O2"
_cell_formula_units_Z 32
_cell_length_a 16.270153
_cell_length_b 21.042488
_cell_length_c 12.591560
_cell_angle_alpha 90.000000
_cell_angle_beta 22.520520
_cell_angle_gamma 90.000000
_cell_volume 1651.137492
_symmetry_space_group_name_H-M "P 21/M"
_symmetry_group_IT_number 11
_symmetry_cell_setting 'monoclinic'
loop_
_space_group_symop_operation_xyz
x,y,z
-x,1/2+y,-z
-x,-y,-z
x,1/2-y,z
loop_
_atom_site_type_symbol
_atom_site_label
_atom_site_fract_x
_atom_site_fract_y
_atom_site_fract_z
Si Si1 0.814723 0.952883 0.249882
Si Si2 0.279810 0.680183 0.747093
Si Si3 0.195456 0.677826 0.607228
Si Si4 0.574679 0.062361 0.781395
Si Si5 0.949092 0.077568 0.837166
Si Si6 0.591133 0.522109 0.237593
Si Si7 0.264360 0.143827 0.823874
Si Si8 0.839714 0.532024 0.606756
O O1 0.594882 0.986267 0.474683
O O2 0.836522 0.888609 0.159001
O O3 0.839944 0.934566 0.343156
O O4 0.000000 0.000000 0.000000
O O5 0.178971 0.750000 0.885560
O O6 0.221372 0.655385 0.698869
O O7 0.538654 0.688182 0.447098
O O8 0.190343 0.635287 0.948242
O O9 0.284124 0.750000 0.486475
O O10 0.326394 0.629849 0.374740
O O11 0.941088 0.679040 0.879241
O O12 0.498237 0.018619 0.775186
O O13 0.754095 0.025488 0.634950
O O14 0.357127 0.071901 0.108806
O O15 0.033798 0.085262 0.615174
O O16 0.810820 0.013518 0.997468
O O17 0.628351 0.594851 0.222210
O O18 0.000000 0.500000 0.500000
#
# Coordination Sequence:
#
# PCOD8077838 Si02
#       8
#     4   4   4   4   4   4   4   4
#     4  12  21  31  52  91 126 156 189 239 311 376
#     4  11  24  40  59  87 124 166 207 246 295 374
#     4  11  24  41  62  90 125 167 207 246 302 372
#     4  11  23  41  62  92 125 153 207 259 308 366
#     4  12  22  38  58  87 126 160 197 249 313 367
#     4  12  21  33  60  93 121 156 195 257 313 367
#     4  12  21  35  58  90 127 158 197 244 307 369
#     4  11  24  40  65  92 120 156 200 259 320 356
#
# _framework density 19.380579000000001
#
# number of rings (size 3 to 8) (size 9 to 14) (size 15 to 20)
#    0.000    0.500    7.500    3.000    0.000    0.000 
#    0.000    0.625    0.000    0.750    0.000    0.000 
#    0.000    0.000    0.000    0.000    0.000    0.000 
#
# Total GULP energy -396547.434088 kJ/mol
# GULP energy per Si atom -12392.107315 kJ/mol
# Density = 1.933647 g / cm^3
# Si number density = 19.380579 Si / 1000 Ang^3
#
#
#
# Elastic Constant Matrix: (Units=GPa)
#
#
# Indices 1 2 3 4 5 6 
#
# 1 104.2171 37.5458 35.1273 0.0000 -6.8987 0.0000
# 2 37.5458 88.1811 41.7415 0.0000 10.6095 0.0000
# 3 35.1273 41.7415 123.0474 0.0000 7.1127 0.0000
# 4 0.0000 0.0000 0.0000 24.1265 0.0000 1.7514
# 5 -6.8987 10.6095 7.1127 0.0000 37.9535 0.0000
# 6 0.0000 0.0000 0.0000 1.7514 0.0000 21.9339
#
#
#
# Elastic Compliance Matrix: (Units=1/GPa)
#
#
# Indices 1 2 3 4 5 6 
#
# 1 0.012265 -0.004683 -0.002140 0.000000 0.003939 0.000000
# 2 -0.004683 0.015632 -0.003704 0.000000 -0.004527 0.000000
# 3 -0.002140 -0.003704 0.010066 0.000000 -0.001240 0.000000
# 4 0.000000 0.000000 0.000000 0.041690 0.000000 -0.003329
# 5 0.003939 -0.004527 -0.001240 0.000000 0.028562 0.000000
# 6 0.000000 0.000000 0.000000 -0.003329 0.000000 0.045857
#
#
# Mechanical properties :
#
#
# Convention : Reuss Voigt Hill
#
# Bulk Modulus (GPa) = 59.14407 60.47499 59.80953
# Shear Modulus (GPa) = 27.66039 30.20484 28.93262
#
# Velocity S-wave (km/s) = 3.78196 3.95208 3.86795
# Velocity P-wave (km/s) = 7.04659 7.21782 7.13272
#
# Compressibility (1/GPa) = 0.01690787
#
# Stress axis : x y z
#
# Youngs Moduli (GPa) = 81.53521 63.96996 99.34096
#
# Poissons Ratio (x) = 0.29956 0.21263
# Poissons Ratio (y) = 0.38182 0.36800
# Poissons Ratio (z) = 0.17452 0.23697
#
# Static dielectric constant tensor:
#      x y z
#    x 3.760960 0.000000 -0.146250 
#    y 0.000000 3.232460 0.000000 
#    z -0.146250 0.000000 3.877810 
# 
# 
# High freq. dielectric constant tensor:
#      x y z
#    x 1.754970 0.000000 -0.021720 
#    y 0.000000 1.727500 0.000000 
#    z -0.021720 0.000000 1.768170 
# 
# From -- ./inp_files/53854.got.cif
#   From: 2010.06.25/outbox.cif.g09.slc.cpg/sg11_27_cif.got.tgz:53854.got - 2010.06.27 23:14:04.
