data_PCOD8077543
_publ_section_title
;
Structure prediction by ZEFSAII (Michael W. Deem and Ramdas Pophale) SiO2 
 PCOD8077543
Probable space group: P 21/M
;
_chemical_formula_sum "Si O2"
_cell_formula_units_Z 28
_cell_length_a 21.141943
_cell_length_b 9.019244
_cell_length_c 15.771375
_cell_angle_alpha 90.000000
_cell_angle_beta 153.145225
_cell_angle_gamma 90.000000
_cell_volume 1358.514101
_symmetry_space_group_name_H-M "P 21/M"
_symmetry_group_IT_number 11
_symmetry_cell_setting 'monoclinic'
loop_
_space_group_symop_operation_xyz
x,y,z
-x,1/2+y,-z
-x,-y,-z
x,1/2-y,z
loop_
_atom_site_type_symbol
_atom_site_label
_atom_site_fract_x
_atom_site_fract_y
_atom_site_fract_z
Si Si1 0.485083 0.421549 0.765575
Si Si2 0.975843 0.075635 0.560226
Si Si3 0.057017 0.425336 0.195805
Si Si4 0.693389 0.922682 0.613776
Si Si5 0.257219 0.574631 0.165053
Si Si6 0.261648 0.076401 0.994044
Si Si7 0.220373 0.424635 0.553118
O O1 0.527496 0.250000 0.821031
O O2 0.412165 0.457022 0.588558
O O3 0.381130 0.460796 0.719475
O O4 0.624995 0.520672 0.939999
O O5 0.961959 0.250000 0.530447
O O6 0.106521 0.034462 0.777260
O O7 0.830194 0.012688 0.424179
O O8 0.000000 0.000000 0.500000
O O9 0.067715 0.250000 0.213233
O O10 0.151574 0.478584 0.229797
O O11 0.121734 0.486275 0.360304
O O12 0.899139 0.480801 0.999363
O O13 0.691989 0.750000 0.635289
O O14 0.648629 0.013040 0.644669
O O15 0.273797 0.750000 0.178301
O O16 0.300921 0.506552 0.127955
O O17 0.277814 0.250000 0.027228
O O18 0.201420 0.250000 0.546260
#
# Coordination Sequence:
#
# PCOD8077543 Si02
#       7
#     4   4   4   4   4   4   4
#     4   9  20  38  61  85 115 158 198 232 283 340
#     4  11  24  41  64  93 118 145 183 231 287 345
#     4   8  15  29  51  78 110 148 188 233 284 335
#     4   9  18  33  51  77 114 152 194 241 283 329
#     4  11  20  31  52  80 112 153 198 238 288 339
#     4  11  24  40  58  84 117 151 190 238 287 336
#     4   9  17  36  63  88 116 150 188 234 285 340
#
# _framework density 20.610754
#
# number of rings (size 3 to 8) (size 9 to 14) (size 15 to 20)
#    0.000    2.286    1.429    3.429    0.000    3.429 
#    0.000    3.571    0.000    0.000    0.000    0.000 
#    0.000    0.000    0.000    0.000    0.000    0.000 
#
# Total GULP energy -347113.669639 kJ/mol
# GULP energy per Si atom -12396.916773 kJ/mol
# Density = 2.056384 g / cm^3
# Si number density = 20.610754 Si / 1000 Ang^3
#
#
#
# Elastic Constant Matrix: (Units=GPa)
#
#
# Indices 1 2 3 4 5 6 
#
# 1 133.9145 53.4477 33.1926 0.0000 6.9798 0.0000
# 2 53.4477 78.8752 27.6475 0.0000 8.1910 0.0000
# 3 33.1926 27.6475 24.9628 0.0000 14.6987 0.0000
# 4 0.0000 0.0000 0.0000 25.3810 0.0000 0.8008
# 5 6.9798 8.1910 14.6987 0.0000 31.6846 0.0000
# 6 0.0000 0.0000 0.0000 0.8008 0.0000 37.1675
#
#
#
# Elastic Compliance Matrix: (Units=1/GPa)
#
#
# Indices 1 2 3 4 5 6 
#
# 1 0.012562 -0.003395 -0.016277 0.000000 0.005661 0.000000
# 2 -0.003395 0.022937 -0.024543 0.000000 0.006204 0.000000
# 3 -0.016277 -0.024543 0.114245 0.000000 -0.043069 0.000000
# 4 0.000000 0.000000 0.000000 0.039426 0.000000 -0.000849
# 5 0.005661 0.006204 -0.043069 0.000000 0.048690 0.000000
# 6 0.000000 0.000000 0.000000 -0.000849 0.000000 0.026924
#
#
# Mechanical properties :
#
#
# Convention : Reuss Voigt Hill
#
# Bulk Modulus (GPa) = 16.30929 51.81424 34.06176
# Shear Modulus (GPa) = 13.38144 27.07761 20.22952
#
# Velocity S-wave (km/s) = 2.55079 3.62852 3.13629
# Velocity P-wave (km/s) = 4.07499 6.53826 5.44768
#
# Compressibility (1/GPa) = 0.06131475
#
# Stress axis : x y z
#
# Youngs Moduli (GPa) = 79.60715 43.59730 8.75309
#
# Poissons Ratio (x) = 0.14800 0.14247
# Poissons Ratio (y) = 0.27024 0.21483
# Poissons Ratio (z) = 1.29576 1.07002
#
# Static dielectric constant tensor:
#      x y z
#    x 3.918760 0.000000 0.278710 
#    y 0.000000 3.410960 0.000000 
#    z 0.278710 0.000000 3.674610 
# 
# 
# High freq. dielectric constant tensor:
#      x y z
#    x 1.818130 0.000000 0.014200 
#    y 0.000000 1.787150 0.000000 
#    z 0.014200 0.000000 1.786130 
# 
# From -- ./inp_files/54504.got.cif
#   From: 2010.06.25/outbox.cif.g09.slc.cpg/sg11_28_cif.got.tgz:54504.got - 2010.06.27 23:14:04.
