data_PCOD8077097
_publ_section_title
;
Structure prediction by ZEFSAII (Michael W. Deem and Ramdas Pophale) SiO2 
 PCOD8077097
Probable space group: P 21/M
;
_chemical_formula_sum "Si O2"
_cell_formula_units_Z 28
_cell_length_a 9.819995
_cell_length_b 13.909357
_cell_length_c 11.277900
_cell_angle_alpha 90.000000
_cell_angle_beta 110.622406
_cell_angle_gamma 90.000000
_cell_volume 1441.737376
_symmetry_space_group_name_H-M "P 21/M"
_symmetry_group_IT_number 11
_symmetry_cell_setting 'monoclinic'
loop_
_space_group_symop_operation_xyz
x,y,z
-x,1/2+y,-z
-x,-y,-z
x,1/2-y,z
loop_
_atom_site_type_symbol
_atom_site_label
_atom_site_fract_x
_atom_site_fract_y
_atom_site_fract_z
Si Si1 0.806643 0.359794 0.860986
Si Si2 0.819903 0.358771 0.144046
Si Si3 0.861090 0.637157 0.047338
Si Si4 0.522514 0.050970 0.684795
Si Si5 0.630643 0.977370 0.127024
Si Si6 0.133271 0.139503 0.211971
Si Si7 0.429124 0.141149 0.419850
O O1 0.773929 0.250000 0.813994
O O2 0.694302 0.429009 0.757224
O O3 0.970458 0.388408 0.872110
O O4 0.785021 0.371336 0.994438
O O5 0.800524 0.250000 0.181974
O O6 0.706620 0.421737 0.184347
O O7 0.981923 0.401558 0.216960
O O8 0.833294 0.750000 0.047013
O O9 0.752380 0.589784 0.106598
O O10 0.823162 0.595373 0.903592
O O11 0.430506 0.073212 0.774126
O O12 0.463349 0.123381 0.567345
O O13 0.494622 0.939853 0.638148
O O14 0.500000 0.000000 0.000000
O O15 0.095559 0.250000 0.169556
O O16 0.256339 0.128867 0.348364
O O17 0.477525 0.250000 0.398657
#
# Coordination Sequence:
#
# PCOD8077097 Si02
#       7
#     4   4   4   4   4   4   4
#     4   9  18  36  59  84 115 154 195 234 275 338
#     4   9  19  34  55  83 117 153 188 229 286 343
#     4   9  20  35  57  87 117 151 189 233 291 344
#     4  11  23  37  59  89 113 150 195 233 288 340
#     4  12  23  34  53  92 123 147 176 234 305 345
#     4   8  16  34  58  81 105 150 200 231 271 331
#     4  10  22  40  60  80 110 153 200 241 274 331
#
# _framework density 19.421012999999999
#
# number of rings (size 3 to 8) (size 9 to 14) (size 15 to 20)
#    0.000    2.286    1.429    3.000    2.000    3.429 
#    0.000    0.714    0.000    0.000    0.000    0.000 
#    0.000    0.000    0.000    0.000    0.000    0.000 
#
# Total GULP energy -347092.277349 kJ/mol
# GULP energy per Si atom -12396.152762 kJ/mol
# Density = 1.937681 g / cm^3
# Si number density = 19.421013 Si / 1000 Ang^3
#
#
#
# Elastic Constant Matrix: (Units=GPa)
#
#
# Indices 1 2 3 4 5 6 
#
# 1 115.7180 32.4053 48.0962 0.0000 5.7841 0.0000
# 2 32.4053 70.5464 19.5342 0.0000 10.5718 0.0000
# 3 48.0962 19.5342 95.6961 0.0000 16.1581 0.0000
# 4 0.0000 0.0000 0.0000 19.8107 0.0000 5.9106
# 5 5.7841 10.5718 16.1581 0.0000 21.0445 0.0000
# 6 0.0000 0.0000 0.0000 5.9106 0.0000 30.1665
#
#
#
# Elastic Compliance Matrix: (Units=1/GPa)
#
#
# Indices 1 2 3 4 5 6 
#
# 1 0.012112 -0.004473 -0.005735 0.000000 0.003322 0.000000
# 2 -0.004473 0.017358 -0.000035 0.000000 -0.007464 0.000000
# 3 -0.005735 -0.000035 0.015017 0.000000 -0.009936 0.000000
# 4 0.000000 0.000000 0.000000 0.053612 0.000000 -0.010504
# 5 0.003322 -0.007464 -0.009936 0.000000 0.057984 0.000000
# 6 0.000000 0.000000 0.000000 -0.010504 0.000000 0.035207
#
#
# Mechanical properties :
#
#
# Convention : Reuss Voigt Hill
#
# Bulk Modulus (GPa) = 41.66566 53.55911 47.61239
# Shear Modulus (GPa) = 22.75029 26.33266 24.54147
#
# Velocity S-wave (km/s) = 3.42632 3.68623 3.55865
# Velocity P-wave (km/s) = 6.09536 6.76428 6.43851
#
# Compressibility (1/GPa) = 0.02400058
#
# Stress axis : x y z
#
# Youngs Moduli (GPa) = 82.56205 57.61025 66.59102
#
# Poissons Ratio (x) = 0.25771 0.38191
# Poissons Ratio (y) = 0.36933 0.00231
# Poissons Ratio (z) = 0.47351 0.00200
#
# Static dielectric constant tensor:
#      x y z
#    x 3.535470 0.000000 0.175570 
#    y 0.000000 3.720910 0.000000 
#    z 0.175570 0.000000 3.349570 
# 
# 
# High freq. dielectric constant tensor:
#      x y z
#    x 1.746180 0.000000 0.023820 
#    y 0.000000 1.770800 0.000000 
#    z 0.023820 0.000000 1.727790 
# 
# From -- ./inp_files/17673.got.cif
#   From: 2010.06.25/outbox.cif.g09.slc.cpg/sg11_9_cif.got.tgz:17673.got - 2010.06.27 23:14:04.
