data_PCOD8077208
_publ_section_title
;
Structure prediction by ZEFSAII (Michael W. Deem and Ramdas Pophale) SiO2 
 PCOD8077208
Probable space group: P 21/M
;
_chemical_formula_sum "Si O2"
_cell_formula_units_Z 24
_cell_length_a 7.023466
_cell_length_b 17.830381
_cell_length_c 10.345989
_cell_angle_alpha 90.000000
_cell_angle_beta 114.968436
_cell_angle_gamma 90.000000
_cell_volume 1174.549477
_symmetry_space_group_name_H-M "P 21/M"
_symmetry_group_IT_number 11
_symmetry_cell_setting 'monoclinic'
loop_
_space_group_symop_operation_xyz
x,y,z
-x,1/2+y,-z
-x,-y,-z
x,1/2-y,z
loop_
_atom_site_type_symbol
_atom_site_label
_atom_site_fract_x
_atom_site_fract_y
_atom_site_fract_z
Si Si1 0.645374 0.126707 0.877153
Si Si2 0.140962 0.750000 0.222054
Si Si3 0.346706 0.250000 0.891991
Si Si4 0.289469 0.403218 0.411370
Si Si5 0.594577 0.250000 0.218225
Si Si6 0.820132 0.102092 0.203073
Si Si7 0.514596 0.750000 0.519836
Si Si8 0.584896 0.497931 0.328433
O O1 0.817090 0.176244 0.851268
O O2 0.440398 0.176354 0.850165
O O3 0.585370 0.056665 0.772142
O O4 0.749862 0.094270 0.035700
O O5 0.283526 0.750000 0.391334
O O6 0.901454 0.750000 0.199092
O O7 0.406102 0.250000 0.060305
O O8 0.359271 0.323308 0.491098
O O9 0.462530 0.428192 0.356228
O O10 0.270335 0.462631 0.522272
O O11 0.069970 0.397641 0.276193
O O12 0.741677 0.178448 0.244124
O O13 0.490021 0.250000 0.327300
O O14 0.731707 0.030854 0.255506
#
# Coordination Sequence:
#
# PCOD8077208 Si02
#       8
#     4   2   2   4   2   4   2   4
#     4  10  23  41  62  94 124 159 208 256 301 367
#     4  11  23  41  63  90 124 162 210 252 306 363
#     4   9  23  41  65  90 122 162 202 262 304 357
#     4  11  25  40  65  90 124 166 203 255 303 362
#     4  10  22  41  64  93 119 153 214 254 299 369
#     4  11  23  41  65  91 123 164 203 251 313 361
#     4  12  22  43  64  87 123 161 206 258 303 357
#     4  11  23  43  59  92 133 157 207 251 299 375
#
# _framework density 20.433367000000001
#
# number of rings (size 3 to 8) (size 9 to 14) (size 15 to 20)
#    0.000    1.333    3.333    2.000    2.333    3.333 
#    0.000    0.000    0.000    0.000    0.000    0.000 
#    0.000    0.000    0.000    0.000    0.000    0.000 
#
# Total GULP energy -297766.512936 kJ/mol
# GULP energy per Si atom -12406.938039 kJ/mol
# Density = 2.038686 g / cm^3
# Si number density = 20.433367 Si / 1000 Ang^3
#
#
#
# Elastic Constant Matrix: (Units=GPa)
#
#
# Indices 1 2 3 4 5 6 
#
# 1 74.3464 27.9072 29.8782 0.0000 24.6163 0.0000
# 2 27.9072 96.9092 26.3771 0.0000 7.9826 0.0000
# 3 29.8782 26.3771 91.7288 0.0000 10.3155 0.0000
# 4 0.0000 0.0000 0.0000 26.8365 0.0000 -1.0474
# 5 24.6163 7.9826 10.3155 0.0000 34.5562 0.0000
# 6 0.0000 0.0000 0.0000 -1.0474 0.0000 16.3467
#
#
#
# Elastic Compliance Matrix: (Units=1/GPa)
#
#
# Indices 1 2 3 4 5 6 
#
# 1 0.020768 -0.003781 -0.004255 0.000000 -0.012651 0.000000
# 2 -0.003781 0.011979 -0.002281 0.000000 0.000607 0.000000
# 3 -0.004255 -0.002281 0.012979 0.000000 -0.000316 0.000000
# 4 0.000000 0.000000 0.000000 0.037356 0.000000 0.002394
# 5 -0.012651 0.000607 -0.000316 0.000000 0.037905 0.000000
# 6 0.000000 0.000000 0.000000 0.002394 0.000000 0.061328
#
#
# Mechanical properties :
#
#
# Convention : Reuss Voigt Hill
#
# Bulk Modulus (GPa) = 39.85249 47.92327 43.88788
# Shear Modulus (GPa) = 23.66163 27.46934 25.56548
#
# Velocity S-wave (km/s) = 3.40662 3.67050 3.54102
# Velocity P-wave (km/s) = 5.91772 6.43955 6.18414
#
# Compressibility (1/GPa) = 0.02509253
#
# Stress axis : x y z
#
# Youngs Moduli (GPa) = 48.15015 83.48239 77.04608
#
# Poissons Ratio (x) = 0.31561 0.32783
# Poissons Ratio (y) = 0.18203 0.17577
# Poissons Ratio (z) = 0.20488 0.19045
#
# Static dielectric constant tensor:
#      x y z
#    x 3.399460 0.000000 -0.094870 
#    y 0.000000 3.854200 0.000000 
#    z -0.094870 0.000000 3.750540 
# 
# 
# High freq. dielectric constant tensor:
#      x y z
#    x 1.783870 0.000000 -0.004440 
#    y 0.000000 1.811750 0.000000 
#    z -0.004440 0.000000 1.811860 
# 
# From -- ./inp_files/4693.got.cif
#   From: 2010.06.25/outbox.cif.g09.slc.cpg/sg11_3_cif.got.tgz:4693.got - 2010.06.27 23:14:04.
