data_PCOD8077345
_publ_section_title
;
Structure prediction by ZEFSAII (Michael W. Deem and Ramdas Pophale) SiO2 
 PCOD8077345
Probable space group: P 21/M
;
_chemical_formula_sum "Si O2"
_cell_formula_units_Z 16
_cell_length_a 7.810703
_cell_length_b 17.741224
_cell_length_c 7.134560
_cell_angle_alpha 90.000000
_cell_angle_beta 54.634657
_cell_angle_gamma 90.000000
_cell_volume 806.219261
_symmetry_space_group_name_H-M "P 21/M"
_symmetry_group_IT_number 11
_symmetry_cell_setting 'monoclinic'
loop_
_space_group_symop_operation_xyz
x,y,z
-x,1/2+y,-z
-x,-y,-z
x,1/2-y,z
loop_
_atom_site_type_symbol
_atom_site_label
_atom_site_fract_x
_atom_site_fract_y
_atom_site_fract_z
Si Si1 0.800049 0.663448 0.554860
Si Si2 0.596237 0.925160 0.349920
Si Si3 0.195026 0.045249 0.158840
Si Si4 0.799594 0.089903 0.601837
O O1 0.735013 0.750000 0.613860
O O2 0.709076 0.629925 0.421734
O O3 0.705890 0.617173 0.791514
O O4 0.056047 0.654887 0.394937
O O5 0.404230 0.878141 0.376103
O O6 0.500000 0.000000 0.500000
O O7 0.766268 0.948244 0.085671
O O8 0.942751 0.043000 0.359790
O O9 0.289646 0.967743 0.183452
#
# Coordination Sequence:
#
# PCOD8077345 Si02
#       4
#     4   4   4   4
#     4  10  23  41  56  87 126 156 198 246 296 358
#     4  12  21  36  70  92 113 156 205 246 299 350
#     4   9  20  41  60  88 123 147 200 251 287 353
#     4   9  20  40  61  86 117 159 192 244 295 351
#
# _framework density 19.845718000000002
#
# number of rings (size 3 to 8) (size 9 to 14) (size 15 to 20)
#    1.500    0.500    2.500    0.750    0.000    6.000 
#    0.000    0.000    0.000    0.000    0.000    0.000 
#    0.000    0.000    0.000    0.000    0.000    0.000 
#
# Total GULP energy -198245.469678 kJ/mol
# GULP energy per Si atom -12390.341855 kJ/mol
# Density = 1.980055 g / cm^3
# Si number density = 19.845718 Si / 1000 Ang^3
#
#
#
# Elastic Constant Matrix: (Units=GPa)
#
#
# Indices 1 2 3 4 5 6 
#
# 1 99.8599 8.5922 4.0041 0.0000 5.2641 0.0000
# 2 8.5922 94.1740 29.6185 0.0000 12.0755 0.0000
# 3 4.0041 29.6185 113.5993 0.0000 8.6515 0.0000
# 4 0.0000 0.0000 0.0000 13.9094 0.0000 5.5010
# 5 5.2641 12.0755 8.6515 0.0000 17.2457 0.0000
# 6 0.0000 0.0000 0.0000 5.5010 0.0000 17.9170
#
#
#
# Elastic Compliance Matrix: (Units=1/GPa)
#
#
# Indices 1 2 3 4 5 6 
#
# 1 0.010207 -0.000584 -0.000001 0.000000 -0.002706 0.000000
# 2 -0.000584 0.012434 -0.002674 0.000000 -0.007187 0.000000
# 3 -0.000001 -0.002674 0.009729 0.000000 -0.003008 0.000000
# 4 0.000000 0.000000 0.000000 0.081830 0.000000 -0.025124
# 5 -0.002706 -0.007187 -0.003008 0.000000 0.065353 0.000000
# 6 0.000000 0.000000 0.000000 -0.025124 0.000000 0.063527
#
#
# Mechanical properties :
#
#
# Convention : Reuss Voigt Hill
#
# Bulk Modulus (GPa) = 38.68184 43.56254 41.12219
# Shear Modulus (GPa) = 19.36358 27.50898 23.43628
#
# Velocity S-wave (km/s) = 3.12702 3.72713 3.44019
# Velocity P-wave (km/s) = 5.70712 6.36555 6.04531
#
# Compressibility (1/GPa) = 0.02585192
#
# Stress axis : x y z
#
# Youngs Moduli (GPa) = 97.97227 80.42148 102.78324
#
# Poissons Ratio (x) = 0.04695 0.00015
# Poissons Ratio (y) = 0.05720 0.27485
# Poissons Ratio (z) = 0.00014 0.21505
#
# Static dielectric constant tensor:
#      x y z
#    x 3.740500 0.000000 0.075310 
#    y 0.000000 3.216310 0.000000 
#    z 0.075310 0.000000 3.387520 
# 
# 
# High freq. dielectric constant tensor:
#      x y z
#    x 1.784330 0.000000 0.006260 
#    y 0.000000 1.733210 0.000000 
#    z 0.006260 0.000000 1.763850 
# 
# From -- ./inp_files/1838.got.cif
#   From: 2010.06.25/outbox.cif.g09.slc.cpg/sg11_1_cif.got.tgz:1838.got - 2010.06.27 23:14:04.
