data_PCOD8077945
_publ_section_title
;
Structure prediction by ZEFSAII (Michael W. Deem and Ramdas Pophale) SiO2 
 PCOD8077945
Probable space group: P 21/M
;
_chemical_formula_sum "Si O2"
_cell_formula_units_Z 32
_cell_length_a 25.371396
_cell_length_b 9.268105
_cell_length_c 9.751572
_cell_angle_alpha 90.000000
_cell_angle_beta 125.207143
_cell_angle_gamma 90.000000
_cell_volume 1873.573848
_symmetry_space_group_name_H-M "P 21/M"
_symmetry_group_IT_number 11
_symmetry_cell_setting 'monoclinic'
loop_
_space_group_symop_operation_xyz
x,y,z
-x,1/2+y,-z
-x,-y,-z
x,1/2-y,z
loop_
_atom_site_type_symbol
_atom_site_label
_atom_site_fract_x
_atom_site_fract_y
_atom_site_fract_z
Si Si1 0.694129 0.910249 0.878154
Si Si2 0.449407 0.420031 0.330408
Si Si3 0.305871 0.410250 0.795760
Si Si4 0.449405 0.420033 0.017806
Si Si5 0.938036 0.913466 0.570491
Si Si6 0.185476 0.912385 0.614605
Si Si7 0.061966 0.413466 0.756385
Si Si8 0.185477 0.587615 0.941818
O O1 0.708107 0.750000 0.840577
O O2 0.622713 0.962619 0.727352
O O3 0.697229 0.903299 0.045847
O O4 0.748057 0.019270 0.901255
O O5 0.500000 0.500000 0.500000
O O6 0.459361 0.250000 0.358696
O O7 0.459987 0.470214 0.189979
O O8 0.291895 0.250000 0.716251
O O9 0.251941 0.519267 0.657073
O O10 0.377285 0.462629 0.859206
O O11 0.459352 0.250000 0.019370
O O12 0.500000 0.500000 0.000000
O O13 0.939496 0.750000 0.629485
O O14 0.938336 0.911724 0.407505
O O15 0.874242 0.993370 0.530281
O O16 0.000001 0.999999 0.719275
O O17 0.179326 0.750000 0.548426
O O18 0.185484 0.911758 0.778223
O O19 0.060505 0.250000 0.810997
O O20 0.125761 0.493368 0.907557
O O21 0.179327 0.750000 0.989547
#
# Coordination Sequence:
#
# PCOD8077945 Si02
#       8
#     4   4   4   4   4   4   4   4
#     4   8  14  25  38  51  70  96 125 159 199 241
#     4   9  18  31  46  65  88 113 143 179 218 261
#     4   8  14  25  38  51  70  96 125 159 199 241
#     4   9  18  31  46  65  88 113 143 179 218 261
#     4   9  15  21  28  38  55  81 113 150 191 232
#     4   9  15  21  30  45  63  84 115 154 193 234
#     4   9  15  21  28  38  55  81 113 150 191 232
#     4   9  15  21  30  45  63  84 115 154 193 234
#
# _framework density 17.079657999999998
#
# number of rings (size 3 to 8) (size 9 to 14) (size 15 to 20)
#    0.000    3.250    0.000    3.000    0.000    7.500 
#    0.000    2.500    0.000    0.000    0.000    0.000 
#    0.000    0.000    0.000    0.000    0.000    1.250 
#
# Total GULP energy -396630.053334 kJ/mol
# GULP energy per Si atom -12394.689167 kJ/mol
# Density = 1.704078 g / cm^3
# Si number density = 17.079658 Si / 1000 Ang^3
#
#
#
# Elastic Constant Matrix: (Units=GPa)
#
#
# Indices 1 2 3 4 5 6 
#
# 1 86.9522 65.3619 49.7161 0.0000 44.5084 0.0000
# 2 65.3619 140.6284 53.3903 0.0000 40.5307 0.0000
# 3 49.7161 53.3903 62.7412 0.0000 37.4429 0.0000
# 4 0.0000 0.0000 0.0000 23.7506 0.0000 14.3932
# 5 44.5084 40.5307 37.4429 0.0000 35.9588 0.0000
# 6 0.0000 0.0000 0.0000 14.3932 0.0000 28.0021
#
#
#
# Elastic Compliance Matrix: (Units=1/GPa)
#
#
# Indices 1 2 3 4 5 6 
#
# 1 0.034108 -0.005175 -0.002403 0.000000 -0.033882 0.000000
# 2 -0.005175 0.011937 -0.004887 0.000000 -0.001959 0.000000
# 3 -0.002403 -0.004887 0.044743 0.000000 -0.038106 0.000000
# 4 0.000000 0.000000 0.000000 0.061153 0.000000 -0.031433
# 5 -0.033882 -0.001959 -0.038106 0.000000 0.111635 0.000000
# 6 0.000000 0.000000 0.000000 -0.031433 0.000000 0.051868
#
#
# Mechanical properties :
#
#
# Convention : Reuss Voigt Hill
#
# Bulk Modulus (GPa) = 15.18462 69.69538 42.44000
# Shear Modulus (GPa) = 13.79970 25.66588 19.73279
#
# Velocity S-wave (km/s) = 2.84555 3.88069 3.40271
# Velocity P-wave (km/s) = 4.43914 7.80861 6.35139
#
# Compressibility (1/GPa) = 0.06585610
#
# Stress axis : x y z
#
# Youngs Moduli (GPa) = 29.31846 83.77611 22.35006
#
# Poissons Ratio (x) = 0.43358 0.05371
# Poissons Ratio (y) = 0.15174 0.10923
# Poissons Ratio (z) = 0.07045 0.40943
#
# Static dielectric constant tensor:
#      x y z
#    x 3.058420 0.000000 0.567260 
#    y 0.000000 3.412370 0.000000 
#    z 0.567260 0.000000 2.890810 
# 
# 
# High freq. dielectric constant tensor:
#      x y z
#    x 1.628140 0.000000 0.059920 
#    y 0.000000 1.668800 0.000000 
#    z 0.059920 0.000000 1.610440 
# 
# From -- ./inp_files/42198.got.cif
#   From: 2010.06.25/outbox.cif.g09.slc.cpg/sg11_22_cif.got.tgz:42198.got - 2010.06.27 23:14:04.
