data_PCOD8077492
_publ_section_title
;
Structure prediction by ZEFSAII (Michael W. Deem and Ramdas Pophale) SiO2 
 PCOD8077492
Probable space group: P 21/M
;
_chemical_formula_sum "Si O2"
_cell_formula_units_Z 16
_cell_length_a 4.719234
_cell_length_b 15.070751
_cell_length_c 8.196001
_cell_angle_alpha 90.000000
_cell_angle_beta 93.109693
_cell_angle_gamma 90.000000
_cell_volume 582.060921
_symmetry_space_group_name_H-M "P 21/M"
_symmetry_group_IT_number 11
_symmetry_cell_setting 'monoclinic'
loop_
_space_group_symop_operation_xyz
x,y,z
-x,1/2+y,-z
-x,-y,-z
x,1/2-y,z
loop_
_atom_site_type_symbol
_atom_site_label
_atom_site_fract_x
_atom_site_fract_y
_atom_site_fract_z
Si Si1 0.944132 0.849223 0.182338
Si Si2 0.970306 0.581228 0.826942
Si Si3 0.873117 0.750000 0.627487
Si Si4 0.534468 0.984963 0.310655
Si Si5 0.653567 0.250000 0.597873
O O1 0.833462 0.750000 0.132906
O O2 0.693741 0.892473 0.281193
O O3 0.237915 0.838336 0.298522
O O4 0.995661 0.905158 0.020357
O O5 0.817386 0.664035 0.735702
O O6 0.777000 0.493447 0.783497
O O7 0.279780 0.564814 0.761832
O O8 0.194859 0.750000 0.573844
O O9 0.679748 0.750000 0.456085
O O10 0.500000 0.000000 0.500000
#
# Coordination Sequence:
#
# PCOD8077492 Si02
#       5
#     4   4   2   4   2
#     4  10  25  53  75 117 158 210 261 327 395 469
#     4  12  26  49  80 111 160 200 273 317 400 466
#     4  12  23  46  69 118 141 216 243 338 373 476
#     4  12  27  49  80 119 157 208 261 329 393 469
#     4  10  25  42  75 102 163 190 267 306 395 446
#
# _framework density 27.488534999999999
#
# number of rings (size 3 to 8) (size 9 to 14) (size 15 to 20)
#    0.750    0.000    1.250    5.250    0.000    6.000 
#    2.250    0.000    0.000    0.000    0.000    0.000 
#    0.000    0.000    0.000    0.000    0.000    0.000 
#
# Total GULP energy -198495.217614 kJ/mol
# GULP energy per Si atom -12405.951101 kJ/mol
# Density = 2.742597 g / cm^3
# Si number density = 27.488535 Si / 1000 Ang^3
#
#
#
# Elastic Constant Matrix: (Units=GPa)
#
#
# Indices 1 2 3 4 5 6 
#
# 1 121.1767 -3.6731 57.9859 0.0000 -11.9006 0.0000
# 2 -3.6731 66.2504 35.4667 0.0000 -4.4027 0.0000
# 3 57.9859 35.4667 199.0255 0.0000 -13.2536 0.0000
# 4 0.0000 0.0000 0.0000 64.2118 0.0000 -6.0017
# 5 -11.9006 -4.4027 -13.2536 0.0000 52.2394 0.0000
# 6 0.0000 0.0000 0.0000 -6.0017 0.0000 14.0655
#
#
#
# Elastic Compliance Matrix: (Units=1/GPa)
#
#
# Indices 1 2 3 4 5 6 
#
# 1 0.010041 0.002403 -0.003243 0.000000 0.001667 0.000000
# 2 0.002403 0.017284 -0.003709 0.000000 0.001063 0.000000
# 3 -0.003243 -0.003709 0.006673 0.000000 0.000642 0.000000
# 4 0.000000 0.000000 0.000000 0.016220 0.000000 0.006921
# 5 0.001667 0.001063 0.000642 0.000000 0.019775 0.000000
# 6 0.000000 0.000000 0.000000 0.006921 0.000000 0.074049
#
#
# Mechanical properties :
#
#
# Convention : Reuss Voigt Hill
#
# Bulk Modulus (GPa) = 40.16026 62.89018 51.52522
# Shear Modulus (GPa) = 30.97140 45.88155 38.42647
#
# Velocity S-wave (km/s) = 3.36028 4.08991 3.74292
# Velocity P-wave (km/s) = 5.44948 6.72544 6.12080
#
# Compressibility (1/GPa) = 0.02490024
#
# Stress axis : x y z
#
# Youngs Moduli (GPa) = 99.59510 57.85702 149.85823
#
# Poissons Ratio (x) = -0.13905 0.48593
# Poissons Ratio (y) = -0.23936 0.55589
# Poissons Ratio (z) = 0.32295 0.21462
#
# Static dielectric constant tensor:
#      x y z
#    x 4.883390 0.000000 -0.036920 
#    y 0.000000 5.477500 0.000000 
#    z -0.036920 0.000000 4.741710 
# 
# 
# High freq. dielectric constant tensor:
#      x y z
#    x 2.117740 0.000000 -0.003890 
#    y 0.000000 2.151370 0.000000 
#    z -0.003890 0.000000 2.111870 
# 
# From -- ./inp_files/10002.got.cif
#   From: 2010.06.25/outbox.cif.g09.slc.cpg/sg11_6_cif.got.tgz:10002.got - 2010.06.27 23:14:04.
