data_PCOD8077275
_publ_section_title
;
Structure prediction by ZEFSAII (Michael W. Deem and Ramdas Pophale) SiO2 
 PCOD8077275
Probable space group: P 21/M
;
_chemical_formula_sum "Si O2"
_cell_formula_units_Z 20
_cell_length_a 12.434262
_cell_length_b 16.213980
_cell_length_c 14.388530
_cell_angle_alpha 90.000000
_cell_angle_beta 159.746248
_cell_angle_gamma 90.000000
_cell_volume 1004.213736
_symmetry_space_group_name_H-M "P 21/M"
_symmetry_group_IT_number 11
_symmetry_cell_setting 'monoclinic'
loop_
_space_group_symop_operation_xyz
x,y,z
-x,1/2+y,-z
-x,-y,-z
x,1/2-y,z
loop_
_atom_site_type_symbol
_atom_site_label
_atom_site_fract_x
_atom_site_fract_y
_atom_site_fract_z
Si Si1 0.162070 0.750000 0.520196
Si Si2 0.472725 0.884741 0.650001
Si Si3 0.769298 0.158763 0.059783
Si Si4 0.809863 0.155432 0.776778
Si Si5 0.443574 0.750000 0.946035
Si Si6 0.412204 0.075350 0.610700
O O1 0.313736 0.831556 0.601189
O O2 0.214059 0.750000 0.672611
O O3 0.798339 0.750000 0.200911
O O4 0.330301 0.862576 0.436335
O O5 0.412915 0.978556 0.628699
O O6 0.831699 0.864813 0.936700
O O7 0.860879 0.250000 0.095189
O O8 0.502676 0.120446 0.779283
O O9 0.629542 0.168512 0.050716
O O10 0.069752 0.101362 0.301386
O O11 0.752479 0.250000 0.758663
O O12 0.655240 0.096576 0.727224
#
# Coordination Sequence:
#
# PCOD8077275 Si02
#       6
#     2   4   4   4   2   4
#     4  12  22  46  61  88 121 182 200 262 316 368
#     4  12  25  41  62  96 134 165 219 243 308 383
#     4  10  22  42  65  94 122 160 214 259 322 375
#     4  12  22  40  62  95 130 174 208 242 309 378
#     4  10  24  42  71  84 123 164 216 264 318 374
#     4  12  23  40  66  98 131 164 199 273 307 362
#
# _framework density 19.916080000000001
#
# number of rings (size 3 to 8) (size 9 to 14) (size 15 to 20)
#    0.600    0.000    2.000    7.800    0.000    0.000 
#    0.000    6.000    0.000    0.000    0.000    0.000 
#    0.000    0.000    0.000    0.000    0.000    0.000 
#
# Total GULP energy -248100.337353 kJ/mol
# GULP energy per Si atom -12405.016868 kJ/mol
# Density = 1.987075 g / cm^3
# Si number density = 19.916080 Si / 1000 Ang^3
#
#
#
# Elastic Constant Matrix: (Units=GPa)
#
#
# Indices 1 2 3 4 5 6 
#
# 1 85.6232 37.1012 14.7466 0.0000 -6.6512 0.0000
# 2 37.1012 134.0784 17.3440 0.0000 -2.6865 0.0000
# 3 14.7466 17.3440 106.9735 0.0000 -2.0404 0.0000
# 4 0.0000 0.0000 0.0000 18.2711 0.0000 -12.0102
# 5 -6.6512 -2.6865 -2.0404 0.0000 46.1593 0.0000
# 6 0.0000 0.0000 0.0000 -12.0102 0.0000 4.8285
#
#
#
# Elastic Compliance Matrix: (Units=1/GPa)
#
#
# Indices 1 2 3 4 5 6 
#
# 1 0.013569 -0.003558 -0.001261 0.000000 0.001692 0.000000
# 2 -0.003558 0.008558 -0.000898 0.000000 -0.000054 0.000000
# 3 -0.001261 -0.000898 0.009671 0.000000 0.000193 0.000000
# 4 0.000000 0.000000 0.000000 -0.086188 0.000000 -0.214381
# 5 0.001692 -0.000054 0.000193 0.000000 0.021913 0.000000
# 6 0.000000 0.000000 0.000000 -0.214381 0.000000 -0.326137
#
#
# Mechanical properties :
#
#
# Convention : Reuss Voigt Hill
#
# Bulk Modulus (GPa) = 49.10635 51.67317 50.38976
# Shear Modulus (GPa) = -14.68902 31.01734 8.16416
#
# Velocity S-wave (km/s) = -2.71873 3.95067 2.02686
# Velocity P-wave (km/s) = 3.85420 6.84195 5.55280
#
# Compressibility (1/GPa) = 0.02036397
#
# Stress axis : x y z
#
# Youngs Moduli (GPa) = 73.69524 116.85136 103.39864
#
# Poissons Ratio (x) = 0.41573 0.13043
# Poissons Ratio (y) = 0.26219 0.09286
# Poissons Ratio (z) = 0.09296 0.10495
#
# Static dielectric constant tensor:
#      x y z
#    x 3.598590 0.000000 -0.091330 
#    y 0.000000 3.796150 0.000000 
#    z -0.091330 0.000000 3.687370 
# 
# 
# High freq. dielectric constant tensor:
#      x y z
#    x 1.779250 0.000000 -0.009150 
#    y 0.000000 1.779610 0.000000 
#    z -0.009150 0.000000 1.797050 
# 
# From -- ./inp_files/50630.got.cif
#   From: 2010.06.25/outbox.cif.g09.slc.cpg/sg11_26_cif.got.tgz:50630.got - 2010.06.27 23:14:04.
