data_PCOD8077882
_publ_section_title
;
Structure prediction by ZEFSAII (Michael W. Deem and Ramdas Pophale) SiO2 
 PCOD8077882
Probable space group: P 21/M
;
_chemical_formula_sum "Si O2"
_cell_formula_units_Z 20
_cell_length_a 6.655782
_cell_length_b 14.454780
_cell_length_c 10.405408
_cell_angle_alpha 90.000000
_cell_angle_beta 105.652866
_cell_angle_gamma 90.000000
_cell_volume 963.955982
_symmetry_space_group_name_H-M "P 21/M"
_symmetry_group_IT_number 11
_symmetry_cell_setting 'monoclinic'
loop_
_space_group_symop_operation_xyz
x,y,z
-x,1/2+y,-z
-x,-y,-z
x,1/2-y,z
loop_
_atom_site_type_symbol
_atom_site_label
_atom_site_fract_x
_atom_site_fract_y
_atom_site_fract_z
Si Si1 0.188755 0.448447 0.966151
Si Si2 0.515842 0.396566 0.450896
Si Si3 0.803001 0.250000 0.113863
Si Si4 0.838405 0.250000 0.583473
Si Si5 0.399605 0.928284 0.823827
Si Si6 0.150314 0.250000 0.394430
Si Si7 0.030839 0.250000 0.896224
O O1 0.231080 0.493031 0.832982
O O2 0.168616 0.339929 0.943130
O O3 0.376374 0.466700 0.096852
O O4 0.000000 0.500000 0.000000
O O5 0.500000 0.500000 0.500000
O O6 0.692014 0.340508 0.557816
O O7 0.607093 0.403597 0.324996
O O8 0.294753 0.342260 0.417713
O O9 0.658061 0.337390 0.108383
O O10 0.008488 0.250000 0.241305
O O11 0.851134 0.250000 0.971300
O O12 0.005826 0.250000 0.496173
O O13 0.950915 0.250000 0.738125
#
# Coordination Sequence:
#
# PCOD8077882 Si02
#       7
#     4   4   2   2   4   2   2
#     4  11  25  44  67 104 133 177 227 282 343 411
#     4  11  26  44  70  97 138 186 229 286 343 415
#     4  12  21  45  75  95 130 182 227 286 335 401
#     4  11  27  46  65 106 138 177 231 284 359 407
#     4  11  24  43  69  99 134 173 238 278 336 413
#     4  11  24  47  68  98 135 178 242 276 333 425
#     4  12  26  42  70  99 143 173 220 294 351 395
#
# _framework density 20.747836
#
# number of rings (size 3 to 8) (size 9 to 14) (size 15 to 20)
#    0.000    0.800    4.000    2.400    5.600    0.800 
#    3.600    0.000    0.000    0.000    0.000    0.000 
#    0.000    0.000    0.000    0.000    0.000    0.000 
#
# Total GULP energy -247979.374475 kJ/mol
# GULP energy per Si atom -12398.968724 kJ/mol
# Density = 2.070061 g / cm^3
# Si number density = 20.747836 Si / 1000 Ang^3
#
#
#
# Elastic Constant Matrix: (Units=GPa)
#
#
# Indices 1 2 3 4 5 6 
#
# 1 122.1903 55.8160 29.4486 0.0000 -10.5358 0.0000
# 2 55.8160 166.8647 12.2075 0.0000 -13.4428 0.0000
# 3 29.4486 12.2075 82.0815 0.0000 -17.2941 0.0000
# 4 0.0000 0.0000 0.0000 41.1570 0.0000 -7.7662
# 5 -10.5358 -13.4428 -17.2941 0.0000 33.5579 0.0000
# 6 0.0000 0.0000 0.0000 -7.7662 0.0000 47.1309
#
#
#
# Elastic Compliance Matrix: (Units=1/GPa)
#
#
# Indices 1 2 3 4 5 6 
#
# 1 0.010464 -0.003239 -0.003201 0.000000 0.000338 0.000000
# 2 -0.003239 0.007210 0.000543 0.000000 0.002151 0.000000
# 3 -0.003201 0.000543 0.014679 0.000000 0.006777 0.000000
# 4 0.000000 0.000000 0.000000 0.025077 0.000000 0.004132
# 5 0.000338 0.002151 0.006777 0.000000 0.034260 0.000000
# 6 0.000000 0.000000 0.000000 0.004132 0.000000 0.021898
#
#
# Mechanical properties :
#
#
# Convention : Reuss Voigt Hill
#
# Bulk Modulus (GPa) = 48.64213 62.89784 55.76998
# Shear Modulus (GPa) = 37.81156 42.61346 40.21251
#
# Velocity S-wave (km/s) = 4.27363 4.53689 4.40722
# Velocity P-wave (km/s) = 6.91717 7.60432 7.26887
#
# Compressibility (1/GPa) = 0.02055831
#
# Stress axis : x y z
#
# Youngs Moduli (GPa) = 95.56471 138.69963 68.12590
#
# Poissons Ratio (x) = 0.44922 0.21809
# Poissons Ratio (y) = 0.30951 -0.03699
# Poissons Ratio (z) = 0.30593 -0.07531
#
# Static dielectric constant tensor:
#      x y z
#    x 4.154780 0.000000 -0.426830 
#    y 0.000000 3.760450 0.000000 
#    z -0.426830 0.000000 4.057400 
# 
# 
# High freq. dielectric constant tensor:
#      x y z
#    x 1.828120 0.000000 -0.009700 
#    y 0.000000 1.832930 0.000000 
#    z -0.009700 0.000000 1.807060 
# 
# From -- ./inp_files/4284.got.cif
#   From: 2010.06.25/outbox.cif.g09.slc.cpg/sg11_3_cif.got.tgz:4284.got - 2010.06.27 23:14:04.
