data_PCOD8077618
_publ_section_title
;
Structure prediction by ZEFSAII (Michael W. Deem and Ramdas Pophale) SiO2 
 PCOD8077618
Probable space group: P 21/M
;
_chemical_formula_sum "Si O2"
_cell_formula_units_Z 32
_cell_length_a 10.274941
_cell_length_b 9.041469
_cell_length_c 21.530733
_cell_angle_alpha 90.000000
_cell_angle_beta 70.544202
_cell_angle_gamma 90.000000
_cell_volume 1886.002229
_symmetry_space_group_name_H-M "P 21/M"
_symmetry_group_IT_number 11
_symmetry_cell_setting 'monoclinic'
loop_
_space_group_symop_operation_xyz
x,y,z
-x,1/2+y,-z
-x,-y,-z
x,1/2-y,z
loop_
_atom_site_type_symbol
_atom_site_label
_atom_site_fract_x
_atom_site_fract_y
_atom_site_fract_z
Si Si1 0.212390 0.923400 0.199365
Si Si2 0.616552 0.577264 0.663133
Si Si3 0.388455 0.427038 0.473858
Si Si4 0.102043 0.420999 0.323566
Si Si5 0.508462 0.577421 0.806121
Si Si6 0.302715 0.914715 0.056817
Si Si7 0.395567 0.415952 0.931695
Si Si8 0.097413 0.923461 0.534719
O O1 0.239982 0.750000 0.206925
O O2 0.189424 0.950355 0.128699
O O3 0.086051 0.984496 0.261698
O O4 0.342411 0.019775 0.198749
O O5 0.640874 0.750000 0.653032
O O6 0.573879 0.518494 0.602151
O O7 0.765714 0.512853 0.659951
O O8 0.496930 0.543081 0.733643
O O9 0.500000 0.500000 0.500000
O O10 0.389271 0.250000 0.480936
O O11 0.240361 0.490714 0.515214
O O12 0.124242 0.250000 0.302148
O O13 0.967023 0.442095 0.386594
O O14 0.499141 0.750000 0.821772
O O15 0.389456 0.499294 0.866086
O O16 0.283063 0.750000 0.034260
O O17 0.451522 0.930846 0.065412
O O18 0.287922 0.019570 0.999330
O O19 0.350277 0.250000 0.925877
O O20 0.116122 0.750000 0.515351
O O21 0.000000 0.000000 0.500000
#
# Coordination Sequence:
#
# PCOD8077618 Si02
#       8
#     4   4   4   4   4   4   4   4
#     4   9  16  24  35  55  79 105 143 187 227 268
#     4   8  15  29  46  63  87 118 151 191 235 285
#     4  11  22  38  54  74 101 130 165 205 250 302
#     4   9  17  30  46  65  90 119 152 190 237 287
#     4   9  15  24  37  52  74 107 142 181 230 275
#     4   8  14  22  30  43  69 104 139 176 219 268
#     4   9  15  21  30  47  69  98 140 184 219 262
#     4  11  21  35  54  77 100 129 164 204 249 295
#
# _framework density 16.967105
#
# number of rings (size 3 to 8) (size 9 to 14) (size 15 to 20)
#    0.000    2.750    1.250    3.375    0.000    4.500 
#    0.000    1.875    0.000    0.000    0.000    0.000 
#    0.000    0.000    0.000    1.125    0.000   13.750 
#
# Total GULP energy -396440.820505 kJ/mol
# GULP energy per Si atom -12388.775641 kJ/mol
# Density = 1.692849 g / cm^3
# Si number density = 16.967105 Si / 1000 Ang^3
#
#
#
# Elastic Constant Matrix: (Units=GPa)
#
#
# Indices 1 2 3 4 5 6 
#
# 1 50.2289 27.7729 34.9404 0.0000 1.0103 0.0000
# 2 27.7729 108.4031 78.9532 0.0000 3.2372 0.0000
# 3 34.9404 78.9532 171.4285 0.0000 8.5355 0.0000
# 4 0.0000 0.0000 0.0000 34.7719 0.0000 -0.6495
# 5 1.0103 3.2372 8.5355 0.0000 8.2546 0.0000
# 6 0.0000 0.0000 0.0000 -0.6495 0.0000 15.0316
#
#
#
# Elastic Compliance Matrix: (Units=1/GPa)
#
#
# Indices 1 2 3 4 5 6 
#
# 1 0.024293 -0.003920 -0.003241 0.000000 0.001916 0.000000
# 2 -0.003920 0.014526 -0.005937 0.000000 0.000922 0.000000
# 3 -0.003241 -0.005937 0.009586 0.000000 -0.007187 0.000000
# 4 0.000000 0.000000 0.000000 0.028782 0.000000 0.001244
# 5 0.001916 0.000922 -0.007187 0.000000 0.127980 0.000000
# 6 0.000000 0.000000 0.000000 0.001244 0.000000 0.066580
#
#
# Mechanical properties :
#
#
# Convention : Reuss Voigt Hill
#
# Bulk Modulus (GPa) = 45.02939 68.15483 56.59211
# Shear Modulus (GPa) = 16.37489 24.17123 20.27306
#
# Velocity S-wave (km/s) = 3.10997 3.77847 3.46040
# Velocity P-wave (km/s) = 6.28432 7.70012 7.02796
#
# Compressibility (1/GPa) = 0.02220772
#
# Stress axis : x y z
#
# Youngs Moduli (GPa) = 41.16480 68.84381 104.31829
#
# Poissons Ratio (x) = 0.26989 0.33811
# Poissons Ratio (y) = 0.16138 0.61932
# Poissons Ratio (z) = 0.13342 0.40871
#
# Static dielectric constant tensor:
#      x y z
#    x 2.432210 0.000000 0.104480 
#    y 0.000000 3.263430 0.000000 
#    z 0.104480 0.000000 3.941560 
# 
# 
# High freq. dielectric constant tensor:
#      x y z
#    x 1.559940 0.000000 0.003680 
#    y 0.000000 1.659470 0.000000 
#    z 0.003680 0.000000 1.686270 
# 
# From -- ./inp_files/68247.got.cif
#   From: 2010.06.25/outbox.cif.g09.slc.cpg/sg11_35_cif.got.tgz:68247.got - 2010.06.27 23:14:04.
