data_PCOD8077264
_publ_section_title
;
Structure prediction by ZEFSAII (Michael W. Deem and Ramdas Pophale) SiO2 
 PCOD8077264
Probable space group: P 21/M
;
_chemical_formula_sum "Si O2"
_cell_formula_units_Z 28
_cell_length_a 15.943378
_cell_length_b 8.842624
_cell_length_c 11.189886
_cell_angle_alpha 90.000000
_cell_angle_beta 118.993065
_cell_angle_gamma 90.000000
_cell_volume 1379.861687
_symmetry_space_group_name_H-M "P 21/M"
_symmetry_group_IT_number 11
_symmetry_cell_setting 'monoclinic'
loop_
_space_group_symop_operation_xyz
x,y,z
-x,1/2+y,-z
-x,-y,-z
x,1/2-y,z
loop_
_atom_site_type_symbol
_atom_site_label
_atom_site_fract_x
_atom_site_fract_y
_atom_site_fract_z
Si Si1 0.187457 0.926129 0.126385
Si Si2 0.635235 0.928566 0.867096
Si Si3 0.078881 0.576791 0.815774
Si Si4 0.719348 0.074220 0.154456
Si Si5 0.523856 0.574830 0.391235
Si Si6 0.280549 0.424310 0.597556
Si Si7 0.116932 0.573463 0.338351
O O1 0.215725 0.750000 0.139678
O O2 0.144638 0.974360 0.223431
O O3 0.282922 0.021776 0.169658
O O4 0.108270 0.963999 0.971676
O O5 0.627713 0.750000 0.862396
O O6 0.534746 0.996992 0.755574
O O7 0.655925 0.985978 0.014367
O O8 0.044756 0.750000 0.783494
O O9 0.168072 0.544902 0.790254
O O10 0.993294 0.468945 0.714817
O O11 0.694607 0.250000 0.124620
O O12 0.691362 0.016478 0.265211
O O13 0.500000 0.500000 0.500000
O O14 0.495864 0.750000 0.378163
O O15 0.636222 0.551662 0.442384
O O16 0.268447 0.250000 0.624373
O O17 0.181386 0.483830 0.476110
O O18 0.131895 0.750000 0.371070
#
# Coordination Sequence:
#
# PCOD8077264 Si02
#       7
#     4   4   4   4   4   4   4
#     4   9  19  36  57  85 120 155 195 241 288 342
#     4  11  22  37  62  91 119 155 193 235 290 346
#     4   9  19  36  58  84 115 151 192 241 292 343
#     4  10  22  42  64  86 115 152 195 242 289 339
#     4  11  24  42  64  91 121 153 191 236 288 344
#     4  11  25  42  60  84 115 152 195 242 288 342
#     4  11  22  35  56  85 117 156 196 239 293 345
#
# _framework density 20.291889000000001
#
# number of rings (size 3 to 8) (size 9 to 14) (size 15 to 20)
#    0.000    1.714    0.000    5.143    0.000    9.714 
#    0.000    0.000    0.000    0.000    0.000    0.000 
#    0.000    0.000    0.000    0.000    0.000    0.000 
#
# Total GULP energy -347381.276819 kJ/mol
# GULP energy per Si atom -12406.474172 kJ/mol
# Density = 2.024570 g / cm^3
# Si number density = 20.291889 Si / 1000 Ang^3
#
#
#
# Elastic Constant Matrix: (Units=GPa)
#
#
# Indices 1 2 3 4 5 6 
#
# 1 52.1196 37.9013 37.1624 0.0000 -2.7271 0.0000
# 2 37.9013 113.2286 43.6142 0.0000 3.4932 0.0000
# 3 37.1624 43.6142 96.1279 0.0000 5.8144 0.0000
# 4 0.0000 0.0000 0.0000 38.2424 0.0000 0.2934
# 5 -2.7271 3.4932 5.8144 0.0000 36.4759 0.0000
# 6 0.0000 0.0000 0.0000 0.2934 0.0000 31.7483
#
#
#
# Elastic Compliance Matrix: (Units=1/GPa)
#
#
# Indices 1 2 3 4 5 6 
#
# 1 0.030983 -0.007017 -0.009062 0.000000 0.004433 0.000000
# 2 -0.007017 0.012294 -0.002789 0.000000 -0.001257 0.000000
# 3 -0.009062 -0.002789 0.015344 0.000000 -0.002856 0.000000
# 4 0.000000 0.000000 0.000000 0.026151 0.000000 -0.000242
# 5 0.004433 -0.001257 -0.002856 0.000000 0.028323 0.000000
# 6 0.000000 0.000000 0.000000 -0.000242 0.000000 0.031500
#
#
# Mechanical properties :
#
#
# Convention : Reuss Voigt Hill
#
# Bulk Modulus (GPa) = 47.88258 55.42577 51.65418
# Shear Modulus (GPa) = 26.41420 30.81320 28.61370
#
# Velocity S-wave (km/s) = 3.61184 3.90102 3.75921
# Velocity P-wave (km/s) = 6.40640 6.90392 6.65981
#
# Compressibility (1/GPa) = 0.02088442
#
# Stress axis : x y z
#
# Youngs Moduli (GPa) = 32.27583 81.34332 65.17073
#
# Poissons Ratio (x) = 0.57079 0.59059
# Poissons Ratio (y) = 0.22648 0.18175
# Poissons Ratio (z) = 0.29249 0.22686
#
# Static dielectric constant tensor:
#      x y z
#    x 3.561440 0.000000 -0.076690 
#    y 0.000000 3.681660 0.000000 
#    z -0.076690 0.000000 3.561800 
# 
# 
# High freq. dielectric constant tensor:
#      x y z
#    x 1.789800 0.000000 0.001560 
#    y 0.000000 1.799570 0.000000 
#    z 0.001560 0.000000 1.798850 
# 
# From -- ./inp_files/38461.got.cif
#   From: 2010.06.25/outbox.cif.g09.slc.cpg/sg11_20_cif.got.tgz:38461.got - 2010.06.27 23:14:04.
