data_PCOD8077448
_publ_section_title
;
Structure prediction by ZEFSAII (Michael W. Deem and Ramdas Pophale) SiO2 
 PCOD8077448
Probable space group: P 21/M
;
_chemical_formula_sum "Si O2"
_cell_formula_units_Z 26
_cell_length_a 8.829110
_cell_length_b 18.712841
_cell_length_c 11.912606
_cell_angle_alpha 90.000000
_cell_angle_beta 39.209263
_cell_angle_gamma 90.000000
_cell_volume 1244.190044
_symmetry_space_group_name_H-M "P 21/M"
_symmetry_group_IT_number 11
_symmetry_cell_setting 'monoclinic'
loop_
_space_group_symop_operation_xyz
x,y,z
-x,1/2+y,-z
-x,-y,-z
x,1/2-y,z
loop_
_atom_site_type_symbol
_atom_site_label
_atom_site_fract_x
_atom_site_fract_y
_atom_site_fract_z
Si Si1 0.965940 0.750000 0.790940
Si Si2 0.902436 0.520772 0.435549
Si Si3 0.642948 0.464730 0.202754
Si Si4 0.682139 0.882982 0.265660
Si Si5 0.222138 0.601830 0.655300
Si Si6 0.448507 0.750000 0.023177
Si Si7 0.842333 0.115104 0.885003
Si Si8 0.409554 0.250000 0.820837
O O1 0.126426 0.680363 0.682403
O O2 0.737751 0.750000 0.835957
O O3 0.863598 0.750000 0.976482
O O4 0.633786 0.548409 0.608384
O O5 0.918627 0.453450 0.342649
O O6 0.000000 0.500000 0.500000
O O7 0.070708 0.581217 0.282646
O O8 0.719495 0.547754 0.166014
O O9 0.805282 0.419564 0.198153
O O10 0.697593 0.441292 0.044408
O O11 0.504889 0.904283 0.467939
O O12 0.549453 0.821038 0.273614
O O13 0.929009 0.856171 0.177377
O O14 0.334698 0.680236 0.034586
O O15 0.401032 0.750000 0.185006
#
# Coordination Sequence:
#
# PCOD8077448 Si02
#       8
#     2   4   4   4   4   2   4   2
#     4  10  25  42  65  94 138 182 227 277 343 412
#     4  11  26  42  68 107 142 178 227 281 348 413
#     4  11  24  43  73 107 133 177 236 285 336 404
#     4  11  21  43  71 104 130 180 233 286 336 397
#     4  11  22  46  70 100 137 176 236 287 331 410
#     4  10  29  44  60 103 142 178 232 274 348 433
#     4  12  24  45  71  99 142 180 224 287 341 403
#     4  10  24  40  63  93 138 178 229 265 345 413
#
# _framework density 20.897127999999999
#
# number of rings (size 3 to 8) (size 9 to 14) (size 15 to 20)
#    0.462    0.615    3.077    3.231    8.615    1.231 
#    0.000    0.769    0.000    0.000    0.000    0.000 
#    0.000    0.000    0.000    0.000    0.000    0.000 
#
# Total GULP energy -322384.556272 kJ/mol
# GULP energy per Si atom -12399.406010 kJ/mol
# Density = 2.084957 g / cm^3
# Si number density = 20.897128 Si / 1000 Ang^3
#
#
#
# Elastic Constant Matrix: (Units=GPa)
#
#
# Indices 1 2 3 4 5 6 
#
# 1 127.7257 59.0890 35.1117 0.0000 8.7425 0.0000
# 2 59.0890 128.9359 27.0121 0.0000 -3.7812 0.0000
# 3 35.1117 27.0121 82.8354 0.0000 7.6102 0.0000
# 4 0.0000 0.0000 0.0000 31.1584 0.0000 0.9950
# 5 8.7425 -3.7812 7.6102 0.0000 33.7119 0.0000
# 6 0.0000 0.0000 0.0000 0.9950 0.0000 34.1801
#
#
#
# Elastic Compliance Matrix: (Units=1/GPa)
#
#
# Indices 1 2 3 4 5 6 
#
# 1 0.010870 -0.004450 -0.002912 0.000000 -0.002661 0.000000
# 2 -0.004450 0.010229 -0.001696 0.000000 0.002684 0.000000
# 3 -0.002912 -0.001696 0.014100 0.000000 -0.002618 0.000000
# 4 0.000000 0.000000 0.000000 0.032124 0.000000 -0.000935
# 5 -0.002661 0.002684 -0.002618 0.000000 0.031245 0.000000
# 6 0.000000 0.000000 0.000000 -0.000935 0.000000 0.029284
#
#
# Mechanical properties :
#
#
# Convention : Reuss Voigt Hill
#
# Bulk Modulus (GPa) = 58.53560 64.65806 61.59683
# Shear Modulus (GPa) = 32.96774 34.36238 33.66506
#
# Velocity S-wave (km/s) = 3.97624 4.05947 4.01807
# Velocity P-wave (km/s) = 7.01090 7.27878 7.14610
#
# Compressibility (1/GPa) = 0.01708362
#
# Stress axis : x y z
#
# Youngs Moduli (GPa) = 91.99216 97.76094 70.92103
#
# Poissons Ratio (x) = 0.43500 0.20654
# Poissons Ratio (y) = 0.40933 0.12029
# Poissons Ratio (z) = 0.26791 0.16581
#
# Static dielectric constant tensor:
#      x y z
#    x 3.717820 0.000000 0.009140 
#    y 0.000000 3.615610 0.000000 
#    z 0.009140 0.000000 3.770910 
# 
# 
# High freq. dielectric constant tensor:
#      x y z
#    x 1.814950 0.000000 0.000320 
#    y 0.000000 1.816320 0.000000 
#    z 0.000320 0.000000 1.825970 
# 
# From -- ./inp_files/32789.got.cif
#   From: 2010.06.25/outbox.cif.g09.slc.cpg/sg11_17_cif.got.tgz:32789.got - 2010.06.27 23:14:04.
