data_PCOD8077070
_publ_section_title
;
Structure prediction by ZEFSAII (Michael W. Deem and Ramdas Pophale) SiO2 
 PCOD8077070
Probable space group: P 21/M
;
_chemical_formula_sum "Si O2"
_cell_formula_units_Z 28
_cell_length_a 11.714816
_cell_length_b 8.788425
_cell_length_c 15.692085
_cell_angle_alpha 90.000000
_cell_angle_beta 56.395150
_cell_angle_gamma 90.000000
_cell_volume 1345.571205
_symmetry_space_group_name_H-M "P 21/M"
_symmetry_group_IT_number 11
_symmetry_cell_setting 'monoclinic'
loop_
_space_group_symop_operation_xyz
x,y,z
-x,1/2+y,-z
-x,-y,-z
x,1/2-y,z
loop_
_atom_site_type_symbol
_atom_site_label
_atom_site_fract_x
_atom_site_fract_y
_atom_site_fract_z
Si Si1 0.913598 0.922850 0.109125
Si Si2 0.895547 0.928336 0.305753
Si Si3 0.823867 0.075007 0.727518
Si Si4 0.356386 0.928330 0.036022
Si Si5 0.370046 0.929255 0.507736
Si Si6 0.634249 0.575028 0.139694
Si Si7 0.633474 0.571431 0.675436
O O1 0.960040 0.750000 0.084765
O O2 0.944340 0.984237 0.191598
O O3 0.750389 0.941742 0.163183
O O4 0.000000 0.000000 0.000000
O O5 0.855989 0.750000 0.318783
O O6 0.015397 0.957765 0.324880
O O7 0.765688 0.026152 0.385643
O O8 0.797506 0.250000 0.713412
O O9 0.749704 0.034568 0.846071
O O10 0.767900 0.969816 0.674909
O O11 0.372227 0.750000 0.013094
O O12 0.500000 0.000000 0.000000
O O13 0.301066 0.009297 0.973846
O O14 0.387897 0.750000 0.500310
O O15 0.500000 0.000000 0.500000
O O16 0.359222 0.985688 0.416229
O O17 0.588966 0.750000 0.146057
O O18 0.501597 0.477685 0.218089
O O19 0.630885 0.750000 0.659385
#
# Coordination Sequence:
#
# PCOD8077070 Si02
#       7
#     4   4   4   4   4   4   4
#     4  10  22  39  62  91 125 165 207 257 309 371
#     4  10  22  43  67  93 127 170 214 260 315 373
#     4  10  22  40  63  91 129 171 214 264 318 376
#     4  11  21  35  58  89 126 170 214 259 312 372
#     4  12  26  46  71  97 126 161 206 261 318 380
#     4  11  22  37  59  90 128 167 211 264 320 376
#     4  12  25  41  65  94 124 163 212 264 317 377
#
# _framework density 20.809006
#
# number of rings (size 3 to 8) (size 9 to 14) (size 15 to 20)
#    0.000    1.143    1.429    5.143    0.000    5.714 
#    0.000    0.000    0.000    0.000    0.000    0.000 
#    0.000    0.000    0.000    0.000    0.000    0.000 
#
# Total GULP energy -347319.704631 kJ/mol
# GULP energy per Si atom -12404.275165 kJ/mol
# Density = 2.076164 g / cm^3
# Si number density = 20.809006 Si / 1000 Ang^3
#
#
#
# Elastic Constant Matrix: (Units=GPa)
#
#
# Indices 1 2 3 4 5 6 
#
# 1 116.9414 57.6244 54.6440 0.0000 6.4442 0.0000
# 2 57.6244 127.6345 56.6902 0.0000 2.0575 0.0000
# 3 54.6440 56.6902 113.5683 0.0000 8.6824 0.0000
# 4 0.0000 0.0000 0.0000 37.3305 0.0000 2.3131
# 5 6.4442 2.0575 8.6824 0.0000 36.3846 0.0000
# 6 0.0000 0.0000 0.0000 2.3131 0.0000 32.6191
#
#
#
# Elastic Compliance Matrix: (Units=1/GPa)
#
#
# Indices 1 2 3 4 5 6 
#
# 1 0.012326 -0.003789 -0.003961 0.000000 -0.001024 0.000000
# 2 -0.003789 0.011246 -0.003864 0.000000 0.000957 0.000000
# 3 -0.003961 -0.003864 0.012803 0.000000 -0.002135 0.000000
# 4 0.000000 0.000000 0.000000 0.026906 0.000000 -0.001908
# 5 -0.001024 0.000957 -0.002135 0.000000 0.028121 0.000000
# 6 0.000000 0.000000 0.000000 -0.001908 0.000000 0.030792
#
#
# Mechanical properties :
#
#
# Convention : Reuss Voigt Hill
#
# Bulk Modulus (GPa) = 76.06106 77.34017 76.70061
# Shear Modulus (GPa) = 33.37693 33.87922 33.62807
#
# Velocity S-wave (km/s) = 4.00930 4.03935 4.02435
# Velocity P-wave (km/s) = 7.61997 7.68131 7.65070
#
# Compressibility (1/GPa) = 0.01314733
#
# Stress axis : x y z
#
# Youngs Moduli (GPa) = 81.13179 88.91823 78.10612
#
# Poissons Ratio (x) = 0.33691 0.30937
# Poissons Ratio (y) = 0.30741 0.30180
# Poissons Ratio (z) = 0.32136 0.34357
#
# Static dielectric constant tensor:
#      x y z
#    x 3.963750 0.000000 0.193870 
#    y 0.000000 3.928480 0.000000 
#    z 0.193870 0.000000 3.489600 
# 
# 
# High freq. dielectric constant tensor:
#      x y z
#    x 1.831250 0.000000 0.006820 
#    y 0.000000 1.813480 0.000000 
#    z 0.006820 0.000000 1.817710 
# 
# From -- ./inp_files/49173.got.cif
#   From: 2010.06.25/outbox.cif.g09.slc.cpg/sg11_25_cif.got.tgz:49173.got - 2010.06.27 23:14:04.
