data_PCOD8077868
_publ_section_title
;
Structure prediction by ZEFSAII (Michael W. Deem and Ramdas Pophale) SiO2 
 PCOD8077868
Probable space group: P 21/M
;
_chemical_formula_sum "Si O2"
_cell_formula_units_Z 20
_cell_length_a 5.060245
_cell_length_b 8.540799
_cell_length_c 22.245156
_cell_angle_alpha 90.000000
_cell_angle_beta 96.464459
_cell_angle_gamma 90.000000
_cell_volume 955.290352
_symmetry_space_group_name_H-M "P 21/M"
_symmetry_group_IT_number 11
_symmetry_cell_setting 'monoclinic'
loop_
_space_group_symop_operation_xyz
x,y,z
-x,1/2+y,-z
-x,-y,-z
x,1/2-y,z
loop_
_atom_site_type_symbol
_atom_site_label
_atom_site_fract_x
_atom_site_fract_y
_atom_site_fract_z
Si Si1 0.110722 0.431112 0.768112
Si Si2 0.028865 0.432464 0.628007
Si Si3 0.733216 0.565366 0.966244
Si Si4 0.498620 0.933804 0.566498
Si Si5 0.639971 0.932741 0.828281
O O1 0.173985 0.250000 0.781193
O O2 0.332205 0.535325 0.806264
O O3 0.111497 0.470719 0.697909
O O4 0.822572 0.471197 0.787225
O O5 0.061006 0.250000 0.613827
O O6 0.724231 0.482006 0.611444
O O7 0.213326 0.531859 0.588406
O O8 0.731597 0.750000 0.969496
O O9 0.700570 0.508450 0.897027
O O10 0.500000 0.500000 0.000000
O O11 0.000000 0.500000 0.000000
O O12 0.551630 0.750000 0.566529
O O13 0.500000 0.000000 0.500000
O O14 0.700330 0.750000 0.822478
#
# Coordination Sequence:
#
# PCOD8077868 Si02
#       5
#     4   4   4   4   4
#     4  11  24  41  64  92 123 161 204 249 302 360
#     4  11  24  43  64  91 126 161 202 253 302 357
#     4  11  24  41  62  90 122 160 203 252 305 360
#     4  12  25  42  65  93 124 162 205 250 303 361
#     4  11  24  41  62  90 125 160 201 252 305 360
#
# _framework density 20.936046000000001
#
# number of rings (size 3 to 8) (size 9 to 14) (size 15 to 20)
#    0.000    0.800    0.000    7.200    0.000   16.000 
#    0.000    0.000    0.000    0.000    0.000    0.000 
#    0.000    0.000    0.000    0.000    0.000    0.000 
#
# Total GULP energy -248185.542069 kJ/mol
# GULP energy per Si atom -12409.277103 kJ/mol
# Density = 2.088839 g / cm^3
# Si number density = 20.936046 Si / 1000 Ang^3
#
#
#
# Elastic Constant Matrix: (Units=GPa)
#
#
# Indices 1 2 3 4 5 6 
#
# 1 108.8691 21.8855 27.3262 0.0000 -0.2565 0.0000
# 2 21.8855 74.1818 68.5412 0.0000 -0.2617 0.0000
# 3 27.3262 68.5412 108.0414 0.0000 -0.8125 0.0000
# 4 0.0000 0.0000 0.0000 31.3527 0.0000 0.1780
# 5 -0.2565 -0.2617 -0.8125 0.0000 48.1860 0.0000
# 6 0.0000 0.0000 0.0000 0.1780 0.0000 44.3096
#
#
#
# Elastic Compliance Matrix: (Units=1/GPa)
#
#
# Indices 1 2 3 4 5 6 
#
# 1 0.009873 -0.001463 -0.001569 0.000000 0.000018 0.000000
# 2 -0.001463 0.032792 -0.020434 0.000000 -0.000174 0.000000
# 3 -0.001569 -0.020434 0.022618 0.000000 0.000262 0.000000
# 4 0.000000 0.000000 0.000000 0.031896 0.000000 -0.000128
# 5 0.000018 -0.000174 0.000262 0.000000 0.020757 0.000000
# 6 0.000000 0.000000 0.000000 -0.000128 0.000000 0.022569
#
#
# Mechanical properties :
#
#
# Convention : Reuss Voigt Hill
#
# Bulk Modulus (GPa) = 54.49470 58.51089 56.50280
# Shear Modulus (GPa) = 25.83252 36.32563 31.07907
#
# Velocity S-wave (km/s) = 3.51647 4.16994 3.85707
# Velocity P-wave (km/s) = 6.52480 7.15491 6.84711
#
# Compressibility (1/GPa) = 0.01835041
#
# Stress axis : x y z
#
# Youngs Moduli (GPa) = 101.28324 30.49514 44.21268
#
# Poissons Ratio (x) = 0.04463 0.06935
# Poissons Ratio (y) = 0.14822 0.90346
# Poissons Ratio (z) = 0.15888 0.62315
#
# Static dielectric constant tensor:
#      x y z
#    x 3.784410 0.000000 0.012390 
#    y 0.000000 3.854790 0.000000 
#    z 0.012390 0.000000 4.011650 
# 
# 
# High freq. dielectric constant tensor:
#      x y z
#    x 1.836270 0.000000 0.000550 
#    y 0.000000 1.831930 0.000000 
#    z 0.000550 0.000000 1.837700 
# 
# From -- ./inp_files/62474.got.cif
#   From: 2010.06.25/outbox.cif.g09.slc.cpg/sg11_32_cif.got.tgz:62474.got - 2010.06.27 23:14:04.
