data_PCOD8077114
_publ_section_title
;
Structure prediction by ZEFSAII (Michael W. Deem and Ramdas Pophale) SiO2 
 PCOD8077114
Probable space group: P 21/M
;
_chemical_formula_sum "Si O2"
_cell_formula_units_Z 28
_cell_length_a 12.294773
_cell_length_b 15.226534
_cell_length_c 8.984339
_cell_angle_alpha 90.000000
_cell_angle_beta 121.612222
_cell_angle_gamma 90.000000
_cell_volume 1432.356345
_symmetry_space_group_name_H-M "P 21/M"
_symmetry_group_IT_number 11
_symmetry_cell_setting 'monoclinic'
loop_
_space_group_symop_operation_xyz
x,y,z
-x,1/2+y,-z
-x,-y,-z
x,1/2-y,z
loop_
_atom_site_type_symbol
_atom_site_label
_atom_site_fract_x
_atom_site_fract_y
_atom_site_fract_z
Si Si1 0.623336 0.012542 0.902594
Si Si2 0.862682 0.456650 0.900272
Si Si3 0.201626 0.458599 0.430730
Si Si4 0.051197 0.651712 0.792452
Si Si5 0.472757 0.652290 0.699013
Si Si6 0.739270 0.079468 0.271531
Si Si7 0.462445 0.146467 0.591298
O O1 0.763297 0.992662 0.935713
O O2 0.550614 0.092317 0.767764
O O3 0.553357 0.919988 0.843665
O O4 0.635559 0.039879 0.082999
O O5 0.802889 0.459851 0.691529
O O6 0.883108 0.362408 0.996710
O O7 0.000000 0.500000 0.000000
O O8 0.203653 0.497076 0.597397
O O9 0.321221 0.394847 0.486652
O O10 0.073096 0.405611 0.318592
O O11 0.004732 0.750000 0.747189
O O12 0.150670 0.632087 0.732791
O O13 0.526412 0.750000 0.770462
O O14 0.329240 0.644267 0.659855
O O15 0.473661 0.633797 0.523987
O O16 0.456760 0.250000 0.631863
#
# Coordination Sequence:
#
# PCOD8077114 Si02
#       7
#     4   4   4   4   4   4   4
#     4  11  21  40  58  87 127 158 199 246 305 362
#     4   9  20  37  64  85 114 156 198 246 304 357
#     4  11  20  40  63  88 119 158 205 247 304 358
#     4  10  22  40  61  89 120 156 204 253 299 360
#     4  11  22  37  58  88 119 158 201 249 298 352
#     4  11  23  38  61  86 122 165 200 241 301 366
#     4  11  23  37  63  92 118 157 206 254 304 357
#
# _framework density 19.548206
#
# number of rings (size 3 to 8) (size 9 to 14) (size 15 to 20)
#    0.000    1.429    2.857    3.000    0.000    2.857 
#    0.000    2.143    0.000    0.000    0.000    0.000 
#    0.000    0.000    0.000    0.000    0.000    0.000 
#
# Total GULP energy -346986.417036 kJ/mol
# GULP energy per Si atom -12392.372037 kJ/mol
# Density = 1.950371 g / cm^3
# Si number density = 19.548206 Si / 1000 Ang^3
#
#
#
# Elastic Constant Matrix: (Units=GPa)
#
#
# Indices 1 2 3 4 5 6 
#
# 1 68.3060 15.4517 21.0793 0.0000 7.4559 0.0000
# 2 15.4517 95.0175 48.3940 0.0000 -1.0848 0.0000
# 3 21.0793 48.3940 115.4325 0.0000 -7.3699 0.0000
# 4 0.0000 0.0000 0.0000 9.8252 0.0000 -1.1897
# 5 7.4559 -1.0848 -7.3699 0.0000 28.5714 0.0000
# 6 0.0000 0.0000 0.0000 -1.1897 0.0000 19.9725
#
#
#
# Elastic Compliance Matrix: (Units=1/GPa)
#
#
# Indices 1 2 3 4 5 6 
#
# 1 0.016335 -0.001311 -0.002754 0.000000 -0.005023 0.000000
# 2 -0.001311 0.013513 -0.005461 0.000000 -0.000553 0.000000
# 3 -0.002754 -0.005461 0.011680 0.000000 0.003524 0.000000
# 4 0.000000 0.000000 0.000000 0.102518 0.000000 0.006106
# 5 -0.005023 -0.000553 0.003524 0.000000 0.037199 0.000000
# 6 0.000000 0.000000 0.000000 0.006106 0.000000 0.050433
#
#
# Mechanical properties :
#
#
# Convention : Reuss Voigt Hill
#
# Bulk Modulus (GPa) = 44.49220 49.84511 47.16865
# Shear Modulus (GPa) = 19.36324 24.59589 21.97956
#
# Velocity S-wave (km/s) = 3.15070 3.55098 3.35681
# Velocity P-wave (km/s) = 6.00379 6.50896 6.26147
#
# Compressibility (1/GPa) = 0.02247585
#
# Stress axis : x y z
#
# Youngs Moduli (GPa) = 61.21935 74.00485 85.61323
#
# Poissons Ratio (x) = 0.09702 0.23577
# Poissons Ratio (y) = 0.08026 0.46753
# Poissons Ratio (z) = 0.16859 0.40414
#
# Static dielectric constant tensor:
#      x y z
#    x 3.818100 0.000000 -0.075420 
#    y 0.000000 3.546050 0.000000 
#    z -0.075420 0.000000 3.760400 
# 
# 
# High freq. dielectric constant tensor:
#      x y z
#    x 1.784460 0.000000 -0.001790 
#    y 0.000000 1.746130 0.000000 
#    z -0.001790 0.000000 1.764530 
# 
# From -- ./inp_files/17945.got.cif
#   From: 2010.06.25/outbox.cif.g09.slc.cpg/sg11_9_cif.got.tgz:17945.got - 2010.06.27 23:14:04.
