data_PCOD8077670
_publ_section_title
;
Structure prediction by ZEFSAII (Michael W. Deem and Ramdas Pophale) SiO2 
 PCOD8077670
Probable space group: P 21/M
;
_chemical_formula_sum "Si O2"
_cell_formula_units_Z 32
_cell_length_a 11.352120
_cell_length_b 17.918593
_cell_length_c 14.083973
_cell_angle_alpha 90.000000
_cell_angle_beta 29.944895
_cell_angle_gamma 90.000000
_cell_volume 1430.051916
_symmetry_space_group_name_H-M "P 21/M"
_symmetry_group_IT_number 11
_symmetry_cell_setting 'monoclinic'
loop_
_space_group_symop_operation_xyz
x,y,z
-x,1/2+y,-z
-x,-y,-z
x,1/2-y,z
loop_
_atom_site_type_symbol
_atom_site_label
_atom_site_fract_x
_atom_site_fract_y
_atom_site_fract_z
Si Si1 0.780104 0.163987 0.894826
Si Si2 0.940887 0.932300 0.431821
Si Si3 0.914533 0.100237 0.467639
Si Si4 0.533521 0.837801 0.323229
Si Si5 0.369961 0.577611 0.610340
Si Si6 0.823404 0.576555 0.989190
Si Si7 0.399026 0.581069 0.808877
Si Si8 0.661383 0.665238 0.926771
O O1 0.850679 0.250000 0.837831
O O2 0.999464 0.114746 0.704186
O O3 0.725606 0.145392 0.042366
O O4 0.556619 0.142372 0.986740
O O5 0.096709 0.900572 0.410060
O O6 0.669297 0.924940 0.651152
O O7 0.996616 0.018894 0.372304
O O8 0.101628 0.160959 0.301318
O O9 0.658870 0.121083 0.607764
O O10 0.520796 0.750000 0.320371
O O11 0.497499 0.859209 0.458265
O O12 0.782629 0.869744 0.109691
O O13 0.500000 0.500000 0.500000
O O14 0.385740 0.602421 0.707975
O O15 0.097414 0.573132 0.769605
O O16 0.735790 0.495134 0.077151
O O17 0.674120 0.609272 0.006071
O O18 0.635834 0.750000 0.982182
#
# Coordination Sequence:
#
# PCOD8077670 Si02
#       8
#     4   4   4   4   4   4   4   4
#     4  11  27  45  67 102 144 189 233 287 355 426
#     4  11  24  42  70 102 139 185 229 283 350 424
#     4  11  21  41  68 106 141 178 230 285 349 428
#     4  12  26  45  73 110 144 182 234 298 359 413
#     4  12  27  48  74 102 136 184 239 294 354 414
#     4  12  25  44  75 104 136 183 235 294 354 419
#     4  12  26  45  71  97 137 183 237 287 341 426
#     4  11  23  41  67 104 147 182 223 287 359 419
#
# _framework density 22.376811
#
# number of rings (size 3 to 8) (size 9 to 14) (size 15 to 20)
#    0.000    0.500    5.000    2.625    3.500    4.500 
#    0.000    1.250    0.000    0.000    0.000    0.000 
#    0.000    0.000    0.000    0.000    0.000    0.000 
#
# Total GULP energy -396987.963291 kJ/mol
# GULP energy per Si atom -12405.873853 kJ/mol
# Density = 2.232588 g / cm^3
# Si number density = 22.376811 Si / 1000 Ang^3
#
#
#
# Elastic Constant Matrix: (Units=GPa)
#
#
# Indices 1 2 3 4 5 6 
#
# 1 85.9838 40.4464 16.0416 0.0000 23.2733 0.0000
# 2 40.4464 94.5505 31.7407 0.0000 17.7195 0.0000
# 3 16.0416 31.7407 99.3991 0.0000 23.3010 0.0000
# 4 0.0000 0.0000 0.0000 23.0857 0.0000 6.0653
# 5 23.2733 17.7195 23.3010 0.0000 29.8739 0.0000
# 6 0.0000 0.0000 0.0000 6.0653 0.0000 29.4028
#
#
#
# Elastic Compliance Matrix: (Units=1/GPa)
#
#
# Indices 1 2 3 4 5 6 
#
# 1 0.017058 -0.005774 0.001717 0.000000 -0.011204 0.000000
# 2 -0.005774 0.014441 -0.003336 0.000000 -0.001465 0.000000
# 3 0.001717 -0.003336 0.013092 0.000000 -0.009571 0.000000
# 4 0.000000 0.000000 0.000000 0.045799 0.000000 -0.009448
# 5 -0.011204 -0.001465 -0.009571 0.000000 0.050537 0.000000
# 6 0.000000 0.000000 0.000000 -0.009448 0.000000 0.035959
#
#
# Mechanical properties :
#
#
# Convention : Reuss Voigt Hill
#
# Bulk Modulus (GPa) = 33.55045 50.71008 42.13027
# Shear Modulus (GPa) = 24.80075 29.25278 27.02677
#
# Velocity S-wave (km/s) = 3.33276 3.61956 3.47912
# Velocity P-wave (km/s) = 5.46221 6.33872 5.91671
#
# Compressibility (1/GPa) = 0.02980586
#
# Stress axis : x y z
#
# Youngs Moduli (GPa) = 58.62236 69.24819 76.38182
#
# Poissons Ratio (x) = 0.39983 -0.13116
# Poissons Ratio (y) = 0.33848 0.25481
# Poissons Ratio (z) = -0.10067 0.23101
#
# Static dielectric constant tensor:
#      x y z
#    x 4.080590 0.000000 0.170470 
#    y 0.000000 3.864890 0.000000 
#    z 0.170470 0.000000 4.278130 
# 
# 
# High freq. dielectric constant tensor:
#      x y z
#    x 1.879820 0.000000 0.011490 
#    y 0.000000 1.874040 0.000000 
#    z 0.011490 0.000000 1.897530 
# 
# From -- ./inp_files/50675.got.cif
#   From: 2010.06.25/outbox.cif.g09.slc.cpg/sg11_26_cif.got.tgz:50675.got - 2010.06.27 23:14:04.
