data_PCOD8077947
_publ_section_title
;
Structure prediction by ZEFSAII (Michael W. Deem and Ramdas Pophale) SiO2 
 PCOD8077947
Probable space group: P 21/M
;
_chemical_formula_sum "Si O2"
_cell_formula_units_Z 32
_cell_length_a 9.669616
_cell_length_b 9.141336
_cell_length_c 23.139378
_cell_angle_alpha 90.000000
_cell_angle_beta 114.888222
_cell_angle_gamma 90.000000
_cell_volume 1855.412045
_symmetry_space_group_name_H-M "P 21/M"
_symmetry_group_IT_number 11
_symmetry_cell_setting 'monoclinic'
loop_
_space_group_symop_operation_xyz
x,y,z
-x,1/2+y,-z
-x,-y,-z
x,1/2-y,z
loop_
_atom_site_type_symbol
_atom_site_label
_atom_site_fract_x
_atom_site_fract_y
_atom_site_fract_z
Si Si1 0.312310 0.418088 0.934216
Si Si2 0.271085 0.084789 0.442219
Si Si3 0.590361 0.917799 0.930393
Si Si4 0.165052 0.419068 0.795945
Si Si5 0.551564 0.421186 0.690043
Si Si6 0.593037 0.415073 0.435235
Si Si7 0.509561 0.577317 0.191381
Si Si8 0.135950 0.922495 0.316153
O O1 0.371170 0.250000 0.935182
O O2 0.436946 0.534014 0.935688
O O3 0.166641 0.443349 0.866237
O O4 0.277143 0.441480 0.996813
O O5 0.214984 0.250000 0.443307
O O6 0.434607 0.083603 0.441032
O O7 0.280702 0.001165 0.505113
O O8 0.150508 0.002146 0.380273
O O9 0.579353 0.750000 0.909740
O O10 0.613103 0.010644 0.875787
O O11 0.155536 0.250000 0.778719
O O12 0.320879 0.481193 0.794832
O O13 0.013839 0.489789 0.741556
O O14 0.516678 0.250000 0.677717
O O15 0.427111 0.505592 0.629740
O O16 0.533530 0.476053 0.752407
O O17 0.722002 0.459812 0.700118
O O18 0.650361 0.250000 0.435149
O O19 0.498395 0.750000 0.183844
O O20 0.127073 0.750000 0.326278
#
# Coordination Sequence:
#
# PCOD8077947 Si02
#       8
#     4   4   4   4   4   4   4   4
#     4   8  14  25  40  59  83 109 137 171 211 248
#     4   9  16  26  41  62  87 111 135 168 209 246
#     4   9  15  23  39  62  83 105 138 177 209 240
#     4   8  14  26  44  62  81 108 139 169 203 246
#     4   9  17  28  43  63  85 109 137 170 207 245
#     4   9  16  26  42  63  85 109 138 172 206 241
#     4   9  17  29  43  60  85 114 139 166 206 251
#     4   9  16  27  44  64  83 106 139 173 203 241
#
# _framework density 17.246842999999998
#
# number of rings (size 3 to 8) (size 9 to 14) (size 15 to 20)
#    0.000    3.250    0.000    1.875    0.000    4.000 
#    0.000    2.500    0.000    1.500    0.000    0.000 
#    0.000    0.000    0.000    0.000    0.000    1.125 
#
# Total GULP energy -396469.250999 kJ/mol
# GULP energy per Si atom -12389.664094 kJ/mol
# Density = 1.720759 g / cm^3
# Si number density = 17.246843 Si / 1000 Ang^3
#
#
#
# Elastic Constant Matrix: (Units=GPa)
#
#
# Indices 1 2 3 4 5 6 
#
# 1 23.9803 13.0624 22.4695 0.0000 -3.8080 0.0000
# 2 13.0624 59.2762 42.4442 0.0000 -5.1744 0.0000
# 3 22.4695 42.4442 122.8244 0.0000 -6.6332 0.0000
# 4 0.0000 0.0000 0.0000 31.5482 0.0000 -4.1972
# 5 -3.8080 -5.1744 -6.6332 0.0000 26.5282 0.0000
# 6 0.0000 0.0000 0.0000 -4.1972 0.0000 9.6569
#
#
#
# Elastic Compliance Matrix: (Units=1/GPa)
#
#
# Indices 1 2 3 4 5 6 
#
# 1 0.052506 -0.005942 -0.007306 0.000000 0.004551 0.000000
# 2 -0.005942 0.023250 -0.006841 0.000000 0.001972 0.000000
# 3 -0.007306 -0.006841 0.011874 0.000000 0.000586 0.000000
# 4 0.000000 0.000000 0.000000 0.033643 0.000000 0.014622
# 5 0.004551 0.001972 0.000586 0.000000 0.038880 0.000000
# 6 0.000000 0.000000 0.000000 0.014622 0.000000 0.109908
#
#
# Mechanical properties :
#
#
# Convention : Reuss Voigt Hill
#
# Bulk Modulus (GPa) = 21.07382 40.22589 30.64986
# Shear Modulus (GPa) = 15.33476 22.08700 18.71088
#
# Velocity S-wave (km/s) = 2.98507 3.58249 3.29734
# Velocity P-wave (km/s) = 4.91186 6.36290 5.68387
#
# Compressibility (1/GPa) = 0.04745224
#
# Stress axis : x y z
#
# Youngs Moduli (GPa) = 19.04534 43.01063 84.21730
#
# Poissons Ratio (x) = 0.25555 0.61533
# Poissons Ratio (y) = 0.11316 0.57614
# Poissons Ratio (z) = 0.13915 0.29424
#
# Static dielectric constant tensor:
#      x y z
#    x 2.737530 0.000000 -0.043180 
#    y 0.000000 3.157820 0.000000 
#    z -0.043180 0.000000 3.737810 
# 
# 
# High freq. dielectric constant tensor:
#      x y z
#    x 1.592450 0.000000 -0.009800 
#    y 0.000000 1.656940 0.000000 
#    z -0.009800 0.000000 1.692160 
# 
# From -- ./inp_files/43655.got.cif
#   From: 2010.06.25/outbox.cif.g09.slc.cpg/sg11_22_cif.got.tgz:43655.got - 2010.06.27 23:14:04.
