data_PCOD8077467
_publ_section_title
;
Structure prediction by ZEFSAII (Michael W. Deem and Ramdas Pophale) SiO2 
 PCOD8077467
Probable space group: P 21/M
;
_chemical_formula_sum "Si O2"
_cell_formula_units_Z 32
_cell_length_a 13.403151
_cell_length_b 15.150662
_cell_length_c 18.645468
_cell_angle_alpha 90.000000
_cell_angle_beta 157.777442
_cell_angle_gamma 90.000000
_cell_volume 1431.988070
_symmetry_space_group_name_H-M "P 21/M"
_symmetry_group_IT_number 11
_symmetry_cell_setting 'monoclinic'
loop_
_space_group_symop_operation_xyz
x,y,z
-x,1/2+y,-z
-x,-y,-z
x,1/2-y,z
loop_
_atom_site_type_symbol
_atom_site_label
_atom_site_fract_x
_atom_site_fract_y
_atom_site_fract_z
Si Si1 0.744833 0.479201 0.285702
Si Si2 0.651500 0.649313 0.897226
Si Si3 0.580302 0.350496 0.928579
Si Si4 0.236648 0.648141 0.330147
Si Si5 0.447995 0.405209 0.327108
Si Si6 0.088062 0.650966 0.984687
Si Si7 0.508498 0.398489 0.637991
Si Si8 0.056640 0.653950 0.697755
O O1 0.549391 0.417620 0.199886
O O2 0.000000 0.500000 0.500000
O O3 0.828949 0.426798 0.270950
O O4 0.631210 0.575704 0.188854
O O5 0.606175 0.750000 0.893839
O O6 0.603382 0.650474 0.779295
O O7 0.940350 0.615455 0.114689
O O8 0.457926 0.250000 0.843142
O O9 0.698932 0.381737 0.931558
O O10 0.820761 0.352079 0.142606
O O11 0.256125 0.750000 0.325017
O O12 0.314173 0.631670 0.464970
O O13 0.451814 0.600704 0.421673
O O14 0.523536 0.502941 0.353812
O O15 0.175558 0.407743 0.191334
O O16 0.996061 0.750000 0.905899
O O17 0.229401 0.646699 0.155722
O O18 0.255524 0.347133 0.498030
O O19 0.123091 0.750000 0.706623
#
# Coordination Sequence:
#
# PCOD8077467 Si02
#       8
#     4   4   4   4   4   4   4   4
#     4  12  26  46  71  96 133 176 229 285 344 405
#     4  11  25  45  69  99 139 182 227 280 341 410
#     4  10  24  43  69 101 133 174 227 283 343 406
#     4  11  24  42  66  98 135 182 224 272 342 411
#     4  12  24  40  65 101 140 179 224 278 339 411
#     4  11  21  38  64  95 137 180 218 273 334 406
#     4  12  24  39  67 101 136 175 227 276 340 403
#     4  11  24  45  69  98 134 178 228 281 340 405
#
# _framework density 22.346556
#
# number of rings (size 3 to 8) (size 9 to 14) (size 15 to 20)
#    0.000    0.750    1.250    6.750    3.500    3.000 
#    2.250    0.000    0.000    0.000    0.000    0.000 
#    0.000    0.000    0.000    0.000    0.000    0.000 
#
# Total GULP energy -396814.335015 kJ/mol
# GULP energy per Si atom -12400.447969 kJ/mol
# Density = 2.229569 g / cm^3
# Si number density = 22.346556 Si / 1000 Ang^3
#
#
#
# Elastic Constant Matrix: (Units=GPa)
#
#
# Indices 1 2 3 4 5 6 
#
# 1 84.4463 30.7628 51.0645 0.0000 -1.4748 0.0000
# 2 30.7628 122.0941 43.0076 0.0000 11.6933 0.0000
# 3 51.0645 43.0076 137.4931 0.0000 -7.8455 0.0000
# 4 0.0000 0.0000 0.0000 30.1245 0.0000 3.2645
# 5 -1.4748 11.6933 -7.8455 0.0000 37.1235 0.0000
# 6 0.0000 0.0000 0.0000 3.2645 0.0000 39.7803
#
#
#
# Elastic Compliance Matrix: (Units=1/GPa)
#
#
# Indices 1 2 3 4 5 6 
#
# 1 0.015758 -0.002174 -0.005160 0.000000 0.000220 0.000000
# 2 -0.002174 0.009991 -0.002533 0.000000 -0.003769 0.000000
# 3 -0.005160 -0.002533 0.010138 0.000000 0.002735 0.000000
# 4 0.000000 0.000000 0.000000 0.033493 0.000000 -0.002749
# 5 0.000220 -0.003769 0.002735 0.000000 0.028711 0.000000
# 6 0.000000 0.000000 0.000000 -0.002749 0.000000 0.025364
#
#
# Mechanical properties :
#
#
# Convention : Reuss Voigt Hill
#
# Bulk Modulus (GPa) = 61.90574 65.96704 63.93639
# Shear Modulus (GPa) = 33.65353 36.01889 34.83621
#
# Velocity S-wave (km/s) = 3.88491 4.01912 3.95258
# Velocity P-wave (km/s) = 6.91998 7.14995 7.03591
#
# Compressibility (1/GPa) = 0.01615359
#
# Stress axis : x y z
#
# Youngs Moduli (GPa) = 63.46081 100.08698 98.64055
#
# Poissons Ratio (x) = 0.21758 0.50897
# Poissons Ratio (y) = 0.13796 0.24985
# Poissons Ratio (z) = 0.32745 0.25351
#
# Static dielectric constant tensor:
#      x y z
#    x 3.852970 0.000000 -0.112960 
#    y 0.000000 4.184520 0.000000 
#    z -0.112960 0.000000 4.066000 
# 
# 
# High freq. dielectric constant tensor:
#      x y z
#    x 1.869480 0.000000 -0.010800 
#    y 0.000000 1.894500 0.000000 
#    z -0.010800 0.000000 1.885210 
# 
# From -- ./inp_files/65799.got.cif
#   From: 2010.06.25/outbox.cif.g09.slc.cpg/sg11_33_cif.got.tgz:65799.got - 2010.06.27 23:14:04.
