data_PCOD8077445
_publ_section_title
;
Structure prediction by ZEFSAII (Michael W. Deem and Ramdas Pophale) SiO2 
 PCOD8077445
Probable space group: P 21/M
;
_chemical_formula_sum "Si O2"
_cell_formula_units_Z 28
_cell_length_a 8.684419
_cell_length_b 30.912532
_cell_length_c 5.172507
_cell_angle_alpha 90.000000
_cell_angle_beta 122.390513
_cell_angle_gamma 90.000000
_cell_volume 1172.554980
_symmetry_space_group_name_H-M "P 21/M"
_symmetry_group_IT_number 11
_symmetry_cell_setting 'monoclinic'
loop_
_space_group_symop_operation_xyz
x,y,z
-x,1/2+y,-z
-x,-y,-z
x,1/2-y,z
loop_
_atom_site_type_symbol
_atom_site_label
_atom_site_fract_x
_atom_site_fract_y
_atom_site_fract_z
Si Si1 0.864010 0.078191 0.978308
Si Si2 0.316093 0.701594 0.904824
Si Si3 0.915757 0.298691 0.797074
Si Si4 0.184063 0.374080 0.057497
Si Si5 0.522297 0.127629 0.676893
Si Si6 0.354694 0.058647 0.863578
Si Si7 0.733550 0.466639 0.373962
O O1 0.728412 0.117613 0.766212
O O2 0.837750 0.040976 0.738118
O O3 0.066368 0.098725 0.162287
O O4 0.825339 0.061790 0.231111
O O5 0.399193 0.750000 0.996507
O O6 0.156702 0.696463 0.975739
O O7 0.472815 0.666121 0.105772
O O8 0.245115 0.691977 0.553261
O O9 0.989630 0.250000 0.819207
O O10 0.079761 0.331053 0.877307
O O11 0.212153 0.407102 0.848124
O O12 0.381485 0.357978 0.331056
O O13 0.454494 0.081197 0.715140
O O14 0.240655 0.017204 0.666764
O O15 0.516872 0.044248 0.207983
#
# Coordination Sequence:
#
# PCOD8077445 Si02
#       7
#     4   4   4   4   4   4   4
#     4  11  25  43  70  92 140 181 231 274 348 394
#     4  10  23  46  74  99 135 184 224 271 345 415
#     4  10  24  45  71 101 137 177 222 277 340 410
#     4  12  26  41  71 107 134 180 231 288 335 416
#     4  11  25  43  68 105 136 179 226 287 334 414
#     4  10  25  41  69  96 140 175 240 277 345 395
#     4  10  24  47  65  94 138 190 221 290 336 405
#
# _framework density 23.879474999999999
#
# number of rings (size 3 to 8) (size 9 to 14) (size 15 to 20)
#    0.000    1.429    2.857    0.000   12.000    3.429 
#    0.000    0.714    0.000    0.000    0.000    0.000 
#    0.000    0.000    0.000    0.000    0.000    0.000 
#
# Total GULP energy -347183.134970 kJ/mol
# GULP energy per Si atom -12399.397677 kJ/mol
# Density = 2.382512 g / cm^3
# Si number density = 23.879475 Si / 1000 Ang^3
#
#
#
# Elastic Constant Matrix: (Units=GPa)
#
#
# Indices 1 2 3 4 5 6 
#
# 1 52.4958 -1.6922 0.0105 0.0000 -1.5047 0.0000
# 2 -1.6922 109.6930 5.9085 0.0000 9.3114 0.0000
# 3 0.0105 5.9085 51.0618 0.0000 -3.2792 0.0000
# 4 0.0000 0.0000 0.0000 35.9508 0.0000 6.0891
# 5 -1.5047 9.3114 -3.2792 0.0000 30.5211 0.0000
# 6 0.0000 0.0000 0.0000 6.0891 0.0000 33.6001
#
#
#
# Elastic Compliance Matrix: (Units=1/GPa)
#
#
# Indices 1 2 3 4 5 6 
#
# 1 0.019081 0.000218 0.000027 0.000000 0.000877 0.000000
# 2 0.000218 0.009444 -0.001286 0.000000 -0.003009 0.000000
# 3 0.000027 -0.001286 0.019895 0.000000 0.002531 0.000000
# 4 0.000000 0.000000 0.000000 0.028697 0.000000 -0.005200
# 5 0.000877 -0.003009 0.002531 0.000000 0.033997 0.000000
# 6 0.000000 0.000000 0.000000 -0.005200 0.000000 0.030704
#
#
# Mechanical properties :
#
#
# Convention : Reuss Voigt Hill
#
# Bulk Modulus (GPa) = 21.57956 24.63379 23.10667
# Shear Modulus (GPa) = 31.37803 33.94931 32.66367
#
# Velocity S-wave (km/s) = 3.62887 3.77463 3.70247
# Velocity P-wave (km/s) = 5.15895 5.41621 5.28914
#
# Compressibility (1/GPa) = 0.04634016
#
# Stress axis : x y z
#
# Youngs Moduli (GPa) = 52.40733 105.88296 50.26267
#
# Poissons Ratio (x) = -0.02313 -0.00136
# Poissons Ratio (y) = -0.01145 0.06464
# Poissons Ratio (z) = -0.00142 0.13618
#
# Static dielectric constant tensor:
#      x y z
#    x 4.207040 0.000000 0.199040 
#    y 0.000000 4.577540 0.000000 
#    z 0.199040 0.000000 4.098460 
# 
# 
# High freq. dielectric constant tensor:
#      x y z
#    x 1.930640 0.000000 -0.000530 
#    y 0.000000 1.963320 0.000000 
#    z -0.000530 0.000000 1.937370 
# 
# From -- ./inp_files/3475.got.cif
#   From: 2010.06.25/outbox.cif.g09.slc.cpg/sg11_2_cif.got.tgz:3475.got - 2010.06.27 23:14:04.
