data_PCOD8077121
_publ_section_title
;
Structure prediction by ZEFSAII (Michael W. Deem and Ramdas Pophale) SiO2 
 PCOD8077121
Probable space group: P 21/M
;
_chemical_formula_sum "Si O2"
_cell_formula_units_Z 20
_cell_length_a 4.896574
_cell_length_b 24.548863
_cell_length_c 8.531667
_cell_angle_alpha 90.000000
_cell_angle_beta 118.954053
_cell_angle_gamma 90.000000
_cell_volume 897.366241
_symmetry_space_group_name_H-M "P 21/M"
_symmetry_group_IT_number 11
_symmetry_cell_setting 'monoclinic'
loop_
_space_group_symop_operation_xyz
x,y,z
-x,1/2+y,-z
-x,-y,-z
x,1/2-y,z
loop_
_atom_site_type_symbol
_atom_site_label
_atom_site_fract_x
_atom_site_fract_y
_atom_site_fract_z
Si Si1 0.668633 0.467992 0.681615
Si Si2 0.567415 0.596802 0.106817
Si Si3 0.645219 0.131646 0.479780
Si Si4 0.122850 0.425808 0.126918
Si Si5 0.750754 0.686803 0.380445
O O1 0.500000 0.500000 0.500000
O O2 0.426766 0.446440 0.747022
O O3 0.815162 0.415181 0.634112
O O4 0.902682 0.510959 0.827033
O O5 0.655079 0.657046 0.191925
O O6 0.809807 0.576969 0.040945
O O7 0.216905 0.599746 0.936998
O O8 0.390136 0.107254 0.291593
O O9 0.495168 0.176596 0.551099
O O10 0.919806 0.162436 0.464268
O O11 0.776551 0.750000 0.349197
#
# Coordination Sequence:
#
# PCOD8077121 Si02
#       5
#     4   4   4   4   4
#     4   9  20  37  60  89 124 162 195 232 287 359
#     4  11  22  38  60  90 122 156 197 242 295 350
#     4  10  22  40  62  88 115 154 202 240 289 359
#     4  11  22  38  60  91 126 152 188 245 300 352
#     4  11  23  43  63  82 113 158 203 247 293 348
#
# _framework density 22.287445000000002
#
# number of rings (size 3 to 8) (size 9 to 14) (size 15 to 20)
#    0.000    1.600    0.000    5.400    0.000    3.200 
#    0.000   23.000    0.000    0.000    0.000    0.000 
#    0.000    0.000    0.000    0.000    0.000    0.000 
#
# Total GULP energy -247926.365583 kJ/mol
# GULP energy per Si atom -12396.318279 kJ/mol
# Density = 2.223672 g / cm^3
# Si number density = 22.287445 Si / 1000 Ang^3
#
#
#
# Elastic Constant Matrix: (Units=GPa)
#
#
# Indices 1 2 3 4 5 6 
#
# 1 58.8627 24.4881 -6.9652 0.0000 10.4953 0.0000
# 2 24.4881 157.8851 46.3774 0.0000 11.0876 0.0000
# 3 -6.9652 46.3774 103.9959 0.0000 3.8791 0.0000
# 4 0.0000 0.0000 0.0000 26.8886 0.0000 3.6550
# 5 10.4953 11.0876 3.8791 0.0000 30.9020 0.0000
# 6 0.0000 0.0000 0.0000 3.6550 0.0000 25.2747
#
#
#
# Elastic Compliance Matrix: (Units=1/GPa)
#
#
# Indices 1 2 3 4 5 6 
#
# 1 0.019907 -0.003604 0.003159 0.000000 -0.005865 0.000000
# 2 -0.003604 0.008095 -0.003807 0.000000 -0.001203 0.000000
# 3 0.003159 -0.003807 0.011568 0.000000 -0.001159 0.000000
# 4 0.000000 0.000000 0.000000 0.037936 0.000000 -0.005486
# 5 -0.005865 -0.001203 -0.001159 0.000000 0.034929 0.000000
# 6 0.000000 0.000000 0.000000 -0.005486 0.000000 0.040359
#
#
# Mechanical properties :
#
#
# Convention : Reuss Voigt Hill
#
# Bulk Modulus (GPa) = 32.18696 49.83824 41.01260
# Shear Modulus (GPa) = 29.12842 33.73595 31.43219
#
# Velocity S-wave (km/s) = 3.61909 3.89482 3.75948
# Velocity P-wave (km/s) = 5.65127 6.52965 6.10627
#
# Compressibility (1/GPa) = 0.03106849
#
# Stress axis : x y z
#
# Youngs Moduli (GPa) = 50.23243 123.52849 86.44405
#
# Poissons Ratio (x) = 0.44517 -0.27309
# Poissons Ratio (y) = 0.18103 0.32906
# Poissons Ratio (z) = -0.15869 0.47023
#
# Static dielectric constant tensor:
#      x y z
#    x 3.944330 0.000000 -0.047090 
#    y 0.000000 4.007780 0.000000 
#    z -0.047090 0.000000 4.341670 
# 
# 
# High freq. dielectric constant tensor:
#      x y z
#    x 1.883870 0.000000 0.009030 
#    y 0.000000 1.862750 0.000000 
#    z 0.009030 0.000000 1.893060 
# 
# From -- ./inp_files/2575.got.cif
#   From: 2010.06.25/outbox.cif.g09.slc.cpg/sg11_2_cif.got.tgz:2575.got - 2010.06.27 23:14:04.
