data_PCOD8077783
_publ_section_title
;
Structure prediction by ZEFSAII (Michael W. Deem and Ramdas Pophale) SiO2 
 PCOD8077783
Probable space group: P 21/M
;
_chemical_formula_sum "Si O2"
_cell_formula_units_Z 22
_cell_length_a 22.026764
_cell_length_b 9.675010
_cell_length_c 14.875856
_cell_angle_alpha 90.000000
_cell_angle_beta 160.668196
_cell_angle_gamma 90.000000
_cell_volume 1049.451178
_symmetry_space_group_name_H-M "P 21/M"
_symmetry_group_IT_number 11
_symmetry_cell_setting 'monoclinic'
loop_
_space_group_symop_operation_xyz
x,y,z
-x,1/2+y,-z
-x,-y,-z
x,1/2-y,z
loop_
_atom_site_type_symbol
_atom_site_label
_atom_site_fract_x
_atom_site_fract_y
_atom_site_fract_z
Si Si1 0.448733 0.750000 0.840803
Si Si2 0.771339 0.983059 0.923864
Si Si3 0.053334 0.750000 0.356839
Si Si4 0.782936 0.250000 0.218781
Si Si5 0.912652 0.250000 0.209636
Si Si6 0.469468 0.029056 0.771668
Si Si7 0.707106 0.750000 0.363726
Si Si8 0.604062 0.092843 0.519072
O O1 0.518871 0.614932 0.887636
O O2 0.230965 0.750000 0.542760
O O3 0.526902 0.750000 0.050215
O O4 0.753732 0.025852 0.794789
O O5 0.592190 0.902170 0.706352
O O6 0.794656 0.118906 0.015928
O O7 0.946168 0.887177 0.180559
O O8 0.097305 0.750000 0.523959
O O9 0.928762 0.250000 0.340361
O O10 0.657164 0.114625 0.035681
O O11 0.111973 0.250000 0.443145
O O12 0.305945 0.112044 0.593639
O O13 0.399214 0.002504 0.573201
O O14 0.660158 0.250000 0.572781
#
# Coordination Sequence:
#
# PCOD8077783 Si02
#       8
#     2   4   2   2   2   4   2   4
#     4  12  24  43  70  95 142 189 222 276 343 415
#     4  11  25  41  72 100 139 178 224 290 341 398
#     4  12  26  45  64 106 141 179 230 281 340 403
#     4  11  26  42  70 105 143 170 237 283 329 413
#     4  12  24  44  66 106 139 176 226 294 338 394
#     4  11  23  44  70  99 133 191 224 273 342 414
#     4  11  26  42  66  98 143 184 227 270 352 413
#     4  11  22  45  71 103 135 177 233 280 346 402
#
# _framework density 20.963338
#
# number of rings (size 3 to 8) (size 9 to 14) (size 15 to 20)
#    0.000    0.727    6.364    1.636    2.545    3.636 
#    0.000    5.455    0.000    0.000    0.000    0.000 
#    0.000    0.000    0.000    0.000    0.000    0.000 
#
# Total GULP energy -272931.147626 kJ/mol
# GULP energy per Si atom -12405.961256 kJ/mol
# Density = 2.091562 g / cm^3
# Si number density = 20.963338 Si / 1000 Ang^3
#
#
#
# Elastic Constant Matrix: (Units=GPa)
#
#
# Indices 1 2 3 4 5 6 
#
# 1 116.6847 53.9579 55.3530 0.0000 -7.2590 0.0000
# 2 53.9579 161.5777 55.5374 0.0000 -16.1002 0.0000
# 3 55.3530 55.5374 121.6226 0.0000 -21.1622 0.0000
# 4 0.0000 0.0000 0.0000 29.0347 0.0000 -13.0463
# 5 -7.2590 -16.1002 -21.1622 0.0000 38.9354 0.0000
# 6 0.0000 0.0000 0.0000 -13.0463 0.0000 30.6796
#
#
#
# Elastic Compliance Matrix: (Units=1/GPa)
#
#
# Indices 1 2 3 4 5 6 
#
# 1 0.011757 -0.002535 -0.004412 0.000000 -0.001254 0.000000
# 2 -0.002535 0.007952 -0.002195 0.000000 0.001622 0.000000
# 3 -0.004412 -0.002195 0.012073 0.000000 0.004832 0.000000
# 4 0.000000 0.000000 0.000000 0.042577 0.000000 0.018106
# 5 -0.001254 0.001622 0.004832 0.000000 0.028747 0.000000
# 6 0.000000 0.000000 0.000000 0.018106 0.000000 0.040294
#
#
# Mechanical properties :
#
#
# Convention : Reuss Voigt Hill
#
# Bulk Modulus (GPa) = 74.08077 81.06462 77.57270
# Shear Modulus (GPa) = 30.08744 35.39904 32.74324
#
# Velocity S-wave (km/s) = 3.79257 4.11374 3.95641
# Velocity P-wave (km/s) = 7.38871 7.83054 7.61283
#
# Compressibility (1/GPa) = 0.01349878
#
# Stress axis : x y z
#
# Youngs Moduli (GPa) = 85.05560 125.76083 82.82923
#
# Poissons Ratio (x) = 0.31878 0.36541
# Poissons Ratio (y) = 0.21560 0.18182
# Poissons Ratio (z) = 0.37523 0.27605
#
# Static dielectric constant tensor:
#      x y z
#    x 3.810810 0.000000 -0.190070 
#    y 0.000000 3.846780 0.000000 
#    z -0.190070 0.000000 3.665550 
# 
# 
# High freq. dielectric constant tensor:
#      x y z
#    x 1.825320 0.000000 -0.012940 
#    y 0.000000 1.840450 0.000000 
#    z -0.012940 0.000000 1.812680 
# 
# From -- ./inp_files/55506.got.cif
#   From: 2010.06.25/outbox.cif.g09.slc.cpg/sg11_28_cif.got.tgz:55506.got - 2010.06.27 23:14:04.
