data_PCOD8077688
_publ_section_title
;
Structure prediction by ZEFSAII (Michael W. Deem and Ramdas Pophale) SiO2 
 PCOD8077688
Probable space group: P 21/M
;
_chemical_formula_sum "Si O2"
_cell_formula_units_Z 32
_cell_length_a 16.010443
_cell_length_b 17.599863
_cell_length_c 20.199265
_cell_angle_alpha 90.000000
_cell_angle_beta 18.384116
_cell_angle_gamma 90.000000
_cell_volume 1795.107958
_symmetry_space_group_name_H-M "P 21/M"
_symmetry_group_IT_number 11
_symmetry_cell_setting 'monoclinic'
loop_
_space_group_symop_operation_xyz
x,y,z
-x,1/2+y,-z
-x,-y,-z
x,1/2-y,z
loop_
_atom_site_type_symbol
_atom_site_label
_atom_site_fract_x
_atom_site_fract_y
_atom_site_fract_z
Si Si1 0.422042 0.159726 0.928904
Si Si2 0.428703 0.340613 0.071270
Si Si3 0.548778 0.839453 0.593271
Si Si4 0.987366 0.659565 0.512660
Si Si5 0.019306 0.339457 0.122688
Si Si6 0.011427 0.410521 0.988554
Si Si7 0.414431 0.162213 0.585539
Si Si8 0.981856 0.840276 0.369148
O O1 0.408970 0.250000 0.937264
O O2 0.350318 0.130931 0.056706
O O3 0.214171 0.126864 0.032269
O O4 0.718742 0.131845 0.688210
O O5 0.421681 0.250000 0.078305
O O6 0.220564 0.376352 0.279408
O O7 0.722112 0.369088 0.870792
O O8 0.504627 0.750000 0.635665
O O9 0.273082 0.878711 0.819185
O O10 0.642714 0.857538 0.448146
O O11 0.771696 0.873129 0.474799
O O12 0.978224 0.750000 0.521806
O O13 0.909116 0.631852 0.497876
O O14 0.056326 0.250000 0.083912
O O15 0.095968 0.378684 0.996260
O O16 0.720601 0.357581 0.370175
O O17 0.000000 0.500000 0.000000
O O18 0.229852 0.388630 0.770107
O O19 0.353665 0.250000 0.646341
O O20 0.976138 0.750000 0.370169
#
# Coordination Sequence:
#
# PCOD8077688 Si02
#       8
#     4   4   4   4   4   4   4   4
#     4   8  14  24  38  60  91 122 150 184 227 272
#     4   8  13  21  34  57  87 117 149 181 222 276
#     4   9  18  32  49  70  96 125 160 200 236 277
#     4   8  13  21  36  61  95 126 146 176 224 274
#     4   9  18  32  49  70  96 125 160 200 236 277
#     4  11  22  34  49  69  95 125 157 199 246 290
#     4   9  18  33  52  71  92 121 156 194 236 281
#     4   8  14  24  38  60  91 122 150 184 227 272
#
# _framework density 17.826226999999999
#
# number of rings (size 3 to 8) (size 9 to 14) (size 15 to 20)
#    0.000    3.250    0.000    3.375    0.000    4.000 
#    0.000    7.500    0.000    0.000    0.000    3.500 
#    0.000   10.000    0.000    0.000    0.000    0.000 
#
# Total GULP energy -396641.947047 kJ/mol
# GULP energy per Si atom -12395.060845 kJ/mol
# Density = 1.778565 g / cm^3
# Si number density = 17.826227 Si / 1000 Ang^3
#
#
#
# Elastic Constant Matrix: (Units=GPa)
#
#
# Indices 1 2 3 4 5 6 
#
# 1 176.1359 26.9946 104.0186 0.0000 -20.1717 0.0000
# 2 26.9946 38.0807 31.7868 0.0000 2.2323 0.0000
# 3 104.0186 31.7868 156.7469 0.0000 11.2271 0.0000
# 4 0.0000 0.0000 0.0000 8.0628 0.0000 1.4104
# 5 -20.1717 2.2323 11.2271 0.0000 28.8871 0.0000
# 6 0.0000 0.0000 0.0000 1.4104 0.0000 5.0244
#
#
#
# Elastic Compliance Matrix: (Units=1/GPa)
#
#
# Indices 1 2 3 4 5 6 
#
# 1 0.012681 -0.002348 -0.008833 0.000000 0.012470 0.000000
# 2 -0.002348 0.032046 -0.004779 0.000000 -0.002259 0.000000
# 3 -0.008833 -0.004779 0.014016 0.000000 -0.011246 0.000000
# 4 0.000000 0.000000 0.000000 0.130430 0.000000 -0.036612
# 5 0.012470 -0.002259 -0.011246 0.000000 0.047870 0.000000
# 6 0.000000 0.000000 0.000000 -0.036612 0.000000 0.209307
#
#
# Mechanical properties :
#
#
# Convention : Reuss Voigt Hill
#
# Bulk Modulus (GPa) = 37.27938 77.39592 57.33765
# Shear Modulus (GPa) = 10.26252 22.27244 16.26748
#
# Velocity S-wave (km/s) = 2.40197 3.53855 3.02414
# Velocity P-wave (km/s) = 5.35263 7.75927 6.66547
#
# Compressibility (1/GPa) = 0.02682448
#
# Stress axis : x y z
#
# Youngs Moduli (GPa) = 78.85519 31.20549 71.34893
#
# Poissons Ratio (x) = 0.07327 0.63019
# Poissons Ratio (y) = 0.18514 0.34096
# Poissons Ratio (z) = 0.69649 0.14912
#
# Static dielectric constant tensor:
#      x y z
#    x 3.688350 0.000000 -0.080390 
#    y 0.000000 2.686990 0.000000 
#    z -0.080390 0.000000 3.515030 
# 
# 
# High freq. dielectric constant tensor:
#      x y z
#    x 1.698060 0.000000 -0.000630 
#    y 0.000000 1.627040 0.000000 
#    z -0.000630 0.000000 1.696680 
# 
# From -- ./inp_files/60591.got.cif
#   From: 2010.06.25/outbox.cif.g09.slc.cpg/sg11_31_cif.got.tgz:60591.got - 2010.06.27 23:14:04.
