data_PCOD8077778
_publ_section_title
;
Structure prediction by ZEFSAII (Michael W. Deem and Ramdas Pophale) SiO2 
 PCOD8077778
Probable space group: P 21/M
;
_chemical_formula_sum "Si O2"
_cell_formula_units_Z 28
_cell_length_a 8.413417
_cell_length_b 20.325962
_cell_length_c 12.944415
_cell_angle_alpha 90.000000
_cell_angle_beta 35.427823
_cell_angle_gamma 90.000000
_cell_volume 1283.192967
_symmetry_space_group_name_H-M "P 21/M"
_symmetry_group_IT_number 11
_symmetry_cell_setting 'monoclinic'
loop_
_space_group_symop_operation_xyz
x,y,z
-x,1/2+y,-z
-x,-y,-z
x,1/2-y,z
loop_
_atom_site_type_symbol
_atom_site_label
_atom_site_fract_x
_atom_site_fract_y
_atom_site_fract_z
Si Si1 0.686201 0.615217 0.987175
Si Si2 0.388113 0.934394 0.838597
Si Si3 0.652671 0.675053 0.369370
Si Si4 0.846282 0.103813 0.828339
Si Si5 0.086595 0.030811 0.310662
Si Si6 0.225529 0.676307 0.769642
Si Si7 0.492372 0.064521 0.707386
O O1 0.851229 0.561901 0.833504
O O2 0.901587 0.667277 0.918429
O O3 0.438356 0.643028 0.046918
O O4 0.515110 0.580945 0.168204
O O5 0.697351 0.946720 0.716278
O O6 0.352791 0.868494 0.791271
O O7 0.324612 0.994950 0.792305
O O8 0.180946 0.930141 0.044483
O O9 0.672532 0.750000 0.317083
O O10 0.380150 0.664840 0.580065
O O11 0.656311 0.623386 0.273940
O O12 0.916289 0.658442 0.299880
O O13 0.916348 0.047540 0.707099
O O14 0.797189 0.055984 0.504351
O O15 0.269397 0.750000 0.786869
#
# Coordination Sequence:
#
# PCOD8077778 Si02
#       7
#     4   4   4   4   4   4   4
#     4  11  23  42  68 102 132 174 220 276 334 399
#     4  11  23  40  70 103 133 174 226 274 344 400
#     4  11  27  46  65  96 137 183 232 278 338 410
#     4  11  23  43  69 102 142 168 225 285 336 405
#     4  11  22  43  65 109 138 168 215 288 331 404
#     4  11  26  47  66  95 140 183 229 282 337 403
#     4  12  23  40  74  99 137 178 221 277 345 400
#
# _framework density 21.820568000000002
#
# number of rings (size 3 to 8) (size 9 to 14) (size 15 to 20)
#    0.000    0.857    4.286    3.000    4.000    5.143 
#    0.000    2.857    0.000    0.000    0.000    0.000 
#    0.000    0.000    0.000    0.000    0.000    0.000 
#
# Total GULP energy -347014.413810 kJ/mol
# GULP energy per Si atom -12393.371922 kJ/mol
# Density = 2.177090 g / cm^3
# Si number density = 21.820568 Si / 1000 Ang^3
#
#
#
# Elastic Constant Matrix: (Units=GPa)
#
#
# Indices 1 2 3 4 5 6 
#
# 1 100.8855 73.2695 45.1783 0.0000 0.2507 0.0000
# 2 73.2695 140.6574 43.6676 0.0000 -1.7973 0.0000
# 3 45.1783 43.6676 114.7036 0.0000 -1.4624 0.0000
# 4 0.0000 0.0000 0.0000 20.9550 0.0000 -4.7130
# 5 0.2507 -1.7973 -1.4624 0.0000 38.1314 0.0000
# 6 0.0000 0.0000 0.0000 -4.7130 0.0000 19.0919
#
#
#
# Elastic Compliance Matrix: (Units=1/GPa)
#
#
# Indices 1 2 3 4 5 6 
#
# 1 0.017333 -0.007842 -0.003850 0.000000 -0.000631 0.000000
# 2 -0.007842 0.011613 -0.001325 0.000000 0.000548 0.000000
# 3 -0.003850 -0.001325 0.010744 0.000000 0.000375 0.000000
# 4 0.000000 0.000000 0.000000 0.050527 0.000000 0.012473
# 5 -0.000631 0.000548 0.000375 0.000000 0.026269 0.000000
# 6 0.000000 0.000000 0.000000 0.012473 0.000000 0.055457
#
#
# Mechanical properties :
#
#
# Convention : Reuss Voigt Hill
#
# Bulk Modulus (GPa) = 73.22824 75.60859 74.41841
# Shear Modulus (GPa) = 24.68791 28.57774 26.63282
#
# Velocity S-wave (km/s) = 3.36729 3.62286 3.49741
# Velocity P-wave (km/s) = 6.98214 7.22672 7.10548
#
# Compressibility (1/GPa) = 0.01365593
#
# Stress axis : x y z
#
# Youngs Moduli (GPa) = 57.69371 86.11203 93.07785
#
# Poissons Ratio (x) = 0.67527 0.35831
# Poissons Ratio (y) = 0.45242 0.12336
# Poissons Ratio (z) = 0.22210 0.11413
#
# Static dielectric constant tensor:
#      x y z
#    x 3.937200 0.000000 0.036590 
#    y 0.000000 3.832080 0.000000 
#    z 0.036590 0.000000 4.083440 
# 
# 
# High freq. dielectric constant tensor:
#      x y z
#    x 1.859370 0.000000 0.001890 
#    y 0.000000 1.836600 0.000000 
#    z 0.001890 0.000000 1.876430 
# 
# From -- ./inp_files/48319.got.cif
#   From: 2010.06.25/outbox.cif.g09.slc.cpg/sg11_25_cif.got.tgz:48319.got - 2010.06.27 23:14:04.
