data_PCOD8077388
_publ_section_title
;
Structure prediction by ZEFSAII (Michael W. Deem and Ramdas Pophale) SiO2 
 PCOD8077388
Probable space group: P 21/M
;
_chemical_formula_sum "Si O2"
_cell_formula_units_Z 32
_cell_length_a 12.429621
_cell_length_b 8.279633
_cell_length_c 28.713874
_cell_angle_alpha 90.000000
_cell_angle_beta 31.824120
_cell_angle_gamma 90.000000
_cell_volume 1558.223247
_symmetry_space_group_name_H-M "P 21/M"
_symmetry_group_IT_number 11
_symmetry_cell_setting 'monoclinic'
loop_
_space_group_symop_operation_xyz
x,y,z
-x,1/2+y,-z
-x,-y,-z
x,1/2-y,z
loop_
_atom_site_type_symbol
_atom_site_label
_atom_site_fract_x
_atom_site_fract_y
_atom_site_fract_z
Si Si1 0.083906 0.064985 0.835743
Si Si2 0.473738 0.936043 0.738318
Si Si3 0.852186 0.442886 0.011543
Si Si4 0.446226 0.936262 0.194832
Si Si5 0.206989 0.564464 0.441619
Si Si6 0.809467 0.061307 0.303026
Si Si7 0.646960 0.935624 0.518495
Si Si8 0.987734 0.937979 0.678162
O O1 0.039959 0.250000 0.841195
O O2 0.298537 0.041542 0.780647
O O3 0.084492 0.980123 0.785107
O O4 0.929382 0.998499 0.932001
O O5 0.461516 0.750000 0.726334
O O6 0.484897 0.943709 0.789504
O O7 0.666282 0.035552 0.651063
O O8 0.842446 0.250000 0.017822
O O9 0.627128 0.523213 0.092251
O O10 0.000000 0.500000 0.000000
O O11 0.457737 0.750000 0.205652
O O12 0.216160 0.968823 0.262188
O O13 0.201689 0.750000 0.460074
O O14 0.283814 0.448957 0.453982
O O15 0.000000 0.500000 0.500000
O O16 0.772408 0.250000 0.317790
O O17 0.583049 0.986945 0.397429
O O18 0.963646 0.006431 0.286978
O O19 0.647524 0.750000 0.502232
O O20 0.809923 0.029691 0.426834
O O21 0.936901 0.750000 0.693527
#
# Coordination Sequence:
#
# PCOD8077388 Si02
#       8
#     4   4   4   4   4   4   4   4
#     4  11  23  39  64  96 127 159 204 253 308 372
#     4  12  23  38  61  88 124 164 203 253 313 373
#     4  11  23  40  65  97 130 165 205 256 311 380
#     4  12  25  42  64  93 127 166 211 261 318 379
#     4  12  24  38  56  84 123 166 208 255 310 373
#     4  10  23  42  66  92 126 168 214 261 312 370
#     4  11  22  39  62  92 125 164 211 261 312 372
#     4  11  24  43  64  91 125 168 215 263 315 371
#
# _framework density 20.536210000000001
#
# number of rings (size 3 to 8) (size 9 to 14) (size 15 to 20)
#    0.000    0.750    2.500    6.000    0.000    3.000 
#    0.000    0.625    0.000    0.000    0.000    0.000 
#    0.000    0.000    0.000    0.000    0.000    0.000 
#
# Total GULP energy -396536.149791 kJ/mol
# GULP energy per Si atom -12391.754681 kJ/mol
# Density = 2.048947 g / cm^3
# Si number density = 20.536210 Si / 1000 Ang^3
#
#
#
# Elastic Constant Matrix: (Units=GPa)
#
#
# Indices 1 2 3 4 5 6 
#
# 1 130.5303 11.4727 47.6312 0.0000 9.7238 0.0000
# 2 11.4727 41.8392 24.3721 0.0000 0.6319 0.0000
# 3 47.6312 24.3721 114.1932 0.0000 20.2854 0.0000
# 4 0.0000 0.0000 0.0000 36.9598 0.0000 3.9665
# 5 9.7238 0.6319 20.2854 0.0000 20.9839 0.0000
# 6 0.0000 0.0000 0.0000 3.9665 0.0000 29.8786
#
#
#
# Elastic Compliance Matrix: (Units=1/GPa)
#
#
# Indices 1 2 3 4 5 6 
#
# 1 0.009050 -0.000398 -0.003558 0.000000 -0.000742 0.000000
# 2 -0.000398 0.027911 -0.006851 0.000000 0.005967 0.000000
# 3 -0.003558 -0.006851 0.013732 0.000000 -0.011420 0.000000
# 4 0.000000 0.000000 0.000000 0.027447 0.000000 -0.003644
# 5 -0.000742 0.005967 -0.011420 0.000000 0.058859 0.000000
# 6 0.000000 0.000000 0.000000 -0.003644 0.000000 0.033953
#
#
# Mechanical properties :
#
#
# Convention : Reuss Voigt Hill
#
# Bulk Modulus (GPa) = 34.38908 50.39052 42.38980
# Shear Modulus (GPa) = 24.72088 31.10357 27.91223
#
# Velocity S-wave (km/s) = 3.47330 3.89597 3.69069
# Velocity P-wave (km/s) = 5.73298 6.69543 6.23281
#
# Compressibility (1/GPa) = 0.02907900
#
# Stress axis : x y z
#
# Youngs Moduli (GPa) = 110.50189 35.82845 72.82260
#
# Poissons Ratio (x) = 0.01425 0.25910
# Poissons Ratio (y) = 0.04394 0.49891
# Poissons Ratio (z) = 0.39317 0.24546
#
# Static dielectric constant tensor:
#      x y z
#    x 3.798820 0.000000 0.157300 
#    y 0.000000 3.605380 0.000000 
#    z 0.157300 0.000000 4.046060 
# 
# 
# High freq. dielectric constant tensor:
#      x y z
#    x 1.796840 0.000000 0.007020 
#    y 0.000000 1.806570 0.000000 
#    z 0.007020 0.000000 1.816020 
# 
# From -- ./inp_files/73034.got.cif
#   From: 2010.06.25/outbox.cif.g09.slc.cpg/sg11_37_cif.got.tgz:73034.got - 2010.06.27 23:14:04.
