data_PCOD8077693
_publ_section_title
;
Structure prediction by ZEFSAII (Michael W. Deem and Ramdas Pophale) SiO2 
 PCOD8077693
Probable space group: P 21/M
;
_chemical_formula_sum "Si O2"
_cell_formula_units_Z 28
_cell_length_a 9.385897
_cell_length_b 8.688544
_cell_length_c 29.525704
_cell_angle_alpha 90.000000
_cell_angle_beta 143.102503
_cell_angle_gamma 90.000000
_cell_volume 1445.616490
_symmetry_space_group_name_H-M "P 21/M"
_symmetry_group_IT_number 11
_symmetry_cell_setting 'monoclinic'
loop_
_space_group_symop_operation_xyz
x,y,z
-x,1/2+y,-z
-x,-y,-z
x,1/2-y,z
loop_
_atom_site_type_symbol
_atom_site_label
_atom_site_fract_x
_atom_site_fract_y
_atom_site_fract_z
Si Si1 0.419270 0.567363 0.704830
Si Si2 0.172986 0.066836 0.129053
Si Si3 0.499512 0.073243 0.131519
Si Si4 0.738750 0.433069 0.432833
Si Si5 0.071475 0.927478 0.693876
Si Si6 0.642239 0.069460 0.995232
Si Si7 0.571881 0.069111 0.566112
O O1 0.421690 0.750000 0.707871
O O2 0.669872 0.505004 0.788527
O O3 0.385859 0.508571 0.645242
O O4 0.201511 0.512175 0.681336
O O5 0.170311 0.250000 0.129394
O O6 0.296052 0.012704 0.113792
O O7 0.908387 0.998429 0.063715
O O8 0.455095 0.250000 0.106760
O O9 0.756071 0.054049 0.219451
O O10 0.491867 0.970103 0.085054
O O11 0.750040 0.250000 0.437616
O O12 0.591441 0.494892 0.437278
O O13 0.000000 0.500000 0.500000
O O14 0.991804 0.750000 0.668115
O O15 0.844929 0.032495 0.645882
O O16 0.654748 0.250000 0.004670
O O17 0.500000 0.000000 0.000000
O O18 0.528185 0.250000 0.554697
O O19 0.500000 0.000000 0.500000
#
# Coordination Sequence:
#
# PCOD8077693 Si02
#       7
#     4   4   4   4   4   4   4
#     4   8  16  33  58  83 106 136 179 226 274 330
#     4   8  16  33  56  80 104 138 183 227 270 324
#     4   9  18  35  59  82 107 141 182 226 276 334
#     4  11  22  37  59  86 115 149 188 232 281 334
#     4   9  18  36  61  86 110 140 180 227 278 335
#     4  11  22  34  51  77 111 146 184 230 278 328
#     4  12  25  40  58  82 114 150 189 234 282 337
#
# _framework density 19.368898999999999
#
# number of rings (size 3 to 8) (size 9 to 14) (size 15 to 20)
#    0.000    2.286    0.000    5.143    0.000    2.857 
#    0.000    4.286    0.000    6.000    0.000    0.000 
#    0.000    0.000    0.000    0.000    0.000    0.000 
#
# Total GULP energy -347195.377142 kJ/mol
# GULP energy per Si atom -12399.834898 kJ/mol
# Density = 1.932481 g / cm^3
# Si number density = 19.368899 Si / 1000 Ang^3
#
#
#
# Elastic Constant Matrix: (Units=GPa)
#
#
# Indices 1 2 3 4 5 6 
#
# 1 149.9095 37.2352 85.2082 0.0000 -9.1640 0.0000
# 2 37.2352 63.4666 39.2776 0.0000 -4.4611 0.0000
# 3 85.2082 39.2776 127.0199 0.0000 -9.3504 0.0000
# 4 0.0000 0.0000 0.0000 29.9202 0.0000 0.2314
# 5 -9.1640 -4.4611 -9.3504 0.0000 36.9257 0.0000
# 6 0.0000 0.0000 0.0000 0.2314 0.0000 30.4499
#
#
#
# Elastic Compliance Matrix: (Units=1/GPa)
#
#
# Indices 1 2 3 4 5 6 
#
# 1 0.011079 -0.002326 -0.006655 0.000000 0.000783 0.000000
# 2 -0.002326 0.019999 -0.004574 0.000000 0.000681 0.000000
# 3 -0.006655 -0.004574 0.013847 0.000000 0.001302 0.000000
# 4 0.000000 0.000000 0.000000 0.033424 0.000000 -0.000254
# 5 0.000783 0.000681 0.001302 0.000000 0.027688 0.000000
# 6 0.000000 0.000000 0.000000 -0.000254 0.000000 0.032843
#
#
# Mechanical properties :
#
#
# Convention : Reuss Voigt Hill
#
# Bulk Modulus (GPa) = 56.13006 73.75977 64.94491
# Shear Modulus (GPa) = 29.08164 31.37082 30.22623
#
# Velocity S-wave (km/s) = 3.87907 4.02885 3.95467
# Velocity P-wave (km/s) = 7.00752 7.73346 7.37942
#
# Compressibility (1/GPa) = 0.01781577
#
# Stress axis : x y z
#
# Youngs Moduli (GPa) = 90.25936 50.00127 72.21562
#
# Poissons Ratio (x) = 0.11632 0.48061
# Poissons Ratio (y) = 0.20997 0.33029
# Poissons Ratio (z) = 0.60069 0.22869
#
# Static dielectric constant tensor:
#      x y z
#    x 3.669380 0.000000 -0.065670 
#    y 0.000000 3.300000 0.000000 
#    z -0.065670 0.000000 4.509630 
# 
# 
# High freq. dielectric constant tensor:
#      x y z
#    x 1.757840 0.000000 0.000020 
#    y 0.000000 1.726380 0.000000 
#    z 0.000020 0.000000 1.769700 
# 
# From -- ./inp_files/70887.got.cif
#   From: 2010.06.25/outbox.cif.g09.slc.cpg/sg11_36_cif.got.tgz:70887.got - 2010.06.27 23:14:04.
