data_PCOD8077545
_publ_section_title
;
Structure prediction by ZEFSAII (Michael W. Deem and Ramdas Pophale) SiO2 
 PCOD8077545
Probable space group: P 21/M
;
_chemical_formula_sum "Si O2"
_cell_formula_units_Z 20
_cell_length_a 7.449862
_cell_length_b 14.350817
_cell_length_c 11.626579
_cell_angle_alpha 90.000000
_cell_angle_beta 54.330778
_cell_angle_gamma 90.000000
_cell_volume 1009.822506
_symmetry_space_group_name_H-M "P 21/M"
_symmetry_group_IT_number 11
_symmetry_cell_setting 'monoclinic'
loop_
_space_group_symop_operation_xyz
x,y,z
-x,1/2+y,-z
-x,-y,-z
x,1/2-y,z
loop_
_atom_site_type_symbol
_atom_site_label
_atom_site_fract_x
_atom_site_fract_y
_atom_site_fract_z
Si Si1 0.277157 0.406757 0.768760
Si Si2 0.955582 0.750000 0.039079
Si Si3 0.500642 0.438704 0.172088
Si Si4 0.183342 0.559168 0.159848
Si Si5 0.387688 0.250000 0.562862
Si Si6 0.097397 0.750000 0.251307
Si Si7 0.410750 0.750000 0.750238
O O1 0.431110 0.488928 0.754927
O O2 0.419610 0.341688 0.629895
O O3 0.074698 0.452474 0.772169
O O4 0.190668 0.345116 0.911556
O O5 0.147652 0.750000 0.872725
O O6 0.048706 0.750000 0.133051
O O7 0.271280 0.471203 0.199214
O O8 0.464815 0.338830 0.243026
O O9 0.691599 0.430843 0.007049
O O10 0.228462 0.653053 0.222120
O O11 0.568302 0.250000 0.395133
O O12 0.141387 0.250000 0.596999
#
# Coordination Sequence:
#
# PCOD8077545 Si02
#       7
#     4   2   4   4   2   2   2
#     4   9  18  38  56  78 103 147 177 212 263 332
#     4   8  16  31  55  76 105 133 174 221 269 300
#     4  11  20  31  58  82 109 136 179 225 269 306
#     4   9  18  32  55  86 102 133 177 226 261 319
#     4   8  20  35  55  76 111 143 180 211 272 315
#     4   8  14  36  52  71 107 142 167 219 260 321
#     4  12  20  34  50  83 113 140 171 235 265 300
#
# _framework density 19.80546
#
# number of rings (size 3 to 8) (size 9 to 14) (size 15 to 20)
#    0.000    3.200    4.000    0.600    0.000    2.400 
#    0.000    7.000    0.000    4.800    0.000    0.000 
#    0.000    0.000    0.000    0.000    0.000    0.000 
#
# Total GULP energy -247826.976136 kJ/mol
# GULP energy per Si atom -12391.348807 kJ/mol
# Density = 1.976038 g / cm^3
# Si number density = 19.805460 Si / 1000 Ang^3
#
#
#
# Elastic Constant Matrix: (Units=GPa)
#
#
# Indices 1 2 3 4 5 6 
#
# 1 55.5392 36.2826 17.6906 0.0000 6.5082 0.0000
# 2 36.2826 131.1540 32.8389 0.0000 9.7211 0.0000
# 3 17.6906 32.8389 107.5706 0.0000 2.7902 0.0000
# 4 0.0000 0.0000 0.0000 18.2130 0.0000 9.7289
# 5 6.5082 9.7211 2.7902 0.0000 8.0601 0.0000
# 6 0.0000 0.0000 0.0000 9.7289 0.0000 17.9571
#
#
#
# Elastic Compliance Matrix: (Units=1/GPa)
#
#
# Indices 1 2 3 4 5 6 
#
# 1 0.023364 -0.005074 -0.001981 0.000000 -0.012061 0.000000
# 2 -0.005074 0.010088 -0.002054 0.000000 -0.007359 0.000000
# 3 -0.001981 -0.002054 0.010235 0.000000 0.000534 0.000000
# 4 0.000000 0.000000 0.000000 0.077268 0.000000 -0.041862
# 5 -0.012061 -0.007359 0.000534 0.000000 0.142497 0.000000
# 6 0.000000 0.000000 0.000000 -0.041862 0.000000 0.078368
#
#
# Mechanical properties :
#
#
# Convention : Reuss Voigt Hill
#
# Bulk Modulus (GPa) = 39.26188 51.98755 45.62471
# Shear Modulus (GPa) = 13.56753 22.67617 18.12185
#
# Velocity S-wave (km/s) = 2.62017 3.38737 3.02817
# Velocity P-wave (km/s) = 5.38707 6.45021 5.94246
#
# Compressibility (1/GPa) = 0.02547000
#
# Stress axis : x y z
#
# Youngs Moduli (GPa) = 42.80105 99.12752 97.70143
#
# Poissons Ratio (x) = 0.50293 0.19351
# Poissons Ratio (y) = 0.21715 0.20072
# Poissons Ratio (z) = 0.08477 0.20365
#
# Static dielectric constant tensor:
#      x y z
#    x 3.215280 0.000000 -0.060910 
#    y 0.000000 4.294810 0.000000 
#    z -0.060910 0.000000 3.321730 
# 
# 
# High freq. dielectric constant tensor:
#      x y z
#    x 1.734020 0.000000 -0.003470 
#    y 0.000000 1.788210 0.000000 
#    z -0.003470 0.000000 1.738660 
# 
# From -- ./inp_files/31280.got.cif
#   From: 2010.06.25/outbox.cif.g09.slc.cpg/sg11_16_cif.got.tgz:31280.got - 2010.06.27 23:14:04.
