data_PCOD8077750
_publ_section_title
;
Structure prediction by ZEFSAII (Michael W. Deem and Ramdas Pophale) SiO2 
 PCOD8077750
Probable space group: P 21/M
;
_chemical_formula_sum "Si O2"
_cell_formula_units_Z 28
_cell_length_a 29.291407
_cell_length_b 8.469987
_cell_length_c 9.259934
_cell_angle_alpha 90.000000
_cell_angle_beta 142.201427
_cell_angle_gamma 90.000000
_cell_volume 1408.028816
_symmetry_space_group_name_H-M "P 21/M"
_symmetry_group_IT_number 11
_symmetry_cell_setting 'monoclinic'
loop_
_space_group_symop_operation_xyz
x,y,z
-x,1/2+y,-z
-x,-y,-z
x,1/2-y,z
loop_
_atom_site_type_symbol
_atom_site_label
_atom_site_fract_x
_atom_site_fract_y
_atom_site_fract_z
Si Si1 0.998368 0.934756 0.157117
Si Si2 0.732686 0.064120 0.161773
Si Si3 0.268412 0.562861 0.511581
Si Si4 0.132268 0.067198 0.662656
Si Si5 0.132872 0.564200 0.981654
Si Si6 0.567982 0.436658 0.080542
Si Si7 0.566467 0.434607 0.758001
O O1 0.978873 0.750000 0.107288
O O2 0.077952 0.960589 0.430443
O O3 0.937950 0.031535 0.096193
O O4 0.000000 0.000000 0.000000
O O5 0.749102 0.250000 0.188642
O O6 0.745704 0.005179 0.359196
O O7 0.784368 0.967484 0.182099
O O8 0.648255 0.024145 0.900438
O O9 0.264467 0.750000 0.505149
O O10 0.350134 0.508041 0.658475
O O11 0.205701 0.496662 0.246816
O O12 0.112324 0.250000 0.591031
O O13 0.123881 0.026400 0.809489
O O14 0.139459 0.750000 0.967488
O O15 0.565232 0.250000 0.073802
O O16 0.500000 0.500000 0.000000
O O17 0.558681 0.507121 0.897661
O O18 0.500000 0.500000 0.500000
O O19 0.557376 0.250000 0.745182
#
# Coordination Sequence:
#
# PCOD8077750 Si02
#       7
#     4   4   4   4   4   4   4
#     4  12  25  43  65  90 118 151 190 233 280 338
#     4   9  18  37  60  81 107 147 193 239 287 342
#     4   8  17  35  59  80 105 142 187 231 278 334
#     4  12  25  40  58  86 120 153 188 235 288 340
#     4  11  22  39  62  88 116 151 191 236 286 339
#     4   9  18  34  53  78 108 143 184 229 277 332
#     4   9  19  34  54  79 111 147 188 235 287 343
#
# _framework density 19.885956
#
# number of rings (size 3 to 8) (size 9 to 14) (size 15 to 20)
#    0.000    2.000    0.000    6.000    0.000    3.429 
#    0.000    8.571    0.000    0.000    0.000    0.000 
#    0.000    0.000    0.000    0.000    0.000    0.000 
#
# Total GULP energy -347155.971492 kJ/mol
# GULP energy per Si atom -12398.427553 kJ/mol
# Density = 1.984070 g / cm^3
# Si number density = 19.885956 Si / 1000 Ang^3
#
#
#
# Elastic Constant Matrix: (Units=GPa)
#
#
# Indices 1 2 3 4 5 6 
#
# 1 134.2920 14.1925 51.2661 0.0000 9.0034 0.0000
# 2 14.1925 45.3178 17.8093 0.0000 0.0207 0.0000
# 3 51.2661 17.8093 142.0820 0.0000 3.2085 0.0000
# 4 0.0000 0.0000 0.0000 30.4543 0.0000 1.4043
# 5 9.0034 0.0207 3.2085 0.0000 32.4335 0.0000
# 6 0.0000 0.0000 0.0000 1.4043 0.0000 35.1697
#
#
#
# Elastic Compliance Matrix: (Units=1/GPa)
#
#
# Indices 1 2 3 4 5 6 
#
# 1 0.008892 -0.001622 -0.002956 0.000000 -0.002175 0.000000
# 2 -0.001622 0.023508 -0.002376 0.000000 0.000670 0.000000
# 3 -0.002956 -0.002376 0.008403 0.000000 -0.000009 0.000000
# 4 0.000000 0.000000 0.000000 0.032897 0.000000 -0.001314
# 5 -0.002175 0.000670 -0.000009 0.000000 0.031437 0.000000
# 6 0.000000 0.000000 0.000000 -0.001314 0.000000 0.028486
#
#
# Mechanical properties :
#
#
# Convention : Reuss Voigt Hill
#
# Bulk Modulus (GPa) = 37.18334 54.24754 45.71544
# Shear Modulus (GPa) = 31.94968 35.50644 33.72806
#
# Velocity S-wave (km/s) = 4.01265 4.23011 4.12281
# Velocity P-wave (km/s) = 6.34092 7.15520 6.76033
#
# Compressibility (1/GPa) = 0.02689377
#
# Stress axis : x y z
#
# Youngs Moduli (GPa) = 112.45835 42.53869 119.00695
#
# Poissons Ratio (x) = 0.06900 0.35179
# Poissons Ratio (y) = 0.18242 0.28281
# Poissons Ratio (z) = 0.33243 0.10109
#
# Static dielectric constant tensor:
#      x y z
#    x 3.399220 0.000000 0.020340 
#    y 0.000000 3.391690 0.000000 
#    z 0.020340 0.000000 3.768240 
# 
# 
# High freq. dielectric constant tensor:
#      x y z
#    x 1.782390 0.000000 0.008970 
#    y 0.000000 1.757830 0.000000 
#    z 0.008970 0.000000 1.787470 
# 
# From -- ./inp_files/28359.got.cif
#   From: 2010.06.25/outbox.cif.g09.slc.cpg/sg11_15_cif.got.tgz:28359.got - 2010.06.27 23:14:04.
