data_PCOD8077931
_publ_section_title
;
Structure prediction by ZEFSAII (Michael W. Deem and Ramdas Pophale) SiO2 
 PCOD8077931
Probable space group: P 21/M
;
_chemical_formula_sum "Si O2"
_cell_formula_units_Z 32
_cell_length_a 13.582051
_cell_length_b 9.786527
_cell_length_c 18.412754
_cell_angle_alpha 90.000000
_cell_angle_beta 68.357062
_cell_angle_gamma 90.000000
_cell_volume 2274.899753
_symmetry_space_group_name_H-M "P 21/M"
_symmetry_group_IT_number 11
_symmetry_cell_setting 'monoclinic'
loop_
_space_group_symop_operation_xyz
x,y,z
-x,1/2+y,-z
-x,-y,-z
x,1/2-y,z
loop_
_atom_site_type_symbol
_atom_site_label
_atom_site_fract_x
_atom_site_fract_y
_atom_site_fract_z
Si Si1 0.010057 0.587560 0.261187
Si Si2 0.844085 0.406763 0.039323
Si Si3 0.849316 0.097939 0.566702
Si Si4 0.959063 0.591482 0.115696
Si Si5 0.083983 0.402061 0.566702
Si Si6 0.425241 0.908518 0.115696
Si Si7 0.228755 0.587560 0.261187
Si Si8 0.616592 0.093237 0.039323
O O1 0.019295 0.750000 0.257540
O O2 0.967758 0.534922 0.195433
O O3 0.928146 0.543371 0.347188
O O4 0.127103 0.526507 0.245793
O O5 0.847326 0.250000 0.064607
O O6 0.868992 0.503237 0.100794
O O7 0.730010 0.447955 0.039979
O O8 0.927564 0.431730 0.952388
O O9 0.814398 0.250000 0.552305
O O10 0.775335 0.043372 0.652812
O O11 0.968810 0.101397 0.562380
O O12 0.837817 0.000000 0.500000
O O13 0.925363 0.750000 0.122241
O O14 0.133298 0.250000 0.552305
O O15 0.452396 0.750000 0.122241
O O16 0.336809 0.965077 0.195433
O O17 0.530214 0.996763 0.100794
O O18 0.379952 0.931729 0.047612
O O19 0.223163 0.750000 0.257539
O O20 0.588066 0.250000 0.064608
#
# Coordination Sequence:
#
# PCOD8077931 Si02
#       8
#     4   4   4   4   4   4   4   4
#     4   8  13  22  37  55  74  98 127 155 181 212
#     4   9  17  28  40  54  75 101 124 150 188 226
#     4   8  13  21  33  49  70  96 123 148 175 210
#     4   9  16  26  41  58  73  94 128 161 182 209
#     4   8  13  21  33  49  70  96 123 148 175 210
#     4   9  16  26  41  58  73  94 128 161 182 209
#     4   8  13  22  37  55  74  98 127 155 181 212
#     4   9  17  28  40  54  75 101 124 150 188 226
#
# _framework density 14.066554
#
# number of rings (size 3 to 8) (size 9 to 14) (size 15 to 20)
#    0.000    3.500    0.000    2.250    0.000    3.500 
#    0.000    1.250    0.000    3.750    0.000    0.000 
#    0.000    1.000    0.000    2.250    0.000    4.000 
#
# Total GULP energy -396618.453757 kJ/mol
# GULP energy per Si atom -12394.326680 kJ/mol
# Density = 1.403454 g / cm^3
# Si number density = 14.066554 Si / 1000 Ang^3
#
#
#
# Elastic Constant Matrix: (Units=GPa)
#
#
# Indices 1 2 3 4 5 6 
#
# 1 77.3286 38.4637 45.4990 0.0000 0.4516 0.0000
# 2 38.4637 52.1329 46.4671 0.0000 0.7895 0.0000
# 3 45.4990 46.4671 113.1716 0.0000 3.0838 0.0000
# 4 0.0000 0.0000 0.0000 21.5713 0.0000 0.3051
# 5 0.4516 0.7895 3.0838 0.0000 18.4634 0.0000
# 6 0.0000 0.0000 0.0000 0.3051 0.0000 18.4773
#
#
#
# Elastic Compliance Matrix: (Units=1/GPa)
#
#
# Indices 1 2 3 4 5 6 
#
# 1 0.021194 -0.012676 -0.003332 0.000000 0.000580 0.000000
# 2 -0.012676 0.037846 -0.010455 0.000000 0.000438 0.000000
# 3 -0.003332 -0.010455 0.014520 0.000000 -0.001897 0.000000
# 4 0.000000 0.000000 0.000000 0.046369 0.000000 -0.000766
# 5 0.000580 0.000438 -0.001897 0.000000 0.054445 0.000000
# 6 0.000000 0.000000 0.000000 -0.000766 0.000000 0.054133
#
#
# Mechanical properties :
#
#
# Convention : Reuss Voigt Hill
#
# Bulk Modulus (GPa) = 48.46245 55.94364 52.20305
# Shear Modulus (GPa) = 17.34236 19.18261 18.26248
#
# Velocity S-wave (km/s) = 3.51505 3.69684 3.60709
# Velocity P-wave (km/s) = 7.14151 7.62097 7.38513
#
# Compressibility (1/GPa) = 0.02063453
#
# Stress axis : x y z
#
# Youngs Moduli (GPa) = 47.18323 26.42269 68.86988
#
# Poissons Ratio (x) = 0.33493 0.22947
# Poissons Ratio (y) = 0.59809 0.72004
# Poissons Ratio (z) = 0.15721 0.27625
#
# Static dielectric constant tensor:
#      x y z
#    x 2.525190 0.000000 0.047840 
#    y 0.000000 2.703430 0.000000 
#    z 0.047840 0.000000 3.010280 
# 
# 
# High freq. dielectric constant tensor:
#      x y z
#    x 1.495930 0.000000 0.004110 
#    y 0.000000 1.518810 0.000000 
#    z 0.004110 0.000000 1.537650 
# 
# From -- ./inp_files/38928.got.cif
#   From: 2010.06.25/outbox.cif.g09.slc.cpg/sg11_20_cif.got.tgz:38928.got - 2010.06.27 23:14:04.
