data_PCOD8077176
_publ_section_title
;
Structure prediction by ZEFSAII (Michael W. Deem and Ramdas Pophale) SiO2 
 PCOD8077176
Probable space group: P 21/M
;
_chemical_formula_sum "Si O2"
_cell_formula_units_Z 28
_cell_length_a 9.569743
_cell_length_b 14.418506
_cell_length_c 12.063487
_cell_angle_alpha 90.000000
_cell_angle_beta 123.900511
_cell_angle_gamma 90.000000
_cell_volume 1381.577702
_symmetry_space_group_name_H-M "P 21/M"
_symmetry_group_IT_number 11
_symmetry_cell_setting 'monoclinic'
loop_
_space_group_symop_operation_xyz
x,y,z
-x,1/2+y,-z
-x,-y,-z
x,1/2-y,z
loop_
_atom_site_type_symbol
_atom_site_label
_atom_site_fract_x
_atom_site_fract_y
_atom_site_fract_z
Si Si1 0.307318 0.148201 0.422910
Si Si2 0.174934 0.956980 0.321022
Si Si3 0.635125 0.353802 0.416721
Si Si4 0.444671 0.358792 0.119547
Si Si5 0.561595 0.145182 0.709999
Si Si6 0.121555 0.019740 0.951324
Si Si7 0.350733 0.855904 0.006466
O O1 0.221064 0.250000 0.373813
O O2 0.473118 0.143633 0.422049
O O3 0.374410 0.130235 0.577845
O O4 0.177886 0.068962 0.331095
O O5 0.216230 0.913215 0.459624
O O6 0.307063 0.925568 0.286034
O O7 0.987722 0.931949 0.195489
O O8 0.706048 0.250000 0.434674
O O9 0.578691 0.393517 0.271850
O O10 0.408178 0.250000 0.120872
O O11 0.269158 0.411964 0.055311
O O12 0.520798 0.382248 0.033909
O O13 0.624558 0.250000 0.711512
O O14 0.548120 0.127783 0.834800
O O15 0.190478 0.922766 0.933926
O O16 0.000000 0.000000 0.000000
O O17 0.287235 0.750000 0.965935
#
# Coordination Sequence:
#
# PCOD8077176 Si02
#       7
#     4   4   4   4   4   4   4
#     4   9  18  31  52  82 115 151 198 241 285 346
#     4  11  20  32  56  87 123 147 187 247 305 342
#     4   9  18  34  57  83 110 152 198 240 288 348
#     4  10  23  42  64  86 117 161 205 242 288 357
#     4   9  17  32  57  85 110 150 200 245 288 341
#     4  12  24  37  58  95 125 152 194 249 309 350
#     4  10  22  41  62  84 118 163 204 241 289 355
#
# _framework density 20.266684000000001
#
# number of rings (size 3 to 8) (size 9 to 14) (size 15 to 20)
#    0.000    2.000    1.429    4.286    2.000    2.286 
#    0.000    0.714    0.000    0.000    0.000    0.000 
#    0.000    0.000    0.000    0.000    0.000    0.000 
#
# Total GULP energy -347119.182949 kJ/mol
# GULP energy per Si atom -12397.113677 kJ/mol
# Density = 2.022056 g / cm^3
# Si number density = 20.266684 Si / 1000 Ang^3
#
#
#
# Elastic Constant Matrix: (Units=GPa)
#
#
# Indices 1 2 3 4 5 6 
#
# 1 74.2236 35.8068 44.7680 0.0000 -8.2163 0.0000
# 2 35.8068 99.1983 56.7428 0.0000 6.8650 0.0000
# 3 44.7680 56.7428 150.3883 0.0000 -10.8767 0.0000
# 4 0.0000 0.0000 0.0000 29.2187 0.0000 -0.6926
# 5 -8.2163 6.8650 -10.8767 0.0000 27.1689 0.0000
# 6 0.0000 0.0000 0.0000 -0.6926 0.0000 18.7180
#
#
#
# Elastic Compliance Matrix: (Units=1/GPa)
#
#
# Indices 1 2 3 4 5 6 
#
# 1 0.018538 -0.005312 -0.003101 0.000000 0.005707 0.000000
# 2 -0.005312 0.015178 -0.004674 0.000000 -0.007313 0.000000
# 3 -0.003101 -0.004674 0.009633 0.000000 0.004100 0.000000
# 4 0.000000 0.000000 0.000000 0.034255 0.000000 0.001267
# 5 0.005707 -0.007313 0.004100 0.000000 0.042022 0.000000
# 6 0.000000 0.000000 0.000000 0.001267 0.000000 0.053471
#
#
# Mechanical properties :
#
#
# Convention : Reuss Voigt Hill
#
# Bulk Modulus (GPa) = 58.23140 66.49392 62.36266
# Shear Modulus (GPa) = 24.39058 27.45398 25.92228
#
# Velocity S-wave (km/s) = 3.47289 3.68453 3.58027
# Velocity P-wave (km/s) = 6.69897 7.14015 6.92307
#
# Compressibility (1/GPa) = 0.01717286
#
# Stress axis : x y z
#
# Youngs Moduli (GPa) = 53.94368 65.88341 103.81173
#
# Poissons Ratio (x) = 0.35000 0.32194
# Poissons Ratio (y) = 0.28657 0.48526
# Poissons Ratio (z) = 0.16729 0.30797
#
# Static dielectric constant tensor:
#      x y z
#    x 3.161930 0.000000 -0.160140 
#    y 0.000000 3.915410 0.000000 
#    z -0.160140 0.000000 4.155270 
# 
# 
# High freq. dielectric constant tensor:
#      x y z
#    x 1.731850 0.000000 -0.014370 
#    y 0.000000 1.805070 0.000000 
#    z -0.014370 0.000000 1.810960 
# 
# From -- ./inp_files/31956.got.cif
#   From: 2010.06.25/outbox.cif.g09.slc.cpg/sg11_16_cif.got.tgz:31956.got - 2010.06.27 23:14:04.
