data_PCOD8077897
_publ_section_title
;
Structure prediction by ZEFSAII (Michael W. Deem and Ramdas Pophale) SiO2 
 PCOD8077897
Probable space group: P 21/M
;
_chemical_formula_sum "Si O2"
_cell_formula_units_Z 20
_cell_length_a 7.026810
_cell_length_b 18.086014
_cell_length_c 11.984028
_cell_angle_alpha 90.000000
_cell_angle_beta 37.515670
_cell_angle_gamma 90.000000
_cell_volume 927.482588
_symmetry_space_group_name_H-M "P 21/M"
_symmetry_group_IT_number 11
_symmetry_cell_setting 'monoclinic'
loop_
_space_group_symop_operation_xyz
x,y,z
-x,1/2+y,-z
-x,-y,-z
x,1/2-y,z
loop_
_atom_site_type_symbol
_atom_site_label
_atom_site_fract_x
_atom_site_fract_y
_atom_site_fract_z
Si Si1 0.502889 0.335279 0.444625
Si Si2 0.280827 0.409513 0.756081
Si Si3 0.314297 0.044798 0.376349
Si Si4 0.420819 0.922981 0.981001
Si Si5 0.808539 0.665060 0.966740
O O1 0.407710 0.250000 0.471294
O O2 0.490873 0.355362 0.581665
O O3 0.263037 0.388114 0.487798
O O4 0.848180 0.351957 0.238958
O O5 0.427205 0.490855 0.691220
O O6 0.258491 0.381411 0.891948
O O7 0.947700 0.414035 0.852691
O O8 0.431858 0.082540 0.209226
O O9 0.000000 0.000000 0.500000
O O10 0.556965 0.856068 0.990245
O O11 0.500000 0.000000 0.000000
O O12 0.766793 0.750000 0.016929
#
# Coordination Sequence:
#
# PCOD8077897 Si02
#       5
#     4   4   4   4   4
#     4  11  25  45  68 100 141 182 229 286 350 412
#     4  12  24  46  71 100 141 181 236 287 343 413
#     4  12  24  44  72 104 140 185 233 289 345 412
#     4  12  23  42  71 102 134 179 229 287 344 412
#     4  11  25  45  69 101 139 183 231 286 352 415
#
# _framework density 21.563749000000001
#
# number of rings (size 3 to 8) (size 9 to 14) (size 15 to 20)
#    0.000    0.400    4.000    5.400    0.000    2.400 
#    0.000    1.000    0.000    0.000    0.000    0.000 
#    0.000    0.000    0.000    0.000    0.000    0.000 
#
# Total GULP energy -248132.542059 kJ/mol
# GULP energy per Si atom -12406.627103 kJ/mol
# Density = 2.151467 g / cm^3
# Si number density = 21.563749 Si / 1000 Ang^3
#
#
#
# Elastic Constant Matrix: (Units=GPa)
#
#
# Indices 1 2 3 4 5 6 
#
# 1 123.5929 56.8421 47.9721 0.0000 0.3269 0.0000
# 2 56.8421 126.7497 45.5129 0.0000 3.2183 0.0000
# 3 47.9721 45.5129 101.3255 0.0000 23.1882 0.0000
# 4 0.0000 0.0000 0.0000 27.6333 0.0000 -1.7828
# 5 0.3269 3.2183 23.1882 0.0000 42.0593 0.0000
# 6 0.0000 0.0000 0.0000 -1.7828 0.0000 34.9421
#
#
#
# Elastic Compliance Matrix: (Units=1/GPa)
#
#
# Indices 1 2 3 4 5 6 
#
# 1 0.011457 -0.003627 -0.004393 0.000000 0.002610 0.000000
# 2 -0.003627 0.010681 -0.003319 0.000000 0.001041 0.000000
# 3 -0.004393 -0.003319 0.015305 0.000000 -0.008150 0.000000
# 4 0.000000 0.000000 0.000000 0.036308 0.000000 0.001852
# 5 0.002610 0.001041 -0.008150 0.000000 0.028169 0.000000
# 6 0.000000 0.000000 0.000000 0.001852 0.000000 0.028713
#
#
# Mechanical properties :
#
#
# Convention : Reuss Voigt Hill
#
# Bulk Modulus (GPa) = 67.72087 72.48028 70.10057
# Shear Modulus (GPa) = 31.59911 34.34967 32.97439
#
# Velocity S-wave (km/s) = 3.83218 3.99549 3.91469
# Velocity P-wave (km/s) = 7.14521 7.41420 7.28094
#
# Compressibility (1/GPa) = 0.01476650
#
# Stress axis : x y z
#
# Youngs Moduli (GPa) = 87.28065 93.62028 65.34022
#
# Poissons Ratio (x) = 0.33958 0.28701
# Poissons Ratio (y) = 0.31658 0.21685
# Poissons Ratio (z) = 0.38338 0.31070
#
# Static dielectric constant tensor:
#      x y z
#    x 4.214040 0.000000 0.045770 
#    y 0.000000 3.848560 0.000000 
#    z 0.045770 0.000000 4.135040 
# 
# 
# High freq. dielectric constant tensor:
#      x y z
#    x 1.855790 0.000000 0.011770 
#    y 0.000000 1.850380 0.000000 
#    z 0.011770 0.000000 1.861520 
# 
# From -- ./inp_files/2471.got.cif
#   From: 2010.06.25/outbox.cif.g09.slc.cpg/sg11_2_cif.got.tgz:2471.got - 2010.06.27 23:14:04.
