data_PCOD8077762
_publ_section_title
;
Structure prediction by ZEFSAII (Michael W. Deem and Ramdas Pophale) SiO2 
 PCOD8077762
Probable space group: P 21/M
;
_chemical_formula_sum "Si O2"
_cell_formula_units_Z 24
_cell_length_a 11.275845
_cell_length_b 13.541690
_cell_length_c 14.605796
_cell_angle_alpha 90.000000
_cell_angle_beta 149.223379
_cell_angle_gamma 90.000000
_cell_volume 1141.185130
_symmetry_space_group_name_H-M "P 21/M"
_symmetry_group_IT_number 11
_symmetry_cell_setting 'monoclinic'
loop_
_space_group_symop_operation_xyz
x,y,z
-x,1/2+y,-z
-x,-y,-z
x,1/2-y,z
loop_
_atom_site_type_symbol
_atom_site_label
_atom_site_fract_x
_atom_site_fract_y
_atom_site_fract_z
Si Si1 0.177499 0.638533 0.760262
Si Si2 0.500836 0.135727 0.190328
Si Si3 0.788987 0.489134 0.524666
Si Si4 0.415445 0.859638 0.304385
Si Si5 0.980621 0.061531 0.835116
Si Si6 0.847022 0.358478 0.048052
O O1 0.083163 0.750000 0.679951
O O2 0.402849 0.618629 0.848047
O O3 0.254457 0.625829 0.917076
O O4 0.977821 0.560136 0.601601
O O5 0.498829 0.250000 0.216529
O O6 0.669387 0.080453 0.372095
O O7 0.243420 0.094315 0.024592
O O8 0.607286 0.560173 0.457215
O O9 0.902844 0.420139 0.678590
O O10 0.505594 0.750000 0.389172
O O11 0.178339 0.878303 0.201440
O O12 0.367107 0.867320 0.163689
O O13 0.964065 0.943834 0.846641
O O14 0.965315 0.250000 0.116503
#
# Coordination Sequence:
#
# PCOD8077762 Si02
#       6
#     4   4   4   4   4   4
#     4   9  20  41  64  93 126 159 203 253 304 360
#     4  11  24  42  63  90 127 163 203 255 307 363
#     4  11  23  40  65  92 122 163 208 249 304 364
#     4  11  22  40  64  93 125 160 205 254 304 362
#     4  11  23  42  63  90 128 160 204 251 308 367
#     4   9  19  36  63  90 118 161 205 245 297 357
#
# _framework density 21.030767000000001
#
# number of rings (size 3 to 8) (size 9 to 14) (size 15 to 20)
#    0.000    1.667    1.667    2.500    0.000    4.667 
#    3.000    0.000    0.000    0.000    0.000    0.000 
#    0.000    0.000    0.000    0.000    0.000    0.000 
#
# Total GULP energy -297577.417221 kJ/mol
# GULP energy per Si atom -12399.059051 kJ/mol
# Density = 2.098290 g / cm^3
# Si number density = 21.030767 Si / 1000 Ang^3
#
#
#
# Elastic Constant Matrix: (Units=GPa)
#
#
# Indices 1 2 3 4 5 6 
#
# 1 77.4458 38.3745 31.1810 0.0000 5.9921 0.0000
# 2 38.3745 110.2809 32.9415 0.0000 -4.6124 0.0000
# 3 31.1810 32.9415 87.5237 0.0000 -4.8010 0.0000
# 4 0.0000 0.0000 0.0000 15.7545 0.0000 -1.6479
# 5 5.9921 -4.6124 -4.8010 0.0000 31.4045 0.0000
# 6 0.0000 0.0000 0.0000 -1.6479 0.0000 23.4278
#
#
#
# Elastic Compliance Matrix: (Units=1/GPa)
#
#
# Indices 1 2 3 4 5 6 
#
# 1 0.017612 -0.004931 -0.004682 0.000000 -0.004800 0.000000
# 2 -0.004931 0.011623 -0.002494 0.000000 0.002267 0.000000
# 3 -0.004682 -0.002494 0.014180 0.000000 0.002695 0.000000
# 4 0.000000 0.000000 0.000000 0.063944 0.000000 0.004498
# 5 -0.004800 0.002267 0.002695 0.000000 0.033503 0.000000
# 6 0.000000 0.000000 0.000000 0.004498 0.000000 0.043001
#
#
# Mechanical properties :
#
#
# Convention : Reuss Voigt Hill
#
# Bulk Modulus (GPa) = 52.07719 53.36049 52.71884
# Shear Modulus (GPa) = 23.31257 25.63425 24.47341
#
# Velocity S-wave (km/s) = 3.33302 3.49505 3.41500
# Velocity P-wave (km/s) = 6.29509 6.45870 6.37742
#
# Compressibility (1/GPa) = 0.01920227
#
# Stress axis : x y z
#
# Youngs Moduli (GPa) = 56.78005 86.03511 70.52270
#
# Poissons Ratio (x) = 0.42421 0.33018
# Poissons Ratio (y) = 0.27996 0.17586
# Poissons Ratio (z) = 0.26584 0.21455
#
# Static dielectric constant tensor:
#      x y z
#    x 3.696690 0.000000 -0.145660 
#    y 0.000000 4.162750 0.000000 
#    z -0.145660 0.000000 3.683970 
# 
# 
# High freq. dielectric constant tensor:
#      x y z
#    x 1.813450 0.000000 -0.011860 
#    y 0.000000 1.839720 0.000000 
#    z -0.011860 0.000000 1.817040 
# 
# From -- ./inp_files/50423.got.cif
#   From: 2010.06.25/outbox.cif.g09.slc.cpg/sg11_26_cif.got.tgz:50423.got - 2010.06.27 23:14:04.
