data_PCOD8077482
_publ_section_title
;
Structure prediction by ZEFSAII (Michael W. Deem and Ramdas Pophale) SiO2 
 PCOD8077482
Probable space group: P 21/M
;
_chemical_formula_sum "Si O2"
_cell_formula_units_Z 16
_cell_length_a 5.450013
_cell_length_b 16.864580
_cell_length_c 9.211664
_cell_angle_alpha 90.000000
_cell_angle_beta 50.171485
_cell_angle_gamma 90.000000
_cell_volume 650.208292
_symmetry_space_group_name_H-M "P 21/M"
_symmetry_group_IT_number 11
_symmetry_cell_setting 'monoclinic'
loop_
_space_group_symop_operation_xyz
x,y,z
-x,1/2+y,-z
-x,-y,-z
x,1/2-y,z
loop_
_atom_site_type_symbol
_atom_site_label
_atom_site_fract_x
_atom_site_fract_y
_atom_site_fract_z
Si Si1 0.644400 0.609325 0.008332
Si Si2 0.789490 0.250000 0.825605
Si Si3 0.449595 0.750000 0.415982
Si Si4 0.689306 0.335221 0.266022
Si Si5 0.689740 0.980877 0.707037
O O1 0.371291 0.669292 0.049873
O O2 0.521586 0.560891 0.195918
O O3 0.767178 0.547869 0.840118
O O4 0.955675 0.658638 0.935658
O O5 0.694160 0.250000 0.689967
O O6 0.162436 0.250000 0.719837
O O7 0.315128 0.827164 0.555165
O O8 0.552712 0.250000 0.255355
O O9 0.487293 0.411676 0.309133
O O10 0.000000 0.000000 0.500000
#
# Coordination Sequence:
#
# PCOD8077482 Si02
#       5
#     4   2   2   4   4
#     4  11  26  44  75 106 150 197 253 313 379 451
#     4  12  25  49  74 117 148 199 261 304 386 452
#     4  10  27  41  80 111 146 201 255 312 370 456
#     4  10  24  44  71 107 145 198 251 314 371 456
#     4  11  26  47  71 107 153 199 250 319 379 456
#
# _framework density 24.607499000000001
#
# number of rings (size 3 to 8) (size 9 to 14) (size 15 to 20)
#    0.750    0.500    1.250    2.250   12.250    1.000 
#    0.000    0.000    0.000    0.000    0.000    0.000 
#    0.000    0.000    0.000    0.000    0.000    0.000 
#
# Total GULP energy -198266.963456 kJ/mol
# GULP energy per Si atom -12391.685216 kJ/mol
# Density = 2.455149 g / cm^3
# Si number density = 24.607499 Si / 1000 Ang^3
#
#
#
# Elastic Constant Matrix: (Units=GPa)
#
#
# Indices 1 2 3 4 5 6 
#
# 1 61.6984 2.5617 38.4908 0.0000 -13.7838 0.0000
# 2 2.5617 108.2496 60.3048 0.0000 -16.6766 0.0000
# 3 38.4908 60.3048 171.0974 0.0000 -32.5563 0.0000
# 4 0.0000 0.0000 0.0000 44.1658 0.0000 -5.1346
# 5 -13.7838 -16.6766 -32.5563 0.0000 37.4800 0.0000
# 6 0.0000 0.0000 0.0000 -5.1346 0.0000 35.5861
#
#
#
# Elastic Compliance Matrix: (Units=1/GPa)
#
#
# Indices 1 2 3 4 5 6 
#
# 1 0.019995 0.002804 -0.004612 0.000000 0.004595 0.000000
# 2 0.002804 0.012004 -0.004372 0.000000 0.002575 0.000000
# 3 -0.004612 -0.004372 0.009261 0.000000 0.004403 0.000000
# 4 0.000000 0.000000 0.000000 0.023028 0.000000 0.003323
# 5 0.004595 0.002575 0.004403 0.000000 0.033341 0.000000
# 6 0.000000 0.000000 0.000000 0.003323 0.000000 0.028580
#
#
# Mechanical properties :
#
#
# Convention : Reuss Voigt Hill
#
# Bulk Modulus (GPa) = 34.60180 60.41779 47.50979
# Shear Modulus (GPa) = 33.73769 39.42560 36.58165
#
# Velocity S-wave (km/s) = 3.70676 4.00706 3.85984
# Velocity P-wave (km/s) = 5.69317 6.78341 6.26206
#
# Compressibility (1/GPa) = 0.02890023
#
# Stress axis : x y z
#
# Youngs Moduli (GPa) = 50.01157 83.30797 107.98172
#
# Poissons Ratio (x) = -0.23361 0.49804
# Poissons Ratio (y) = -0.14024 0.47206
# Poissons Ratio (z) = 0.23067 0.36420
#
# Static dielectric constant tensor:
#      x y z
#    x 4.057530 0.000000 -0.084130 
#    y 0.000000 5.359790 0.000000 
#    z -0.084130 0.000000 4.843250 
# 
# 
# High freq. dielectric constant tensor:
#      x y z
#    x 1.945450 0.000000 -0.006930 
#    y 0.000000 1.997700 0.000000 
#    z -0.006930 0.000000 2.002980 
# 
# From -- ./inp_files/1815.got.cif
#   From: 2010.06.25/outbox.cif.g09.slc.cpg/sg11_1_cif.got.tgz:1815.got - 2010.06.27 23:14:04.
