data_PCOD8077265
_publ_section_title
;
Structure prediction by ZEFSAII (Michael W. Deem and Ramdas Pophale) SiO2 
 PCOD8077265
Probable space group: P 21/M
;
_chemical_formula_sum "Si O2"
_cell_formula_units_Z 32
_cell_length_a 28.782286
_cell_length_b 8.540898
_cell_length_c 11.895751
_cell_angle_alpha 90.000000
_cell_angle_beta 148.874242
_cell_angle_gamma 90.000000
_cell_volume 1511.619641
_symmetry_space_group_name_H-M "P 21/M"
_symmetry_group_IT_number 11
_symmetry_cell_setting 'monoclinic'
loop_
_space_group_symop_operation_xyz
x,y,z
-x,1/2+y,-z
-x,-y,-z
x,1/2-y,z
loop_
_atom_site_type_symbol
_atom_site_label
_atom_site_fract_x
_atom_site_fract_y
_atom_site_fract_z
Si Si1 0.498777 0.433193 0.372314
Si Si2 0.817000 0.072910 0.041924
Si Si3 0.822036 0.071529 0.308736
Si Si4 0.337035 0.431813 0.891222
Si Si5 0.269662 0.435096 0.517276
Si Si6 0.664410 0.930297 0.588649
Si Si7 0.921557 0.064997 0.915421
Si Si8 0.975609 0.934121 0.260644
O O1 0.500000 0.500000 0.500000
O O2 0.484989 0.250000 0.357308
O O3 0.590269 0.464310 0.495207
O O4 0.417605 0.510872 0.130404
O O5 0.804288 0.250000 0.971526
O O6 0.758085 0.954797 0.846498
O O7 0.788067 0.060374 0.110909
O O8 0.921146 0.021776 0.246659
O O9 0.817579 0.250000 0.342943
O O10 0.922472 0.004266 0.529337
O O11 0.758996 0.964807 0.253111
O O12 0.356226 0.250000 0.932865
O O13 0.333326 0.487499 0.753484
O O14 0.248914 0.250000 0.476182
O O15 0.322780 0.482517 0.514182
O O16 0.175973 0.526933 0.337687
O O17 0.635698 0.750000 0.537888
O O18 0.933078 0.250000 0.954228
O O19 0.926500 0.976688 0.043611
O O20 0.000000 0.000000 0.000000
O O21 0.973657 0.750000 0.279203
#
# Coordination Sequence:
#
# PCOD8077265 Si02
#       8
#     4   4   4   4   4   4   4   4
#     4  11  24  43  67  96 128 161 206 256 311 376
#     4  11  22  38  60  89 124 162 208 258 310 368
#     4  10  23  39  58  87 123 162 205 258 312 369
#     4  10  23  42  64  90 121 160 205 256 310 367
#     4  10  22  42  64  89 124 162 207 258 311 369
#     4  11  23  40  65  93 125 165 207 256 316 374
#     4  12  24  38  59  87 122 165 213 260 310 365
#     4  11  22  38  58  86 122 161 207 255 310 371
#
# _framework density 21.169345
#
# number of rings (size 3 to 8) (size 9 to 14) (size 15 to 20)
#    0.000    1.250    1.250    4.500    0.000    8.500 
#    0.000    0.000    0.000    0.000    0.000    0.000 
#    0.000    0.000    0.000    0.000    0.000    0.000 
#
# Total GULP energy -396907.933038 kJ/mol
# GULP energy per Si atom -12403.372907 kJ/mol
# Density = 2.112116 g / cm^3
# Si number density = 21.169345 Si / 1000 Ang^3
#
#
#
# Elastic Constant Matrix: (Units=GPa)
#
#
# Indices 1 2 3 4 5 6 
#
# 1 125.5197 23.5151 52.4943 0.0000 -0.9244 0.0000
# 2 23.5151 43.5778 17.6111 0.0000 -5.9864 0.0000
# 3 52.4943 17.6111 131.8176 0.0000 -8.8027 0.0000
# 4 0.0000 0.0000 0.0000 28.0013 0.0000 5.5984
# 5 -0.9244 -5.9864 -8.8027 0.0000 34.5540 0.0000
# 6 0.0000 0.0000 0.0000 5.5984 0.0000 30.5858
#
#
#
# Elastic Compliance Matrix: (Units=1/GPa)
#
#
# Indices 1 2 3 4 5 6 
#
# 1 0.010267 -0.004271 -0.003610 0.000000 -0.001385 0.000000
# 2 -0.004271 0.026442 -0.001560 0.000000 0.004069 0.000000
# 3 -0.003610 -0.001560 0.009367 0.000000 0.002019 0.000000
# 4 0.000000 0.000000 0.000000 0.037069 0.000000 -0.006785
# 5 -0.001385 0.004069 0.002019 0.000000 0.030123 0.000000
# 6 0.000000 0.000000 0.000000 -0.006785 0.000000 0.033937
#
#
# Mechanical properties :
#
#
# Convention : Reuss Voigt Hill
#
# Bulk Modulus (GPa) = 36.77486 54.23957 45.50722
# Shear Modulus (GPa) = 28.54662 32.44784 30.49723
#
# Velocity S-wave (km/s) = 3.67616 3.91931 3.79968
# Velocity P-wave (km/s) = 5.95217 6.79402 6.38698
#
# Compressibility (1/GPa) = 0.02719249
#
# Stress axis : x y z
#
# Youngs Moduli (GPa) = 97.40128 37.81904 106.75414
#
# Poissons Ratio (x) = 0.16154 0.38543
# Poissons Ratio (y) = 0.41603 0.16653
# Poissons Ratio (z) = 0.35166 0.05900
#
# Static dielectric constant tensor:
#      x y z
#    x 3.799990 0.000000 -0.157820 
#    y 0.000000 3.677850 0.000000 
#    z -0.157820 0.000000 4.038630 
# 
# 
# High freq. dielectric constant tensor:
#      x y z
#    x 1.840090 0.000000 -0.006220 
#    y 0.000000 1.822160 0.000000 
#    z -0.006220 0.000000 1.836460 
# 
# From -- ./inp_files/45268.got.cif
#   From: 2010.06.25/outbox.cif.g09.slc.cpg/sg11_23_cif.got.tgz:45268.got - 2010.06.27 23:14:04.
