data_PCOD8077266
_publ_section_title
;
Structure prediction by ZEFSAII (Michael W. Deem and Ramdas Pophale) SiO2 
 PCOD8077266
Probable space group: P 21/M
;
_chemical_formula_sum "Si O2"
_cell_formula_units_Z 32
_cell_length_a 18.220787
_cell_length_b 8.790993
_cell_length_c 30.274486
_cell_angle_alpha 90.000000
_cell_angle_beta 19.021659
_cell_angle_gamma 90.000000
_cell_volume 1580.520962
_symmetry_space_group_name_H-M "P 21/M"
_symmetry_group_IT_number 11
_symmetry_cell_setting 'monoclinic'
loop_
_space_group_symop_operation_xyz
x,y,z
-x,1/2+y,-z
-x,-y,-z
x,1/2-y,z
loop_
_atom_site_type_symbol
_atom_site_label
_atom_site_fract_x
_atom_site_fract_y
_atom_site_fract_z
Si Si1 0.539443 0.070923 0.608657
Si Si2 0.341971 0.070521 0.626691
Si Si3 0.542809 0.930301 0.928445
Si Si4 0.991631 0.423075 0.639330
Si Si5 0.595595 0.427725 0.143075
Si Si6 0.157575 0.928964 0.083179
Si Si7 0.855039 0.076253 0.619831
Si Si8 0.245403 0.070807 0.859264
O O1 0.583747 0.250000 0.587074
O O2 0.420983 0.024274 0.630520
O O3 0.381359 0.014572 0.738806
O O4 0.775868 0.985718 0.474376
O O5 0.346438 0.250000 0.618343
O O6 0.088249 0.005731 0.764446
O O7 0.500000 0.000000 0.500000
O O8 0.529218 0.750000 0.938587
O O9 0.788934 0.976340 0.772565
O O10 0.351421 0.998403 0.004383
O O11 0.500000 0.000000 0.000000
O O12 0.958921 0.250000 0.674195
O O13 0.999649 0.432434 0.581964
O O14 0.585031 0.250000 0.160695
O O15 0.370726 0.479091 0.245926
O O16 0.619167 0.521458 0.174487
O O17 0.796818 0.465049 0.994464
O O18 0.158937 0.750000 0.089279
O O19 0.796627 0.250000 0.640587
O O20 0.000000 0.000000 0.500000
O O21 0.217414 0.250000 0.874074
O O22 0.000000 0.000000 0.000000
#
# Coordination Sequence:
#
# PCOD8077266 Si02
#       8
#     4   4   4   4   4   4   4   4
#     4  10  23  42  63  88 126 168 207 254 314 380
#     4  10  22  42  64  90 119 156 203 252 306 367
#     4  11  23  41  65  94 125 165 208 257 317 378
#     4  11  24  41  62  91 128 166 210 262 310 371
#     4  11  21  38  63  90 121 162 204 252 312 375
#     4   9  20  40  65  89 122 163 202 247 312 380
#     4  11  23  38  58  88 124 164 208 256 307 368
#     4  11  23  40  63  92 125 166 212 262 314 373
#
# _framework density 20.246487999999999
#
# number of rings (size 3 to 8) (size 9 to 14) (size 15 to 20)
#    0.000    1.500    1.250    3.375    1.750    7.000 
#    0.000    3.125    0.000    0.000    0.000    0.000 
#    0.000    0.000    0.000    0.000    0.000    0.000 
#
# Total GULP energy -396897.661454 kJ/mol
# GULP energy per Si atom -12403.051920 kJ/mol
# Density = 2.020041 g / cm^3
# Si number density = 20.246488 Si / 1000 Ang^3
#
#
#
# Elastic Constant Matrix: (Units=GPa)
#
#
# Indices 1 2 3 4 5 6 
#
# 1 127.5388 39.5656 66.6854 0.0000 4.6250 0.0000
# 2 39.5656 59.0126 44.8827 0.0000 4.3985 0.0000
# 3 66.6854 44.8827 164.4265 0.0000 -0.6938 0.0000
# 4 0.0000 0.0000 0.0000 36.6396 0.0000 1.4209
# 5 4.6250 4.3985 -0.6938 0.0000 39.0990 0.0000
# 6 0.0000 0.0000 0.0000 1.4209 0.0000 33.4677
#
#
#
# Elastic Compliance Matrix: (Units=1/GPa)
#
#
# Indices 1 2 3 4 5 6 
#
# 1 0.011046 -0.004968 -0.003127 0.000000 -0.000803 0.000000
# 2 -0.004968 0.023868 -0.004510 0.000000 -0.002178 0.000000
# 3 -0.003127 -0.004510 0.008585 0.000000 0.001030 0.000000
# 4 0.000000 0.000000 0.000000 0.027338 0.000000 -0.001161
# 5 -0.000803 -0.002178 0.001030 0.000000 0.025934 0.000000
# 6 0.000000 0.000000 0.000000 -0.001161 0.000000 0.029929
#
#
# Mechanical properties :
#
#
# Convention : Reuss Voigt Hill
#
# Bulk Modulus (GPa) = 54.67294 72.58280 63.62787
# Shear Modulus (GPa) = 31.64417 35.16422 33.40419
#
# Velocity S-wave (km/s) = 3.95770 4.17202 4.06627
# Velocity P-wave (km/s) = 6.92436 7.68993 7.31717
#
# Compressibility (1/GPa) = 0.01829058
#
# Stress axis : x y z
#
# Youngs Moduli (GPa) = 90.52974 41.89653 116.47664
#
# Poissons Ratio (x) = 0.20812 0.36426
# Poissons Ratio (y) = 0.44971 0.52528
# Poissons Ratio (z) = 0.28311 0.18894
#
# Static dielectric constant tensor:
#      x y z
#    x 3.580030 0.000000 -0.148210 
#    y 0.000000 2.733270 0.000000 
#    z -0.148210 0.000000 3.686130 
# 
# 
# High freq. dielectric constant tensor:
#      x y z
#    x 1.802160 0.000000 0.000060 
#    y 0.000000 1.781310 0.000000 
#    z 0.000060 0.000000 1.805810 
# 
# From -- ./inp_files/73497.got.cif
#   From: 2010.06.25/outbox.cif.g09.slc.cpg/sg11_37_cif.got.tgz:73497.got - 2010.06.27 23:14:04.
