data_PCOD8077650
_publ_section_title
;
Structure prediction by ZEFSAII (Michael W. Deem and Ramdas Pophale) SiO2 
 PCOD8077650
Probable space group: P 21/M
;
_chemical_formula_sum "Si O2"
_cell_formula_units_Z 24
_cell_length_a 22.668177
_cell_length_b 8.735894
_cell_length_c 16.344900
_cell_angle_alpha 90.000000
_cell_angle_beta 157.043604
_cell_angle_gamma 90.000000
_cell_volume 1262.422617
_symmetry_space_group_name_H-M "P 21/M"
_symmetry_group_IT_number 11
_symmetry_cell_setting 'monoclinic'
loop_
_space_group_symop_operation_xyz
x,y,z
-x,1/2+y,-z
-x,-y,-z
x,1/2-y,z
loop_
_atom_site_type_symbol
_atom_site_label
_atom_site_fract_x
_atom_site_fract_y
_atom_site_fract_z
Si Si1 0.106058 0.431419 0.522895
Si Si2 0.937818 0.068341 0.003452
Si Si3 0.383059 0.432051 0.413558
Si Si4 0.784064 0.068984 0.175965
Si Si5 0.468354 0.432119 0.703237
Si Si6 0.190129 0.068500 0.452588
O O1 0.117612 0.250000 0.540734
O O2 0.212603 0.499884 0.728987
O O3 0.165800 0.497281 0.512784
O O4 0.931772 0.483683 0.313631
O O5 0.926401 0.250000 0.981383
O O6 0.048792 0.016719 0.217547
O O7 0.777237 0.996611 0.819008
O O8 0.000000 0.000000 0.000000
O O9 0.500000 0.500000 0.500000
O O10 0.382599 0.250000 0.409321
O O11 0.424722 0.491789 0.557508
O O12 0.777780 0.250000 0.176285
O O13 0.634559 0.006160 0.939458
O O14 0.466148 0.250000 0.700520
O O15 0.345405 0.495799 0.611377
O O16 0.197583 0.250000 0.465438
#
# Coordination Sequence:
#
# PCOD8077650 Si02
#       6
#     4   4   4   4   4   4
#     4   9  18  33  54  77 102 136 179 221 268 325
#     4  11  21  37  60  84 115 152 189 231 278 333
#     4  11  23  39  58  84 115 150 191 234 281 333
#     4   9  18  33  54  76 103 138 177 221 269 322
#     4   9  18  34  55  78 106 142 182 221 268 332
#     4   9  18  33  55  80 105 142 184 219 266 332
#
# _framework density 19.011066
#
# number of rings (size 3 to 8) (size 9 to 14) (size 15 to 20)
#    0.000    2.333    1.667    1.000    2.333    0.667 
#    0.000    3.333    0.000    0.000    0.000    0.000 
#    0.000    0.000    0.000    0.000    0.000    0.000 
#
# Total GULP energy -297597.342596 kJ/mol
# GULP energy per Si atom -12399.889275 kJ/mol
# Density = 1.896780 g / cm^3
# Si number density = 19.011066 Si / 1000 Ang^3
#
#
#
# Elastic Constant Matrix: (Units=GPa)
#
#
# Indices 1 2 3 4 5 6 
#
# 1 151.4874 15.9242 53.2942 0.0000 5.9799 0.0000
# 2 15.9242 31.8075 17.2696 0.0000 1.1469 0.0000
# 3 53.2942 17.2696 134.9845 0.0000 6.2571 0.0000
# 4 0.0000 0.0000 0.0000 27.0331 0.0000 -1.3458
# 5 5.9799 1.1469 6.2571 0.0000 32.7089 0.0000
# 6 0.0000 0.0000 0.0000 -1.3458 0.0000 28.3257
#
#
#
# Elastic Compliance Matrix: (Units=1/GPa)
#
#
# Indices 1 2 3 4 5 6 
#
# 1 0.007856 -0.002407 -0.002756 0.000000 -0.000825 0.000000
# 2 -0.002407 0.034528 -0.003462 0.000000 -0.000108 0.000000
# 3 -0.002756 -0.003462 0.008990 0.000000 -0.001095 0.000000
# 4 0.000000 0.000000 0.000000 0.037079 0.000000 0.001762
# 5 -0.000825 -0.000108 -0.001095 0.000000 0.030937 0.000000
# 6 0.000000 0.000000 0.000000 0.001762 0.000000 0.035387
#
#
# Mechanical properties :
#
#
# Convention : Reuss Voigt Hill
#
# Bulk Modulus (GPa) = 29.30461 54.58393 41.94427
# Shear Modulus (GPa) = 27.26254 33.06630 30.16442
#
# Velocity S-wave (km/s) = 3.79097 4.17504 3.98763
# Velocity P-wave (km/s) = 5.88302 7.21216 6.58123
#
# Compressibility (1/GPa) = 0.03412433
#
# Stress axis : x y z
#
# Youngs Moduli (GPa) = 127.28729 28.96209 111.23654
#
# Poissons Ratio (x) = 0.06972 0.30652
# Poissons Ratio (y) = 0.30642 0.38509
# Poissons Ratio (z) = 0.35075 0.10027
#
# Static dielectric constant tensor:
#      x y z
#    x 3.721100 0.000000 0.119850 
#    y 0.000000 3.119930 0.000000 
#    z 0.119850 0.000000 3.456750 
# 
# 
# High freq. dielectric constant tensor:
#      x y z
#    x 1.749750 0.000000 0.002340 
#    y 0.000000 1.705430 0.000000 
#    z 0.002340 0.000000 1.750250 
# 
# From -- ./inp_files/25943.got.cif
#   From: 2010.06.25/outbox.cif.g09.slc.cpg/sg11_13_cif.got.tgz:25943.got - 2010.06.27 23:14:04.
