data_PCOD8077143
_publ_section_title
;
Structure prediction by ZEFSAII (Michael W. Deem and Ramdas Pophale) SiO2 
 PCOD8077143
Probable space group: P 21/M
;
_chemical_formula_sum "Si O2"
_cell_formula_units_Z 22
_cell_length_a 13.375485
_cell_length_b 10.108204
_cell_length_c 23.126957
_cell_angle_alpha 90.000000
_cell_angle_beta 158.892387
_cell_angle_gamma 90.000000
_cell_volume 1126.030613
_symmetry_space_group_name_H-M "P 21/M"
_symmetry_group_IT_number 11
_symmetry_cell_setting 'monoclinic'
loop_
_space_group_symop_operation_xyz
x,y,z
-x,1/2+y,-z
-x,-y,-z
x,1/2-y,z
loop_
_atom_site_type_symbol
_atom_site_label
_atom_site_fract_x
_atom_site_fract_y
_atom_site_fract_z
Si Si1 0.158673 0.750000 0.332468
Si Si2 0.714179 0.008536 0.914104
Si Si3 0.962211 0.750000 0.105192
Si Si4 0.881941 0.595369 0.386726
Si Si5 0.423535 0.250000 0.536744
Si Si6 0.290018 0.105058 0.209917
Si Si7 0.783791 0.026891 0.546779
O O1 0.468186 0.750000 0.471251
O O2 0.113655 0.617736 0.345308
O O3 0.929238 0.750000 0.157260
O O4 0.446175 0.072777 0.798890
O O5 0.648565 0.990309 0.810757
O O6 0.970278 0.109016 0.057006
O O7 0.806327 0.874232 0.994394
O O8 0.296826 0.750000 0.271005
O O9 0.941554 0.750000 0.433476
O O10 0.000000 0.500000 0.500000
O O11 0.019936 0.553495 0.401466
O O12 0.219584 0.373642 0.437289
O O13 0.383239 0.250000 0.240304
O O14 0.466952 0.062249 0.360707
#
# Coordination Sequence:
#
# PCOD8077143 Si02
#       7
#     2   4   2   4   2   4   4
#     4  10  22  43  70  95 133 168 228 281 322 366
#     4  11  23  38  61  91 134 172 212 266 324 394
#     4  10  22  40  64  92 129 166 220 270 327 374
#     4  12  27  43  65 100 140 174 214 266 337 401
#     4  10  24  39  66 103 126 168 224 271 327 378
#     4  11  20  35  62  92 125 169 217 262 326 380
#     4  12  22  42  69  99 130 171 218 277 324 393
#
# _framework density 19.537656999999999
#
# number of rings (size 3 to 8) (size 9 to 14) (size 15 to 20)
#    0.545    0.364    6.364    1.091    2.545    0.000 
#    0.000    0.909    2.000    0.000    0.000    0.000 
#    0.000    0.000    0.000    0.000    0.000    0.000 
#
# Total GULP energy -272743.361085 kJ/mol
# GULP energy per Si atom -12397.425504 kJ/mol
# Density = 1.949319 g / cm^3
# Si number density = 19.537657 Si / 1000 Ang^3
#
#
#
# Elastic Constant Matrix: (Units=GPa)
#
#
# Indices 1 2 3 4 5 6 
#
# 1 106.2379 47.9561 29.1686 0.0000 2.7556 0.0000
# 2 47.9561 139.3886 21.9339 0.0000 9.2049 0.0000
# 3 29.1686 21.9339 58.0071 0.0000 4.5338 0.0000
# 4 0.0000 0.0000 0.0000 4.3612 0.0000 0.3385
# 5 2.7556 9.2049 4.5338 0.0000 34.1874 0.0000
# 6 0.0000 0.0000 0.0000 0.3385 0.0000 30.3685
#
#
#
# Elastic Compliance Matrix: (Units=1/GPa)
#
#
# Indices 1 2 3 4 5 6 
#
# 1 0.012332 -0.003508 -0.004922 0.000000 0.000603 0.000000
# 2 -0.003508 0.008724 -0.001388 0.000000 -0.001882 0.000000
# 3 -0.004922 -0.001388 0.020390 0.000000 -0.001934 0.000000
# 4 0.000000 0.000000 0.000000 0.229491 0.000000 -0.002558
# 5 0.000603 -0.001882 -0.001934 0.000000 0.029965 0.000000
# 6 0.000000 0.000000 0.000000 -0.002558 0.000000 0.032957
#
#
# Mechanical properties :
#
#
# Convention : Reuss Voigt Hill
#
# Bulk Modulus (GPa) = 45.84851 55.75007 50.79929
# Shear Modulus (GPa) = 13.85947 27.42177 20.64062
#
# Velocity S-wave (km/s) = 2.66629 3.75044 3.25384
# Velocity P-wave (km/s) = 5.74426 6.88121 6.33828
#
# Compressibility (1/GPa) = 0.02181096
#
# Stress axis : x y z
#
# Youngs Moduli (GPa) = 81.08918 114.62915 49.04374
#
# Poissons Ratio (x) = 0.40214 0.24138
# Poissons Ratio (y) = 0.28447 0.06805
# Poissons Ratio (z) = 0.39910 0.15905
#
# Static dielectric constant tensor:
#      x y z
#    x 3.542250 0.000000 0.059300 
#    y 0.000000 3.678110 0.000000 
#    z 0.059300 0.000000 3.565620 
# 
# 
# High freq. dielectric constant tensor:
#      x y z
#    x 1.751670 0.000000 0.001940 
#    y 0.000000 1.774020 0.000000 
#    z 0.001940 0.000000 1.747790 
# 
# From -- ./inp_files/71598.got.cif
#   From: 2010.06.25/outbox.cif.g09.slc.cpg/sg11_36_cif.got.tgz:71598.got - 2010.06.27 23:14:04.
