data_PCOD8077352
_publ_section_title
;
Structure prediction by ZEFSAII (Michael W. Deem and Ramdas Pophale) SiO2 
 PCOD8077352
Probable space group: P 21/M
;
_chemical_formula_sum "Si O2"
_cell_formula_units_Z 28
_cell_length_a 9.579559
_cell_length_b 8.633876
_cell_length_c 25.177026
_cell_angle_alpha 90.000000
_cell_angle_beta 40.716975
_cell_angle_gamma 90.000000
_cell_volume 1358.371106
_symmetry_space_group_name_H-M "P 21/M"
_symmetry_group_IT_number 11
_symmetry_cell_setting 'monoclinic'
loop_
_space_group_symop_operation_xyz
x,y,z
-x,1/2+y,-z
-x,-y,-z
x,1/2-y,z
loop_
_atom_site_type_symbol
_atom_site_label
_atom_site_fract_x
_atom_site_fract_y
_atom_site_fract_z
Si Si1 0.855857 0.433011 0.994578
Si Si2 0.910987 0.569652 0.681739
Si Si3 0.042607 0.068310 0.146957
Si Si4 0.385362 0.424652 0.692102
Si Si5 0.372196 0.066344 0.140684
Si Si6 0.845299 0.431291 0.588777
Si Si7 0.333884 0.424645 0.587134
O O1 0.855437 0.250000 0.000706
O O2 0.948928 0.480245 0.911150
O O3 0.613064 0.498778 0.067788
O O4 0.000000 0.500000 0.000000
O O5 0.891506 0.750000 0.673699
O O6 0.719811 0.513608 0.775612
O O7 0.925022 0.472515 0.624108
O O8 0.127462 0.533836 0.650656
O O9 0.071586 0.250000 0.128761
O O10 0.226367 0.002709 0.133936
O O11 0.810012 0.037246 0.238343
O O12 0.332981 0.250000 0.727365
O O13 0.601484 0.493348 0.655666
O O14 0.438045 0.421704 0.614779
O O15 0.365367 0.250000 0.139030
O O16 0.845806 0.250000 0.579338
O O17 0.000000 0.500000 0.500000
O O18 0.500000 0.500000 0.500000
O O19 0.275703 0.250000 0.585331
#
# Coordination Sequence:
#
# PCOD8077352 Si02
#       7
#     4   4   4   4   4   4   4
#     4  11  24  43  65  96 131 166 205 253 306 368
#     4  11  22  40  63  91 125 166 210 260 311 370
#     4  11  22  41  67  95 123 163 209 254 312 374
#     4  10  23  41  61  90 126 162 206 260 311 369
#     4   9  21  41  65  92 126 164 207 253 307 368
#     4  11  24  42  62  90 125 167 213 260 319 378
#     4  11  22  38  62  92 125 164 208 260 315 371
#
# _framework density 20.612924
#
# number of rings (size 3 to 8) (size 9 to 14) (size 15 to 20)
#    0.000    1.429    1.429    3.429    2.000    2.857 
#    0.000    4.286    0.000    0.000    0.000    0.000 
#    0.000    0.000    0.000    0.000    0.000    0.000 
#
# Total GULP energy -347257.505213 kJ/mol
# GULP energy per Si atom -12402.053758 kJ/mol
# Density = 2.056601 g / cm^3
# Si number density = 20.612924 Si / 1000 Ang^3
#
#
#
# Elastic Constant Matrix: (Units=GPa)
#
#
# Indices 1 2 3 4 5 6 
#
# 1 116.7020 29.1012 44.8498 0.0000 1.0038 0.0000
# 2 29.1012 54.0633 34.2027 0.0000 -3.0589 0.0000
# 3 44.8498 34.2027 123.3117 0.0000 1.0559 0.0000
# 4 0.0000 0.0000 0.0000 32.2666 0.0000 -1.0259
# 5 1.0038 -3.0589 1.0559 0.0000 42.1407 0.0000
# 6 0.0000 0.0000 0.0000 -1.0259 0.0000 30.7339
#
#
#
# Elastic Compliance Matrix: (Units=1/GPa)
#
#
# Indices 1 2 3 4 5 6 
#
# 1 0.010629 -0.004009 -0.002750 0.000000 -0.000475 0.000000
# 2 -0.004009 0.024080 -0.005238 0.000000 0.001975 0.000000
# 3 -0.002750 -0.005238 0.010568 0.000000 -0.000579 0.000000
# 4 0.000000 0.000000 0.000000 0.031025 0.000000 0.001036
# 5 -0.000475 0.001975 -0.000579 0.000000 0.023899 0.000000
# 6 0.000000 0.000000 0.000000 0.001036 0.000000 0.032572
#
#
# Mechanical properties :
#
#
# Convention : Reuss Voigt Hill
#
# Bulk Modulus (GPa) = 46.98440 56.70938 51.84689
# Shear Modulus (GPa) = 30.51367 33.42313 31.96840
#
# Velocity S-wave (km/s) = 3.85166 4.03111 3.94241
# Velocity P-wave (km/s) = 6.52867 7.01696 6.77722
#
# Compressibility (1/GPa) = 0.02128366
#
# Stress axis : x y z
#
# Youngs Moduli (GPa) = 94.07841 41.52802 94.62912
#
# Poissons Ratio (x) = 0.16647 0.26024
# Poissons Ratio (y) = 0.37713 0.49566
# Poissons Ratio (z) = 0.25872 0.21752
#
# Static dielectric constant tensor:
#      x y z
#    x 3.916510 0.000000 -0.124700 
#    y 0.000000 3.648020 0.000000 
#    z -0.124700 0.000000 3.683530 
# 
# 
# High freq. dielectric constant tensor:
#      x y z
#    x 1.816970 0.000000 0.000010 
#    y 0.000000 1.796500 0.000000 
#    z 0.000010 0.000000 1.817980 
# 
# From -- ./inp_files/70839.got.cif
#   From: 2010.06.25/outbox.cif.g09.slc.cpg/sg11_36_cif.got.tgz:70839.got - 2010.06.27 23:14:04.
