data_PCOD8077018
_publ_section_title
;
Structure prediction by ZEFSAII (Michael W. Deem and Ramdas Pophale) SiO2 
 PCOD8077018
Probable space group: P 21/M
;
_chemical_formula_sum "Si O2"
_cell_formula_units_Z 28
_cell_length_a 5.220311
_cell_length_b 18.950388
_cell_length_c 14.444848
_cell_angle_alpha 90.000000
_cell_angle_beta 68.087779
_cell_angle_gamma 90.000000
_cell_volume 1325.749730
_symmetry_space_group_name_H-M "P 21/M"
_symmetry_group_IT_number 11
_symmetry_cell_setting 'monoclinic'
loop_
_space_group_symop_operation_xyz
x,y,z
-x,1/2+y,-z
-x,-y,-z
x,1/2-y,z
loop_
_atom_site_type_symbol
_atom_site_label
_atom_site_fract_x
_atom_site_fract_y
_atom_site_fract_z
Si Si1 0.911378 0.606413 0.532227
Si Si2 0.750272 0.332049 0.130973
Si Si3 0.669986 0.895815 0.957155
Si Si4 0.651962 0.467680 0.846324
Si Si5 0.855678 0.554816 0.346274
Si Si6 0.496472 0.830028 0.461308
Si Si7 0.455602 0.943841 0.712270
O O1 0.969659 0.553602 0.437068
O O2 0.676439 0.662824 0.530955
O O3 0.775985 0.567028 0.638870
O O4 0.185215 0.646638 0.525966
O O5 0.733691 0.250000 0.154305
O O6 0.526119 0.351815 0.084079
O O7 0.685230 0.371147 0.236670
O O8 0.056120 0.352246 0.055506
O O9 0.759753 0.970577 0.900151
O O10 0.511460 0.908389 0.074934
O O11 0.446297 0.501597 0.798890
O O12 0.906869 0.430440 0.760499
O O13 0.631793 0.618529 0.365142
O O14 0.713258 0.478499 0.349873
O O15 0.499631 0.750000 0.424026
#
# Coordination Sequence:
#
# PCOD8077018 Si02
#       7
#     4   4   4   4   4   4   4
#     4  10  24  39  65  91 132 172 213 269 319 376
#     4  11  24  43  66  95 133 171 213 268 327 397
#     4  10  23  42  67  94 131 162 216 267 332 388
#     4  10  22  38  69  98 124 167 212 276 327 381
#     4  10  22  39  66  97 131 169 220 271 322 372
#     4  10  23  42  60  86 129 178 220 261 319 380
#     4  11  23  40  66 102 129 167 221 269 324 385
#
# _framework density 21.120125999999999
#
# number of rings (size 3 to 8) (size 9 to 14) (size 15 to 20)
#    0.857    0.857    1.429    2.143    4.000    4.000 
#    0.000    1.429    0.000    0.000    0.000    0.000 
#    0.000    0.000    0.000    0.000    0.000    0.000 
#
# Total GULP energy -347176.111026 kJ/mol
# GULP energy per Si atom -12399.146822 kJ/mol
# Density = 2.107206 g / cm^3
# Si number density = 21.120126 Si / 1000 Ang^3
#
#
#
# Elastic Constant Matrix: (Units=GPa)
#
#
# Indices 1 2 3 4 5 6 
#
# 1 95.2162 21.8876 19.4309 0.0000 -23.2292 0.0000
# 2 21.8876 108.4483 43.9511 0.0000 -9.8583 0.0000
# 3 19.4309 43.9511 113.9835 0.0000 -20.1261 0.0000
# 4 0.0000 0.0000 0.0000 16.3397 0.0000 -4.8808
# 5 -23.2292 -9.8583 -20.1261 0.0000 29.0883 0.0000
# 6 0.0000 0.0000 0.0000 -4.8808 0.0000 26.7034
#
#
#
# Elastic Compliance Matrix: (Units=1/GPa)
#
#
# Indices 1 2 3 4 5 6 
#
# 1 0.013375 -0.001870 0.000245 0.000000 0.010216 0.000000
# 2 -0.001870 0.011211 -0.004097 0.000000 -0.000529 0.000000
# 3 0.000245 -0.004097 0.011506 0.000000 0.006768 0.000000
# 4 0.000000 0.000000 0.000000 0.064735 0.000000 0.011832
# 5 0.010216 -0.000529 0.006768 0.000000 0.047040 0.000000
# 6 0.000000 0.000000 0.000000 0.011832 0.000000 0.039611
#
#
# Mechanical properties :
#
#
# Convention : Reuss Voigt Hill
#
# Bulk Modulus (GPa) = 40.57244 54.24302 47.40773
# Shear Modulus (GPa) = 24.13838 29.91818 27.02828
#
# Velocity S-wave (km/s) = 3.38436 3.76782 3.58123
# Velocity P-wave (km/s) = 5.87570 6.68337 6.29251
#
# Compressibility (1/GPa) = 0.02464727
#
# Stress axis : x y z
#
# Youngs Moduli (GPa) = 74.76799 89.19912 86.90781
#
# Poissons Ratio (x) = 0.16679 -0.02129
# Poissons Ratio (y) = 0.13981 0.35610
# Poissons Ratio (z) = -0.01831 0.36549
#
# Static dielectric constant tensor:
#      x y z
#    x 3.724550 0.000000 -0.106960 
#    y 0.000000 3.607840 0.000000 
#    z -0.106960 0.000000 3.754850 
# 
# 
# High freq. dielectric constant tensor:
#      x y z
#    x 1.836260 0.000000 -0.012740 
#    y 0.000000 1.806390 0.000000 
#    z -0.012740 0.000000 1.822300 
# 
# From -- ./inp_files/46137.got.cif
#   From: 2010.06.25/outbox.cif.g09.slc.cpg/sg11_24_cif.got.tgz:46137.got - 2010.06.27 23:14:04.
