data_PCOD8077627
_publ_section_title
;
Structure prediction by ZEFSAII (Michael W. Deem and Ramdas Pophale) SiO2 
 PCOD8077627
Probable space group: P 21/M
;
_chemical_formula_sum "Si O2"
_cell_formula_units_Z 32
_cell_length_a 24.706290
_cell_length_b 8.762524
_cell_length_c 19.098054
_cell_angle_alpha 90.000000
_cell_angle_beta 156.443258
_cell_angle_gamma 90.000000
_cell_volume 1652.393097
_symmetry_space_group_name_H-M "P 21/M"
_symmetry_group_IT_number 11
_symmetry_cell_setting 'monoclinic'
loop_
_space_group_symop_operation_xyz
x,y,z
-x,1/2+y,-z
-x,-y,-z
x,1/2-y,z
loop_
_atom_site_type_symbol
_atom_site_label
_atom_site_fract_x
_atom_site_fract_y
_atom_site_fract_z
Si Si1 0.443946 0.069033 0.636691
Si Si2 0.353227 0.569440 0.007365
Si Si3 0.841290 0.930730 0.648198
Si Si4 0.365006 0.571090 0.866292
Si Si5 0.410336 0.568606 0.332882
Si Si6 0.881931 0.079696 0.174326
Si Si7 0.184364 0.418785 0.541631
Si Si8 0.876712 0.928122 0.024049
O O1 0.448835 0.250000 0.642282
O O2 0.520215 0.006484 0.796715
O O3 0.285223 0.017853 0.452419
O O4 0.523219 0.009434 0.661699
O O5 0.364515 0.750000 0.015697
O O6 0.344498 0.499089 0.919356
O O7 0.215772 0.518203 0.881727
O O8 0.866115 0.750000 0.679329
O O9 0.804949 0.980252 0.525424
O O10 0.981623 0.008315 0.840809
O O11 0.377673 0.750000 0.886787
O O12 0.248801 0.532424 0.673460
O O13 0.500000 0.500000 0.000000
O O14 0.500000 0.500000 0.500000
O O15 0.411629 0.750000 0.338137
O O16 0.257219 0.510429 0.164390
O O17 0.836197 0.250000 0.092972
O O18 0.029619 0.091390 0.382127
O O19 0.878925 0.957804 0.109086
O O20 0.252137 0.250000 0.626509
O O21 0.866999 0.750000 0.995561
#
# Coordination Sequence:
#
# PCOD8077627 Si02
#       8
#     4   4   4   4   4   4   4   4
#     4   9  17  33  61  87 107 138 190 238 275 327
#     4   9  17  32  55  79 101 138 188 231 273 328
#     4   9  18  35  60  85 109 150 196 233 273 327
#     4  11  22  34  50  71 103 143 184 231 282 334
#     4  11  22  39  63  89 117 149 184 227 278 336
#     4   9  17  34  58  78 101 142 189 231 275 327
#     4   9  18  32  52  77 108 141 181 227 278 333
#     4  11  21  35  56  86 120 151 184 226 278 335
#
# _framework density 19.365853000000001
#
# number of rings (size 3 to 8) (size 9 to 14) (size 15 to 20)
#    0.000    2.250    1.250    3.375    0.000    4.500 
#    0.000    3.125    0.000    0.000    0.000    0.000 
#    0.000    0.000    0.000    0.000    0.000    0.000 
#
# Total GULP energy -396585.277087 kJ/mol
# GULP energy per Si atom -12393.289909 kJ/mol
# Density = 1.932177 g / cm^3
# Si number density = 19.365853 Si / 1000 Ang^3
#
#
#
# Elastic Constant Matrix: (Units=GPa)
#
#
# Indices 1 2 3 4 5 6 
#
# 1 61.5617 16.1304 43.5493 0.0000 12.7143 0.0000
# 2 16.1304 57.0308 32.2804 0.0000 0.4021 0.0000
# 3 43.5493 32.2804 128.8176 0.0000 8.7307 0.0000
# 4 0.0000 0.0000 0.0000 31.2677 0.0000 -3.5586
# 5 12.7143 0.4021 8.7307 0.0000 36.6301 0.0000
# 6 0.0000 0.0000 0.0000 -3.5586 0.0000 18.3792
#
#
#
# Elastic Compliance Matrix: (Units=1/GPa)
#
#
# Indices 1 2 3 4 5 6 
#
# 1 0.022973 -0.002681 -0.006664 0.000000 -0.006356 0.000000
# 2 -0.002681 0.020782 -0.004421 0.000000 0.001756 0.000000
# 3 -0.006664 -0.004421 0.011143 0.000000 -0.000294 0.000000
# 4 0.000000 0.000000 0.000000 0.032703 0.000000 0.006332
# 5 -0.006356 0.001756 -0.000294 0.000000 0.029557 0.000000
# 6 0.000000 0.000000 0.000000 0.006332 0.000000 0.055635
#
#
# Mechanical properties :
#
#
# Convention : Reuss Voigt Hill
#
# Bulk Modulus (GPa) = 36.53870 47.92559 42.23214
# Shear Modulus (GPa) = 23.87233 27.61873 25.74553
#
# Velocity S-wave (km/s) = 3.51480 3.78055 3.65009
# Velocity P-wave (km/s) = 5.94813 6.62253 6.29437
#
# Compressibility (1/GPa) = 0.02736824
#
# Stress axis : x y z
#
# Youngs Moduli (GPa) = 43.52897 48.11769 89.73863
#
# Poissons Ratio (x) = 0.12900 0.59801
# Poissons Ratio (y) = 0.11670 0.39669
# Poissons Ratio (z) = 0.29007 0.21270
#
# Static dielectric constant tensor:
#      x y z
#    x 3.635860 0.000000 0.303720 
#    y 0.000000 3.064410 0.000000 
#    z 0.303720 0.000000 3.418660 
# 
# 
# High freq. dielectric constant tensor:
#      x y z
#    x 1.744580 0.000000 0.016710 
#    y 0.000000 1.720440 0.000000 
#    z 0.016710 0.000000 1.764910 
# 
# From -- ./inp_files/67146.got.cif
#   From: 2010.06.25/outbox.cif.g09.slc.cpg/sg11_34_cif.got.tgz:67146.got - 2010.06.27 23:14:04.
