data_PCOD8077363
_publ_section_title
;
Structure prediction by ZEFSAII (Michael W. Deem and Ramdas Pophale) SiO2 
 PCOD8077363
Probable space group: P 21/M
;
_chemical_formula_sum "Si O2"
_cell_formula_units_Z 20
_cell_length_a 11.914205
_cell_length_b 14.008429
_cell_length_c 5.101856
_cell_angle_alpha 90.000000
_cell_angle_beta 68.482235
_cell_angle_gamma 90.000000
_cell_volume 792.150195
_symmetry_space_group_name_H-M "P 21/M"
_symmetry_group_IT_number 11
_symmetry_cell_setting 'monoclinic'
loop_
_space_group_symop_operation_xyz
x,y,z
-x,1/2+y,-z
-x,-y,-z
x,1/2-y,z
loop_
_atom_site_type_symbol
_atom_site_label
_atom_site_fract_x
_atom_site_fract_y
_atom_site_fract_z
Si Si1 0.958123 0.615319 0.819464
Si Si2 0.686517 0.854550 0.020871
Si Si3 0.462451 0.640179 0.552889
Si Si4 0.918473 0.395979 0.786863
Si Si5 0.344536 0.557032 0.144429
O O1 0.823654 0.649626 0.002699
O O2 0.967025 0.502522 0.779357
O O3 0.008217 0.658439 0.504802
O O4 0.047569 0.654722 0.968920
O O5 0.653382 0.750000 0.921502
O O6 0.601445 0.871165 0.346612
O O7 0.670401 0.941910 0.831589
O O8 0.424976 0.750000 0.620880
O O9 0.447621 0.585204 0.843383
O O10 0.377025 0.592886 0.405202
O O11 0.776484 0.391517 0.850942
#
# Coordination Sequence:
#
# PCOD8077363 Si02
#       5
#     4   4   4   4   4
#     4   9  18  35  57  85 118 156 197 246 306 362
#     4  10  23  41  64  95 130 167 209 257 312 378
#     4  11  24  42  64  92 125 165 215 264 313 370
#     4   9  18  34  59  85 116 156 199 247 302 365
#     4  11  22  42  68  93 126 166 209 260 317 369
#
# _framework density 25.247741000000001
#
# number of rings (size 3 to 8) (size 9 to 14) (size 15 to 20)
#    0.000    2.000    0.000    3.000    0.000    6.400 
#    0.000   14.000    0.000    0.000    0.000    0.000 
#    0.000    0.000    0.000    0.000    0.000    0.000 
#
# Total GULP energy -247898.711848 kJ/mol
# GULP energy per Si atom -12394.935592 kJ/mol
# Density = 2.519028 g / cm^3
# Si number density = 25.247741 Si / 1000 Ang^3
#
#
#
# Elastic Constant Matrix: (Units=GPa)
#
#
# Indices 1 2 3 4 5 6 
#
# 1 101.0349 -1.4215 29.1932 0.0000 -22.6229 0.0000
# 2 -1.4215 134.4576 2.9837 0.0000 3.6301 0.0000
# 3 29.1932 2.9837 102.7347 0.0000 1.2612 0.0000
# 4 0.0000 0.0000 0.0000-3236.1779 0.0000 1949.0590
# 5 -22.6229 3.6301 1.2612 0.0000 44.7656 0.0000
# 6 0.0000 0.0000 0.0000 1949.0590 0.0000-1169.6034
#
#
#
# Elastic Compliance Matrix: (Units=1/GPa)
#
#
# Indices 1 2 3 4 5 6 
#
# 1 0.012355 0.000039 -0.003590 0.000000 0.006342 0.000000
# 2 0.000039 0.007458 -0.000221 0.000000 -0.000579 0.000000
# 3 -0.003590 -0.000221 0.010786 0.000000 -0.002100 0.000000
# 4 0.000000 0.000000 0.000000 0.084838 0.000000 0.141376
# 5 0.006342 -0.000579 -0.002100 0.000000 0.025650 0.000000
# 6 0.000000 0.000000 0.000000 0.141376 0.000000 0.234738
#
#
# Mechanical properties :
#
#
# Convention : Reuss Voigt Hill
#
# Bulk Modulus (GPa) = 43.37106 44.41533 43.89319
# Shear Modulus (GPa) = 12.78598 -851.70503 -419.45953
#
# Velocity S-wave (km/s) = 2.25282 -18.38672 -12.90342
# Velocity P-wave (km/s) = 4.89719 20.81182 14.30296
#
# Compressibility (1/GPa) = 0.02305685
#
# Stress axis : x y z
#
# Youngs Moduli (GPa) = 80.93599 134.08018 92.71171
#
# Poissons Ratio (x) = -0.00524 0.33283
# Poissons Ratio (y) = -0.00316 0.02045
# Poissons Ratio (z) = 0.29055 0.02958
#
# Static dielectric constant tensor:
#      x y z
#    x 4.500710 0.000000 -0.004510 
#    y 0.000000 4.571180 0.000000 
#    z -0.004510 0.000000 4.634180 
# 
# 
# High freq. dielectric constant tensor:
#      x y z
#    x 2.009390 0.000000 -0.006390 
#    y 0.000000 2.010110 0.000000 
#    z -0.006390 0.000000 2.000190 
# 
# From -- ./inp_files/6548.got.cif
#   From: 2010.06.25/outbox.cif.g09.slc.cpg/sg11_4_cif.got.tgz:6548.got - 2010.06.27 23:14:04.
