data_PCOD8077100
_publ_section_title
;
Structure prediction by ZEFSAII (Michael W. Deem and Ramdas Pophale) SiO2 
 PCOD8077100
Probable space group: P 21/M
;
_chemical_formula_sum "Si O2"
_cell_formula_units_Z 28
_cell_length_a 18.416673
_cell_length_b 8.749454
_cell_length_c 15.373664
_cell_angle_alpha 90.000000
_cell_angle_beta 144.458688
_cell_angle_gamma 90.000000
_cell_volume 1439.999103
_symmetry_space_group_name_H-M "P 21/M"
_symmetry_group_IT_number 11
_symmetry_cell_setting 'monoclinic'
loop_
_space_group_symop_operation_xyz
x,y,z
-x,1/2+y,-z
-x,-y,-z
x,1/2-y,z
loop_
_atom_site_type_symbol
_atom_site_label
_atom_site_fract_x
_atom_site_fract_y
_atom_site_fract_z
Si Si1 0.606636 0.931505 0.167008
Si Si2 0.557614 0.928994 0.469499
Si Si3 0.501786 0.569242 0.772420
Si Si4 0.921079 0.930438 0.045129
Si Si5 0.130248 0.069330 0.657066
Si Si6 0.218941 0.430785 0.926672
Si Si7 0.159200 0.072825 0.220001
O O1 0.593809 0.750000 0.149176
O O2 0.746721 0.983851 0.276484
O O3 0.593307 0.988809 0.253539
O O4 0.500000 0.000000 0.000000
O O5 0.526494 0.750000 0.437013
O O6 0.704250 0.961076 0.612476
O O7 0.500000 0.000000 0.500000
O O8 0.506502 0.010088 0.334023
O O9 0.479055 0.750000 0.751049
O O10 0.637461 0.520999 0.939012
O O11 0.915765 0.750000 0.045659
O O12 0.846189 0.004922 0.052315
O O13 0.855671 0.989579 0.892995
O O14 0.064282 0.984056 0.190224
O O15 0.118611 0.250000 0.640780
O O16 0.148444 0.009371 0.772921
O O17 0.000000 0.000000 0.500000
O O18 0.210393 0.250000 0.924368
O O19 0.124750 0.250000 0.189324
#
# Coordination Sequence:
#
# PCOD8077100 Si02
#       7
#     4   4   4   4   4   4   4
#     4  11  22  40  64  91 124 160 204 256 309 369
#     4  11  23  39  58  85 121 157 196 246 301 358
#     4  11  22  39  63  89 118 158 204 251 305 363
#     4   9  17  32  57  80 102 143 193 234 282 351
#     4  10  22  40  60  86 120 156 196 252 312 367
#     4   9  18  36  58  81 111 147 191 242 299 355
#     4   9  19  35  52  76 113 149 183 233 294 345
#
# _framework density 19.444458000000001
#
# number of rings (size 3 to 8) (size 9 to 14) (size 15 to 20)
#    0.000    2.000    1.429    2.143    0.000    5.714 
#    0.000    7.857    0.000    0.000    0.000    0.000 
#    0.000    0.000    0.000    0.000    0.000    0.000 
#
# Total GULP energy -347159.005754 kJ/mol
# GULP energy per Si atom -12398.535920 kJ/mol
# Density = 1.940020 g / cm^3
# Si number density = 19.444458 Si / 1000 Ang^3
#
#
#
# Elastic Constant Matrix: (Units=GPa)
#
#
# Indices 1 2 3 4 5 6 
#
# 1 148.3285 36.4247 53.6889 0.0000 -2.6067 0.0000
# 2 36.4247 54.0424 35.6549 0.0000 4.7607 0.0000
# 3 53.6889 35.6549 122.8809 0.0000 1.1144 0.0000
# 4 0.0000 0.0000 0.0000 32.4981 0.0000 1.0426
# 5 -2.6067 4.7607 1.1144 0.0000 30.9388 0.0000
# 6 0.0000 0.0000 0.0000 1.0426 0.0000 32.4812
#
#
#
# Elastic Compliance Matrix: (Units=1/GPa)
#
#
# Indices 1 2 3 4 5 6 
#
# 1 0.008769 -0.004336 -0.002587 0.000000 0.001499 0.000000
# 2 -0.004336 0.025367 -0.005429 0.000000 -0.004073 0.000000
# 3 -0.002587 -0.005429 0.010842 0.000000 0.000227 0.000000
# 4 0.000000 0.000000 0.000000 0.030803 0.000000 -0.000989
# 5 0.001499 -0.004073 0.000227 0.000000 0.033067 0.000000
# 6 0.000000 0.000000 0.000000 -0.000989 0.000000 0.030819
#
#
# Mechanical properties :
#
#
# Convention : Reuss Voigt Hill
#
# Bulk Modulus (GPa) = 49.32426 64.08765 56.70596
# Shear Modulus (GPa) = 29.21792 32.48250 30.85021
#
# Velocity S-wave (km/s) = 3.88059 4.09164 3.98751
# Velocity P-wave (km/s) = 6.74540 7.43996 7.10118
#
# Compressibility (1/GPa) = 0.02027400
#
# Stress axis : x y z
#
# Youngs Moduli (GPa) = 114.03493 39.42127 92.23804
#
# Poissons Ratio (x) = 0.17092 0.23862
# Poissons Ratio (y) = 0.49443 0.50077
# Poissons Ratio (z) = 0.29501 0.21402
#
# Static dielectric constant tensor:
#      x y z
#    x 3.892320 0.000000 -0.017910 
#    y 0.000000 3.388940 0.000000 
#    z -0.017910 0.000000 3.613640 
# 
# 
# High freq. dielectric constant tensor:
#      x y z
#    x 1.774460 0.000000 0.000250 
#    y 0.000000 1.742020 0.000000 
#    z 0.000250 0.000000 1.757730 
# 
# From -- ./inp_files/53299.got.cif
#   From: 2010.06.25/outbox.cif.g09.slc.cpg/sg11_27_cif.got.tgz:53299.got - 2010.06.27 23:14:04.
