data_PCOD8077782
_publ_section_title
;
Structure prediction by ZEFSAII (Michael W. Deem and Ramdas Pophale) SiO2 
 PCOD8077782
Probable space group: P 21/M
;
_chemical_formula_sum "Si O2"
_cell_formula_units_Z 24
_cell_length_a 11.525612
_cell_length_b 16.714156
_cell_length_c 10.601520
_cell_angle_alpha 90.000000
_cell_angle_beta 151.654444
_cell_angle_gamma 90.000000
_cell_volume 969.653200
_symmetry_space_group_name_H-M "P 21/M"
_symmetry_group_IT_number 11
_symmetry_cell_setting 'monoclinic'
loop_
_space_group_symop_operation_xyz
x,y,z
-x,1/2+y,-z
-x,-y,-z
x,1/2-y,z
loop_
_atom_site_type_symbol
_atom_site_label
_atom_site_fract_x
_atom_site_fract_y
_atom_site_fract_z
Si Si1 0.875151 0.161010 0.761111
Si Si2 0.367652 0.943418 0.275464
Si Si3 0.921195 0.091718 0.351762
Si Si4 0.802161 0.558862 0.102871
Si Si5 0.564415 0.655673 0.256309
Si Si6 0.636756 0.160041 0.287236
O O1 0.942187 0.250000 0.872015
O O2 0.841168 0.105614 0.849931
O O3 0.637970 0.161716 0.441701
O O4 0.074296 0.130899 0.853428
O O5 0.554518 0.881530 0.388399
O O6 0.500000 0.000000 0.500000
O O7 0.244793 0.993216 0.048609
O O8 0.886333 0.121437 0.465204
O O9 0.176932 0.128772 0.553378
O O10 0.675634 0.128563 0.051766
O O11 0.931058 0.994792 0.336727
O O12 0.572463 0.598146 0.954018
O O13 0.562424 0.750000 0.267945
O O14 0.593562 0.250000 0.192872
#
# Coordination Sequence:
#
# PCOD8077782 Si02
#       6
#     4   4   4   4   4   4
#     4  11  24  42  67 100 135 177 226 282 347 409
#     4  11  22  44  66  95 133 175 228 284 338 406
#     4  11  26  44  73 101 137 180 229 281 341 407
#     4  11  24  43  69  97 135 180 229 281 340 408
#     4  11  24  45  70 101 135 179 228 283 343 406
#     4  11  24  43  66 100 139 178 223 283 343 408
#
# _framework density 24.751117000000001
#
# number of rings (size 3 to 8) (size 9 to 14) (size 15 to 20)
#    0.000    1.000    1.667    4.500    4.667    2.000 
#    0.000    3.333    0.000    0.000    0.000    0.000 
#    0.000    0.000    0.000    0.000    0.000    0.000 
#
# Total GULP energy -297432.464372 kJ/mol
# GULP energy per Si atom -12393.019349 kJ/mol
# Density = 2.469478 g / cm^3
# Si number density = 24.751117 Si / 1000 Ang^3
#
#
#
# Elastic Constant Matrix: (Units=GPa)
#
#
# Indices 1 2 3 4 5 6 
#
# 1 126.4180 36.9461 27.6943 0.0000 14.0859 0.0000
# 2 36.9461 181.7121 32.4255 0.0000 5.5723 0.0000
# 3 27.6943 32.4255 78.6087 0.0000 22.1426 0.0000
# 4 0.0000 0.0000 0.0000 34.9412 0.0000 18.3213
# 5 14.0859 5.5723 22.1426 0.0000 32.9337 0.0000
# 6 0.0000 0.0000 0.0000 18.3213 0.0000 36.5303
#
#
#
# Elastic Compliance Matrix: (Units=1/GPa)
#
#
# Indices 1 2 3 4 5 6 
#
# 1 0.009006 -0.001414 -0.001939 0.000000 -0.002309 0.000000
# 2 -0.001414 0.006179 -0.002377 0.000000 0.001157 0.000000
# 3 -0.001939 -0.002377 0.017318 0.000000 -0.010412 0.000000
# 4 0.000000 0.000000 0.000000 0.038831 0.000000 -0.019475
# 5 -0.002309 0.001157 -0.010412 0.000000 0.038156 0.000000
# 6 0.000000 0.000000 0.000000 -0.019475 0.000000 0.037142
#
#
# Mechanical properties :
#
#
# Convention : Reuss Voigt Hill
#
# Bulk Modulus (GPa) = 47.52259 64.54117 56.03188
# Shear Modulus (GPa) = 30.28359 40.19258 35.23808
#
# Velocity S-wave (km/s) = 3.50169 4.03410 3.77728
# Velocity P-wave (km/s) = 5.96581 6.91602 6.45841
#
# Compressibility (1/GPa) = 0.02104262
#
# Stress axis : x y z
#
# Youngs Moduli (GPa) = 111.04189 161.82871 57.74501
#
# Poissons Ratio (x) = 0.22886 0.11197
# Poissons Ratio (y) = 0.15704 0.13724
# Poissons Ratio (z) = 0.21531 0.38462
#
# Static dielectric constant tensor:
#      x y z
#    x 5.618500 0.000000 -0.449270 
#    y 0.000000 4.980460 0.000000 
#    z -0.449270 0.000000 4.549280 
# 
# 
# High freq. dielectric constant tensor:
#      x y z
#    x 2.005250 0.000000 -0.014100 
#    y 0.000000 2.015570 0.000000 
#    z -0.014100 0.000000 1.982720 
# 
# From -- ./inp_files/36172.got.cif
#   From: 2010.06.25/outbox.cif.g09.slc.cpg/sg11_19_cif.got.tgz:36172.got - 2010.06.27 23:14:04.
