data_PCOD8077311
_publ_section_title
;
Structure prediction by ZEFSAII (Michael W. Deem and Ramdas Pophale) SiO2 
 PCOD8077311
Probable space group: P 21/M
;
_chemical_formula_sum "Si O2"
_cell_formula_units_Z 28
_cell_length_a 8.951697
_cell_length_b 20.174768
_cell_length_c 13.414936
_cell_angle_alpha 90.000000
_cell_angle_beta 30.598620
_cell_angle_gamma 90.000000
_cell_volume 1233.212614
_symmetry_space_group_name_H-M "P 21/M"
_symmetry_group_IT_number 11
_symmetry_cell_setting 'monoclinic'
loop_
_space_group_symop_operation_xyz
x,y,z
-x,1/2+y,-z
-x,-y,-z
x,1/2-y,z
loop_
_atom_site_type_symbol
_atom_site_label
_atom_site_fract_x
_atom_site_fract_y
_atom_site_fract_z
Si Si1 0.991352 0.824961 0.452082
Si Si2 0.167849 0.057360 0.602082
Si Si3 0.620132 0.323530 0.594644
Si Si4 0.445626 0.322388 0.117588
Si Si5 0.987347 0.866158 0.123088
Si Si6 0.828187 0.055970 0.157558
Si Si7 0.047171 0.081865 0.241637
O O1 0.995620 0.750000 0.403682
O O2 0.293055 0.839446 0.340132
O O3 0.958063 0.880067 0.386013
O O4 0.722553 0.832435 0.682302
O O5 0.501608 0.038641 0.382271
O O6 0.148635 0.073978 0.731587
O O7 0.973484 0.991206 0.695475
O O8 0.739945 0.250000 0.501361
O O9 0.772125 0.374316 0.433072
O O10 0.273814 0.323873 0.774819
O O11 0.371728 0.250000 0.114051
O O12 0.350204 0.381817 0.098210
O O13 0.795873 0.324031 0.931491
O O14 0.192320 0.886674 0.912759
O O15 0.034757 0.077321 0.130052
O O16 0.000000 0.000000 0.000000
#
# Coordination Sequence:
#
# PCOD8077311 Si02
#       7
#     4   4   4   4   4   4   4
#     4   9  21  43  68  98 140 181 227 285 346 411
#     4  12  24  44  71 102 136 182 232 282 349 410
#     4  10  22  43  70 102 137 182 232 281 341 415
#     4  10  23  45  69 103 142 179 230 287 341 413
#     4  12  24  43  70 103 137 181 229 284 338 413
#     4  12  24  45  68 102 143 177 229 292 342 408
#     4  11  23  44  71 101 138 184 231 285 347 405
#
# _framework density 22.704924999999999
#
# number of rings (size 3 to 8) (size 9 to 14) (size 15 to 20)
#    0.000    1.143    4.286    3.000    0.000    5.143 
#    2.571    4.286    0.000    0.000    0.000    0.000 
#    0.000    0.000    0.000    0.000    0.000    0.000 
#
# Total GULP energy -347032.942544 kJ/mol
# GULP energy per Si atom -12394.033662 kJ/mol
# Density = 2.265325 g / cm^3
# Si number density = 22.704925 Si / 1000 Ang^3
#
#
#
# Elastic Constant Matrix: (Units=GPa)
#
#
# Indices 1 2 3 4 5 6 
#
# 1 134.3355 71.7658 58.3380 0.0000 -11.6803 0.0000
# 2 71.7658 151.1079 34.4163 0.0000 0.5946 0.0000
# 3 58.3380 34.4163 90.2724 0.0000 -12.8988 0.0000
# 4 0.0000 0.0000 0.0000 11.0133 0.0000 -4.2989
# 5 -11.6803 0.5946 -12.8988 0.0000 53.5539 0.0000
# 6 0.0000 0.0000 0.0000 -4.2989 0.0000 37.2391
#
#
#
# Elastic Compliance Matrix: (Units=1/GPa)
#
#
# Indices 1 2 3 4 5 6 
#
# 1 0.012770 -0.004636 -0.006296 0.000000 0.001320 0.000000
# 2 -0.004636 0.008961 -0.000600 0.000000 -0.001255 0.000000
# 3 -0.006296 -0.000600 0.015721 0.000000 0.002420 0.000000
# 4 0.000000 0.000000 0.000000 0.095084 0.000000 0.010976
# 5 0.001320 -0.001255 0.002420 0.000000 0.019557 0.000000
# 6 0.000000 0.000000 0.000000 0.010976 0.000000 0.028121
#
#
# Mechanical properties :
#
#
# Convention : Reuss Voigt Hill
#
# Bulk Modulus (GPa) = 69.50355 78.30624 73.90489
# Shear Modulus (GPa) = 24.02994 34.44097 29.23546
#
# Velocity S-wave (km/s) = 3.25677 3.89896 3.59224
# Velocity P-wave (km/s) = 6.69479 7.40491 7.05878
#
# Compressibility (1/GPa) = 0.01438775
#
# Stress axis : x y z
#
# Youngs Moduli (GPa) = 78.31000 111.59383 63.60919
#
# Poissons Ratio (x) = 0.51734 0.40050
# Poissons Ratio (y) = 0.36304 0.03815
# Poissons Ratio (z) = 0.49307 0.06694
#
# Static dielectric constant tensor:
#      x y z
#    x 4.365860 0.000000 0.249280 
#    y 0.000000 4.197140 0.000000 
#    z 0.249280 0.000000 4.259480 
# 
# 
# High freq. dielectric constant tensor:
#      x y z
#    x 1.894560 0.000000 -0.003690 
#    y 0.000000 1.901910 0.000000 
#    z -0.003690 0.000000 1.893600 
# 
# From -- ./inp_files/48312.got.cif
#   From: 2010.06.25/outbox.cif.g09.slc.cpg/sg11_25_cif.got.tgz:48312.got - 2010.06.27 23:14:04.
