data_PCOD8077218
_publ_section_title
;
Structure prediction by ZEFSAII (Michael W. Deem and Ramdas Pophale) SiO2 
 PCOD8077218
Probable space group: P 21/M
;
_chemical_formula_sum "Si O2"
_cell_formula_units_Z 24
_cell_length_a 4.975678
_cell_length_b 17.955347
_cell_length_c 12.186620
_cell_angle_alpha 90.000000
_cell_angle_beta 80.767618
_cell_angle_gamma 90.000000
_cell_volume 1074.648955
_symmetry_space_group_name_H-M "P 21/M"
_symmetry_group_IT_number 11
_symmetry_cell_setting 'monoclinic'
loop_
_space_group_symop_operation_xyz
x,y,z
-x,1/2+y,-z
-x,-y,-z
x,1/2-y,z
loop_
_atom_site_type_symbol
_atom_site_label
_atom_site_fract_x
_atom_site_fract_y
_atom_site_fract_z
Si Si1 0.122460 0.138890 0.088002
Si Si2 0.688189 0.330706 0.954314
Si Si3 0.322528 0.476702 0.355325
Si Si4 0.822833 0.750000 0.732042
Si Si5 0.710063 0.012990 0.887592
Si Si6 0.632673 0.250000 0.415029
Si Si7 0.209291 0.907972 0.537715
O O1 0.231227 0.175880 0.193173
O O2 0.060217 0.050437 0.107106
O O3 0.367848 0.153698 0.986300
O O4 0.844647 0.174676 0.061045
O O5 0.727311 0.250000 0.892151
O O6 0.820776 0.401541 0.880998
O O7 0.404323 0.495003 0.225437
O O8 0.602733 0.451855 0.390009
O O9 0.211219 0.552622 0.419031
O O10 0.094121 0.411931 0.389133
O O11 0.657053 0.750000 0.628611
O O12 0.144267 0.750000 0.693736
O O13 0.500000 0.000000 0.000000
O O14 0.680880 0.323673 0.485799
#
# Coordination Sequence:
#
# PCOD8077218 Si02
#       7
#     4   4   4   2   4   2   4
#     4  11  21  37  54  82 118 157 196 242 296 354
#     4  11  21  38  54  80 121 158 195 241 291 356
#     4  10  22  43  62  89 123 164 201 253 306 356
#     4  12  22  34  60  86 126 150 198 268 309 338
#     4  10  23  38  63  91 120 164 205 244 294 376
#     4  12  22  34  58  96 112 150 202 256 307 358
#     4  10  22  41  65  87 124 159 205 257 305 359
#
# _framework density 22.332877
#
# number of rings (size 3 to 8) (size 9 to 14) (size 15 to 20)
#    0.000    1.333    1.667    4.500    0.000    6.667 
#    1.500    0.000    0.000    0.000    0.000    0.000 
#    0.000    0.000    0.000    0.000    0.000    0.000 
#
# Total GULP energy -297352.911175 kJ/mol
# GULP energy per Si atom -12389.704632 kJ/mol
# Density = 2.228205 g / cm^3
# Si number density = 22.332877 Si / 1000 Ang^3
#
#
#
# Elastic Constant Matrix: (Units=GPa)
#
#
# Indices 1 2 3 4 5 6 
#
# 1 74.2608 -1.5900 11.5816 0.0000 7.3327 0.0000
# 2 -1.5900 192.3124 15.8760 0.0000 1.6125 0.0000
# 3 11.5816 15.8760 89.0718 0.0000 -4.4186 0.0000
# 4 0.0000 0.0000 0.0000 24.0897 0.0000 6.7044
# 5 7.3327 1.6125 -4.4186 0.0000 21.4275 0.0000
# 6 0.0000 0.0000 0.0000 6.7044 0.0000 23.6543
#
#
#
# Elastic Compliance Matrix: (Units=1/GPa)
#
#
# Indices 1 2 3 4 5 6 
#
# 1 0.014348 0.000345 -0.002194 0.000000 -0.005388 0.000000
# 2 0.000345 0.005293 -0.001024 0.000000 -0.000728 0.000000
# 3 -0.002194 -0.001024 0.011857 0.000000 0.003273 0.000000
# 4 0.000000 0.000000 0.000000 0.045067 0.000000 -0.012773
# 5 -0.005388 -0.000728 0.003273 0.000000 0.049243 0.000000
# 6 0.000000 0.000000 0.000000 -0.012773 0.000000 0.045896
#
#
# Mechanical properties :
#
#
# Convention : Reuss Voigt Hill
#
# Bulk Modulus (GPa) = 38.83399 45.26447 42.04923
# Shear Modulus (GPa) = 26.87671 35.81946 31.34809
#
# Velocity S-wave (km/s) = 3.47285 4.00920 3.75063
# Velocity P-wave (km/s) = 5.78856 6.46094 6.13397
#
# Compressibility (1/GPa) = 0.02575064
#
# Stress axis : x y z
#
# Youngs Moduli (GPa) = 69.69749 188.91461 84.33711
#
# Poissons Ratio (x) = -0.06517 0.18506
# Poissons Ratio (y) = -0.02404 0.08640
# Poissons Ratio (z) = 0.15294 0.19353
#
# Static dielectric constant tensor:
#      x y z
#    x 3.787740 0.000000 0.029270 
#    y 0.000000 4.902850 0.000000 
#    z 0.029270 0.000000 3.707700 
# 
# 
# High freq. dielectric constant tensor:
#      x y z
#    x 1.873070 0.000000 0.013610 
#    y 0.000000 1.906370 0.000000 
#    z 0.013610 0.000000 1.835450 
# 
# From -- ./inp_files/29780.got.cif
#   From: 2010.06.25/outbox.cif.g09.slc.cpg/sg11_15_cif.got.tgz:29780.got - 2010.06.27 23:14:04.
