data_PCOD8077453
_publ_section_title
;
Structure prediction by ZEFSAII (Michael W. Deem and Ramdas Pophale) SiO2 
 PCOD8077453
Probable space group: P 21/M
;
_chemical_formula_sum "Si O2"
_cell_formula_units_Z 26
_cell_length_a 11.744911
_cell_length_b 24.323975
_cell_length_c 6.426615
_cell_angle_alpha 90.000000
_cell_angle_beta 41.443179
_cell_angle_gamma 90.000000
_cell_volume 1215.189012
_symmetry_space_group_name_H-M "P 21/M"
_symmetry_group_IT_number 11
_symmetry_cell_setting 'monoclinic'
loop_
_space_group_symop_operation_xyz
x,y,z
-x,1/2+y,-z
-x,-y,-z
x,1/2-y,z
loop_
_atom_site_type_symbol
_atom_site_label
_atom_site_fract_x
_atom_site_fract_y
_atom_site_fract_z
Si Si1 0.440732 0.414068 0.603041
Si Si2 0.709199 0.250000 0.649773
Si Si3 0.082150 0.250000 0.263378
Si Si4 0.743096 0.017241 0.316433
Si Si5 0.223312 0.354097 0.239469
Si Si6 0.465755 0.250000 0.581983
Si Si7 0.509430 0.165320 0.174811
Si Si8 0.939442 0.965429 0.389981
O O1 0.311803 0.464677 0.744416
O O2 0.597853 0.435880 0.528584
O O3 0.517351 0.395579 0.269159
O O4 0.338430 0.367950 0.876920
O O5 0.600124 0.250000 0.588869
O O6 0.916446 0.250000 0.335326
O O7 0.667264 0.193297 0.834060
O O8 0.080598 0.306742 0.396595
O O9 0.266340 0.250000 0.905946
O O10 0.783295 0.998659 0.496553
O O11 0.910580 0.044114 0.982733
O O12 0.344243 0.330245 0.254652
O O13 0.120897 0.406276 0.456335
O O14 0.495859 0.196532 0.408937
O O15 0.000000 0.000000 0.500000
#
# Coordination Sequence:
#
# PCOD8077453 Si02
#       8
#     4   2   2   4   4   2   4   4
#     4  11  22  41  67  97 131 181 225 276 341 413
#     4  11  25  45  66 102 136 175 237 291 340 420
#     4  12  25  46  71 103 134 180 237 287 352 413
#     4  10  24  41  63 101 136 174 232 278 339 407
#     4  12  24  45  71  97 136 187 229 284 354 412
#     4  11  22  49  67  95 138 175 232 288 334 421
#     4  11  22  44  69  92 138 181 221 287 349 407
#     4  11  23  43  66 101 141 178 229 288 339 415
#
# _framework density 21.395848000000001
#
# number of rings (size 3 to 8) (size 9 to 14) (size 15 to 20)
#    0.000    0.923    6.154    0.462    2.154    1.846 
#    8.308    0.000    0.000    0.000    0.000    0.000 
#    0.000    0.000    0.000    0.000    0.000    0.000 
#
# Total GULP energy -322152.010537 kJ/mol
# GULP energy per Si atom -12390.461944 kJ/mol
# Density = 2.134715 g / cm^3
# Si number density = 21.395848 Si / 1000 Ang^3
#
#
#
# Elastic Constant Matrix: (Units=GPa)
#
#
# Indices 1 2 3 4 5 6 
#
# 1 153.7343 45.6927 59.0051 0.0000 -8.1367 0.0000
# 2 45.6927 80.3475 26.2462 0.0000 -2.5043 0.0000
# 3 59.0051 26.2462 52.5497 0.0000 2.6992 0.0000
# 4 0.0000 0.0000 0.0000 48.2744 0.0000 6.1299
# 5 -8.1367 -2.5043 2.6992 0.0000 32.9989 0.0000
# 6 0.0000 0.0000 0.0000 6.1299 0.0000 36.0484
#
#
#
# Elastic Compliance Matrix: (Units=1/GPa)
#
#
# Indices 1 2 3 4 5 6 
#
# 1 0.012445 -0.002779 -0.012786 0.000000 0.003903 0.000000
# 2 -0.002779 0.015593 -0.004713 0.000000 0.000884 0.000000
# 3 -0.012786 -0.004713 0.036072 0.000000 -0.006461 0.000000
# 4 0.000000 0.000000 0.000000 0.021172 0.000000 -0.003600
# 5 0.003903 0.000884 -0.006461 0.000000 0.031862 0.000000
# 6 0.000000 0.000000 0.000000 -0.003600 0.000000 0.028353
#
#
# Mechanical properties :
#
#
# Convention : Reuss Voigt Hill
#
# Bulk Modulus (GPa) = 42.45586 60.94660 51.70123
# Shear Modulus (GPa) = 25.78580 33.84351 29.81465
#
# Velocity S-wave (km/s) = 3.47533 3.98147 3.73698
# Velocity P-wave (km/s) = 5.99917 7.04864 6.54497
#
# Compressibility (1/GPa) = 0.02355387
#
# Stress axis : x y z
#
# Youngs Moduli (GPa) = 80.35574 64.12948 27.72208
#
# Poissons Ratio (x) = 0.17820 0.35445
# Poissons Ratio (y) = 0.22329 0.13067
# Poissons Ratio (z) = 1.02743 0.30227
#
# Static dielectric constant tensor:
#      x y z
#    x 3.978090 0.000000 0.077570 
#    y 0.000000 4.100230 0.000000 
#    z 0.077570 0.000000 3.749820 
# 
# 
# High freq. dielectric constant tensor:
#      x y z
#    x 1.847940 0.000000 0.007670 
#    y 0.000000 1.854690 0.000000 
#    z 0.007670 0.000000 1.824020 
# 
# From -- ./inp_files/5561.got.cif
#   From: 2010.06.25/outbox.cif.g09.slc.cpg/sg11_3_cif.got.tgz:5561.got - 2010.06.27 23:14:04.
