data_PCOD8077667
_publ_section_title
;
Structure prediction by ZEFSAII (Michael W. Deem and Ramdas Pophale) SiO2 
 PCOD8077667
Probable space group: P 21/M
;
_chemical_formula_sum "Si O2"
_cell_formula_units_Z 22
_cell_length_a 11.644977
_cell_length_b 14.179760
_cell_length_c 15.436543
_cell_angle_alpha 90.000000
_cell_angle_beta 26.209455
_cell_angle_gamma 90.000000
_cell_volume 1125.744011
_symmetry_space_group_name_H-M "P 21/M"
_symmetry_group_IT_number 11
_symmetry_cell_setting 'monoclinic'
loop_
_space_group_symop_operation_xyz
x,y,z
-x,1/2+y,-z
-x,-y,-z
x,1/2-y,z
loop_
_atom_site_type_symbol
_atom_site_label
_atom_site_fract_x
_atom_site_fract_y
_atom_site_fract_z
Si Si1 0.624173 0.581929 0.125268
Si Si2 0.416695 0.068735 0.386628
Si Si3 0.972418 0.142488 0.009179
Si Si4 0.346151 0.750000 0.217949
Si Si5 0.750964 0.750000 0.603533
Si Si6 0.006673 0.568731 0.189990
Si Si7 0.687511 0.250000 0.958008
O O1 0.421131 0.517916 0.316341
O O2 0.464611 0.656197 0.178453
O O3 0.791341 0.517923 0.946145
O O4 0.813149 0.637613 0.062287
O O5 0.710075 0.091388 0.218751
O O6 0.289413 0.158283 0.427160
O O7 0.249394 0.039821 0.583522
O O8 0.904879 0.250000 0.031683
O O9 0.076475 0.091377 0.852370
O O10 0.413664 0.750000 0.071225
O O11 0.041009 0.750000 0.443902
O O12 0.561085 0.750000 0.812977
O O13 0.139667 0.658282 0.143741
#
# Coordination Sequence:
#
# PCOD8077667 Si02
#       7
#     4   4   4   2   2   4   2
#     4  11  26  43  62  96 138 170 203 260 335 381
#     4  11  21  41  70  99 122 164 218 266 312 380
#     4  11  21  40  69  95 134 168 203 263 329 383
#     4  12  28  44  62  92 134 176 212 264 322 374
#     4  12  22  43  67  93 123 164 224 267 310 366
#     4  11  21  41  70  99 122 164 218 266 312 380
#     4  12  22  43  67  93 123 164 224 267 310 366
#
# _framework density 19.542632000000001
#
# number of rings (size 3 to 8) (size 9 to 14) (size 15 to 20)
#    0.000    0.727    8.182    2.182    0.000    5.818 
#    0.000    0.000    0.000    0.000    0.000    0.000 
#    0.000    0.000    0.000    0.000    0.000    0.000 
#
# Total GULP energy -272899.653856 kJ/mol
# GULP energy per Si atom -12404.529721 kJ/mol
# Density = 1.949815 g / cm^3
# Si number density = 19.542632 Si / 1000 Ang^3
#
#
#
# Elastic Constant Matrix: (Units=GPa)
#
#
# Indices 1 2 3 4 5 6 
#
# 1 100.1858 22.7595 40.7410 0.0000 -10.5688 0.0000
# 2 22.7595 92.5868 27.9748 0.0000 1.2604 0.0000
# 3 40.7410 27.9748 171.2306 0.0000 27.7165 0.0000
# 4 0.0000 0.0000 0.0000 -146.0198 0.0000 -32.0100
# 5 -10.5688 1.2604 27.7165 0.0000 17.0334 0.0000
# 6 0.0000 0.0000 0.0000 -32.0100 0.0000 -13.2425
#
#
#
# Elastic Compliance Matrix: (Units=1/GPa)
#
#
# Indices 1 2 3 4 5 6 
#
# 1 0.015276 -0.002039 -0.006598 0.000000 0.020366 0.000000
# 2 -0.002039 0.011745 -0.001477 0.000000 0.000270 0.000000
# 3 -0.006598 -0.001477 0.011263 0.000000 -0.022311 0.000000
# 4 0.000000 0.000000 0.000000 -0.014568 0.000000 0.035214
# 5 0.020366 0.000270 -0.022311 0.000000 0.107629 0.000000
# 6 0.000000 0.000000 0.000000 0.035214 0.000000 -0.160633
#
#
# Mechanical properties :
#
#
# Convention : Reuss Voigt Hill
#
# Bulk Modulus (GPa) = 55.38635 60.77265 58.07950
# Shear Modulus (GPa) = -1643.86228 -10.27725 -827.06976
#
# Velocity S-wave (km/s) = -29.03435 -2.29571 -20.59446
# Velocity P-wave (km/s) = 33.09967 4.91303 23.14574
#
# Compressibility (1/GPa) = 0.01805499
#
# Stress axis : x y z
#
# Youngs Moduli (GPa) = 65.46133 85.14582 88.78805
#
# Poissons Ratio (x) = 0.17360 0.58583
# Poissons Ratio (y) = 0.13346 0.13117
# Poissons Ratio (z) = 0.43192 0.12579
#
# Static dielectric constant tensor:
#      x y z
#    x 3.410800 0.000000 0.102560 
#    y 0.000000 3.735880 0.000000 
#    z 0.102560 0.000000 3.835640 
# 
# 
# High freq. dielectric constant tensor:
#      x y z
#    x 1.753190 0.000000 0.003340 
#    y 0.000000 1.776220 0.000000 
#    z 0.003340 0.000000 1.767010 
# 
# From -- ./inp_files/50205.got.cif
#   From: 2010.06.25/outbox.cif.g09.slc.cpg/sg11_26_cif.got.tgz:50205.got - 2010.06.27 23:14:04.
