data_PCOD8077368
_publ_section_title
;
Structure prediction by ZEFSAII (Michael W. Deem and Ramdas Pophale) SiO2 
 PCOD8077368
Probable space group: P 21/M
;
_chemical_formula_sum "Si O2"
_cell_formula_units_Z 20
_cell_length_a 5.442616
_cell_length_b 16.857023
_cell_length_c 9.652024
_cell_angle_alpha 90.000000
_cell_angle_beta 73.758930
_cell_angle_gamma 90.000000
_cell_volume 850.198778
_symmetry_space_group_name_H-M "P 21/M"
_symmetry_group_IT_number 11
_symmetry_cell_setting 'monoclinic'
loop_
_space_group_symop_operation_xyz
x,y,z
-x,1/2+y,-z
-x,-y,-z
x,1/2-y,z
loop_
_atom_site_type_symbol
_atom_site_label
_atom_site_fract_x
_atom_site_fract_y
_atom_site_fract_z
Si Si1 0.016301 0.838712 0.593791
Si Si2 0.568398 0.657535 0.196186
Si Si3 0.735777 0.052593 0.918020
Si Si4 0.047164 0.392090 0.097378
Si Si5 0.421775 0.090704 0.524326
O O1 0.978149 0.750000 0.543236
O O2 0.310836 0.861997 0.523845
O O3 0.976746 0.838010 0.765128
O O4 0.793111 0.891562 0.558008
O O5 0.517859 0.750000 0.229022
O O6 0.304349 0.608381 0.211061
O O7 0.703355 0.616959 0.308330
O O8 0.719343 0.641510 0.030476
O O9 0.948597 0.985194 0.854232
O O10 0.802662 0.111934 0.034657
O O11 0.500000 0.000000 0.000000
O O12 0.500000 0.000000 0.500000
#
# Coordination Sequence:
#
# PCOD8077368 Si02
#       5
#     4   4   4   4   4
#     4  12  27  48  72 107 146 187 236 302 366 424
#     4  11  24  42  67 101 136 181 232 292 349 413
#     4   9  21  40  67  98 136 173 232 285 347 414
#     4  10  23  41  72  99 136 180 235 285 352 424
#     4  12  29  49  74 103 146 195 243 289 364 436
#
# _framework density 23.523911999999999
#
# number of rings (size 3 to 8) (size 9 to 14) (size 15 to 20)
#    0.000    1.200    0.000    4.200   16.800    1.600 
#    0.000    0.000    0.000    0.000    0.000    0.000 
#    0.000    0.000    0.000    0.000    0.000    0.000 
#
# Total GULP energy -247783.807816 kJ/mol
# GULP energy per Si atom -12389.190391 kJ/mol
# Density = 2.347037 g / cm^3
# Si number density = 23.523912 Si / 1000 Ang^3
#
#
#
# Elastic Constant Matrix: (Units=GPa)
#
#
# Indices 1 2 3 4 5 6 
#
# 1 103.5884 15.1288 5.3424 0.0000 22.3746 0.0000
# 2 15.1288 139.3439 16.0344 0.0000 13.1732 0.0000
# 3 5.3424 16.0344 82.4708 0.0000 17.0101 0.0000
# 4 0.0000 0.0000 0.0000 37.2371 0.0000 8.1565
# 5 22.3746 13.1732 17.0101 0.0000 36.8072 0.0000
# 6 0.0000 0.0000 0.0000 8.1565 0.0000 28.4784
#
#
#
# Elastic Compliance Matrix: (Units=1/GPa)
#
#
# Indices 1 2 3 4 5 6 
#
# 1 0.011211 -0.000655 0.000838 0.000000 -0.006968 0.000000
# 2 -0.000655 0.007540 -0.001049 0.000000 -0.001816 0.000000
# 3 0.000838 -0.001049 0.013599 0.000000 -0.006419 0.000000
# 4 0.000000 0.000000 0.000000 0.028652 0.000000 -0.008206
# 5 -0.006968 -0.001816 -0.006419 0.000000 0.035021 0.000000
# 6 0.000000 0.000000 0.000000 -0.008206 0.000000 0.037465
#
#
# Mechanical properties :
#
#
# Convention : Reuss Voigt Hill
#
# Bulk Modulus (GPa) = 32.65972 44.26826 38.46399
# Shear Modulus (GPa) = 34.38184 39.76435 37.07310
#
# Velocity S-wave (km/s) = 3.82720 4.11588 3.97416
# Velocity P-wave (km/s) = 5.78305 6.43790 6.11924
#
# Compressibility (1/GPa) = 0.03061875
#
# Stress axis : x y z
#
# Youngs Moduli (GPa) = 89.19747 132.62678 73.53432
#
# Poissons Ratio (x) = 0.08686 -0.06164
# Poissons Ratio (y) = 0.05842 0.07714
# Poissons Ratio (z) = -0.07477 0.13913
#
# Static dielectric constant tensor:
#      x y z
#    x 4.627990 0.000000 0.265010 
#    y 0.000000 4.734180 0.000000 
#    z 0.265010 0.000000 4.274480 
# 
# 
# High freq. dielectric constant tensor:
#      x y z
#    x 1.936820 0.000000 0.017320 
#    y 0.000000 1.935860 0.000000 
#    z 0.017320 0.000000 1.931120 
# 
# From -- ./inp_files/10054.got.cif
#   From: 2010.06.25/outbox.cif.g09.slc.cpg/sg11_6_cif.got.tgz:10054.got - 2010.06.27 23:14:04.
