data_PCOD8077031
_publ_section_title
;
Structure prediction by ZEFSAII (Michael W. Deem and Ramdas Pophale) SiO2 
 PCOD8077031
Probable space group: P 21/M
;
_chemical_formula_sum "Si O2"
_cell_formula_units_Z 32
_cell_length_a 14.824640
_cell_length_b 8.800950
_cell_length_c 11.865847
_cell_angle_alpha 90.000000
_cell_angle_beta 86.271413
_cell_angle_gamma 90.000000
_cell_volume 1544.870950
_symmetry_space_group_name_H-M "P 21/M"
_symmetry_group_IT_number 11
_symmetry_cell_setting 'monoclinic'
loop_
_space_group_symop_operation_xyz
x,y,z
-x,1/2+y,-z
-x,-y,-z
x,1/2-y,z
loop_
_atom_site_type_symbol
_atom_site_label
_atom_site_fract_x
_atom_site_fract_y
_atom_site_fract_z
Si Si1 0.226213 0.574656 0.976132
Si Si2 0.524183 0.077261 0.290644
Si Si3 0.818520 0.424635 0.770965
Si Si4 0.303363 0.578062 0.592581
Si Si5 0.003312 0.570506 0.375897
Si Si6 0.323889 0.427516 0.362245
Si Si7 0.164243 0.070860 0.759895
Si Si8 0.418782 0.071235 0.936539
O O1 0.244742 0.750000 0.945632
O O2 0.164165 0.503150 0.883594
O O3 0.322784 0.494310 0.983284
O O4 0.169255 0.555617 0.095978
O O5 0.518485 0.250000 0.243808
O O6 0.589168 0.070414 0.394056
O O7 0.426016 0.017884 0.334011
O O8 0.565353 0.965921 0.194864
O O9 0.797082 0.250000 0.742703
O O10 0.907309 0.481294 0.698071
O O11 0.734522 0.528755 0.741444
O O12 0.266814 0.750000 0.603616
O O13 0.281178 0.514589 0.471511
O O14 0.255751 0.476049 0.690292
O O15 0.998563 0.750000 0.390212
O O16 0.000000 0.500000 0.500000
O O17 0.919696 0.511206 0.307602
O O18 0.319203 0.250000 0.387367
O O19 0.160695 0.250000 0.776485
O O20 0.417342 0.250000 0.956420
O O21 0.500000 0.000000 0.000000
#
# Coordination Sequence:
#
# PCOD8077031 Si02
#       8
#     4   4   4   4   4   4   4   4
#     4  11  23  41  64  91 124 163 209 256 309 373
#     4  10  22  39  58  85 121 161 207 255 307 369
#     4  10  23  43  64  88 122 163 206 253 307 371
#     4  11  22  38  61  87 122 165 207 252 306 374
#     4  10  23  43  66  94 126 160 205 255 310 372
#     4  11  23  38  59  89 124 160 205 260 312 367
#     4  11  23  40  64  94 126 162 206 261 315 370
#     4  12  24  38  60  87 122 166 211 261 309 363
#
# _framework density 20.713705000000001
#
# number of rings (size 3 to 8) (size 9 to 14) (size 15 to 20)
#    0.000    1.250    1.250    4.500    0.000    8.500 
#    0.000    0.000    0.000    0.000    0.000    0.000 
#    0.000    0.000    0.000    0.000    0.000    0.000 
#
# Total GULP energy -396963.875849 kJ/mol
# GULP energy per Si atom -12405.121120 kJ/mol
# Density = 2.066656 g / cm^3
# Si number density = 20.713705 Si / 1000 Ang^3
#
#
#
# Elastic Constant Matrix: (Units=GPa)
#
#
# Indices 1 2 3 4 5 6 
#
# 1 120.2461 42.1775 54.4354 0.0000 8.4963 0.0000
# 2 42.1775 93.1740 45.0311 0.0000 2.5465 0.0000
# 3 54.4354 45.0311 137.5085 0.0000 2.4861 0.0000
# 4 0.0000 0.0000 0.0000 36.6545 0.0000 6.5503
# 5 8.4963 2.5465 2.4861 0.0000 39.3093 0.0000
# 6 0.0000 0.0000 0.0000 6.5503 0.0000 26.4324
#
#
#
# Elastic Compliance Matrix: (Units=1/GPa)
#
#
# Indices 1 2 3 4 5 6 
#
# 1 0.011124 -0.003410 -0.003251 0.000000 -0.001978 0.000000
# 2 -0.003410 0.013809 -0.003173 0.000000 0.000043 0.000000
# 3 -0.003251 -0.003173 0.009593 0.000000 0.000302 0.000000
# 4 0.000000 0.000000 0.000000 0.028546 0.000000 -0.007074
# 5 -0.001978 0.000043 0.000302 0.000000 0.025845 0.000000
# 6 0.000000 0.000000 0.000000 -0.007074 0.000000 0.039585
#
#
# Mechanical properties :
#
#
# Convention : Reuss Voigt Hill
#
# Bulk Modulus (GPa) = 67.30761 70.46849 68.88805
# Shear Modulus (GPa) = 32.65366 34.43154 33.54260
#
# Velocity S-wave (km/s) = 3.97473 4.08150 4.02847
# Velocity P-wave (km/s) = 7.32321 7.50371 7.41401
#
# Compressibility (1/GPa) = 0.01485716
#
# Stress axis : x y z
#
# Youngs Moduli (GPa) = 89.89598 72.41891 104.24420
#
# Poissons Ratio (x) = 0.24696 0.33891
# Poissons Ratio (y) = 0.30656 0.33074
# Poissons Ratio (z) = 0.29226 0.22977
#
# Static dielectric constant tensor:
#      x y z
#    x 3.820420 0.000000 0.079990 
#    y 0.000000 3.751460 0.000000 
#    z 0.079990 0.000000 3.809960 
# 
# 
# High freq. dielectric constant tensor:
#      x y z
#    x 1.811480 0.000000 0.005450 
#    y 0.000000 1.811630 0.000000 
#    z 0.005450 0.000000 1.820370 
# 
# From -- ./inp_files/38293.got.cif
#   From: 2010.06.25/outbox.cif.g09.slc.cpg/sg11_20_cif.got.tgz:38293.got - 2010.06.27 23:14:04.
