data_PCOD8077989
_publ_section_title
;
Structure prediction by ZEFSAII (Michael W. Deem and Ramdas Pophale) SiO2 
 PCOD8077989
Probable space group: P 21/M
;
_chemical_formula_sum "Si O2"
_cell_formula_units_Z 32
_cell_length_a 21.000000
_cell_length_b 9.000000
_cell_length_c 27.000000
_cell_angle_alpha 90.000000
_cell_angle_beta 160.000000
_cell_angle_gamma 90.000000
_cell_volume 1745.328791
_symmetry_space_group_name_H-M "P 21/M"
_symmetry_group_IT_number 11
_symmetry_cell_setting 'monoclinic'
loop_
_space_group_symop_operation_xyz
x,y,z
-x,1/2+y,-z
-x,-y,-z
x,1/2-y,z
loop_
_atom_site_type_symbol
_atom_site_label
_atom_site_fract_x
_atom_site_fract_y
_atom_site_fract_z
Si Si1 0.395811 0.922920 0.836232
Si Si2 0.810555 0.925132 0.145541
Si Si3 0.932504 0.072838 0.332331
Si Si4 0.274008 0.923290 0.211744
Si Si5 0.587681 0.574228 0.516030
Si Si6 0.084085 0.076222 0.987772
Si Si7 0.019384 0.576082 0.197096
Si Si8 0.138885 0.924172 0.563759
O O1 0.406404 0.750000 0.854459
O O2 0.247308 0.986530 0.767789
O O3 0.338677 0.949725 0.736628
O O4 0.600379 0.990739 0.994233
O O5 0.819349 0.750000 0.162839
O O6 0.887299 0.960166 0.146941
O O7 0.927974 0.010696 0.273261
O O8 0.948076 0.250000 0.342856
O O9 0.116770 0.005509 0.494377
O O10 0.263748 0.750000 0.193877
O O11 0.467969 0.968265 0.379600
O O12 0.111293 0.973078 0.130641
O O13 0.251405 0.001113 0.141474
O O14 0.500000 0.500000 0.500000
O O15 0.586691 0.750000 0.523649
O O16 0.794417 0.516632 0.658399
O O17 0.117113 0.250000 0.015880
O O18 0.082039 0.026943 0.928400
O O19 0.070933 0.750000 0.231747
O O20 0.095004 0.750000 0.525639
O O21 0.000000 0.000000 0.500000
#
# Coordination Sequence:
#
# PCOD8077989 Si02
#       8
#     4   4   4   4   4   4   4   4
#     4   8  16  31  52  78 103 134 176 221 264 311
#     4  10  20  35  54  74 102 140 177 217 266 314
#     4  10  19  32  51  77 109 139 176 221 264 315
#     4   9  18  32  51  77 104 129 165 209 253 300
#     4  11  21  35  56  80 107 137 171 212 256 308
#     4   9  17  32  51  74 104 132 165 209 255 304
#     4  10  21  37  54  76 106 137 174 218 264 316
#     4   9  16  29  50  76 105 134 172 219 268 316
#
# _framework density 18.334654
#
# number of rings (size 3 to 8) (size 9 to 14) (size 15 to 20)
#    0.000    2.500    1.250    2.250    0.000    2.000 
#    0.000    4.375    0.000    3.000    0.000    0.000 
#    0.000    0.000    0.000    0.000    0.000    0.000 
#
# Total GULP energy -396638.431938 kJ/mol
# GULP energy per Si atom -12394.950998 kJ/mol
# Density = 1.829292 g / cm^3
# Si number density = 18.334654 Si / 1000 Ang^3
#
#
#
# Elastic Constant Matrix: (Units=GPa)
#
#
# Indices 1 2 3 4 5 6 
#
# 1 116.1696 38.1811 48.3598 0.0000 -34.8914 0.0000
# 2 38.1811 66.8255 38.1086 0.0000 -16.7310 0.0000
# 3 48.3598 38.1086 89.7991 0.0000 -34.2558 0.0000
# 4 0.0000 0.0000 0.0000 28.9474 0.0000 -8.3934
# 5 -34.8914 -16.7310 -34.2558 0.0000 38.9645 0.0000
# 6 0.0000 0.0000 0.0000 -8.3934 0.0000 28.4225
#
#
#
# Elastic Compliance Matrix: (Units=1/GPa)
#
#
# Indices 1 2 3 4 5 6 
#
# 1 0.013433 -0.004329 -0.002283 0.000000 0.008163 0.000000
# 2 -0.004329 0.021210 -0.007033 0.000000 -0.000952 0.000000
# 3 -0.002283 -0.007033 0.020189 0.000000 0.012685 0.000000
# 4 0.000000 0.000000 0.000000 0.037780 0.000000 0.011157
# 5 0.008163 -0.000952 0.012685 0.000000 0.043717 0.000000
# 6 0.000000 0.000000 0.000000 0.011157 0.000000 0.038478
#
#
# Mechanical properties :
#
#
# Convention : Reuss Voigt Hill
#
# Bulk Modulus (GPa) = 36.30855 58.01035 47.15945
# Shear Modulus (GPa) = 23.66538 29.14319 26.40429
#
# Velocity S-wave (km/s) = 3.59659 3.99120 3.79902
# Velocity P-wave (km/s) = 6.09045 7.27653 6.70975
#
# Compressibility (1/GPa) = 0.02754172
#
# Stress axis : x y z
#
# Youngs Moduli (GPa) = 74.44287 47.14715 49.53192
#
# Poissons Ratio (x) = 0.20412 0.11308
# Poissons Ratio (y) = 0.32230 0.34835
# Poissons Ratio (z) = 0.16995 0.33158
#
# Static dielectric constant tensor:
#      x y z
#    x 3.399130 0.000000 -0.299660 
#    y 0.000000 3.321700 0.000000 
#    z -0.299660 0.000000 3.744770 
# 
# 
# High freq. dielectric constant tensor:
#      x y z
#    x 1.700260 0.000000 -0.032960 
#    y 0.000000 1.703030 0.000000 
#    z -0.032960 0.000000 1.713370 
# 
# From -- ./inp_files/72224.got.cif
#   From: 2010.06.25/outbox.ucp.g09.slc.cvg/sg11_37_cif.got.tgz:72224.got - 2010.06.28 13:43:20.
