data_PCOD8077608
_publ_section_title
;
Structure prediction by ZEFSAII (Michael W. Deem and Ramdas Pophale) SiO2 
 PCOD8077608
Probable space group: P 21/M
;
_chemical_formula_sum "Si O2"
_cell_formula_units_Z 16
_cell_length_a 9.529369
_cell_length_b 8.453762
_cell_length_c 11.628899
_cell_angle_alpha 90.000000
_cell_angle_beta 65.454179
_cell_angle_gamma 90.000000
_cell_volume 852.152297
_symmetry_space_group_name_H-M "P 21/M"
_symmetry_group_IT_number 11
_symmetry_cell_setting 'monoclinic'
loop_
_space_group_symop_operation_xyz
x,y,z
-x,1/2+y,-z
-x,-y,-z
x,1/2-y,z
loop_
_atom_site_type_symbol
_atom_site_label
_atom_site_fract_x
_atom_site_fract_y
_atom_site_fract_z
Si Si1 0.908745 0.070379 0.357845
Si Si2 0.203717 0.565344 0.371128
Si Si3 0.950441 0.066797 0.895602
Si Si4 0.646174 0.564594 0.884283
O O1 0.896048 0.250000 0.318929
O O2 0.773876 0.032990 0.498662
O O3 0.909141 0.960443 0.243981
O O4 0.068080 0.047172 0.371871
O O5 0.162751 0.750000 0.364986
O O6 0.351652 0.517031 0.243812
O O7 0.911737 0.250000 0.919122
O O8 0.799499 0.975584 0.903850
O O9 0.000000 0.000000 0.000000
O O10 0.630249 0.750000 0.873938
O O11 0.500000 0.500000 0.000000
#
# Coordination Sequence:
#
# PCOD8077608 Si02
#       4
#     4   4   4   4
#     4   9  16  27  45  70  98 127 162 204 247 290
#     4   9  16  27  45  70  98 127 162 204 247 290
#     4  11  21  34  52  75 103 134 169 207 250 298
#     4  11  21  34  52  75 103 134 169 207 250 298
#
# _framework density 18.775986
#
# number of rings (size 3 to 8) (size 9 to 14) (size 15 to 20)
#    0.000    2.000    0.000    9.000    0.000    3.000 
#    0.000    0.000    0.000    1.500    0.000    0.000 
#    0.000    0.000    0.000    0.000    0.000    0.000 
#
# Total GULP energy -198236.359438 kJ/mol
# GULP energy per Si atom -12389.772465 kJ/mol
# Density = 1.873325 g / cm^3
# Si number density = 18.775986 Si / 1000 Ang^3
#
#
#
# Elastic Constant Matrix: (Units=GPa)
#
#
# Indices 1 2 3 4 5 6 
#
# 1 31.4751 13.9010 42.8479 0.0000 6.3213 0.0000
# 2 13.9010 91.7690 44.2743 0.0000 3.2219 0.0000
# 3 42.8479 44.2743 202.7442 0.0000 7.4565 0.0000
# 4 0.0000 0.0000 0.0000 37.6249 0.0000 1.2257
# 5 6.3213 3.2219 7.4565 0.0000 27.7081 0.0000
# 6 0.0000 0.0000 0.0000 1.2257 0.0000 20.2327
#
#
#
# Elastic Compliance Matrix: (Units=1/GPa)
#
#
# Indices 1 2 3 4 5 6 
#
# 1 0.046780 -0.002435 -0.009062 0.000000 -0.007951 0.000000
# 2 -0.002435 0.012321 -0.002165 0.000000 -0.000295 0.000000
# 3 -0.009062 -0.002165 0.007307 0.000000 0.000353 0.000000
# 4 0.000000 0.000000 0.000000 0.026631 0.000000 -0.001613
# 5 -0.007951 -0.000295 0.000353 0.000000 0.037844 0.000000
# 6 0.000000 0.000000 0.000000 -0.001613 0.000000 0.049523
#
#
# Mechanical properties :
#
#
# Convention : Reuss Voigt Hill
#
# Bulk Modulus (GPa) = 25.58625 58.67052 42.12838
# Shear Modulus (GPa) = 22.64927 32.11082 27.38004
#
# Velocity S-wave (km/s) = 3.47694 4.13995 3.82284
# Velocity P-wave (km/s) = 5.45669 7.35987 6.47855
#
# Compressibility (1/GPa) = 0.03908349
#
# Stress axis : x y z
#
# Youngs Moduli (GPa) = 21.37660 81.16452 136.84759
#
# Poissons Ratio (x) = 0.19762 1.24017
# Poissons Ratio (y) = 0.05205 0.29629
# Poissons Ratio (z) = 0.19372 0.17573
#
# Static dielectric constant tensor:
#      x y z
#    x 2.752260 0.000000 0.019700 
#    y 0.000000 3.555880 0.000000 
#    z 0.019700 0.000000 4.571100 
# 
# 
# High freq. dielectric constant tensor:
#      x y z
#    x 1.640410 0.000000 0.010110 
#    y 0.000000 1.747490 0.000000 
#    z 0.010110 0.000000 1.769010 
# 
# From -- ./inp_files/15560.got.cif
#   From: 2010.06.25/outbox.cif.g09.slc.cpg/sg11_8_cif.got.tgz:15560.got - 2010.06.27 23:14:04.
