data_PCOD8077038
_publ_section_title
;
Structure prediction by ZEFSAII (Michael W. Deem and Ramdas Pophale) SiO2 
 PCOD8077038
Probable space group: P 21/M
;
_chemical_formula_sum "Si O2"
_cell_formula_units_Z 28
_cell_length_a 20.510943
_cell_length_b 8.993611
_cell_length_c 15.781704
_cell_angle_alpha 90.000000
_cell_angle_beta 151.834110
_cell_angle_gamma 90.000000
_cell_volume 1374.167122
_symmetry_space_group_name_H-M "P 21/M"
_symmetry_group_IT_number 11
_symmetry_cell_setting 'monoclinic'
loop_
_space_group_symop_operation_xyz
x,y,z
-x,1/2+y,-z
-x,-y,-z
x,1/2-y,z
loop_
_atom_site_type_symbol
_atom_site_label
_atom_site_fract_x
_atom_site_fract_y
_atom_site_fract_z
Si Si1 0.934268 0.579519 0.844796
Si Si2 0.651517 0.076332 0.082650
Si Si3 0.809738 0.577807 0.115562
Si Si4 0.910584 0.077519 0.647419
Si Si5 0.335719 0.423957 0.725521
Si Si6 0.631384 0.575128 0.755565
Si Si7 0.360416 0.418478 0.424041
O O1 0.984905 0.750000 0.899028
O O2 0.974603 0.494458 0.805512
O O3 0.769625 0.570180 0.664132
O O4 0.000000 0.500000 0.000000
O O5 0.675200 0.250000 0.126126
O O6 0.755338 0.021533 0.129727
O O7 0.690748 0.990321 0.212498
O O8 0.492496 0.043759 0.874785
O O9 0.772205 0.750000 0.089725
O O10 0.974799 0.557426 0.295032
O O11 0.739491 0.517102 0.948842
O O12 0.881667 0.250000 0.632087
O O13 0.768027 0.999275 0.459248
O O14 0.304085 0.250000 0.692115
O O15 0.626732 0.750000 0.754702
O O16 0.480093 0.513910 0.604660
O O17 0.675831 0.520863 0.712238
O O18 0.413836 0.250000 0.477440
#
# Coordination Sequence:
#
# PCOD8077038 Si02
#       7
#     4   4   4   4   4   4   4
#     4  11  23  39  59  84 119 160 205 253 302 356
#     4  10  22  40  65  93 121 156 199 248 303 361
#     4  10  22  39  59  86 120 159 200 248 301 356
#     4  11  24  41  62  89 124 163 205 250 300 359
#     4  10  22  42  65  92 124 156 198 248 300 362
#     4   9  18  34  55  80 111 148 194 242 292 349
#     4   9  19  35  54  78 111 150 193 246 297 346
#
# _framework density 20.375979000000001
#
# number of rings (size 3 to 8) (size 9 to 14) (size 15 to 20)
#    0.000    2.000    0.000    2.571    2.000    7.429 
#    0.000    2.857    0.000    0.000    0.000    0.000 
#    0.000    0.000    0.000    0.000    0.000    0.000 
#
# Total GULP energy -347267.995097 kJ/mol
# GULP energy per Si atom -12402.428396 kJ/mol
# Density = 2.032960 g / cm^3
# Si number density = 20.375979 Si / 1000 Ang^3
#
#
#
# Elastic Constant Matrix: (Units=GPa)
#
#
# Indices 1 2 3 4 5 6 
#
# 1 90.4536 46.9065 20.8191 0.0000 -0.9809 0.0000
# 2 46.9065 100.8183 41.6206 0.0000 -9.0209 0.0000
# 3 20.8191 41.6206 83.2409 0.0000 -10.4585 0.0000
# 4 0.0000 0.0000 0.0000 36.3529 0.0000 -0.6453
# 5 -0.9809 -9.0209 -10.4585 0.0000 21.4072 0.0000
# 6 0.0000 0.0000 0.0000 -0.6453 0.0000 35.3031
#
#
#
# Elastic Compliance Matrix: (Units=1/GPa)
#
#
# Indices 1 2 3 4 5 6 
#
# 1 0.014700 -0.006823 -0.000577 0.000000 -0.002484 0.000000
# 2 -0.006823 0.015779 -0.005739 0.000000 0.003533 0.000000
# 3 -0.000577 -0.005739 0.015683 0.000000 0.005217 0.000000
# 4 0.000000 0.000000 0.000000 0.027517 0.000000 0.000503
# 5 -0.002484 0.003533 0.005217 0.000000 0.050637 0.000000
# 6 0.000000 0.000000 0.000000 0.000503 0.000000 0.028335
#
#
# Mechanical properties :
#
#
# Convention : Reuss Voigt Hill
#
# Bulk Modulus (GPa) = 50.29501 54.80056 52.54778
# Shear Modulus (GPa) = 26.94614 29.62377 28.28495
#
# Velocity S-wave (km/s) = 3.64049 3.81708 3.72983
# Velocity P-wave (km/s) = 6.51214 6.81028 6.66288
#
# Compressibility (1/GPa) = 0.01988269
#
# Stress axis : x y z
#
# Youngs Moduli (GPa) = 68.02952 63.37679 63.76506
#
# Poissons Ratio (x) = 0.43243 0.03679
# Poissons Ratio (y) = 0.46417 0.36595
# Poissons Ratio (z) = 0.03925 0.36372
#
# Static dielectric constant tensor:
#      x y z
#    x 3.708350 0.000000 -0.012490 
#    y 0.000000 3.708950 0.000000 
#    z -0.012490 0.000000 3.711230 
# 
# 
# High freq. dielectric constant tensor:
#      x y z
#    x 1.795620 0.000000 0.001800 
#    y 0.000000 1.798390 0.000000 
#    z 0.001800 0.000000 1.795930 
# 
# From -- ./inp_files/54597.got.cif
#   From: 2010.06.25/outbox.cif.g09.slc.cpg/sg11_28_cif.got.tgz:54597.got - 2010.06.27 23:14:04.
