data_PCOD8077987
_publ_section_title
;
Structure prediction by ZEFSAII (Michael W. Deem and Ramdas Pophale) SiO2 
 PCOD8077987
Probable space group: P 21/M
;
_chemical_formula_sum "Si O2"
_cell_formula_units_Z 32
_cell_length_a 15.000000
_cell_length_b 21.000000
_cell_length_c 15.000000
_cell_angle_alpha 90.000000
_cell_angle_beta 20.000000
_cell_angle_gamma 90.000000
_cell_volume 1616.045177
_symmetry_space_group_name_H-M "P 21/M"
_symmetry_group_IT_number 11
_symmetry_cell_setting 'monoclinic'
loop_
_space_group_symop_operation_xyz
x,y,z
-x,1/2+y,-z
-x,-y,-z
x,1/2-y,z
loop_
_atom_site_type_symbol
_atom_site_label
_atom_site_fract_x
_atom_site_fract_y
_atom_site_fract_z
Si Si1 0.517136 0.489067 0.704353
Si Si2 0.485577 0.822129 0.539615
Si Si3 0.020237 0.932216 0.231971
Si Si4 0.419072 0.640343 0.407497
Si Si5 0.467043 0.077175 0.925124
Si Si6 0.178033 0.958829 0.269756
Si Si7 0.035570 0.825768 0.085958
Si Si8 0.859477 0.823003 0.859340
O O1 0.514128 0.434312 0.631006
O O2 0.604667 0.439281 0.701694
O O3 0.734667 0.540856 0.477522
O O4 0.236946 0.520587 0.986030
O O5 0.495508 0.750000 0.562099
O O6 0.393973 0.824659 0.524607
O O7 0.772886 0.850449 0.284389
O O8 0.269186 0.854156 0.806395
O O9 0.027664 0.923041 0.331908
O O10 0.052780 0.861152 0.164496
O O11 0.144374 0.651671 0.615984
O O12 0.659336 0.672520 0.129475
O O13 0.671933 0.094470 0.811224
O O14 0.252528 0.132856 0.116491
O O15 0.366705 0.007326 0.043576
O O16 0.000000 0.000000 0.500000
O O17 0.045294 0.750000 0.092194
O O18 0.876838 0.750000 0.810186
#
# Coordination Sequence:
#
# PCOD8077987 Si02
#       8
#     4   4   4   4   4   4   4   4
#     4  10  20  35  56  84 115 145 180 231 286 335
#     4  10  20  37  59  80 107 148 198 237 269 332
#     4  11  21  37  58  83 112 147 188 234 285 340
#     4  11  21  37  58  85 114 149 191 231 278 337
#     4   9  20  33  53  83 113 143 185 228 271 328
#     4  10  18  34  58  84 105 142 192 233 271 325
#     4  10  22  39  58  80 110 148 190 237 283 327
#     4  11  22  35  55  84 121 154 180 225 287 345
#
# _framework density 19.801427
#
# number of rings (size 3 to 8) (size 9 to 14) (size 15 to 20)
#    0.000    1.750    1.250    4.875    1.750    1.000 
#    0.000    4.375    0.000    0.750    0.000    0.000 
#    0.000    0.000    0.000    0.000    0.000    0.000 
#
# Total GULP energy -396461.480095 kJ/mol
# GULP energy per Si atom -12389.421253 kJ/mol
# Density = 1.975636 g / cm^3
# Si number density = 19.801427 Si / 1000 Ang^3
#
#
#
# Elastic Constant Matrix: (Units=GPa)
#
#
# Indices 1 2 3 4 5 6 
#
# 1 67.8586 25.9545 18.3057 0.0000 -6.6413 0.0000
# 2 25.9545 67.9600 18.4727 0.0000 -5.2916 0.0000
# 3 18.3057 18.4727 115.7899 0.0000 -6.6076 0.0000
# 4 0.0000 0.0000 0.0000 18.0494 0.0000 4.3877
# 5 -6.6413 -5.2916 -6.6076 0.0000 20.0769 0.0000
# 6 0.0000 0.0000 0.0000 4.3877 0.0000 28.8399
#
#
#
# Elastic Compliance Matrix: (Units=1/GPa)
#
#
# Indices 1 2 3 4 5 6 
#
# 1 0.017876 -0.006088 -0.001640 0.000000 0.003769 0.000000
# 2 -0.006088 0.017674 -0.001739 0.000000 0.002072 0.000000
# 3 -0.001640 -0.001739 0.009290 0.000000 0.002057 0.000000
# 4 0.000000 0.000000 0.000000 0.057531 0.000000 -0.008753
# 5 0.003769 0.002072 0.002057 0.000000 0.052278 0.000000
# 6 0.000000 0.000000 0.000000 -0.008753 0.000000 0.036006
#
#
# Mechanical properties :
#
#
# Convention : Reuss Voigt Hill
#
# Bulk Modulus (GPa) = 38.59958 41.89716 40.24837
# Shear Modulus (GPa) = 22.91222 25.98495 24.44858
#
# Velocity S-wave (km/s) = 3.40531 3.62647 3.51762
# Velocity P-wave (km/s) = 5.91584 6.22411 6.07193
#
# Compressibility (1/GPa) = 0.02590702
#
# Stress axis : x y z
#
# Youngs Moduli (GPa) = 55.94015 56.58176 107.63842
#
# Poissons Ratio (x) = 0.34446 0.17651
# Poissons Ratio (y) = 0.34056 0.18717
# Poissons Ratio (z) = 0.09173 0.09839
#
# Static dielectric constant tensor:
#      x y z
#    x 3.655850 0.000000 -0.170930 
#    y 0.000000 3.317460 0.000000 
#    z -0.170930 0.000000 3.728020 
# 
# 
# High freq. dielectric constant tensor:
#      x y z
#    x 1.752730 0.000000 -0.005200 
#    y 0.000000 1.750550 0.000000 
#    z -0.005200 0.000000 1.788360 
# 
# From -- ./inp_files/52709.got.cif
#   From: 2010.06.25/outbox.ucp.g09.slc.cvg/sg11_27_cif.got.tgz:52709.got - 2010.06.28 13:43:20.
