data_PCOD8077192
_publ_section_title
;
Structure prediction by ZEFSAII (Michael W. Deem and Ramdas Pophale) SiO2 
 PCOD8077192
Probable space group: P 21/M
;
_chemical_formula_sum "Si O2"
_cell_formula_units_Z 32
_cell_length_a 15.382567
_cell_length_b 8.674040
_cell_length_c 11.890987
_cell_angle_alpha 90.000000
_cell_angle_beta 89.394686
_cell_angle_gamma 90.000000
_cell_volume 1586.513980
_symmetry_space_group_name_H-M "P 21/M"
_symmetry_group_IT_number 11
_symmetry_cell_setting 'monoclinic'
loop_
_space_group_symop_operation_xyz
x,y,z
-x,1/2+y,-z
-x,-y,-z
x,1/2-y,z
loop_
_atom_site_type_symbol
_atom_site_label
_atom_site_fract_x
_atom_site_fract_y
_atom_site_fract_z
Si Si1 0.157350 0.076204 0.729010
Si Si2 0.249869 0.566808 0.351840
Si Si3 0.665131 0.071947 0.252131
Si Si4 0.905360 0.070685 0.491033
Si Si5 0.587752 0.932650 0.045468
Si Si6 0.405798 0.926984 0.500184
Si Si7 0.253061 0.932115 0.092636
Si Si8 0.909068 0.573142 0.029383
O O1 0.157712 0.250000 0.680649
O O2 0.094210 0.063149 0.835872
O O3 0.251111 0.030543 0.774266
O O4 0.129404 0.958130 0.633401
O O5 0.250157 0.750000 0.364871
O O6 0.163862 0.502143 0.417458
O O7 0.338396 0.501523 0.409411
O O8 0.247050 0.514262 0.222665
O O9 0.685113 0.250000 0.225879
O O10 0.636190 0.046146 0.378875
O O11 0.592971 0.007651 0.168826
O O12 0.915327 0.250000 0.512100
O O13 0.000000 0.000000 0.500000
O O14 0.583102 0.750000 0.055222
O O15 0.500000 0.000000 0.000000
O O16 0.667513 0.979430 0.965149
O O17 0.420222 0.750000 0.471829
O O18 0.500000 0.000000 0.500000
O O19 0.269008 0.750000 0.083575
O O20 0.164660 0.974689 0.031167
O O21 0.902286 0.750000 0.988793
O O22 0.000000 0.500000 0.000000
#
# Coordination Sequence:
#
# PCOD8077192 Si02
#       8
#     4   4   4   4   4   4   4   4
#     4  11  23  41  65  93 125 164 211 263 315 373
#     4   9  21  42  63  87 126 168 204 251 312 371
#     4  11  22  41  68  94 124 164 210 261 317 376
#     4  11  23  42  65  93 127 165 210 261 314 377
#     4  12  26  44  65  94 129 166 212 264 316 379
#     4  10  22  41  63  93 126 164 208 254 308 370
#     4  11  23  42  67  93 127 170 211 259 318 379
#     4  11  25  43  64  93 128 167 214 265 317 377
#
# _framework density 20.170006999999998
#
# number of rings (size 3 to 8) (size 9 to 14) (size 15 to 20)
#    0.000    1.250    2.500    3.000    3.500    2.500 
#    0.000    2.500    0.000    0.000    0.000    0.000 
#    0.000    0.000    0.000    0.000    0.000    0.000 
#
# Total GULP energy -396861.912022 kJ/mol
# GULP energy per Si atom -12401.934751 kJ/mol
# Density = 2.012410 g / cm^3
# Si number density = 20.170007 Si / 1000 Ang^3
#
#
#
# Elastic Constant Matrix: (Units=GPa)
#
#
# Indices 1 2 3 4 5 6 
#
# 1 123.6146 22.3959 27.5805 0.0000 3.4889 0.0000
# 2 22.3959 64.0321 34.1502 0.0000 -14.0000 0.0000
# 3 27.5805 34.1502 95.8377 0.0000 15.7740 0.0000
# 4 0.0000 0.0000 0.0000 31.5840 0.0000 1.6110
# 5 3.4889 -14.0000 15.7740 0.0000 28.3925 0.0000
# 6 0.0000 0.0000 0.0000 1.6110 0.0000 39.0040
#
#
#
# Elastic Compliance Matrix: (Units=1/GPa)
#
#
# Indices 1 2 3 4 5 6 
#
# 1 0.008938 -0.002848 -0.001261 0.000000 -0.001802 0.000000
# 2 -0.002848 0.027978 -0.012634 0.000000 0.021165 0.000000
# 3 -0.001261 -0.012634 0.017939 0.000000 -0.016041 0.000000
# 4 0.000000 0.000000 0.000000 0.031728 0.000000 -0.001311
# 5 -0.001802 0.021165 -0.016041 0.000000 0.054790 0.000000
# 6 0.000000 0.000000 0.000000 -0.001311 0.000000 0.025693
#
#
# Mechanical properties :
#
#
# Convention : Reuss Voigt Hill
#
# Bulk Modulus (GPa) = 46.79211 50.19308 48.49259
# Shear Modulus (GPa) = 24.07618 33.08661 28.58140
#
# Velocity S-wave (km/s) = 3.45869 4.05456 3.76842
# Velocity P-wave (km/s) = 6.26093 6.84531 6.55963
#
# Compressibility (1/GPa) = 0.02137113
#
# Stress axis : x y z
#
# Youngs Moduli (GPa) = 111.88504 35.74179 55.74395
#
# Poissons Ratio (x) = 0.10178 0.07029
# Poissons Ratio (y) = 0.31860 0.70425
# Poissons Ratio (z) = 0.14107 0.45155
#
# Static dielectric constant tensor:
#      x y z
#    x 3.449220 0.000000 0.271060 
#    y 0.000000 3.665010 0.000000 
#    z 0.271060 0.000000 3.896840 
# 
# 
# High freq. dielectric constant tensor:
#      x y z
#    x 1.800130 0.000000 0.002700 
#    y 0.000000 1.783240 0.000000 
#    z 0.002700 0.000000 1.801130 
# 
# From -- ./inp_files/38077.got.cif
#   From: 2010.06.25/outbox.cif.g09.slc.cpg/sg11_20_cif.got.tgz:38077.got - 2010.06.27 23:14:04.
