data_PCOD8077336
_publ_section_title
;
Structure prediction by ZEFSAII (Michael W. Deem and Ramdas Pophale) SiO2 
 PCOD8077336
Probable space group: P 21/M
;
_chemical_formula_sum "Si O2"
_cell_formula_units_Z 28
_cell_length_a 8.869378
_cell_length_b 8.530627
_cell_length_c 28.641482
_cell_angle_alpha 90.000000
_cell_angle_beta 39.051194
_cell_angle_gamma 90.000000
_cell_volume 1365.275082
_symmetry_space_group_name_H-M "P 21/M"
_symmetry_group_IT_number 11
_symmetry_cell_setting 'monoclinic'
loop_
_space_group_symop_operation_xyz
x,y,z
-x,1/2+y,-z
-x,-y,-z
x,1/2-y,z
loop_
_atom_site_type_symbol
_atom_site_label
_atom_site_fract_x
_atom_site_fract_y
_atom_site_fract_z
Si Si1 0.524246 0.432662 0.721223
Si Si2 0.861869 0.931524 0.715602
Si Si3 0.011419 0.566547 0.857157
Si Si4 0.167492 0.065537 0.999644
Si Si5 0.703465 0.433223 0.849750
Si Si6 0.739471 0.434080 0.571537
Si Si7 0.412277 0.933556 0.569710
O O1 0.453849 0.250000 0.735912
O O2 0.707881 0.459149 0.719000
O O3 0.645479 0.491585 0.644296
O O4 0.292730 0.537531 0.785792
O O5 0.814688 0.750000 0.715142
O O6 0.136475 0.977130 0.642297
O O7 0.792526 0.964172 0.785335
O O8 0.956346 0.750000 0.863200
O O9 0.876350 0.464351 0.851370
O O10 0.921344 0.504353 0.928896
O O11 0.148990 0.250000 0.002432
O O12 0.438029 0.008915 0.926602
O O13 0.000000 0.000000 0.000000
O O14 0.709858 0.250000 0.835323
O O15 0.759226 0.250000 0.565422
O O16 0.556062 0.488293 0.576706
O O17 0.000000 0.500000 0.500000
O O18 0.459117 0.750000 0.560033
O O19 0.500000 0.000000 0.500000
#
# Coordination Sequence:
#
# PCOD8077336 Si02
#       7
#     4   4   4   4   4   4   4
#     4  11  24  41  62  90 122 158 199 246 297 353
#     4  11  24  41  62  90 122 158 199 246 297 353
#     4  11  23  40  62  89 121 158 200 247 298 354
#     4  10  23  40  60  88 120 156 199 246 297 352
#     4  11  23  40  62  89 121 158 200 247 298 354
#     4  11  24  41  63  90 122 158 199 246 297 353
#     4  11  24  41  63  90 122 158 199 246 297 353
#
# _framework density 20.508686999999998
#
# number of rings (size 3 to 8) (size 9 to 14) (size 15 to 20)
#    0.000    1.143    0.000    5.571    0.000   13.714 
#    0.000    0.000    0.000    0.000    0.000    0.000 
#    0.000    0.000    0.000    0.000    0.000    0.000 
#
# Total GULP energy -347412.759169 kJ/mol
# GULP energy per Si atom -12407.598542 kJ/mol
# Density = 2.046201 g / cm^3
# Si number density = 20.508687 Si / 1000 Ang^3
#
#
#
# Elastic Constant Matrix: (Units=GPa)
#
#
# Indices 1 2 3 4 5 6 
#
# 1 126.0731 7.1795 68.8270 0.0000 12.2266 0.0000
# 2 7.1795 32.1125 37.2442 0.0000 0.4179 0.0000
# 3 68.8270 37.2442 180.1342 0.0000 1.7406 0.0000
# 4 0.0000 0.0000 0.0000 30.7849 0.0000 -0.0150
# 5 12.2266 0.4179 1.7406 0.0000 41.3284 0.0000
# 6 0.0000 0.0000 0.0000 -0.0150 0.0000 41.4235
#
#
#
# Elastic Compliance Matrix: (Units=1/GPa)
#
#
# Indices 1 2 3 4 5 6 
#
# 1 0.010583 0.003064 -0.004648 0.000000 -0.002966 0.000000
# 2 0.003064 0.041851 -0.009815 0.000000 -0.000916 0.000000
# 3 -0.004648 -0.009815 0.009346 0.000000 0.001081 0.000000
# 4 0.000000 0.000000 0.000000 0.032484 0.000000 0.000012
# 5 -0.002966 -0.000916 0.001081 0.000000 0.025038 0.000000
# 6 0.000000 0.000000 0.000000 0.000012 0.000000 0.024141
#
#
# Mechanical properties :
#
#
# Convention : Reuss Voigt Hill
#
# Bulk Modulus (GPa) = 25.65349 62.75791 44.20570
# Shear Modulus (GPa) = 27.89649 37.71196 32.80422
#
# Velocity S-wave (km/s) = 3.69213 4.29281 4.00375
# Velocity P-wave (km/s) = 5.54180 7.43223 6.55551
#
# Compressibility (1/GPa) = 0.03898105
#
# Stress axis : x y z
#
# Youngs Moduli (GPa) = 94.49356 23.89452 106.99414
#
# Poissons Ratio (x) = -0.07321 0.49734
# Poissons Ratio (y) = -0.28950 1.05012
# Poissons Ratio (z) = 0.43924 0.23452
#
# Static dielectric constant tensor:
#      x y z
#    x 3.775790 0.000000 0.003220 
#    y 0.000000 3.598800 0.000000 
#    z 0.003220 0.000000 4.163910 
# 
# 
# High freq. dielectric constant tensor:
#      x y z
#    x 1.818860 0.000000 0.000560 
#    y 0.000000 1.807420 0.000000 
#    z 0.000560 0.000000 1.823600 
# 
# From -- ./inp_files/70787.got.cif
#   From: 2010.06.25/outbox.cif.g09.slc.cpg/sg11_36_cif.got.tgz:70787.got - 2010.06.27 23:14:04.
