data_PCOD8077105
_publ_section_title
;
Structure prediction by ZEFSAII (Michael W. Deem and Ramdas Pophale) SiO2 
 PCOD8077105
Probable space group: P 21/M
;
_chemical_formula_sum "Si O2"
_cell_formula_units_Z 26
_cell_length_a 13.647446
_cell_length_b 8.732743
_cell_length_c 12.090883
_cell_angle_alpha 90.000000
_cell_angle_beta 113.077015
_cell_angle_gamma 90.000000
_cell_volume 1325.677573
_symmetry_space_group_name_H-M "P 21/M"
_symmetry_group_IT_number 11
_symmetry_cell_setting 'monoclinic'
loop_
_space_group_symop_operation_xyz
x,y,z
-x,1/2+y,-z
-x,-y,-z
x,1/2-y,z
loop_
_atom_site_type_symbol
_atom_site_label
_atom_site_fract_x
_atom_site_fract_y
_atom_site_fract_z
Si Si1 0.754022 0.569466 0.579861
Si Si2 0.368222 0.082820 0.252865
Si Si3 0.138072 0.750000 0.337897
Si Si4 0.598622 0.418213 0.099157
Si Si5 0.227845 0.501446 0.991819
Si Si6 0.584773 0.923289 0.315526
Si Si7 0.882155 0.250000 0.915647
Si Si8 0.075219 0.250000 0.860192
O O1 0.800338 0.750000 0.588252
O O2 0.712863 0.545007 0.685089
O O3 0.828866 0.416424 0.591665
O O4 0.657410 0.547434 0.453365
O O5 0.418985 0.250000 0.294455
O O6 0.463743 0.963086 0.292771
O O7 0.304740 0.087230 0.109735
O O8 0.180800 0.750000 0.229644
O O9 0.008218 0.750000 0.279047
O O10 0.557235 0.250000 0.106239
O O11 0.700151 0.409154 0.064094
O O12 0.631401 0.488224 0.231113
O O13 0.500000 0.500000 0.000000
O O14 0.151956 0.394498 0.886185
O O15 0.148865 0.604989 0.026777
O O16 0.584848 0.750000 0.277630
O O17 0.009379 0.250000 0.947803
#
# Coordination Sequence:
#
# PCOD8077105 Si02
#       8
#     4   4   2   4   4   4   2   2
#     4  10  23  41  62  94 126 168 216 270 324 379
#     4  11  21  35  59  91 129 168 204 260 317 385
#     4  10  22  40  68  90 126 166 203 270 329 387
#     4  12  26  40  61  92 130 177 212 254 310 382
#     4  12  22  40  61  93 135 160 213 259 318 392
#     4  11  25  39  60  90 126 169 215 260 309 384
#     4  10  22  40  60  96 122 170 203 268 331 377
#     4  10  24  40  64  98 124 168 208 268 336 380
#
# _framework density 19.612611999999999
#
# number of rings (size 3 to 8) (size 9 to 14) (size 15 to 20)
#    0.462    0.615    4.615    1.846    6.462    0.000 
#    1.385    0.000    0.000    0.923    0.000    0.000 
#    0.000    0.000    0.000    0.000    0.000    0.000 
#
# Total GULP energy -322093.717614 kJ/mol
# GULP energy per Si atom -12388.219908 kJ/mol
# Density = 1.956797 g / cm^3
# Si number density = 19.612612 Si / 1000 Ang^3
#
#
#
# Elastic Constant Matrix: (Units=GPa)
#
#
# Indices 1 2 3 4 5 6 
#
# 1 53.4304 25.8355 15.8415 0.0000 14.5855 0.0000
# 2 25.8355 143.8317 39.6865 0.0000 18.7040 0.0000
# 3 15.8415 39.6865 69.7297 0.0000 19.2607 0.0000
# 4 0.0000 0.0000 0.0000 15.9648 0.0000 -2.5888
# 5 14.5855 18.7040 19.2607 0.0000 30.7708 0.0000
# 6 0.0000 0.0000 0.0000 -2.5888 0.0000 22.3165
#
#
#
# Elastic Compliance Matrix: (Units=1/GPa)
#
#
# Indices 1 2 3 4 5 6 
#
# 1 0.022648 -0.002612 -0.001368 0.000000 -0.008291 0.000000
# 2 -0.002612 0.008713 -0.003923 0.000000 -0.001602 0.000000
# 3 -0.001368 -0.003923 0.019401 0.000000 -0.009111 0.000000
# 4 0.000000 0.000000 0.000000 0.063838 0.000000 0.007405
# 5 -0.008291 -0.001602 -0.009111 0.000000 0.043105 0.000000
# 6 0.000000 0.000000 0.000000 0.007405 0.000000 0.045669
#
#
# Mechanical properties :
#
#
# Convention : Reuss Voigt Hill
#
# Bulk Modulus (GPa) = 28.60829 47.74654 38.17741
# Shear Modulus (GPa) = 21.66070 26.18564 23.92317
#
# Velocity S-wave (km/s) = 3.32690 3.65792 3.49633
# Velocity P-wave (km/s) = 5.41996 6.49909 5.98390
#
# Compressibility (1/GPa) = 0.03495490
#
# Stress axis : x y z
#
# Youngs Moduli (GPa) = 44.15389 114.77722 51.54335
#
# Poissons Ratio (x) = 0.29984 0.07053
# Poissons Ratio (y) = 0.11535 0.20219
# Poissons Ratio (z) = 0.06042 0.45023
#
# Static dielectric constant tensor:
#      x y z
#    x 3.414780 0.000000 -0.040420 
#    y 0.000000 3.901640 0.000000 
#    z -0.040420 0.000000 3.539700 
# 
# 
# High freq. dielectric constant tensor:
#      x y z
#    x 1.739480 0.000000 0.000660 
#    y 0.000000 1.785810 0.000000 
#    z 0.000660 0.000000 1.755230 
# 
# From -- ./inp_files/37829.got.cif
#   From: 2010.06.25/outbox.cif.g09.slc.cpg/sg11_19_cif.got.tgz:37829.got - 2010.06.27 23:14:04.
