data_PCOD8077746
_publ_section_title
;
Structure prediction by ZEFSAII (Michael W. Deem and Ramdas Pophale) SiO2 
 PCOD8077746
Probable space group: P 21/M
;
_chemical_formula_sum "Si O2"
_cell_formula_units_Z 20
_cell_length_a 10.692581
_cell_length_b 10.010813
_cell_length_c 9.255347
_cell_angle_alpha 90.000000
_cell_angle_beta 96.177896
_cell_angle_gamma 90.000000
_cell_volume 984.952099
_symmetry_space_group_name_H-M "P 21/M"
_symmetry_group_IT_number 11
_symmetry_cell_setting 'monoclinic'
loop_
_space_group_symop_operation_xyz
x,y,z
-x,1/2+y,-z
-x,-y,-z
x,1/2-y,z
loop_
_atom_site_type_symbol
_atom_site_label
_atom_site_fract_x
_atom_site_fract_y
_atom_site_fract_z
Si Si1 0.588241 0.750000 0.834509
Si Si2 0.024786 0.021568 0.297575
Si Si3 0.547719 0.010212 0.341152
Si Si4 0.808935 0.101080 0.467954
Si Si5 0.116399 0.250000 0.794722
Si Si6 0.872908 0.750000 0.869233
Si Si7 0.597063 0.750000 0.184205
O O1 0.523031 0.620931 0.759903
O O2 0.730704 0.750000 0.793687
O O3 0.577876 0.750000 0.008240
O O4 0.054161 0.114578 0.164997
O O5 0.934752 0.108514 0.387872
O O6 0.159342 0.991754 0.390259
O O7 0.959561 0.881008 0.257820
O O8 0.695646 0.041388 0.361357
O O9 0.500000 0.000000 0.500000
O O10 0.527192 0.875370 0.248286
O O11 0.773626 0.250000 0.515295
O O12 0.256787 0.250000 0.746895
O O13 0.133817 0.250000 0.964054
#
# Coordination Sequence:
#
# PCOD8077746 Si02
#       7
#     2   4   4   4   2   2   2
#     4  11  25  45  64  92 136 177 211 267 324 388
#     4  11  22  40  64  94 127 159 209 262 320 378
#     4  12  24  43  69  95 128 170 221 271 317 381
#     4  11  22  38  66  92 123 160 206 266 322 376
#     4  11  22  41  64  92 128 169 204 258 327 393
#     4  11  24  41  62  91 129 169 214 255 310 385
#     4  11  25  43  66  97 129 169 219 264 333 388
#
# _framework density 20.305557
#
# number of rings (size 3 to 8) (size 9 to 14) (size 15 to 20)
#    0.000    0.800    5.000    3.000    0.000    0.800 
#    0.000    0.000    4.400    0.000    0.000    0.000 
#    0.000    0.000    0.000    0.000    0.000    0.000 
#
# Total GULP energy -247963.226812 kJ/mol
# GULP energy per Si atom -12398.161341 kJ/mol
# Density = 2.025934 g / cm^3
# Si number density = 20.305557 Si / 1000 Ang^3
#
#
#
# Elastic Constant Matrix: (Units=GPa)
#
#
# Indices 1 2 3 4 5 6 
#
# 1 66.0709 42.0764 40.7234 0.0000 11.2452 0.0000
# 2 42.0764 156.8020 52.5788 0.0000 -2.4719 0.0000
# 3 40.7234 52.5788 77.4242 0.0000 4.2018 0.0000
# 4 0.0000 0.0000 0.0000 79.5330 0.0000 16.5894
# 5 11.2452 -2.4719 4.2018 0.0000 34.5978 0.0000
# 6 0.0000 0.0000 0.0000 16.5894 0.0000 34.2605
#
#
#
# Elastic Compliance Matrix: (Units=1/GPa)
#
#
# Indices 1 2 3 4 5 6 
#
# 1 0.024879 -0.003273 -0.010481 0.000000 -0.007047 0.000000
# 2 -0.003273 0.008745 -0.004338 0.000000 0.002215 0.000000
# 3 -0.010481 -0.004338 0.021347 0.000000 0.000504 0.000000
# 4 0.000000 0.000000 0.000000 0.013986 0.000000 -0.006772
# 5 -0.007047 0.002215 0.000504 0.000000 0.031291 0.000000
# 6 0.000000 0.000000 0.000000 -0.006772 0.000000 0.032467
#
#
# Mechanical properties :
#
#
# Convention : Reuss Voigt Hill
#
# Bulk Modulus (GPa) = 53.22397 63.45047 58.33722
# Shear Modulus (GPa) = 28.54528 40.67281 34.60904
#
# Velocity S-wave (km/s) = 3.75345 4.48039 4.13293
# Velocity P-wave (km/s) = 6.71215 7.62108 7.18101
#
# Compressibility (1/GPa) = 0.01878853
#
# Stress axis : x y z
#
# Youngs Moduli (GPa) = 40.19487 114.34984 46.84531
#
# Poissons Ratio (x) = 0.37423 0.49097
# Poissons Ratio (y) = 0.13155 0.20320
# Poissons Ratio (z) = 0.42127 0.49601
#
# Static dielectric constant tensor:
#      x y z
#    x 3.814670 0.000000 0.169700 
#    y 0.000000 4.103250 0.000000 
#    z 0.169700 0.000000 3.696980 
# 
# 
# High freq. dielectric constant tensor:
#      x y z
#    x 1.796870 0.000000 0.007100 
#    y 0.000000 1.812890 0.000000 
#    z 0.007100 0.000000 1.791290 
# 
# From -- ./inp_files/16105.got.cif
#   From: 2010.06.25/outbox.cif.g09.slc.cpg/sg11_9_cif.got.tgz:16105.got - 2010.06.27 23:14:04.
