data_PCOD8077603
_publ_section_title
;
Structure prediction by ZEFSAII (Michael W. Deem and Ramdas Pophale) SiO2 
 PCOD8077603
Probable space group: P 21/M
;
_chemical_formula_sum "Si O2"
_cell_formula_units_Z 28
_cell_length_a 9.036068
_cell_length_b 8.805580
_cell_length_c 26.001849
_cell_angle_alpha 90.000000
_cell_angle_beta 136.353100
_cell_angle_gamma 90.000000
_cell_volume 1427.986994
_symmetry_space_group_name_H-M "P 21/M"
_symmetry_group_IT_number 11
_symmetry_cell_setting 'monoclinic'
loop_
_space_group_symop_operation_xyz
x,y,z
-x,1/2+y,-z
-x,-y,-z
x,1/2-y,z
loop_
_atom_site_type_symbol
_atom_site_label
_atom_site_fract_x
_atom_site_fract_y
_atom_site_fract_z
Si Si1 0.356546 0.930721 0.348870
Si Si2 0.051677 0.418027 0.934641
Si Si3 0.602077 0.569016 0.238775
Si Si4 0.760861 0.929190 0.783666
Si Si5 0.082119 0.929550 0.375701
Si Si6 0.325572 0.917649 0.077975
Si Si7 0.806239 0.430553 0.482689
O O1 0.376742 0.750000 0.352566
O O2 0.238253 0.990417 0.370465
O O3 0.219120 0.989138 0.266216
O O4 0.589906 0.004440 0.404479
O O5 0.092180 0.250000 0.922441
O O6 0.973401 0.527280 0.869234
O O7 0.873582 0.413182 0.933598
O O8 0.273747 0.476803 0.015937
O O9 0.577447 0.750000 0.240877
O O10 0.454868 0.486077 0.243260
O O11 0.529629 0.524077 0.162391
O O12 0.842065 0.507727 0.307030
O O13 0.750865 0.750000 0.774048
O O14 0.070481 0.750000 0.370320
O O15 0.173956 0.985155 0.453269
O O16 0.371132 0.750000 0.067598
O O17 0.810214 0.250000 0.478900
O O18 0.000000 0.500000 0.500000
#
# Coordination Sequence:
#
# PCOD8077603 Si02
#       7
#     4   4   4   4   4   4   4
#     4  11  22  38  57  78 107 144 180 217 264 316
#     4   9  16  27  45  70 102 139 176 217 267 319
#     4   9  17  33  55  79 106 139 179 222 269 320
#     4  11  21  33  51  78 108 139 179 226 270 315
#     4   9  20  37  58  80 106 141 179 217 261 315
#     4   8  14  24  43  72 104 134 168 216 270 318
#     4  11  22  38  60  87 113 140 176 218 263 311
#
# _framework density 19.60802
#
# number of rings (size 3 to 8) (size 9 to 14) (size 15 to 20)
#    0.000    2.286    0.000    4.714    0.000    4.571 
#    0.000    4.286    0.000    0.857    0.000    0.000 
#    0.000    0.000    0.000    0.000    0.000    0.000 
#
# Total GULP energy -347176.158925 kJ/mol
# GULP energy per Si atom -12399.148533 kJ/mol
# Density = 1.956339 g / cm^3
# Si number density = 19.608020 Si / 1000 Ang^3
#
#
#
# Elastic Constant Matrix: (Units=GPa)
#
#
# Indices 1 2 3 4 5 6 
#
# 1 76.6509 32.1866 24.2546 0.0000 -22.1001 0.0000
# 2 32.1866 89.2355 34.5841 0.0000 -9.5571 0.0000
# 3 24.2546 34.5841 104.0051 0.0000 -24.6760 0.0000
# 4 0.0000 0.0000 0.0000 32.6509 0.0000 -3.6298
# 5 -22.1001 -9.5571 -24.6760 0.0000 19.4575 0.0000
# 6 0.0000 0.0000 0.0000 -3.6298 0.0000 18.7384
#
#
#
# Elastic Compliance Matrix: (Units=1/GPa)
#
#
# Indices 1 2 3 4 5 6 
#
# 1 0.022306 -0.006467 0.003155 0.000000 0.026160 0.000000
# 2 -0.006467 0.014761 -0.004896 0.000000 -0.006304 0.000000
# 3 0.003155 -0.004896 0.015429 0.000000 0.020746 0.000000
# 4 0.000000 0.000000 0.000000 0.031301 0.000000 0.006063
# 5 0.026160 -0.006304 0.020746 0.000000 0.104322 0.000000
# 6 0.000000 0.000000 0.000000 0.006063 0.000000 0.054541
#
#
# Mechanical properties :
#
#
# Convention : Reuss Voigt Hill
#
# Bulk Modulus (GPa) = 27.71498 50.21577 38.96538
# Shear Modulus (GPa) = 18.44328 26.09379 22.26854
#
# Velocity S-wave (km/s) = 3.07025 3.65193 3.37365
# Velocity P-wave (km/s) = 5.17047 6.59148 5.92374
#
# Compressibility (1/GPa) = 0.03608158
#
# Stress axis : x y z
#
# Youngs Moduli (GPa) = 44.83155 67.74551 64.81145
#
# Poissons Ratio (x) = 0.43808 -0.20449
# Poissons Ratio (y) = 0.28991 0.31731
# Poissons Ratio (z) = -0.14145 0.33168
#
# Static dielectric constant tensor:
#      x y z
#    x 3.328690 0.000000 -0.118270 
#    y 0.000000 3.514960 0.000000 
#    z -0.118270 0.000000 3.929420 
# 
# 
# High freq. dielectric constant tensor:
#      x y z
#    x 1.728170 0.000000 -0.011780 
#    y 0.000000 1.753430 0.000000 
#    z -0.011780 0.000000 1.784120 
# 
# From -- ./inp_files/28647.got.cif
#   From: 2010.06.25/outbox.cif.g09.slc.cpg/sg11_15_cif.got.tgz:28647.got - 2010.06.27 23:14:04.
