data_PCOD8077256
_publ_section_title
;
Structure prediction by ZEFSAII (Michael W. Deem and Ramdas Pophale) SiO2 
 PCOD8077256
Probable space group: P 21/M
;
_chemical_formula_sum "Si O2"
_cell_formula_units_Z 32
_cell_length_a 11.967898
_cell_length_b 8.475948
_cell_length_c 15.497840
_cell_angle_alpha 90.000000
_cell_angle_beta 89.954536
_cell_angle_gamma 90.000000
_cell_volume 1572.089254
_symmetry_space_group_name_H-M "P 21/M"
_symmetry_group_IT_number 11
_symmetry_cell_setting 'monoclinic'
loop_
_space_group_symop_operation_xyz
x,y,z
-x,1/2+y,-z
-x,-y,-z
x,1/2-y,z
loop_
_atom_site_type_symbol
_atom_site_label
_atom_site_fract_x
_atom_site_fract_y
_atom_site_fract_z
Si Si1 0.992002 0.562391 0.596025
Si Si2 0.230935 0.935671 0.654865
Si Si3 0.992419 0.564562 0.095865
Si Si4 0.762212 0.434314 0.153086
Si Si5 0.623944 0.437197 0.501744
Si Si6 0.235375 0.564343 0.334627
Si Si7 0.623208 0.933509 0.999588
Si Si8 0.221954 0.064233 0.154464
O O1 0.975485 0.750000 0.597663
O O2 0.891801 0.478700 0.645443
O O3 0.000000 0.500000 0.500000
O O4 0.104206 0.505272 0.643909
O O5 0.230192 0.750000 0.641891
O O6 0.275295 0.980942 0.749875
O O7 0.311234 0.009087 0.581395
O O8 0.969241 0.750000 0.093847
O O9 0.891473 0.477509 0.143278
O O10 0.105055 0.526941 0.147159
O O11 0.000000 0.500000 0.000000
O O12 0.745726 0.250000 0.134956
O O13 0.684330 0.530376 0.088836
O O14 0.500000 0.500000 0.500000
O O15 0.623487 0.250000 0.498694
O O16 0.685641 0.496710 0.588147
O O17 0.247097 0.750000 0.321292
O O18 0.274652 0.476312 0.247423
O O19 0.612551 0.750000 0.986718
O O20 0.694835 0.001641 0.919440
O O21 0.500000 0.000000 0.000000
O O22 0.200994 0.250000 0.144281
#
# Coordination Sequence:
#
# PCOD8077256 Si02
#       8
#     4   4   4   4   4   4   4   4
#     4  11  20  36  62  91 126 164 203 249 306 371
#     4   9  20  39  61  87 123 161 196 244 305 364
#     4  12  23  38  63  94 129 166 203 251 309 371
#     4  11  22  39  66  94 124 164 206 254 311 370
#     4  10  22  42  62  85 120 160 205 255 304 360
#     4  11  23  40  63  92 126 161 203 257 311 368
#     4  11  25  44  65  88 122 163 210 262 312 369
#     4  11  24  42  64  92 126 164 207 255 311 375
#
# _framework density 20.355080000000001
#
# number of rings (size 3 to 8) (size 9 to 14) (size 15 to 20)
#    0.000    1.250    2.500    3.750    0.000    4.500 
#    0.000    6.875    0.000    0.000    0.000    0.000 
#    0.000    0.000    0.000    0.000    0.000    0.000 
#
# Total GULP energy -396911.131894 kJ/mol
# GULP energy per Si atom -12403.472872 kJ/mol
# Density = 2.030875 g / cm^3
# Si number density = 20.355080 Si / 1000 Ang^3
#
#
#
# Elastic Constant Matrix: (Units=GPa)
#
#
# Indices 1 2 3 4 5 6 
#
# 1 144.3114 3.1415 63.2979 0.0000 4.6128 0.0000
# 2 3.1415 28.5146 13.9797 0.0000 0.0917 0.0000
# 3 63.2979 13.9797 156.3188 0.0000 4.2812 0.0000
# 4 0.0000 0.0000 0.0000 29.3802 0.0000 0.4125
# 5 4.6128 0.0917 4.2812 0.0000 15.2405 0.0000
# 6 0.0000 0.0000 0.0000 0.4125 0.0000 34.8212
#
#
#
# Elastic Compliance Matrix: (Units=1/GPa)
#
#
# Indices 1 2 3 4 5 6 
#
# 1 0.008481 0.000767 -0.003459 0.000000 -0.001600 0.000000
# 2 0.000767 0.036755 -0.003613 0.000000 0.000562 0.000000
# 3 -0.003459 -0.003613 0.008154 0.000000 -0.001222 0.000000
# 4 0.000000 0.000000 0.000000 0.034042 0.000000 -0.000403
# 5 -0.001600 0.000562 -0.001222 0.000000 0.066439 0.000000
# 6 0.000000 0.000000 0.000000 -0.000403 0.000000 0.028723
#
#
# Mechanical properties :
#
#
# Convention : Reuss Voigt Hill
#
# Bulk Modulus (GPa) = 24.52189 54.44255 39.48222
# Shear Modulus (GPa) = 23.94659 32.47008 28.20833
#
# Velocity S-wave (km/s) = 3.43365 3.99831 3.72669
# Velocity P-wave (km/s) = 5.27192 6.93684 6.16088
#
# Compressibility (1/GPa) = 0.04077988
#
# Stress axis : x y z
#
# Youngs Moduli (GPa) = 117.90937 27.20734 122.63334
#
# Poissons Ratio (x) = -0.02086 0.42419
# Poissons Ratio (y) = -0.09039 0.44305
# Poissons Ratio (z) = 0.40785 0.09830
#
# Static dielectric constant tensor:
#      x y z
#    x 4.261570 0.000000 -0.864950 
#    y 0.000000 3.601290 0.000000 
#    z -0.864950 0.000000 5.986250 
# 
# 
# High freq. dielectric constant tensor:
#      x y z
#    x 1.793080 0.000000 -0.000670 
#    y 0.000000 1.788410 0.000000 
#    z -0.000670 0.000000 1.815640 
# 
# From -- ./inp_files/49307.got.cif
#   From: 2010.06.25/outbox.cif.g09.slc.cpg/sg11_25_cif.got.tgz:49307.got - 2010.06.27 23:14:04.
