data_PCOD8077391
_publ_section_title
;
Structure prediction by ZEFSAII (Michael W. Deem and Ramdas Pophale) SiO2 
 PCOD8077391
Probable space group: P 21/M
;
_chemical_formula_sum "Si O2"
_cell_formula_units_Z 24
_cell_length_a 12.279471
_cell_length_b 22.079872
_cell_length_c 9.776584
_cell_angle_alpha 90.000000
_cell_angle_beta 25.534661
_cell_angle_gamma 90.000000
_cell_volume 1142.610165
_symmetry_space_group_name_H-M "P 21/M"
_symmetry_group_IT_number 11
_symmetry_cell_setting 'monoclinic'
loop_
_space_group_symop_operation_xyz
x,y,z
-x,1/2+y,-z
-x,-y,-z
x,1/2-y,z
loop_
_atom_site_type_symbol
_atom_site_label
_atom_site_fract_x
_atom_site_fract_y
_atom_site_fract_z
Si Si1 0.032520 0.863122 0.193479
Si Si2 0.850147 0.970990 0.547458
Si Si3 0.066438 0.683923 0.440502
Si Si4 0.601780 0.817236 0.168345
Si Si5 0.594018 0.408775 0.807537
Si Si6 0.594172 0.820648 0.489383
O O1 0.019110 0.935007 0.245871
O O2 0.961835 0.822284 0.405086
O O3 0.822548 0.849547 0.316680
O O4 0.320006 0.850567 0.822525
O O5 0.709192 0.026501 0.632142
O O6 0.671310 0.920666 0.818855
O O7 0.000000 0.000000 0.500000
O O8 0.200190 0.750000 0.302057
O O9 0.254728 0.628071 0.248503
O O10 0.852080 0.679912 0.796149
O O11 0.476872 0.750000 0.300061
O O12 0.414173 0.867760 0.319762
O O13 0.669758 0.832390 0.246780
O O14 0.574256 0.750000 0.547485
#
# Coordination Sequence:
#
# PCOD8077391 Si02
#       6
#     4   4   4   4   4   4
#     4  12  24  44  67 102 134 177 227 276 338 401
#     4  11  23  40  66  97 133 175 224 286 340 383
#     4  11  22  38  68 101 129 166 229 286 329 398
#     4  10  23  42  66  97 134 178 221 275 342 405
#     4  11  21  40  67  96 131 172 229 278 338 394
#     4  11  26  45  67  98 144 182 215 276 351 411
#
# _framework density 21.004539000000001
#
# number of rings (size 3 to 8) (size 9 to 14) (size 15 to 20)
#    0.000    1.000    3.333    3.000    4.667    0.000 
#    0.000    1.667    0.000    0.000    0.000    0.000 
#    0.000    0.000    0.000    0.000    0.000    0.000 
#
# Total GULP energy -297504.518685 kJ/mol
# GULP energy per Si atom -12396.021612 kJ/mol
# Density = 2.095673 g / cm^3
# Si number density = 21.004539 Si / 1000 Ang^3
#
#
#
# Elastic Constant Matrix: (Units=GPa)
#
#
# Indices 1 2 3 4 5 6 
#
# 1 151.2076 55.6508 54.5326 0.0000 8.7361 0.0000
# 2 55.6508 123.7240 22.5016 0.0000 10.8866 0.0000
# 3 54.5326 22.5016 88.2210 0.0000 8.0889 0.0000
# 4 0.0000 0.0000 0.0000 34.0490 0.0000 -6.8369
# 5 8.7361 10.8866 8.0889 0.0000 33.4325 0.0000
# 6 0.0000 0.0000 0.0000 -6.8369 0.0000 45.6064
#
#
#
# Elastic Compliance Matrix: (Units=1/GPa)
#
#
# Indices 1 2 3 4 5 6 
#
# 1 0.009735 -0.003430 -0.005126 0.000000 -0.000187 0.000000
# 2 -0.003430 0.009859 -0.000186 0.000000 -0.002269 0.000000
# 3 -0.005126 -0.000186 0.014750 0.000000 -0.002169 0.000000
# 4 0.000000 0.000000 0.000000 0.030281 0.000000 0.004539
# 5 -0.000187 -0.002269 -0.002169 0.000000 0.031223 0.000000
# 6 0.000000 0.000000 0.000000 0.004539 0.000000 0.022607
#
#
# Mechanical properties :
#
#
# Convention : Reuss Voigt Hill
#
# Bulk Modulus (GPa) = 59.31273 69.83584 64.57428
# Shear Modulus (GPa) = 35.32078 37.98211 36.65144
#
# Velocity S-wave (km/s) = 4.10515 4.25700 4.18177
# Velocity P-wave (km/s) = 7.12524 7.58175 7.35704
#
# Compressibility (1/GPa) = 0.01685979
#
# Stress axis : x y z
#
# Youngs Moduli (GPa) = 102.71954 101.43076 67.79722
#
# Poissons Ratio (x) = 0.34793 0.34751
# Poissons Ratio (y) = 0.35235 0.01262
# Poissons Ratio (z) = 0.52651 0.01889
#
# Static dielectric constant tensor:
#      x y z
#    x 4.599410 0.000000 -0.167660 
#    y 0.000000 4.529590 0.000000 
#    z -0.167660 0.000000 3.696580 
# 
# 
# High freq. dielectric constant tensor:
#      x y z
#    x 1.824640 0.000000 -0.006110 
#    y 0.000000 1.840810 0.000000 
#    z -0.006110 0.000000 1.808580 
# 
# From -- ./inp_files/19679.got.cif
#   From: 2010.06.25/outbox.cif.g09.slc.cpg/sg11_10_cif.got.tgz:19679.got - 2010.06.27 23:14:04.
