data_PCOD8077754
_publ_section_title
;
Structure prediction by ZEFSAII (Michael W. Deem and Ramdas Pophale) SiO2 
 PCOD8077754
Probable space group: P 21/M
;
_chemical_formula_sum "Si O2"
_cell_formula_units_Z 28
_cell_length_a 31.515029
_cell_length_b 8.473980
_cell_length_c 31.515020
_cell_angle_alpha 90.000000
_cell_angle_beta 9.458846
_cell_angle_gamma 90.000000
_cell_volume 1383.132372
_symmetry_space_group_name_H-M "P 21/M"
_symmetry_group_IT_number 11
_symmetry_cell_setting 'monoclinic'
loop_
_space_group_symop_operation_xyz
x,y,z
-x,1/2+y,-z
-x,-y,-z
x,1/2-y,z
loop_
_atom_site_type_symbol
_atom_site_label
_atom_site_fract_x
_atom_site_fract_y
_atom_site_fract_z
Si Si1 0.380676 0.937506 0.380700
Si Si2 0.331982 0.937906 0.331972
Si Si3 0.523693 0.563535 0.523698
Si Si4 0.191338 0.936375 0.191349
Si Si5 0.904589 0.562095 0.904620
Si Si6 0.761454 0.935591 0.761454
Si Si7 0.046931 0.062708 0.046935
O O1 0.381804 0.750000 0.381822
O O2 0.356387 0.993888 0.356380
O O3 0.142376 0.006065 0.642805
O O4 0.642770 0.006068 0.142414
O O5 0.329736 0.750000 0.329721
O O6 0.070601 0.008203 0.571774
O O7 0.571784 0.008205 0.070591
O O8 0.500000 0.500000 0.500000
O O9 0.523195 0.750000 0.523207
O O10 0.785201 0.502507 0.286067
O O11 0.286057 0.502505 0.785209
O O12 0.194085 0.750000 0.194098
O O13 0.214172 0.016012 0.214181
O O14 0.903848 0.750000 0.903888
O O15 0.928800 0.502182 0.928814
O O16 0.759566 0.750000 0.759571
O O17 0.000000 0.000000 0.500000
O O18 0.500000 0.000000 0.000000
O O19 0.045604 0.250000 0.045615
#
# Coordination Sequence:
#
# PCOD8077754 Si02
#       7
#     4   4   4   4   4   4   4
#     4   9  17  31  55  87 118 150 196 249 295 342
#     4  11  22  39  64  92 121 159 208 257 300 350
#     4  12  25  42  62  87 121 158 199 246 301 359
#     4  12  25  42  62  89 126 165 203 248 305 363
#     4   9  17  31  55  87 118 150 193 246 295 348
#     4  12  25  44  67  94 125 160 203 250 303 361
#     4  11  22  39  64  92 121 156 201 248 299 357
#
# _framework density 20.243904000000001
#
# number of rings (size 3 to 8) (size 9 to 14) (size 15 to 20)
#    0.000    1.143    0.000    7.714    0.000    4.571 
#    0.000    0.000    0.000   17.143    0.000    0.000 
#    0.000    0.000    0.000    0.000    0.000    0.000 
#
# Total GULP energy -347323.152563 kJ/mol
# GULP energy per Si atom -12404.398306 kJ/mol
# Density = 2.019783 g / cm^3
# Si number density = 20.243904 Si / 1000 Ang^3
#
#
#
# Elastic Constant Matrix: (Units=GPa)
#
#
# Indices 1 2 3 4 5 6 
#
# 1 203.9725 52.3846 118.4326 0.0000 -1.9033 0.0000
# 2 52.3846 123.0469 54.1914 0.0000 -0.1597 0.0000
# 3 118.4326 54.1914 232.3138 0.0000 -0.5967 0.0000
# 4 0.0000 0.0000 0.0000 35.3497 0.0000 -0.7190
# 5 -1.9033 -0.1597 -0.5967 0.0000 53.4447 0.0000
# 6 0.0000 0.0000 0.0000 -0.7190 0.0000 27.1923
#
#
#
# Elastic Compliance Matrix: (Units=1/GPa)
#
#
# Indices 1 2 3 4 5 6 
#
# 1 0.007247 -0.001625 -0.003315 0.000000 0.000216 0.000000
# 2 -0.001625 0.009422 -0.001370 0.000000 -0.000045 0.000000
# 3 -0.003315 -0.001370 0.006314 0.000000 -0.000052 0.000000
# 4 0.000000 0.000000 0.000000 0.028304 0.000000 0.000748
# 5 0.000216 -0.000045 -0.000052 0.000000 0.018718 0.000000
# 6 0.000000 0.000000 0.000000 0.000748 0.000000 0.036795
#
#
# Mechanical properties :
#
#
# Convention : Reuss Voigt Hill
#
# Bulk Modulus (GPa) = 96.48999 112.15005 104.32002
# Shear Modulus (GPa) = 40.69283 45.48567 43.08925
#
# Velocity S-wave (km/s) = 4.48831 4.74527 4.61858
# Velocity P-wave (km/s) = 8.63870 9.24895 8.94903
#
# Compressibility (1/GPa) = 0.01036377
#
# Stress axis : x y z
#
# Youngs Moduli (GPa) = 137.99666 106.13588 158.38691
#
# Poissons Ratio (x) = 0.17247 0.52500
# Poissons Ratio (y) = 0.22424 0.21692
# Poissons Ratio (z) = 0.45741 0.14536
#
# Static dielectric constant tensor:
#      x y z
#    x 4.001610 0.000000 0.000910 
#    y 0.000000 3.642670 0.000000 
#    z 0.000910 0.000000 3.991100 
# 
# 
# High freq. dielectric constant tensor:
#      x y z
#    x 1.815520 0.000000 -0.000150 
#    y 0.000000 1.778320 0.000000 
#    z -0.000150 0.000000 1.817210 
# 
# From -- ./inp_files/73865.got.cif
#   From: 2010.06.25/outbox.cif.g09.slc.cpg/sg11_37_cif.got.tgz:73865.got - 2010.06.27 23:14:04.
