data_PCOD8077029
_publ_section_title
;
Structure prediction by ZEFSAII (Michael W. Deem and Ramdas Pophale) SiO2 
 PCOD8077029
Probable space group: P 21/M
;
_chemical_formula_sum "Si O2"
_cell_formula_units_Z 28
_cell_length_a 12.624422
_cell_length_b 9.252103
_cell_length_c 15.527603
_cell_angle_alpha 90.000000
_cell_angle_beta 54.251379
_cell_angle_gamma 90.000000
_cell_volume 1471.946487
_symmetry_space_group_name_H-M "P 21/M"
_symmetry_group_IT_number 11
_symmetry_cell_setting 'monoclinic'
loop_
_space_group_symop_operation_xyz
x,y,z
-x,1/2+y,-z
-x,-y,-z
x,1/2-y,z
loop_
_atom_site_type_symbol
_atom_site_label
_atom_site_fract_x
_atom_site_fract_y
_atom_site_fract_z
Si Si1 0.618078 0.077908 0.487762
Si Si2 0.397324 0.418147 0.152692
Si Si3 0.953900 0.902901 0.446204
Si Si4 0.872362 0.920414 0.308178
Si Si5 0.658093 0.591876 0.630242
Si Si6 0.689333 0.419036 0.968111
Si Si7 0.047742 0.580291 0.062810
O O1 0.611445 0.250000 0.483240
O O2 0.500000 0.000000 0.500000
O O3 0.746349 0.020803 0.377994
O O4 0.601183 0.031856 0.595660
O O5 0.375095 0.250000 0.144977
O O6 0.345131 0.465835 0.270705
O O7 0.310187 0.502915 0.124630
O O8 0.551238 0.456985 0.078045
O O9 0.027708 0.750000 0.421364
O O10 0.972662 0.960072 0.339341
O O11 0.801779 0.880048 0.529511
O O12 0.000000 0.000000 0.500000
O O13 0.834958 0.750000 0.330726
O O14 0.943188 0.958419 0.185924
O O15 0.585053 0.750000 0.659266
O O16 0.706413 0.250000 0.941938
O O17 0.808329 0.471945 0.973238
O O18 0.050766 0.750000 0.041523
O O19 0.000000 0.500000 0.000000
#
# Coordination Sequence:
#
# PCOD8077029 Si02
#       7
#     4   4   4   4   4   4   4
#     4  11  22  37  58  83 110 144 184 228 278 337
#     4   9  18  34  56  82 112 146 184 230 283 339
#     4   9  18  31  49  74 105 140 176 219 273 329
#     4   9  20  39  56  76 112 150 184 231 283 330
#     4   9  19  35  52  76 111 145 179 224 273 329
#     4   9  19  35  55  80 111 146 186 233 286 338
#     4  10  22  39  58  82 114 153 196 243 291 341
#
# _framework density 19.022431000000001
#
# number of rings (size 3 to 8) (size 9 to 14) (size 15 to 20)
#    0.000    2.571    0.000    2.143    2.000    5.143 
#    0.000    1.429    0.000    0.000    0.000    0.000 
#    0.000    0.000    0.000    0.000    0.000    0.000 
#
# Total GULP energy -346940.684085 kJ/mol
# GULP energy per Si atom -12390.738717 kJ/mol
# Density = 1.897913 g / cm^3
# Si number density = 19.022431 Si / 1000 Ang^3
#
#
#
# Elastic Constant Matrix: (Units=GPa)
#
#
# Indices 1 2 3 4 5 6 
#
# 1 134.5733 64.2380 49.1099 0.0000 27.2276 0.0000
# 2 64.2380 94.4573 41.9606 0.0000 16.2725 0.0000
# 3 49.1099 41.9606 112.1481 0.0000 36.4205 0.0000
# 4 0.0000 0.0000 0.0000 29.2481 0.0000 6.7402
# 5 27.2276 16.2725 36.4205 0.0000 27.4310 0.0000
# 6 0.0000 0.0000 0.0000 6.7402 0.0000 33.6539
#
#
#
# Elastic Compliance Matrix: (Units=1/GPa)
#
#
# Indices 1 2 3 4 5 6 
#
# 1 0.012461 -0.006994 -0.000300 0.000000 -0.007822 0.000000
# 2 -0.006994 0.016695 -0.003906 0.000000 0.002225 0.000000
# 3 -0.000300 -0.003906 0.016983 0.000000 -0.019934 0.000000
# 4 0.000000 0.000000 0.000000 0.035845 0.000000 -0.007179
# 5 -0.007822 0.002225 -0.019934 0.000000 0.069366 0.000000
# 6 0.000000 0.000000 0.000000 -0.007179 0.000000 0.031152
#
#
# Mechanical properties :
#
#
# Convention : Reuss Voigt Hill
#
# Bulk Modulus (GPa) = 42.12395 72.42174 57.27285
# Shear Modulus (GPa) = 23.49446 30.45796 26.97621
#
# Velocity S-wave (km/s) = 3.51820 4.00579 3.76989
# Velocity P-wave (km/s) = 6.22062 7.71684 7.00877
#
# Compressibility (1/GPa) = 0.02373946
#
# Stress axis : x y z
#
# Youngs Moduli (GPa) = 80.24744 59.89710 58.88137
#
# Poissons Ratio (x) = 0.41892 0.01766
# Poissons Ratio (y) = 0.56125 0.23002
# Poissons Ratio (z) = 0.02406 0.23398
#
# Static dielectric constant tensor:
#      x y z
#    x 2.928900 0.000000 0.155240 
#    y 0.000000 1.553430 0.000000 
#    z 0.155240 0.000000 3.558810 
# 
# 
# High freq. dielectric constant tensor:
#      x y z
#    x 1.733560 0.000000 0.009720 
#    y 0.000000 1.732120 0.000000 
#    z 0.009720 0.000000 1.744830 
# 
# From -- ./inp_files/49169.got.cif
#   From: 2010.06.25/outbox.cif.g09.slc.cpg/sg11_25_cif.got.tgz:49169.got - 2010.06.27 23:14:04.
