data_PCOD8077955
_publ_section_title
;
Structure prediction by ZEFSAII (Michael W. Deem and Ramdas Pophale) SiO2 
 PCOD8077955
Probable space group: P 21/M
;
_chemical_formula_sum "Si O2"
_cell_formula_units_Z 32
_cell_length_a 22.968047
_cell_length_b 9.141961
_cell_length_c 9.628614
_cell_angle_alpha 90.000000
_cell_angle_beta 65.873964
_cell_angle_gamma 90.000000
_cell_volume 1845.146139
_symmetry_space_group_name_H-M "P 21/M"
_symmetry_group_IT_number 11
_symmetry_cell_setting 'monoclinic'
loop_
_space_group_symop_operation_xyz
x,y,z
-x,1/2+y,-z
-x,-y,-z
x,1/2-y,z
loop_
_atom_site_type_symbol
_atom_site_label
_atom_site_fract_x
_atom_site_fract_y
_atom_site_fract_z
Si Si1 0.364067 0.412174 0.485524
Si Si2 0.757482 0.421127 0.378212
Si Si3 0.250737 0.923858 0.931853
Si Si4 0.997207 0.578621 0.356342
Si Si5 0.497385 0.922507 0.649521
Si Si6 0.875485 0.424007 0.444206
Si Si7 0.863086 0.419848 0.770492
Si Si8 0.376633 0.416518 0.803127
O O1 0.342219 0.250000 0.465492
O O2 0.307886 0.518580 0.490048
O O3 0.432847 0.448010 0.347098
O O4 0.373749 0.424165 0.640560
O O5 0.753450 0.250000 0.398900
O O6 0.764278 0.469700 0.211918
O O7 0.818375 0.480421 0.402696
O O8 0.259401 0.750000 0.935481
O O9 0.314729 0.001636 0.924899
O O10 0.192675 0.988349 0.080676
O O11 0.982691 0.750000 0.388508
O O12 0.067983 0.554153 0.222069
O O13 0.000000 0.500000 0.500000
O O14 0.940580 0.501220 0.324275
O O15 0.483703 0.750000 0.643749
O O16 0.500000 0.000000 0.500000
O O17 0.440404 0.997968 0.793317
O O18 0.885136 0.250000 0.428049
O O19 0.861617 0.481068 0.614376
O O20 0.848440 0.250000 0.773773
O O21 0.378689 0.250000 0.855507
#
# Coordination Sequence:
#
# PCOD8077955 Si02
#       8
#     4   4   4   4   4   4   4   4
#     4   8  15  25  37  55  82 111 139 170 208 248
#     4   9  17  27  42  62  85 111 141 173 207 246
#     4   9  16  28  44  61  82 113 144 171 206 253
#     4   9  16  28  46  66  85 109 140 176 212 249
#     4   9  15  23  36  56  81 111 144 178 212 251
#     4   9  17  30  45  64  87 111 139 174 210 249
#     4   8  15  28  46  63  82 108 140 172 207 251
#     4   9  16  25  37  57  84 112 139 174 214 253
#
# _framework density 17.3428
#
# number of rings (size 3 to 8) (size 9 to 14) (size 15 to 20)
#    0.000    3.250    0.000    2.625    0.000    4.000 
#    0.000    3.750    0.000    0.000    0.000    0.875 
#    0.000    0.000    0.000    0.000    0.000    0.000 
#
# Total GULP energy -396453.738787 kJ/mol
# GULP energy per Si atom -12389.179337 kJ/mol
# Density = 1.730333 g / cm^3
# Si number density = 17.342800 Si / 1000 Ang^3
#
#
#
# Elastic Constant Matrix: (Units=GPa)
#
#
# Indices 1 2 3 4 5 6 
#
# 1 64.3547 33.2588 51.2582 0.0000 -33.9454 0.0000
# 2 33.2588 61.2104 31.3121 0.0000 -18.7135 0.0000
# 3 51.2582 31.3121 78.7360 0.0000 -35.2005 0.0000
# 4 0.0000 0.0000 0.0000 16.3978 0.0000 -11.5784
# 5 -33.9454 -18.7135 -35.2005 0.0000 32.1060 0.0000
# 6 0.0000 0.0000 0.0000 -11.5784 0.0000 27.9941
#
#
#
# Elastic Compliance Matrix: (Units=1/GPa)
#
#
# Indices 1 2 3 4 5 6 
#
# 1 0.046362 -0.009485 -0.013666 0.000000 0.028507 0.000000
# 2 -0.009485 0.023038 -0.002878 0.000000 0.000244 0.000000
# 3 -0.013666 -0.002878 0.030465 0.000000 0.017276 0.000000
# 4 0.000000 0.000000 0.000000 0.086140 0.000000 0.035628
# 5 0.028507 0.000244 0.017276 0.000000 0.080370 0.000000
# 6 0.000000 0.000000 0.000000 0.035628 0.000000 0.050458
#
#
# Mechanical properties :
#
#
# Convention : Reuss Voigt Hill
#
# Bulk Modulus (GPa) = 20.91700 48.43991 34.67845
# Shear Modulus (GPa) = 12.99294 21.19771 17.09533
#
# Velocity S-wave (km/s) = 2.74009 3.49990 3.14304
# Velocity P-wave (km/s) = 4.70084 6.65762 5.76289
#
# Compressibility (1/GPa) = 0.04780801
#
# Stress axis : x y z
#
# Youngs Moduli (GPa) = 21.56945 43.40748 32.82464
#
# Poissons Ratio (x) = 0.41172 0.44857
# Poissons Ratio (y) = 0.20459 0.09445
# Poissons Ratio (z) = 0.29476 0.12491
#
# Static dielectric constant tensor:
#      x y z
#    x 3.665790 0.000000 -0.602710 
#    y 0.000000 3.211580 0.000000 
#    z -0.602710 0.000000 3.274660 
# 
# 
# High freq. dielectric constant tensor:
#      x y z
#    x 1.661050 0.000000 -0.047250 
#    y 0.000000 1.662190 0.000000 
#    z -0.047250 0.000000 1.632670 
# 
# From -- ./inp_files/43769.got.cif
#   From: 2010.06.25/outbox.cif.g09.slc.cpg/sg11_22_cif.got.tgz:43769.got - 2010.06.27 23:14:04.
