data_PCOD8077559
_publ_section_title
;
Structure prediction by ZEFSAII (Michael W. Deem and Ramdas Pophale) SiO2 
 PCOD8077559
Probable space group: P 21/M
;
_chemical_formula_sum "Si O2"
_cell_formula_units_Z 28
_cell_length_a 17.759302
_cell_length_b 8.679522
_cell_length_c 14.311835
_cell_angle_alpha 90.000000
_cell_angle_beta 43.203195
_cell_angle_gamma 90.000000
_cell_volume 1510.240623
_symmetry_space_group_name_H-M "P 21/M"
_symmetry_group_IT_number 11
_symmetry_cell_setting 'monoclinic'
loop_
_space_group_symop_operation_xyz
x,y,z
-x,1/2+y,-z
-x,-y,-z
x,1/2-y,z
loop_
_atom_site_type_symbol
_atom_site_label
_atom_site_fract_x
_atom_site_fract_y
_atom_site_fract_z
Si Si1 0.584879 0.066702 0.722931
Si Si2 0.611752 0.432376 0.358322
Si Si3 0.736313 0.431109 0.423860
Si Si4 0.648802 0.567581 0.122912
Si Si5 0.167927 0.931540 0.170454
Si Si6 0.067267 0.568378 0.631211
Si Si7 0.774437 0.067647 0.678516
O O1 0.587193 0.250000 0.718731
O O2 0.643054 0.999063 0.577096
O O3 0.458673 0.008879 0.837891
O O4 0.654927 0.008231 0.749600
O O5 0.500000 0.500000 0.500000
O O6 0.599499 0.250000 0.359291
O O7 0.710244 0.478159 0.341077
O O8 0.644298 0.505988 0.231567
O O9 0.729076 0.250000 0.443603
O O10 0.857892 0.482082 0.347422
O O11 0.652857 0.750000 0.123393
O O12 0.757040 0.505324 0.976399
O O13 0.184147 0.750000 0.153826
O O14 0.201310 0.002460 0.241363
O O15 0.043203 0.972194 0.260274
O O16 0.041208 0.750000 0.654935
O O17 0.129926 0.517897 0.479780
O O18 0.773333 0.250000 0.685864
#
# Coordination Sequence:
#
# PCOD8077559 Si02
#       7
#     4   4   4   4   4   4   4
#     4   8  14  29  52  78 104 135 174 215 260 313
#     4  11  20  34  57  85 111 138 172 215 265 317
#     4   8  15  30  55  82 104 131 172 217 260 309
#     4  11  22  36  54  77 107 145 184 218 259 318
#     4  11  22  35  50  76 112 144 175 221 272 313
#     4   9  17  34  59  80 100 137 183 218 256 315
#     4   8  16  31  55  80 104 137 177 220 266 313
#
# _framework density 18.540092999999999
#
# number of rings (size 3 to 8) (size 9 to 14) (size 15 to 20)
#    0.000    2.571    1.429    3.429    0.000    0.571 
#    0.000    2.857    0.000    2.571    0.000    0.000 
#    0.000    0.000    0.000    0.000    0.000    0.000 
#
# Total GULP energy -347033.087858 kJ/mol
# GULP energy per Si atom -12394.038852 kJ/mol
# Density = 1.849790 g / cm^3
# Si number density = 18.540093 Si / 1000 Ang^3
#
#
#
# Elastic Constant Matrix: (Units=GPa)
#
#
# Indices 1 2 3 4 5 6 
#
# 1 153.6093 36.2480 82.4710 0.0000 -0.8219 0.0000
# 2 36.2480 47.8011 30.9414 0.0000 2.4262 0.0000
# 3 82.4710 30.9414 119.5900 0.0000 9.1047 0.0000
# 4 0.0000 0.0000 0.0000 19.5746 0.0000 -0.4920
# 5 -0.8219 2.4262 9.1047 0.0000 12.7541 0.0000
# 6 0.0000 0.0000 0.0000 -0.4920 0.0000 22.1583
#
#
#
# Elastic Compliance Matrix: (Units=1/GPa)
#
#
# Indices 1 2 3 4 5 6 
#
# 1 0.011502 -0.004322 -0.007332 0.000000 0.006797 0.000000
# 2 -0.004322 0.026752 -0.003736 0.000000 -0.002701 0.000000
# 3 -0.007332 -0.003736 0.015192 0.000000 -0.010607 0.000000
# 4 0.000000 0.000000 0.000000 0.051115 0.000000 0.001135
# 5 0.006797 -0.002701 -0.010607 0.000000 0.086930 0.000000
# 6 0.000000 0.000000 0.000000 0.001135 0.000000 0.045155
#
#
# Mechanical properties :
#
#
# Convention : Reuss Voigt Hill
#
# Bulk Modulus (GPa) = 44.11352 68.92458 56.51905
# Shear Modulus (GPa) = 18.18310 22.32007 20.25159
#
# Velocity S-wave (km/s) = 3.13508 3.47346 3.30860
# Velocity P-wave (km/s) = 6.07867 7.30365 6.71913
#
# Compressibility (1/GPa) = 0.02266879
#
# Stress axis : x y z
#
# Youngs Moduli (GPa) = 86.93806 37.37988 65.82453
#
# Poissons Ratio (x) = 0.16154 0.48260
# Poissons Ratio (y) = 0.37572 0.24590
# Poissons Ratio (z) = 0.63739 0.13964
#
# Static dielectric constant tensor:
#      x y z
#    x 4.047540 0.000000 0.028940 
#    y 0.000000 3.056140 0.000000 
#    z 0.028940 0.000000 3.301660 
# 
# 
# High freq. dielectric constant tensor:
#      x y z
#    x 1.738460 0.000000 -0.004170 
#    y 0.000000 1.685850 0.000000 
#    z -0.004170 0.000000 1.702910 
# 
# From -- ./inp_files/53194.got.cif
#   From: 2010.06.25/outbox.cif.g09.slc.cpg/sg11_27_cif.got.tgz:53194.got - 2010.06.27 23:14:04.
