data_PCOD8077518
_publ_section_title
;
Structure prediction by ZEFSAII (Michael W. Deem and Ramdas Pophale) SiO2 
 PCOD8077518
Probable space group: P 21/M
;
_chemical_formula_sum "Si O2"
_cell_formula_units_Z 28
_cell_length_a 9.260204
_cell_length_b 13.554400
_cell_length_c 12.984043
_cell_angle_alpha 90.000000
_cell_angle_beta 119.158706
_cell_angle_gamma 90.000000
_cell_volume 1423.184018
_symmetry_space_group_name_H-M "P 21/M"
_symmetry_group_IT_number 11
_symmetry_cell_setting 'monoclinic'
loop_
_space_group_symop_operation_xyz
x,y,z
-x,1/2+y,-z
-x,-y,-z
x,1/2-y,z
loop_
_atom_site_type_symbol
_atom_site_label
_atom_site_fract_x
_atom_site_fract_y
_atom_site_fract_z
Si Si1 0.736600 0.509205 0.213898
Si Si2 0.217518 0.638555 0.940939
Si Si3 0.552099 0.363532 0.799006
Si Si4 0.959316 0.364146 0.647910
Si Si5 0.125416 0.139985 0.271031
Si Si6 0.916472 0.361673 0.399322
Si Si7 0.355750 0.967593 0.374353
O O1 0.691849 0.440889 0.100527
O O2 0.587736 0.581773 0.184687
O O3 0.767565 0.437001 0.322640
O O4 0.900946 0.573391 0.244476
O O5 0.263414 0.750000 0.919849
O O6 0.020040 0.624492 0.863223
O O7 0.275391 0.623512 0.078888
O O8 0.499164 0.250000 0.771883
O O9 0.565997 0.405535 0.690272
O O10 0.976899 0.250000 0.684418
O O11 0.990869 0.382101 0.537404
O O12 0.776528 0.399697 0.613236
O O13 0.198458 0.250000 0.288278
O O14 0.058771 0.119988 0.363674
O O15 0.272062 0.065024 0.297440
O O16 0.848446 0.250000 0.368214
O O17 0.500000 0.000000 0.500000
#
# Coordination Sequence:
#
# PCOD8077518 Si02
#       7
#     4   4   4   4   4   4   4
#     4  11  19  37  62  89 114 154 203 248 294 354
#     4   9  19  40  67  90 116 154 201 251 299 353
#     4  11  25  40  59  90 126 160 195 243 307 358
#     4  11  22  36  56  85 122 160 201 244 292 355
#     4   9  19  38  62  87 113 153 203 248 296 355
#     4   9  18  33  59  87 113 153 201 248 291 346
#     4  12  25  40  58  86 122 162 196 247 303 359
#
# _framework density 19.674195999999998
#
# number of rings (size 3 to 8) (size 9 to 14) (size 15 to 20)
#    0.000    1.714    2.857    3.857    2.000    1.714 
#    0.000    1.429    0.000    0.857    0.000    0.000 
#    0.000    0.000    0.000    0.000    0.000    0.000 
#
# Total GULP energy -347198.529326 kJ/mol
# GULP energy per Si atom -12399.947476 kJ/mol
# Density = 1.962942 g / cm^3
# Si number density = 19.674196 Si / 1000 Ang^3
#
#
#
# Elastic Constant Matrix: (Units=GPa)
#
#
# Indices 1 2 3 4 5 6 
#
# 1 65.1552 39.9090 31.0027 0.0000 14.1143 0.0000
# 2 39.9090 138.6055 52.2296 0.0000 7.8688 0.0000
# 3 31.0027 52.2296 99.7891 0.0000 6.5229 0.0000
# 4 0.0000 0.0000 0.0000 30.5821 0.0000 0.0875
# 5 14.1143 7.8688 6.5229 0.0000 20.5194 0.0000
# 6 0.0000 0.0000 0.0000 0.0875 0.0000 33.9547
#
#
#
# Elastic Compliance Matrix: (Units=1/GPa)
#
#
# Indices 1 2 3 4 5 6 
#
# 1 0.022598 -0.004304 -0.003942 0.000000 -0.012641 0.000000
# 2 -0.004304 0.009887 -0.003864 0.000000 0.000397 0.000000
# 3 -0.003942 -0.003864 0.013270 0.000000 -0.000025 0.000000
# 4 0.000000 0.000000 0.000000 0.032699 0.000000 -0.000084
# 5 -0.012641 0.000397 -0.000025 0.000000 0.057285 0.000000
# 6 0.000000 0.000000 0.000000 -0.000084 0.000000 0.029451
#
#
# Mechanical properties :
#
#
# Convention : Reuss Voigt Hill
#
# Bulk Modulus (GPa) = 46.43363 61.09251 53.76307
# Shear Modulus (GPa) = 25.43384 29.03846 27.23615
#
# Velocity S-wave (km/s) = 3.59939 3.84600 3.72473
# Velocity P-wave (km/s) = 6.39739 7.13034 6.77379
#
# Compressibility (1/GPa) = 0.02153611
#
# Stress axis : x y z
#
# Youngs Moduli (GPa) = 44.25154 101.13929 75.35872
#
# Poissons Ratio (x) = 0.43527 0.29707
# Poissons Ratio (y) = 0.19044 0.29118
# Poissons Ratio (z) = 0.17444 0.39079
#
# Static dielectric constant tensor:
#      x y z
#    x 3.215440 0.000000 0.077650 
#    y 0.000000 3.954080 0.000000 
#    z 0.077650 0.000000 3.615020 
# 
# 
# High freq. dielectric constant tensor:
#      x y z
#    x 1.729790 0.000000 0.007510 
#    y 0.000000 1.796200 0.000000 
#    z 0.007510 0.000000 1.763100 
# 
# From -- ./inp_files/31972.got.cif
#   From: 2010.06.25/outbox.cif.g09.slc.cpg/sg11_16_cif.got.tgz:31972.got - 2010.06.27 23:14:04.
