data_PCOD8077483
_publ_section_title
;
Structure prediction by ZEFSAII (Michael W. Deem and Ramdas Pophale) SiO2 
 PCOD8077483
Probable space group: P 21/M
;
_chemical_formula_sum "Si O2"
_cell_formula_units_Z 16
_cell_length_a 15.291391
_cell_length_b 10.416049
_cell_length_c 13.188122
_cell_angle_alpha 90.000000
_cell_angle_beta 161.975816
_cell_angle_gamma 90.000000
_cell_volume 649.948728
_symmetry_space_group_name_H-M "P 21/M"
_symmetry_group_IT_number 11
_symmetry_cell_setting 'monoclinic'
loop_
_space_group_symop_operation_xyz
x,y,z
-x,1/2+y,-z
-x,-y,-z
x,1/2-y,z
loop_
_atom_site_type_symbol
_atom_site_label
_atom_site_fract_x
_atom_site_fract_y
_atom_site_fract_z
Si Si1 0.319155 0.604423 0.860669
Si Si2 0.722307 0.250000 0.479260
Si Si3 0.117494 0.499373 0.241813
Si Si4 0.115024 0.250000 0.727638
Si Si5 0.678763 0.107225 0.907437
O O1 0.461195 0.750000 0.014448
O O2 0.003891 0.622184 0.463355
O O3 0.500000 0.500000 0.000000
O O4 0.299439 0.554912 0.954133
O O5 0.718459 0.370023 0.550459
O O6 0.997702 0.250000 0.712602
O O7 0.453598 0.250000 0.106451
O O8 0.353367 0.389400 0.512079
O O9 0.000000 0.500000 0.000000
O O10 0.862005 0.483532 0.038022
O O11 0.803198 0.250000 0.037548
#
# Coordination Sequence:
#
# PCOD8077483 Si02
#       5
#     4   2   4   2   4
#     4   9  21  44  77 114 157 204 251 309 383 463
#     4  12  26  48  72 112 150 194 252 318 371 458
#     4  12  28  49  77 109 148 203 256 322 382 445
#     4  10  24  44  74 106 158 190 246 304 387 456
#     4  11  25  48  79 111 153 194 255 311 380 457
#
# _framework density 24.617325000000001
#
# number of rings (size 3 to 8) (size 9 to 14) (size 15 to 20)
#    0.750    0.500    0.000    4.500    3.500    2.000 
#    2.250    8.750    0.000    1.500    0.000    0.000 
#    0.000    0.000    0.000    0.000    0.000    0.000 
#
# Total GULP energy -198440.241266 kJ/mol
# GULP energy per Si atom -12402.515079 kJ/mol
# Density = 2.456130 g / cm^3
# Si number density = 24.617325 Si / 1000 Ang^3
#
#
#
# Elastic Constant Matrix: (Units=GPa)
#
#
# Indices 1 2 3 4 5 6 
#
# 1 173.5394 71.8796 77.0180 0.0000 -18.1804 0.0000
# 2 71.8796 74.0701 44.1832 0.0000 -19.0354 0.0000
# 3 77.0180 44.1832 159.7888 0.0000 -25.3713 0.0000
# 4 0.0000 0.0000 0.0000 41.2262 0.0000 -7.0764
# 5 -18.1804 -19.0354 -25.3713 0.0000 47.5195 0.0000
# 6 0.0000 0.0000 0.0000 -7.0764 0.0000 24.5441
#
#
#
# Elastic Compliance Matrix: (Units=1/GPa)
#
#
# Indices 1 2 3 4 5 6 
#
# 1 0.010561 -0.008831 -0.002807 0.000000 -0.000995 0.000000
# 2 -0.008831 0.024468 -0.001628 0.000000 0.005554 0.000000
# 3 -0.002807 -0.001628 0.008508 0.000000 0.002817 0.000000
# 4 0.000000 0.000000 0.000000 0.025519 0.000000 0.007358
# 5 -0.000995 0.005554 0.002817 0.000000 0.024392 0.000000
# 6 0.000000 0.000000 0.000000 0.007358 0.000000 0.042864
#
#
# Mechanical properties :
#
#
# Convention : Reuss Voigt Hill
#
# Bulk Modulus (GPa) = 58.79492 88.17332 73.48412
# Shear Modulus (GPa) = 29.67126 36.94579 33.30853
#
# Velocity S-wave (km/s) = 3.47551 3.87822 3.68238
# Velocity P-wave (km/s) = 6.32779 7.47994 6.92786
#
# Compressibility (1/GPa) = 0.01700827
#
# Stress axis : x y z
#
# Youngs Moduli (GPa) = 94.68422 40.86917 117.52973
#
# Poissons Ratio (x) = 0.36090 0.32989
# Poissons Ratio (y) = 0.83611 0.19128
# Poissons Ratio (z) = 0.26577 0.06652
#
# Static dielectric constant tensor:
#      x y z
#    x 5.361930 0.000000 -0.241010 
#    y 0.000000 50.711580 0.000000 
#    z -0.241010 0.000000 4.303160 
# 
# 
# High freq. dielectric constant tensor:
#      x y z
#    x 1.977670 0.000000 -0.004420 
#    y 0.000000 1.997060 0.000000 
#    z -0.004420 0.000000 1.979200 
# 
# From -- ./inp_files/39307.got.cif
#   From: 2010.06.25/outbox.cif.g09.slc.cpg/sg11_20_cif.got.tgz:39307.got - 2010.06.27 23:14:04.
