data_PCOD8077392
_publ_section_title
;
Structure prediction by ZEFSAII (Michael W. Deem and Ramdas Pophale) SiO2 
 PCOD8077392
Probable space group: P 21/M
;
_chemical_formula_sum "Si O2"
_cell_formula_units_Z 28
_cell_length_a 11.857515
_cell_length_b 14.524075
_cell_length_c 8.422759
_cell_angle_alpha 90.000000
_cell_angle_beta 61.063516
_cell_angle_gamma 90.000000
_cell_volume 1269.469638
_symmetry_space_group_name_H-M "P 21/M"
_symmetry_group_IT_number 11
_symmetry_cell_setting 'monoclinic'
loop_
_space_group_symop_operation_xyz
x,y,z
-x,1/2+y,-z
-x,-y,-z
x,1/2-y,z
loop_
_atom_site_type_symbol
_atom_site_label
_atom_site_fract_x
_atom_site_fract_y
_atom_site_fract_z
Si Si1 0.709618 0.521389 0.626461
Si Si2 0.988358 0.604964 0.962193
Si Si3 0.885471 0.645657 0.690764
Si Si4 0.853450 0.145216 0.640084
Si Si5 0.241534 0.648266 0.947439
Si Si6 0.560386 0.994007 0.285619
Si Si7 0.733798 0.853499 0.300271
O O1 0.763589 0.580392 0.737980
O O2 0.784900 0.424314 0.563347
O O3 0.558619 0.496853 0.757522
O O4 0.730076 0.581598 0.455708
O O5 0.123830 0.653452 0.904099
O O6 0.956788 0.614384 0.799944
O O7 0.000000 0.500000 0.000000
O O8 0.878536 0.654296 0.139540
O O9 0.834726 0.750000 0.738759
O O10 0.991543 0.635611 0.478122
O O11 0.812121 0.250000 0.626937
O O12 0.812036 0.116177 0.845263
O O13 0.303185 0.750000 0.916921
O O14 0.349487 0.580321 0.810580
O O15 0.500000 0.000000 0.500000
O O16 0.643970 0.899571 0.223463
O O17 0.684640 0.750000 0.373033
#
# Coordination Sequence:
#
# PCOD8077392 Si02
#       7
#     4   4   4   4   4   4   4
#     4  11  23  43  67  94 134 179 219 266 336 397
#     4  12  22  40  70  99 135 171 220 283 336 388
#     4  11  23  39  64 102 134 169 220 276 337 396
#     4  10  23  42  66  99 134 171 220 278 337 392
#     4  11  23  43  68  97 131 177 225 271 329 398
#     4  10  25  43  65  95 127 175 225 270 323 391
#     4  11  23  43  67  97 132 175 225 276 334 397
#
# _framework density 22.056456000000001
#
# number of rings (size 3 to 8) (size 9 to 14) (size 15 to 20)
#    0.000    1.143    1.429    4.714    2.000    5.143 
#    0.000    0.000    0.000    0.000    0.000    0.000 
#    0.000    0.000    0.000    0.000    0.000    0.000 
#
# Total GULP energy -347196.876353 kJ/mol
# GULP energy per Si atom -12399.888441 kJ/mol
# Density = 2.200625 g / cm^3
# Si number density = 22.056456 Si / 1000 Ang^3
#
#
#
# Elastic Constant Matrix: (Units=GPa)
#
#
# Indices 1 2 3 4 5 6 
#
# 1 152.3699 67.4694 20.6746 0.0000 -3.2874 0.0000
# 2 67.4694 169.7888 26.1741 0.0000 7.4478 0.0000
# 3 20.6746 26.1741 65.0849 0.0000 10.3488 0.0000
# 4 0.0000 0.0000 0.0000 34.2072 0.0000 4.7180
# 5 -3.2874 7.4478 10.3488 0.0000 25.1716 0.0000
# 6 0.0000 0.0000 0.0000 4.7180 0.0000 16.8200
#
#
#
# Elastic Compliance Matrix: (Units=1/GPa)
#
#
# Indices 1 2 3 4 5 6 
#
# 1 0.008248 -0.003120 -0.001801 0.000000 0.002741 0.000000
# 2 -0.003120 0.007477 -0.001711 0.000000 -0.001916 0.000000
# 3 -0.001801 -0.001711 0.017742 0.000000 -0.007023 0.000000
# 4 0.000000 0.000000 0.000000 0.030410 0.000000 -0.008530
# 5 0.002741 -0.001916 -0.007023 0.000000 0.043540 0.000000
# 6 0.000000 0.000000 0.000000 -0.008530 0.000000 0.061846
#
#
# Mechanical properties :
#
#
# Convention : Reuss Voigt Hill
#
# Bulk Modulus (GPa) = 49.49973 68.43108 58.96541
# Shear Modulus (GPa) = 26.41848 33.43479 29.92664
#
# Velocity S-wave (km/s) = 3.46463 3.89765 3.68750
# Velocity P-wave (km/s) = 6.20451 7.16577 6.70239
#
# Compressibility (1/GPa) = 0.02020213
#
# Stress axis : x y z
#
# Youngs Moduli (GPa) = 121.24011 133.73656 56.36490
#
# Poissons Ratio (x) = 0.41728 0.10152
# Poissons Ratio (y) = 0.37829 0.09645
# Poissons Ratio (z) = 0.21836 0.22885
#
# Static dielectric constant tensor:
#      x y z
#    x 4.203600 0.000000 0.282760 
#    y 0.000000 4.552720 0.000000 
#    z 0.282760 0.000000 3.424540 
# 
# 
# High freq. dielectric constant tensor:
#      x y z
#    x 1.865480 0.000000 -0.001070 
#    y 0.000000 1.884850 0.000000 
#    z -0.001070 0.000000 1.857130 
# 
# From -- ./inp_files/17967.got.cif
#   From: 2010.06.25/outbox.cif.g09.slc.cpg/sg11_9_cif.got.tgz:17967.got - 2010.06.27 23:14:04.
