data_PCOD8077905
_publ_section_title
;
Structure prediction by ZEFSAII (Michael W. Deem and Ramdas Pophale) SiO2 
 PCOD8077905
Probable space group: P 21/M
;
_chemical_formula_sum "Si O2"
_cell_formula_units_Z 16
_cell_length_a 4.958703
_cell_length_b 16.200532
_cell_length_c 9.408294
_cell_angle_alpha 90.000000
_cell_angle_beta 56.262627
_cell_angle_gamma 90.000000
_cell_volume 628.519233
_symmetry_space_group_name_H-M "P 21/M"
_symmetry_group_IT_number 11
_symmetry_cell_setting 'monoclinic'
loop_
_space_group_symop_operation_xyz
x,y,z
-x,1/2+y,-z
-x,-y,-z
x,1/2-y,z
loop_
_atom_site_type_symbol
_atom_site_label
_atom_site_fract_x
_atom_site_fract_y
_atom_site_fract_z
Si Si1 0.723245 0.424088 0.226798
Si Si2 0.266053 0.157603 0.913056
Si Si3 0.215388 0.535073 0.233079
Si Si4 0.292370 0.343641 0.568264
O O1 0.388608 0.461714 0.266927
O O2 0.626810 0.373535 0.397133
O O3 0.975090 0.497860 0.185079
O O4 0.895150 0.362983 0.064382
O O5 0.349531 0.250000 0.939908
O O6 0.509735 0.093381 0.921157
O O7 0.322127 0.149249 0.728846
O O8 0.001000 0.596038 0.396219
O O9 0.212162 0.250000 0.544965
#
# Coordination Sequence:
#
# PCOD8077905 Si02
#       4
#     4   4   4   4
#     4  12  27  46  73 102 138 182 232 282 339 408
#     4  11  26  47  71 103 141 182 227 284 345 407
#     4  12  25  48  71 104 138 182 230 286 337 408
#     4  11  26  47  71 103 141 182 227 284 345 407
#
# _framework density 25.456662000000001
#
# number of rings (size 3 to 8) (size 9 to 14) (size 15 to 20)
#    0.000    0.500    2.500    4.500    7.000    0.000 
#    0.000    2.500    0.000    0.000    0.000    0.000 
#    0.000    0.000    0.000    0.000    0.000    0.000 
#
# Total GULP energy -198364.175981 kJ/mol
# GULP energy per Si atom -12397.760999 kJ/mol
# Density = 2.539872 g / cm^3
# Si number density = 25.456662 Si / 1000 Ang^3
#
#
#
# Elastic Constant Matrix: (Units=GPa)
#
#
# Indices 1 2 3 4 5 6 
#
# 1 68.5712 -1.3178 10.9105 0.0000 -9.9488 0.0000
# 2 -1.3178 89.7567 37.4166 0.0000 1.6211 0.0000
# 3 10.9105 37.4166 149.0515 0.0000 -7.6390 0.0000
# 4 0.0000 0.0000 0.0000 18.7272 0.0000 -24.4784
# 5 -9.9488 1.6211 -7.6390 0.0000 27.7630 0.0000
# 6 0.0000 0.0000 0.0000 -24.4784 0.0000 12.6606
#
#
#
# Elastic Compliance Matrix: (Units=1/GPa)
#
#
# Indices 1 2 3 4 5 6 
#
# 1 0.015516 0.000552 -0.001005 0.000000 0.005251 0.000000
# 2 0.000552 0.012534 -0.003260 0.000000 -0.001431 0.000000
# 3 -0.001005 -0.003260 0.007701 0.000000 0.001949 0.000000
# 4 0.000000 0.000000 0.000000 -0.034965 0.000000 -0.067602
# 5 0.005251 -0.001431 0.001949 0.000000 0.038521 0.000000
# 6 0.000000 0.000000 0.000000 -0.067602 0.000000 -0.051719
#
#
# Mechanical properties :
#
#
# Convention : Reuss Voigt Hill
#
# Bulk Modulus (GPa) = 35.30551 44.59976 39.95264
# Shear Modulus (GPa) = 1122.03162 29.18816 575.60989
#
# Velocity S-wave (km/s) = 21.01710 3.38980 15.05339
# Velocity P-wave (km/s) = 24.55314 5.73401 17.82885
#
# Compressibility (1/GPa) = 0.02832419
#
# Stress axis : x y z
#
# Youngs Moduli (GPa) = 64.45032 79.78130 129.85352
#
# Poissons Ratio (x) = -0.04404 0.13053
# Poissons Ratio (y) = -0.03558 0.42335
# Poissons Ratio (z) = 0.06478 0.26011
#
# Static dielectric constant tensor:
#      x y z
#    x 4.129280 0.000000 -0.358910 
#    y 0.000000 5.054910 0.000000 
#    z -0.358910 0.000000 4.657300 
# 
# 
# High freq. dielectric constant tensor:
#      x y z
#    x 1.988730 0.000000 -0.021120 
#    y 0.000000 2.034080 0.000000 
#    z -0.021120 0.000000 2.026770 
# 
# From -- ./inp_files/1524.got.cif
#   From: 2010.06.25/outbox.cif.g09.slc.cpg/sg11_1_cif.got.tgz:1524.got - 2010.06.27 23:14:04.
