data_PCOD8077204
_publ_section_title
;
Structure prediction by ZEFSAII (Michael W. Deem and Ramdas Pophale) SiO2 
 PCOD8077204
Probable space group: P 21/M
;
_chemical_formula_sum "Si O2"
_cell_formula_units_Z 24
_cell_length_a 29.836562
_cell_length_b 8.923127
_cell_length_c 9.513368
_cell_angle_alpha 90.000000
_cell_angle_beta 151.677356
_cell_angle_gamma 90.000000
_cell_volume 1201.649805
_symmetry_space_group_name_H-M "P 21/M"
_symmetry_group_IT_number 11
_symmetry_cell_setting 'monoclinic'
loop_
_space_group_symop_operation_xyz
x,y,z
-x,1/2+y,-z
-x,-y,-z
x,1/2-y,z
loop_
_atom_site_type_symbol
_atom_site_label
_atom_site_fract_x
_atom_site_fract_y
_atom_site_fract_z
Si Si1 0.581768 0.425794 0.636015
Si Si2 0.057333 0.418121 0.275317
Si Si3 0.249252 0.427339 0.395398
Si Si4 0.586151 0.428323 0.322710
Si Si5 0.728580 0.917255 0.223987
Si Si6 0.964488 0.573444 0.262661
O O1 0.500000 0.500000 0.500000
O O2 0.568906 0.250000 0.607062
O O3 0.579927 0.479334 0.468621
O O4 0.678945 0.470795 0.979157
O O5 0.018564 0.250000 0.191630
O O6 0.164300 0.412089 0.525131
O O7 0.043456 0.516843 0.373905
O O8 0.000000 0.500000 0.000000
O O9 0.260433 0.250000 0.403655
O O10 0.315156 0.513491 0.467239
O O11 0.279958 0.472817 0.638301
O O12 0.141289 0.478308 0.070999
O O13 0.581131 0.250000 0.294586
O O14 0.500000 0.500000 0.000000
O O15 0.684340 0.750000 0.089956
O O16 0.968616 0.750000 0.285896
O O17 0.000000 0.500000 0.500000
#
# Coordination Sequence:
#
# PCOD8077204 Si02
#       6
#     4   4   4   4   4   4
#     4  11  25  43  64  94 125 157 201 254 308 367
#     4  11  22  40  64  93 127 170 215 261 314 369
#     4  10  22  42  64  89 124 165 206 253 309 367
#     4  11  25  43  64  93 125 159 202 252 307 369
#     4  10  22  41  64  91 124 163 207 254 307 367
#     4  11  24  42  62  91 129 170 215 265 315 372
#
# _framework density 19.972541
#
# number of rings (size 3 to 8) (size 9 to 14) (size 15 to 20)
#    0.000    1.333    1.667    3.000    2.333   10.000 
#    0.000    0.000    0.000    0.000    0.000    0.000 
#    0.000    0.000    0.000    0.000    0.000    0.000 
#
# Total GULP energy -297613.982844 kJ/mol
# GULP energy per Si atom -12400.582618 kJ/mol
# Density = 1.992708 g / cm^3
# Si number density = 19.972541 Si / 1000 Ang^3
#
#
#
# Elastic Constant Matrix: (Units=GPa)
#
#
# Indices 1 2 3 4 5 6 
#
# 1 158.3002 56.0804 52.4455 0.0000 -24.0058 0.0000
# 2 56.0804 82.6485 51.5055 0.0000 -7.7598 0.0000
# 3 52.4455 51.5055 109.5587 0.0000 -25.2593 0.0000
# 4 0.0000 0.0000 0.0000 38.2869 0.0000 -0.6461
# 5 -24.0058 -7.7598 -25.2593 0.0000 40.2532 0.0000
# 6 0.0000 0.0000 0.0000 -0.6461 0.0000 38.9469
#
#
#
# Elastic Compliance Matrix: (Units=1/GPa)
#
#
# Indices 1 2 3 4 5 6 
#
# 1 0.009054 -0.005133 -0.001057 0.000000 0.003747 0.000000
# 2 -0.005133 0.020168 -0.007990 0.000000 -0.004187 0.000000
# 3 -0.001057 -0.007990 0.015069 0.000000 0.007285 0.000000
# 4 0.000000 0.000000 0.000000 0.026126 0.000000 0.000433
# 5 0.003747 -0.004187 0.007285 0.000000 0.030842 0.000000
# 6 0.000000 0.000000 0.000000 0.000433 0.000000 0.025683
#
#
# Mechanical properties :
#
#
# Convention : Reuss Voigt Hill
#
# Bulk Modulus (GPa) = 62.76641 74.50780 68.63710
# Shear Modulus (GPa) = 31.13083 36.19582 33.66332
#
# Velocity S-wave (km/s) = 3.95230 4.26171 4.10991
# Velocity P-wave (km/s) = 7.23340 7.84871 7.54733
#
# Compressibility (1/GPa) = 0.01593209
#
# Stress axis : x y z
#
# Youngs Moduli (GPa) = 110.44936 49.58299 66.35957
#
# Poissons Ratio (x) = 0.25450 0.07016
# Poissons Ratio (y) = 0.56692 0.53019
# Poissons Ratio (z) = 0.11678 0.39615
#
# Static dielectric constant tensor:
#      x y z
#    x 3.953360 0.000000 -0.014650 
#    y 0.000000 5.152650 0.000000 
#    z -0.014650 0.000000 3.711820 
# 
# 
# High freq. dielectric constant tensor:
#      x y z
#    x 1.797320 0.000000 -0.003120 
#    y 0.000000 1.784040 0.000000 
#    z -0.003120 0.000000 1.789020 
# 
# From -- ./inp_files/29145.got.cif
#   From: 2010.06.25/outbox.cif.g09.slc.cpg/sg11_15_cif.got.tgz:29145.got - 2010.06.27 23:14:04.
