data_PCOD8077745
_publ_section_title
;
Structure prediction by ZEFSAII (Michael W. Deem and Ramdas Pophale) SiO2 
 PCOD8077745
Probable space group: P 21/M
;
_chemical_formula_sum "Si O2"
_cell_formula_units_Z 32
_cell_length_a 17.658233
_cell_length_b 14.838485
_cell_length_c 11.484947
_cell_angle_alpha 90.000000
_cell_angle_beta 148.109349
_cell_angle_gamma 90.000000
_cell_volume 1589.813743
_symmetry_space_group_name_H-M "P 21/M"
_symmetry_group_IT_number 11
_symmetry_cell_setting 'monoclinic'
loop_
_space_group_symop_operation_xyz
x,y,z
-x,1/2+y,-z
-x,-y,-z
x,1/2-y,z
loop_
_atom_site_type_symbol
_atom_site_label
_atom_site_fract_x
_atom_site_fract_y
_atom_site_fract_z
Si Si1 0.043520 0.648041 0.326642
Si Si2 0.674832 0.582293 0.533996
Si Si3 0.844681 0.493577 0.355058
Si Si4 0.851512 0.350482 0.015468
Si Si5 0.357373 0.975965 0.124200
Si Si6 0.280327 0.146413 0.147949
Si Si7 0.827372 0.647431 0.503581
Si Si8 0.122188 0.927286 0.188160
O O1 0.073201 0.750000 0.402863
O O2 0.142753 0.588052 0.538410
O O3 0.089581 0.632632 0.255747
O O4 0.874347 0.626485 0.112032
O O5 0.504419 0.577556 0.299935
O O6 0.720766 0.630700 0.714352
O O7 0.739730 0.635972 0.508862
O O8 0.730216 0.480427 0.601892
O O9 0.782685 0.581674 0.340449
O O10 0.000000 0.500000 0.500000
O O11 0.722467 0.473400 0.102558
O O12 0.809195 0.250000 0.000913
O O13 0.006653 0.378466 0.264721
O O14 0.735580 0.421926 0.903963
O O15 0.859993 0.353437 0.888035
O O16 0.383012 0.076036 0.213120
O O17 0.327788 0.250000 0.186754
O O18 0.807882 0.750000 0.436195
O O19 0.000000 0.000000 0.000000
#
# Coordination Sequence:
#
# PCOD8077745 Si02
#       8
#     4   4   4   4   4   4   4   4
#     4  11  22  39  67  99 124 163 220 273 315 369
#     4  12  24  41  67  93 132 168 210 266 333 386
#     4  12  23  43  68  91 127 170 219 269 311 374
#     4  11  22  38  65  98 129 165 213 264 319 381
#     4  12  26  43  63  96 134 177 211 260 327 384
#     4  11  22  40  67  98 130 167 211 264 324 388
#     4  11  23  42  69  96 122 169 224 268 315 379
#     4  12  19  38  66  91 126 165 209 263 323 381
#
# _framework density 20.128143000000001
#
# number of rings (size 3 to 8) (size 9 to 14) (size 15 to 20)
#    0.000    0.500    7.500    1.125    0.000    5.000 
#    0.000    0.625    0.000    0.000    0.000    0.000 
#    0.000    0.000    0.000    0.000    0.000    0.000 
#
# Total GULP energy -396802.394926 kJ/mol
# GULP energy per Si atom -12400.074841 kJ/mol
# Density = 2.008233 g / cm^3
# Si number density = 20.128143 Si / 1000 Ang^3
#
#
#
# Elastic Constant Matrix: (Units=GPa)
#
#
# Indices 1 2 3 4 5 6 
#
# 1 70.7976 36.0252 31.3721 0.0000 -7.6187 0.0000
# 2 36.0252 100.7300 33.5922 0.0000 5.2261 0.0000
# 3 31.3721 33.5922 73.6134 0.0000 0.8745 0.0000
# 4 0.0000 0.0000 0.0000 13.1095 0.0000 0.6861
# 5 -7.6187 5.2261 0.8745 0.0000 32.4373 0.0000
# 6 0.0000 0.0000 0.0000 0.6861 0.0000 12.3741
#
#
#
# Elastic Compliance Matrix: (Units=1/GPa)
#
#
# Indices 1 2 3 4 5 6 
#
# 1 0.020298 -0.005489 -0.006215 0.000000 0.005819 0.000000
# 2 -0.005489 0.013293 -0.003687 0.000000 -0.003331 0.000000
# 3 -0.006215 -0.003687 0.017932 0.000000 -0.001349 0.000000
# 4 0.000000 0.000000 0.000000 0.076503 0.000000 -0.004242
# 5 0.005819 -0.003331 -0.001349 0.000000 0.032769 0.000000
# 6 0.000000 0.000000 0.000000 -0.004242 0.000000 0.081049
#
#
# Mechanical properties :
#
#
# Convention : Reuss Voigt Hill
#
# Bulk Modulus (GPa) = 48.21396 49.67998 48.94697
# Shear Modulus (GPa) = 17.88662 21.19427 19.54045
#
# Velocity S-wave (km/s) = 2.98424 3.24847 3.11915
# Velocity P-wave (km/s) = 5.98997 6.22940 6.11086
#
# Compressibility (1/GPa) = 0.02074088
#
# Stress axis : x y z
#
# Youngs Moduli (GPa) = 49.26619 75.22735 55.76691
#
# Poissons Ratio (x) = 0.41290 0.34659
# Poissons Ratio (y) = 0.27041 0.20563
# Poissons Ratio (z) = 0.30618 0.27739
#
# Static dielectric constant tensor:
#      x y z
#    x 3.715930 0.000000 -0.078440 
#    y 0.000000 3.743550 0.000000 
#    z -0.078440 0.000000 3.663890 
# 
# 
# High freq. dielectric constant tensor:
#      x y z
#    x 1.787370 0.000000 -0.011540 
#    y 0.000000 1.795200 0.000000 
#    z -0.011540 0.000000 1.769310 
# 
# From -- ./inp_files/41718.got.cif
#   From: 2010.06.25/outbox.cif.g09.slc.cpg/sg11_21_cif.got.tgz:41718.got - 2010.06.27 23:14:04.
