data_PCOD8077733
_publ_section_title
;
Structure prediction by ZEFSAII (Michael W. Deem and Ramdas Pophale) SiO2 
 PCOD8077733
Probable space group: P 21/M
;
_chemical_formula_sum "Si O2"
_cell_formula_units_Z 24
_cell_length_a 9.248152
_cell_length_b 8.797514
_cell_length_c 18.942775
_cell_angle_alpha 90.000000
_cell_angle_beta 117.678984
_cell_angle_gamma 90.000000
_cell_volume 1364.829855
_symmetry_space_group_name_H-M "P 21/M"
_symmetry_group_IT_number 11
_symmetry_cell_setting 'monoclinic'
loop_
_space_group_symop_operation_xyz
x,y,z
-x,1/2+y,-z
-x,-y,-z
x,1/2-y,z
loop_
_atom_site_type_symbol
_atom_site_label
_atom_site_fract_x
_atom_site_fract_y
_atom_site_fract_z
Si Si1 0.984806 0.928909 0.636207
Si Si2 0.375910 0.575889 0.217159
Si Si3 0.120657 0.078687 0.238304
Si Si4 0.702949 0.927836 0.361238
Si Si5 0.340977 0.931089 0.499839
Si Si6 0.110012 0.079906 0.082038
O O1 0.008118 0.750000 0.626008
O O2 0.993861 0.967445 0.722150
O O3 0.122994 0.024842 0.629219
O O4 0.812328 0.985081 0.569237
O O5 0.342892 0.750000 0.195019
O O6 0.282083 0.527294 0.268646
O O7 0.567415 0.540827 0.269885
O O8 0.294377 0.488376 0.131765
O O9 0.184625 0.250000 0.265475
O O10 0.024699 0.068516 0.140886
O O11 0.705516 0.750000 0.383092
O O12 0.657840 0.030981 0.417331
O O13 0.332219 0.750000 0.486533
O O14 0.500000 0.000000 0.500000
O O15 0.130594 0.250000 0.060204
O O16 0.000000 0.000000 0.000000
#
# Coordination Sequence:
#
# PCOD8077733 Si02
#       6
#     4   4   4   4   4   4
#     4  11  22  38  57  79 109 147 185 225 274 324
#     4   9  18  32  53  78 106 138 176 219 266 315
#     4   8  18  33  52  77 106 137 175 219 266 317
#     4  11  23  38  55  80 111 146 185 226 272 323
#     4  12  25  40  58  80 108 143 184 231 274 320
#     4   9  17  31  53  82 110 136 174 220 266 319
#
# _framework density 17.584609
#
# number of rings (size 3 to 8) (size 9 to 14) (size 15 to 20)
#    1.000    1.000    0.000    4.500    0.000    6.667 
#    0.000    0.000    0.000    1.000    0.000    0.000 
#    0.000    0.000    0.000    0.000    0.000    0.000 
#
# Total GULP energy -297354.774329 kJ/mol
# GULP energy per Si atom -12389.782264 kJ/mol
# Density = 1.754459 g / cm^3
# Si number density = 17.584609 Si / 1000 Ang^3
#
#
#
# Elastic Constant Matrix: (Units=GPa)
#
#
# Indices 1 2 3 4 5 6 
#
# 1 91.3148 19.9770 37.0947 0.0000 8.7541 0.0000
# 2 19.9770 81.1165 40.1219 0.0000 2.0802 0.0000
# 3 37.0947 40.1219 101.9249 0.0000 9.7569 0.0000
# 4 0.0000 0.0000 0.0000 30.1673 0.0000 1.6715
# 5 8.7541 2.0802 9.7569 0.0000 14.3846 0.0000
# 6 0.0000 0.0000 0.0000 1.6715 0.0000 28.7543
#
#
#
# Elastic Compliance Matrix: (Units=1/GPa)
#
#
# Indices 1 2 3 4 5 6 
#
# 1 0.013291 -0.001237 -0.003843 0.000000 -0.005303 0.000000
# 2 -0.001237 0.015478 -0.005882 0.000000 0.002504 0.000000
# 3 -0.003843 -0.005882 0.014138 0.000000 -0.006400 0.000000
# 4 0.000000 0.000000 0.000000 0.033256 0.000000 -0.001933
# 5 -0.005303 0.002504 -0.006400 0.000000 0.076726 0.000000
# 6 0.000000 0.000000 0.000000 -0.001933 0.000000 0.034890
#
#
# Mechanical properties :
#
#
# Convention : Reuss Voigt Hill
#
# Bulk Modulus (GPa) = 47.65672 52.08260 49.86966
# Shear Modulus (GPa) = 23.07384 26.47207 24.77295
#
# Velocity S-wave (km/s) = 3.62631 3.88417 3.75745
# Velocity P-wave (km/s) = 6.68533 7.05679 6.87357
#
# Compressibility (1/GPa) = 0.02098340
#
# Stress axis : x y z
#
# Youngs Moduli (GPa) = 75.23831 64.60854 70.73177
#
# Poissons Ratio (x) = 0.07989 0.27180
# Poissons Ratio (y) = 0.09304 0.41607
# Poissons Ratio (z) = 0.28912 0.38005
#
# Static dielectric constant tensor:
#      x y z
#    x 3.141250 0.000000 -0.057630 
#    y 0.000000 3.448240 0.000000 
#    z -0.057630 0.000000 3.266880 
# 
# 
# High freq. dielectric constant tensor:
#      x y z
#    x 1.655580 0.000000 0.002090 
#    y 0.000000 1.698110 0.000000 
#    z 0.002090 0.000000 1.674620 
# 
# From -- ./inp_files/23779.got.cif
#   From: 2010.06.25/outbox.cif.g09.slc.cpg/sg11_12_cif.got.tgz:23779.got - 2010.06.27 23:14:04.
