data_PCOD8077001
_publ_section_title
;
Structure prediction by ZEFSAII (Michael W. Deem and Ramdas Pophale) SiO2 
 PCOD8077001
Probable space group: P 21/M
;
_chemical_formula_sum "Si O2"
_cell_formula_units_Z 16
_cell_length_a 11.896083
_cell_length_b 10.909324
_cell_length_c 10.822543
_cell_angle_alpha 90.000000
_cell_angle_beta 155.875507
_cell_angle_gamma 90.000000
_cell_volume 574.060573
_symmetry_space_group_name_H-M "P 21/M"
_symmetry_group_IT_number 11
_symmetry_cell_setting 'monoclinic'
loop_
_space_group_symop_operation_xyz
x,y,z
-x,1/2+y,-z
-x,-y,-z
x,1/2-y,z
loop_
_atom_site_type_symbol
_atom_site_label
_atom_site_fract_x
_atom_site_fract_y
_atom_site_fract_z
Si Si1 0.408988 0.523549 0.547432
Si Si2 0.384356 0.250000 0.501130
Si Si3 0.113963 0.750000 0.168559
Si Si4 0.801637 0.533784 0.149259
Si Si5 0.300451 0.116846 0.698615
O O1 0.500000 0.500000 0.500000
O O2 0.333470 0.382696 0.521863
O O3 0.166895 0.626203 0.303021
O O4 0.661448 0.579521 0.881136
O O5 0.696440 0.250000 0.764352
O O6 0.197928 0.250000 0.190739
O O7 0.796064 0.631694 0.254855
O O8 0.116417 0.488898 0.444279
O O9 0.621613 0.418503 0.018548
O O10 0.260404 0.250000 0.595387
#
# Coordination Sequence:
#
# PCOD8077001 Si02
#       5
#     4   2   2   4   4
#     4  10  23  42  65  96 130 166 209 260 317 385
#     4  10  22  38  60  88 124 166 204 250 301 372
#     4  10  22  40  60  84 128 166 204 246 309 370
#     4  10  23  40  63  97 120 168 210 261 317 375
#     4  10  22  41  65  89 128 162 215 262 316 369
#
# _framework density 27.871623
#
# number of rings (size 3 to 8) (size 9 to 14) (size 15 to 20)
#    0.000    2.000    0.000    1.500    5.250    8.000 
#    0.000    0.000    0.000    0.000    0.000    0.000 
#    0.000    0.000    0.000    0.000    0.000    0.000 
#
# Total GULP energy -198309.531037 kJ/mol
# GULP energy per Si atom -12394.345690 kJ/mol
# Density = 2.780819 g / cm^3
# Si number density = 27.871623 Si / 1000 Ang^3
#
#
#
# Elastic Constant Matrix: (Units=GPa)
#
#
# Indices 1 2 3 4 5 6 
#
# 1 53.4901 9.5203 -11.4072 0.0000 -14.0191 0.0000
# 2 9.5203 163.5782 6.0207 0.0000 -4.9654 0.0000
# 3 -11.4072 6.0207 128.8840 0.0000 -13.6066 0.0000
# 4 0.0000 0.0000 0.0000 34.7339 0.0000 -19.0289
# 5 -14.0191 -4.9654 -13.6066 0.0000 48.2726 0.0000
# 6 0.0000 0.0000 0.0000 -19.0289 0.0000 44.9169
#
#
#
# Elastic Compliance Matrix: (Units=1/GPa)
#
#
# Indices 1 2 3 4 5 6 
#
# 1 0.021243 -0.001128 0.002651 0.000000 0.006801 0.000000
# 2 -0.001128 0.006199 -0.000368 0.000000 0.000207 0.000000
# 3 0.002651 -0.000368 0.008336 0.000000 0.003082 0.000000
# 4 0.000000 0.000000 0.000000 0.037492 0.000000 0.015883
# 5 0.006801 0.000207 0.003082 0.000000 0.023581 0.000000
# 6 0.000000 0.000000 0.000000 0.015883 0.000000 0.028992
#
#
# Mechanical properties :
#
#
# Convention : Reuss Voigt Hill
#
# Bulk Modulus (GPa) = 26.25383 39.35777 32.80580
# Shear Modulus (GPa) = 36.70316 48.37258 42.53787
#
# Velocity S-wave (km/s) = 3.63280 4.17051 3.91091
# Velocity P-wave (km/s) = 5.19965 6.11086 5.67358
#
# Compressibility (1/GPa) = 0.03808969
#
# Stress axis : x y z
#
# Youngs Moduli (GPa) = 47.07345 161.32408 119.96089
#
# Poissons Ratio (x) = 0.18190 -0.31800
# Poissons Ratio (y) = 0.05308 0.04409
# Poissons Ratio (z) = -0.12478 0.05930
#
# Static dielectric constant tensor:
#      x y z
#    x 5.283800 0.000000 -0.466700 
#    y 0.000000 5.723260 0.000000 
#    z -0.466700 0.000000 4.871780 
# 
# 
# High freq. dielectric constant tensor:
#      x y z
#    x 2.173340 0.000000 -0.026390 
#    y 0.000000 2.121940 0.000000 
#    z -0.026390 0.000000 2.120380 
# 
# From -- ./inp_files/3741.got.cif
#   From: 2010.06.25/outbox.cif.g09.slc.cpg/sg11_2_cif.got.tgz:3741.got - 2010.06.27 23:14:04.
