data_PCOD8077406
_publ_section_title
;
Structure prediction by ZEFSAII (Michael W. Deem and Ramdas Pophale) SiO2 
 PCOD8077406
Probable space group: P 21/M
;
_chemical_formula_sum "Si O2"
_cell_formula_units_Z 32
_cell_length_a 11.916226
_cell_length_b 8.676171
_cell_length_c 15.354688
_cell_angle_alpha 90.000000
_cell_angle_beta 90.945551
_cell_angle_gamma 90.000000
_cell_volume 1587.262252
_symmetry_space_group_name_H-M "P 21/M"
_symmetry_group_IT_number 11
_symmetry_cell_setting 'monoclinic'
loop_
_space_group_symop_operation_xyz
x,y,z
-x,1/2+y,-z
-x,-y,-z
x,1/2-y,z
loop_
_atom_site_type_symbol
_atom_site_label
_atom_site_fract_x
_atom_site_fract_y
_atom_site_fract_z
Si Si1 0.624345 0.067578 0.504455
Si Si2 0.274380 0.069978 0.149246
Si Si3 0.742612 0.926416 0.158527
Si Si4 0.767356 0.077067 0.340626
Si Si5 0.495299 0.928562 0.093606
Si Si6 0.775221 0.430334 0.668898
Si Si7 0.123526 0.568784 0.994929
Si Si8 0.016262 0.076165 0.408704
O O1 0.617018 0.250000 0.503224
O O2 0.696406 0.010771 0.421825
O O3 0.687109 0.014167 0.593686
O O4 0.500000 0.000000 0.500000
O O5 0.263992 0.250000 0.131069
O O6 0.402718 0.017162 0.147758
O O7 0.236065 0.030862 0.245183
O O8 0.200137 0.987533 0.075243
O O9 0.775337 0.750000 0.141694
O O10 0.613259 0.958346 0.139329
O O11 0.755356 0.964922 0.259410
O O12 0.821360 0.027302 0.097118
O O13 0.725133 0.250000 0.317636
O O14 0.898155 0.081414 0.360373
O O15 0.463014 0.750000 0.087767
O O16 0.500000 0.000000 0.000000
O O17 0.759850 0.250000 0.689404
O O18 0.901117 0.463048 0.640932
O O19 0.112662 0.750000 0.001019
O O20 0.000000 0.500000 0.000000
O O21 0.065345 0.250000 0.417108
O O22 0.000000 0.000000 0.500000
#
# Coordination Sequence:
#
# PCOD8077406 Si02
#       8
#     4   4   4   4   4   4   4   4
#     4  10  23  43  64  91 129 169 212 263 319 377
#     4  12  26  44  67  98 132 170 218 267 322 390
#     4  11  25  43  66  98 131 169 217 266 321 385
#     4  10  23  43  64  92 129 169 212 265 322 379
#     4  11  23  42  68  96 129 168 215 269 323 382
#     4  11  24  44  66  94 130 169 215 269 325 384
#     4  12  26  46  70  95 131 173 215 266 324 385
#     4  11  22  41  67  94 126 166 215 267 323 385
#
# _framework density 20.160499000000002
#
# number of rings (size 3 to 8) (size 9 to 14) (size 15 to 20)
#    0.000    1.000    2.500    3.750    3.500    4.000 
#    0.000    0.000    0.000    0.000    0.000    0.000 
#    0.000    0.000    0.000    0.000    0.000    0.000 
#
# Total GULP energy -396886.289376 kJ/mol
# GULP energy per Si atom -12402.696543 kJ/mol
# Density = 2.011461 g / cm^3
# Si number density = 20.160499 Si / 1000 Ang^3
#
#
#
# Elastic Constant Matrix: (Units=GPa)
#
#
# Indices 1 2 3 4 5 6 
#
# 1 110.0455 46.6110 37.4324 0.0000 -7.4164 0.0000
# 2 46.6110 96.2213 22.9362 0.0000 8.1247 0.0000
# 3 37.4324 22.9362 107.1446 0.0000 0.2306 0.0000
# 4 0.0000 0.0000 0.0000 34.2163 0.0000 -1.4723
# 5 -7.4164 8.1247 0.2306 0.0000 32.4146 0.0000
# 6 0.0000 0.0000 0.0000 -1.4723 0.0000 38.7240
#
#
#
# Elastic Compliance Matrix: (Units=1/GPa)
#
#
# Indices 1 2 3 4 5 6 
#
# 1 0.013004 -0.005893 -0.003291 0.000000 0.004476 0.000000
# 2 -0.005893 0.013869 -0.000900 0.000000 -0.004818 0.000000
# 3 -0.003291 -0.000900 0.010677 0.000000 -0.000604 0.000000
# 4 0.000000 0.000000 0.000000 0.029274 0.000000 0.001113
# 5 0.004476 -0.004818 -0.000604 0.000000 0.033086 0.000000
# 6 0.000000 0.000000 0.000000 0.001113 0.000000 0.025866
#
#
# Mechanical properties :
#
#
# Convention : Reuss Voigt Hill
#
# Bulk Modulus (GPa) = 57.53085 58.59675 58.06380
# Shear Modulus (GPa) = 32.95153 34.83309 33.89231
#
# Velocity S-wave (km/s) = 4.04723 4.16118 4.10460
# Velocity P-wave (km/s) = 7.10201 7.22602 7.16428
#
# Compressibility (1/GPa) = 0.01738198
#
# Stress axis : x y z
#
# Youngs Moduli (GPa) = 76.89725 72.10544 93.65946
#
# Poissons Ratio (x) = 0.42491 0.30827
# Poissons Ratio (y) = 0.45314 0.08427
# Poissons Ratio (z) = 0.25310 0.06487
#
# Static dielectric constant tensor:
#      x y z
#    x 3.795850 0.000000 -0.026330 
#    y 0.000000 3.847240 0.000000 
#    z -0.026330 0.000000 3.489620 
# 
# 
# High freq. dielectric constant tensor:
#      x y z
#    x 1.800960 0.000000 -0.003520 
#    y 0.000000 1.796310 0.000000 
#    z -0.003520 0.000000 1.799040 
# 
# From -- ./inp_files/49321.got.cif
#   From: 2010.06.25/outbox.cif.g09.slc.cpg/sg11_25_cif.got.tgz:49321.got - 2010.06.27 23:14:04.
