data_PCOD8077268
_publ_section_title
;
Structure prediction by ZEFSAII (Michael W. Deem and Ramdas Pophale) SiO2 
 PCOD8077268
Probable space group: P 21/M
;
_chemical_formula_sum "Si O2"
_cell_formula_units_Z 24
_cell_length_a 12.413074
_cell_length_b 8.641680
_cell_length_c 11.058555
_cell_angle_alpha 90.000000
_cell_angle_beta 77.117473
_cell_angle_gamma 90.000000
_cell_volume 1156.390328
_symmetry_space_group_name_H-M "P 21/M"
_symmetry_group_IT_number 11
_symmetry_cell_setting 'monoclinic'
loop_
_space_group_symop_operation_xyz
x,y,z
-x,1/2+y,-z
-x,-y,-z
x,1/2-y,z
loop_
_atom_site_type_symbol
_atom_site_label
_atom_site_fract_x
_atom_site_fract_y
_atom_site_fract_z
Si Si1 0.226564 0.068974 0.680772
Si Si2 0.460316 0.568223 0.639055
Si Si3 0.438334 0.068971 0.131812
Si Si4 0.991024 0.933242 0.132354
Si Si5 0.118736 0.924199 0.489304
Si Si6 0.208023 0.576817 0.206417
O O1 0.250937 0.250000 0.691841
O O2 0.123891 0.006627 0.784790
O O3 0.332888 0.972410 0.693033
O O4 0.193848 0.034685 0.551870
O O5 0.500000 0.500000 0.500000
O O6 0.477814 0.750000 0.624074
O O7 0.522327 0.504662 0.745254
O O8 0.459318 0.250000 0.123264
O O9 0.309512 0.032306 0.146686
O O10 0.500000 0.000000 0.000000
O O11 0.991643 0.750000 0.135386
O O12 0.096120 0.996474 0.179682
O O13 0.000000 0.000000 0.000000
O O14 0.103285 0.750000 0.545600
O O15 0.191369 0.915336 0.352317
O O16 0.000000 0.000000 0.500000
O O17 0.230790 0.750000 0.149831
#
# Coordination Sequence:
#
# PCOD8077268 Si02
#       6
#     4   4   4   4   4   4
#     4  11  23  41  64  94 130 165 207 260 317 380
#     4  11  25  45  68  97 130 171 219 270 325 385
#     4  11  26  45  67  96 128 168 218 268 322 385
#     4  10  23  41  60  89 126 165 207 256 313 373
#     4  11  21  37  62  93 128 166 206 253 313 375
#     4  10  22  42  64  90 127 164 204 258 314 373
#
# _framework density 20.754239999999999
#
# number of rings (size 3 to 8) (size 9 to 14) (size 15 to 20)
#    0.000    1.333    1.667    3.000    2.333    8.667 
#    0.000    0.000    0.000    0.000    0.000    0.000 
#    0.000    0.000    0.000    0.000    0.000    0.000 
#
# Total GULP energy -297551.505895 kJ/mol
# GULP energy per Si atom -12397.979412 kJ/mol
# Density = 2.070700 g / cm^3
# Si number density = 20.754240 Si / 1000 Ang^3
#
#
#
# Elastic Constant Matrix: (Units=GPa)
#
#
# Indices 1 2 3 4 5 6 
#
# 1 135.4106 21.3325 61.9850 0.0000 -16.1076 0.0000
# 2 21.3325 46.6400 33.9125 0.0000 -5.4967 0.0000
# 3 61.9850 33.9125 144.0799 0.0000 0.5519 0.0000
# 4 0.0000 0.0000 0.0000 36.2965 0.0000 -1.5077
# 5 -16.1076 -5.4967 0.5519 0.0000 33.4006 0.0000
# 6 0.0000 0.0000 0.0000 -1.5077 0.0000 37.6781
#
#
#
# Elastic Compliance Matrix: (Units=1/GPa)
#
#
# Indices 1 2 3 4 5 6 
#
# 1 0.009968 -0.001054 -0.004058 0.000000 0.004701 0.000000
# 2 -0.001054 0.026630 -0.005829 0.000000 0.003970 0.000000
# 3 -0.004058 -0.005829 0.010070 0.000000 -0.003083 0.000000
# 4 0.000000 0.000000 0.000000 0.027597 0.000000 0.001104
# 5 0.004701 0.003970 -0.003083 0.000000 0.032911 0.000000
# 6 0.000000 0.000000 0.000000 0.001104 0.000000 0.026585
#
#
# Mechanical properties :
#
#
# Convention : Reuss Voigt Hill
#
# Bulk Modulus (GPa) = 40.34897 62.28783 51.31840
# Shear Modulus (GPa) = 30.50537 35.40173 32.95355
#
# Velocity S-wave (km/s) = 3.83801 4.13456 3.98904
# Velocity P-wave (km/s) = 6.25491 7.27118 6.78211
#
# Compressibility (1/GPa) = 0.02478378
#
# Stress axis : x y z
#
# Youngs Moduli (GPa) = 100.32270 37.55211 99.30152
#
# Poissons Ratio (x) = 0.03960 0.40298
# Poissons Ratio (y) = 0.10579 0.57887
# Poissons Ratio (z) = 0.40712 0.21891
#
# Static dielectric constant tensor:
#      x y z
#    x 4.277890 0.000000 -0.040170 
#    y 0.000000 3.916050 0.000000 
#    z -0.040170 0.000000 3.897520 
# 
# 
# High freq. dielectric constant tensor:
#      x y z
#    x 1.826550 0.000000 -0.002530 
#    y 0.000000 1.808510 0.000000 
#    z -0.002530 0.000000 1.819830 
# 
# From -- ./inp_files/33676.got.cif
#   From: 2010.06.25/outbox.cif.g09.slc.cpg/sg11_17_cif.got.tgz:33676.got - 2010.06.27 23:14:04.
