data_PCOD8077198
_publ_section_title
;
Structure prediction by ZEFSAII (Michael W. Deem and Ramdas Pophale) SiO2 
 PCOD8077198
Probable space group: P 21/M
;
_chemical_formula_sum "Si O2"
_cell_formula_units_Z 28
_cell_length_a 15.921784
_cell_length_b 8.782502
_cell_length_c 20.132858
_cell_angle_alpha 90.000000
_cell_angle_beta 149.977311
_cell_angle_gamma 90.000000
_cell_volume 1408.585331
_symmetry_space_group_name_H-M "P 21/M"
_symmetry_group_IT_number 11
_symmetry_cell_setting 'monoclinic'
loop_
_space_group_symop_operation_xyz
x,y,z
-x,1/2+y,-z
-x,-y,-z
x,1/2-y,z
loop_
_atom_site_type_symbol
_atom_site_label
_atom_site_fract_x
_atom_site_fract_y
_atom_site_fract_z
Si Si1 0.009561 0.573820 0.817201
Si Si2 0.429474 0.571515 0.267971
Si Si3 0.814969 0.925770 0.551792
Si Si4 0.040570 0.072201 0.597521
Si Si5 0.861735 0.928855 0.857896
Si Si6 0.642518 0.570417 0.922617
Si Si7 0.582963 0.570079 0.121273
O O1 0.064399 0.750000 0.853526
O O2 0.887379 0.531890 0.673166
O O3 0.908785 0.534217 0.814628
O O4 0.175621 0.472564 0.924161
O O5 0.397599 0.750000 0.235980
O O6 0.619247 0.534292 0.417513
O O7 0.316302 0.508288 0.250316
O O8 0.374592 0.486662 0.163839
O O9 0.846282 0.750000 0.555716
O O10 0.902810 0.026163 0.556539
O O11 0.035155 0.250000 0.583301
O O12 0.223356 0.019765 0.747358
O O13 0.000000 0.000000 0.500000
O O14 0.849184 0.750000 0.863110
O O15 0.000000 0.000000 0.000000
O O16 0.619273 0.750000 0.909853
O O17 0.498647 0.493299 0.867728
O O18 0.559896 0.750000 0.104019
O O19 0.500000 0.500000 0.000000
#
# Coordination Sequence:
#
# PCOD8077198 Si02
#       7
#     4   4   4   4   4   4   4
#     4  10  22  41  64  89 123 163 202 251 309 364
#     4  11  23  40  62  89 123 160 202 252 302 358
#     4  10  23  42  63  89 122 162 203 248 306 364
#     4  11  24  41  63  90 121 160 204 251 302 362
#     4  11  22  38  63  93 124 160 205 251 303 362
#     4  12  24  38  61  91 120 158 207 252 303 363
#     4  11  24  41  61  89 123 158 201 252 307 363
#
# _framework density 19.8781
#
# number of rings (size 3 to 8) (size 9 to 14) (size 15 to 20)
#    0.000    1.143    1.429    4.714    0.000   10.857 
#    0.000    0.000    0.000    0.000    0.000    0.000 
#    0.000    0.000    0.000    0.000    0.000    0.000 
#
# Total GULP energy -347398.696686 kJ/mol
# GULP energy per Si atom -12407.096310 kJ/mol
# Density = 1.983286 g / cm^3
# Si number density = 19.878100 Si / 1000 Ang^3
#
#
#
# Elastic Constant Matrix: (Units=GPa)
#
#
# Indices 1 2 3 4 5 6 
#
# 1 108.5108 36.6139 47.0868 0.0000 2.3720 0.0000
# 2 36.6139 78.1842 58.1656 0.0000 7.9357 0.0000
# 3 47.0868 58.1656 142.4290 0.0000 3.0023 0.0000
# 4 0.0000 0.0000 0.0000 23.5541 0.0000 6.1337
# 5 2.3720 7.9357 3.0023 0.0000 39.9276 0.0000
# 6 0.0000 0.0000 0.0000 6.1337 0.0000 38.1718
#
#
#
# Elastic Compliance Matrix: (Units=1/GPa)
#
#
# Indices 1 2 3 4 5 6 
#
# 1 0.011445 -0.003683 -0.002284 0.000000 0.000224 0.000000
# 2 -0.003683 0.019947 -0.006860 0.000000 -0.003230 0.000000
# 3 -0.002284 -0.006860 0.010563 0.000000 0.000705 0.000000
# 4 0.000000 0.000000 0.000000 0.044310 0.000000 -0.007120
# 5 0.000224 -0.003230 0.000705 0.000000 0.025621 0.000000
# 6 0.000000 0.000000 0.000000 -0.007120 0.000000 0.027341
#
#
# Mechanical properties :
#
#
# Convention : Reuss Voigt Hill
#
# Bulk Modulus (GPa) = 61.35185 68.09520 64.72353
# Shear Modulus (GPa) = 29.35755 32.81455 31.08605
#
# Velocity S-wave (km/s) = 3.84719 4.06740 3.95882
# Velocity P-wave (km/s) = 7.11797 7.50927 7.31623
#
# Compressibility (1/GPa) = 0.01629943
#
# Stress axis : x y z
#
# Youngs Moduli (GPa) = 87.37667 50.13410 94.67056
#
# Poissons Ratio (x) = 0.18464 0.21625
# Poissons Ratio (y) = 0.32180 0.64946
# Poissons Ratio (z) = 0.19959 0.34393
#
# Static dielectric constant tensor:
#      x y z
#    x 3.584620 0.000000 0.097950 
#    y 0.000000 3.702010 0.000000 
#    z 0.097950 0.000000 3.801580 
# 
# 
# High freq. dielectric constant tensor:
#      x y z
#    x 1.789890 0.000000 0.003630 
#    y 0.000000 1.783200 0.000000 
#    z 0.003630 0.000000 1.787150 
# 
# From -- ./inp_files/65466.got.cif
#   From: 2010.06.25/outbox.cif.g09.slc.cpg/sg11_33_cif.got.tgz:65466.got - 2010.06.27 23:14:04.
