data_PCOD8077064
_publ_section_title
;
Structure prediction by ZEFSAII (Michael W. Deem and Ramdas Pophale) SiO2 
 PCOD8077064
Probable space group: P 21/M
;
_chemical_formula_sum "Si O2"
_cell_formula_units_Z 32
_cell_length_a 19.354420
_cell_length_b 13.855678
_cell_length_c 14.126620
_cell_angle_alpha 90.000000
_cell_angle_beta 22.979778
_cell_angle_gamma 90.000000
_cell_volume 1478.982159
_symmetry_space_group_name_H-M "P 21/M"
_symmetry_group_IT_number 11
_symmetry_cell_setting 'monoclinic'
loop_
_space_group_symop_operation_xyz
x,y,z
-x,1/2+y,-z
-x,-y,-z
x,1/2-y,z
loop_
_atom_site_type_symbol
_atom_site_label
_atom_site_fract_x
_atom_site_fract_y
_atom_site_fract_z
Si Si1 0.343140 0.639295 0.608037
Si Si2 0.754043 0.535394 0.752749
Si Si3 0.659280 0.857078 0.345842
Si Si4 0.473500 0.642937 0.780325
Si Si5 0.098770 0.986233 0.028692
Si Si6 0.298630 0.527561 0.473343
Si Si7 0.131231 0.960869 0.201184
Si Si8 0.395613 0.863561 0.171400
O O1 0.317855 0.750000 0.612520
O O2 0.526529 0.617752 0.428733
O O3 0.355012 0.576599 0.499197
O O4 0.183190 0.611552 0.880603
O O5 0.802539 0.537806 0.803249
O O6 0.694318 0.426097 0.799113
O O7 0.928015 0.568949 0.475647
O O8 0.603946 0.613163 0.917817
O O9 0.735071 0.750000 0.240068
O O10 0.556612 0.870717 0.572561
O O11 0.827527 0.926335 0.127881
O O12 0.514431 0.750000 0.769803
O O13 0.562687 0.557930 0.731254
O O14 0.261374 0.631480 0.042281
O O15 0.146843 0.006294 0.077350
O O16 0.890598 0.978191 0.276508
O O17 0.297995 0.607418 0.391879
O O18 0.368327 0.750000 0.184948
#
# Coordination Sequence:
#
# PCOD8077064 Si02
#       8
#     4   4   4   4   4   4   4   4
#     4  11  23  39  62  93 131 174 217 261 320 392
#     4  10  24  46  68  97 128 167 216 280 332 376
#     4  10  22  39  61  93 131 173 218 263 316 382
#     4  11  23  41  68  98 131 174 220 264 326 393
#     4  12  23  40  64  94 130 173 213 268 320 380
#     4  12  24  43  63  96 135 178 210 266 326 382
#     4  11  22  43  71  91 129 167 217 276 329 380
#     4  11  24  46  71  97 131 172 218 264 328 396
#
# _framework density 21.636502
#
# number of rings (size 3 to 8) (size 9 to 14) (size 15 to 20)
#    0.000    1.000    5.000    1.875    0.000    2.500 
#    0.000    1.875    0.000    0.000    0.000    0.000 
#    0.000    0.000    0.000    0.000    0.000    0.000 
#
# Total GULP energy -396820.854916 kJ/mol
# GULP energy per Si atom -12400.651716 kJ/mol
# Density = 2.158726 g / cm^3
# Si number density = 21.636502 Si / 1000 Ang^3
#
#
#
# Elastic Constant Matrix: (Units=GPa)
#
#
# Indices 1 2 3 4 5 6 
#
# 1 55.3090 9.1582 -7.5291 0.0000 4.2093 0.0000
# 2 9.1582 121.2068 29.3181 0.0000 -11.2154 0.0000
# 3 -7.5291 29.3181 109.2153 0.0000 -14.9558 0.0000
# 4 0.0000 0.0000 0.0000 15.3624 0.0000 1.5489
# 5 4.2093 -11.2154 -14.9558 0.0000 33.9113 0.0000
# 6 0.0000 0.0000 0.0000 1.5489 0.0000 22.0306
#
#
#
# Elastic Compliance Matrix: (Units=1/GPa)
#
#
# Indices 1 2 3 4 5 6 
#
# 1 0.018795 -0.002002 0.001514 0.000000 -0.002327 0.000000
# 2 -0.002002 0.009165 -0.002287 0.000000 0.002271 0.000000
# 3 0.001514 -0.002287 0.010372 0.000000 0.003630 0.000000
# 4 0.000000 0.000000 0.000000 0.065559 0.000000 -0.004609
# 5 -0.002327 0.002271 0.003630 0.000000 0.032129 0.000000
# 6 0.000000 0.000000 0.000000 -0.004609 0.000000 0.045715
#
#
# Mechanical properties :
#
#
# Convention : Reuss Voigt Hill
#
# Bulk Modulus (GPa) = 30.50433 38.62508 34.56470
# Shear Modulus (GPa) = 25.22551 31.24645 28.23598
#
# Velocity S-wave (km/s) = 3.41820 3.80433 3.61642
# Velocity P-wave (km/s) = 5.45050 6.09818 5.78341
#
# Compressibility (1/GPa) = 0.03278223
#
# Stress axis : x y z
#
# Youngs Moduli (GPa) = 53.20580 109.11065 96.41631
#
# Poissons Ratio (x) = 0.21841 -0.14601
# Poissons Ratio (y) = 0.10651 0.22053
# Poissons Ratio (z) = -0.08057 0.24957
#
# Static dielectric constant tensor:
#      x y z
#    x 3.885520 0.000000 -0.056440 
#    y 0.000000 3.836590 0.000000 
#    z -0.056440 0.000000 3.966880 
# 
# 
# High freq. dielectric constant tensor:
#      x y z
#    x 1.860830 0.000000 0.007980 
#    y 0.000000 1.827400 0.000000 
#    z 0.007980 0.000000 1.863230 
# 
# From -- ./inp_files/55005.got.cif
#   From: 2010.06.25/outbox.cif.g09.slc.cpg/sg11_28_cif.got.tgz:55005.got - 2010.06.27 23:14:04.
