data_PCOD8077383
_publ_section_title
;
Structure prediction by ZEFSAII (Michael W. Deem and Ramdas Pophale) SiO2 
 PCOD8077383
Probable space group: P 21/M
;
_chemical_formula_sum "Si O2"
_cell_formula_units_Z 28
_cell_length_a 23.660784
_cell_length_b 8.675194
_cell_length_c 21.343780
_cell_angle_alpha 90.000000
_cell_angle_beta 161.674889
_cell_angle_gamma 90.000000
_cell_volume 1377.444098
_symmetry_space_group_name_H-M "P 21/M"
_symmetry_group_IT_number 11
_symmetry_cell_setting 'monoclinic'
loop_
_space_group_symop_operation_xyz
x,y,z
-x,1/2+y,-z
-x,-y,-z
x,1/2-y,z
loop_
_atom_site_type_symbol
_atom_site_label
_atom_site_fract_x
_atom_site_fract_y
_atom_site_fract_z
Si Si1 0.805616 0.431373 0.806760
Si Si2 0.517466 0.929594 0.950137
Si Si3 0.654115 0.927977 0.529185
Si Si4 0.091997 0.571109 0.304504
Si Si5 0.249487 0.573775 0.108405
Si Si6 0.185029 0.069416 0.532294
Si Si7 0.924909 0.570566 0.357660
O O1 0.805415 0.250000 0.793404
O O2 0.667343 0.515346 0.614650
O O3 0.746041 0.471749 0.814157
O O4 0.000000 0.500000 0.000000
O O5 0.477596 0.750000 0.913788
O O6 0.375765 0.003621 0.754176
O O7 0.713874 0.963470 0.129008
O O8 0.500000 0.000000 0.000000
O O9 0.714110 0.750000 0.587882
O O10 0.449065 0.948988 0.290524
O O11 0.785563 0.031165 0.625984
O O12 0.110816 0.750000 0.341287
O O13 0.158343 0.469216 0.431928
O O14 0.884545 0.535269 0.070930
O O15 0.184673 0.750000 0.032329
O O16 0.187616 0.250000 0.545682
O O17 0.020535 0.001108 0.398384
O O18 0.967386 0.750000 0.404212
O O19 0.000000 0.500000 0.500000
#
# Coordination Sequence:
#
# PCOD8077383 Si02
#       7
#     4   4   4   4   4   4   4
#     4  11  21  36  62  95 128 167 212 264 321 374
#     4  11  23  40  66  98 131 166 208 257 313 373
#     4  11  23  41  65  93 128 168 213 264 319 381
#     4  12  26  44  66  91 125 169 214 265 318 381
#     4  10  23  42  65  92 127 169 213 263 319 380
#     4  12  26  44  67  94 129 171 213 263 318 378
#     4  11  23  40  66  98 131 166 207 257 313 373
#
# _framework density 20.327504000000001
#
# number of rings (size 3 to 8) (size 9 to 14) (size 15 to 20)
#    0.000    0.857    2.857    4.714    0.000    4.571 
#    0.000    0.000    0.000    0.000    0.000    0.000 
#    0.000    0.000    0.000    0.000    0.000    0.000 
#
# Total GULP energy -347388.441282 kJ/mol
# GULP energy per Si atom -12406.730046 kJ/mol
# Density = 2.028124 g / cm^3
# Si number density = 20.327504 Si / 1000 Ang^3
#
#
#
# Elastic Constant Matrix: (Units=GPa)
#
#
# Indices 1 2 3 4 5 6 
#
# 1 57.8722 30.1799 44.4152 0.0000 -11.7117 0.0000
# 2 30.1799 115.1320 59.3903 0.0000 8.5837 0.0000
# 3 44.4152 59.3903 135.2715 0.0000 -0.4434 0.0000
# 4 0.0000 0.0000 0.0000 36.0662 0.0000 -5.8767
# 5 -11.7117 8.5837 -0.4434 0.0000 30.9661 0.0000
# 6 0.0000 0.0000 0.0000 -5.8767 0.0000 32.9192
#
#
#
# Elastic Compliance Matrix: (Units=1/GPa)
#
#
# Indices 1 2 3 4 5 6 
#
# 1 0.027235 -0.004391 -0.006977 0.000000 0.011418 0.000000
# 2 -0.004391 0.012260 -0.003957 0.000000 -0.005116 0.000000
# 3 -0.006977 -0.003957 0.011416 0.000000 -0.001378 0.000000
# 4 0.000000 0.000000 0.000000 0.028557 0.000000 0.005098
# 5 0.011418 -0.005116 -0.001378 0.000000 0.038010 0.000000
# 6 0.000000 0.000000 0.000000 0.005098 0.000000 0.031288
#
#
# Mechanical properties :
#
#
# Convention : Reuss Voigt Hill
#
# Bulk Modulus (GPa) = 49.36001 64.02738 56.69369
# Shear Modulus (GPa) = 26.85715 31.60965 29.23340
#
# Velocity S-wave (km/s) = 3.63881 3.94765 3.79637
# Velocity P-wave (km/s) = 6.47994 7.23498 6.86784
#
# Compressibility (1/GPa) = 0.02025931
#
# Stress axis : x y z
#
# Youngs Moduli (GPa) = 36.71789 81.56840 87.59421
#
# Poissons Ratio (x) = 0.35820 0.61113
# Poissons Ratio (y) = 0.16124 0.34665
# Poissons Ratio (z) = 0.25617 0.32280
#
# Static dielectric constant tensor:
#      x y z
#    x 3.554630 0.000000 -0.285890 
#    y 0.000000 3.838890 0.000000 
#    z -0.285890 0.000000 3.046600 
# 
# 
# High freq. dielectric constant tensor:
#      x y z
#    x 1.792690 0.000000 0.005930 
#    y 0.000000 1.807330 0.000000 
#    z 0.005930 0.000000 1.808480 
# 
# From -- ./inp_files/66752.got.cif
#   From: 2010.06.25/outbox.cif.g09.slc.cpg/sg11_34_cif.got.tgz:66752.got - 2010.06.27 23:14:04.
