data_PCOD8077681
_publ_section_title
;
Structure prediction by ZEFSAII (Michael W. Deem and Ramdas Pophale) SiO2 
 PCOD8077681
Probable space group: P 21/M
;
_chemical_formula_sum "Si O2"
_cell_formula_units_Z 24
_cell_length_a 12.139434
_cell_length_b 9.352656
_cell_length_c 21.141414
_cell_angle_alpha 90.000000
_cell_angle_beta 141.913015
_cell_angle_gamma 90.000000
_cell_volume 1480.648599
_symmetry_space_group_name_H-M "P 21/M"
_symmetry_group_IT_number 11
_symmetry_cell_setting 'monoclinic'
loop_
_space_group_symop_operation_xyz
x,y,z
-x,1/2+y,-z
-x,-y,-z
x,1/2-y,z
loop_
_atom_site_type_symbol
_atom_site_label
_atom_site_fract_x
_atom_site_fract_y
_atom_site_fract_z
Si Si1 0.892670 0.413468 0.645123
Si Si2 0.664287 0.414422 0.000520
Si Si3 0.017245 0.582683 0.942904
Si Si4 0.788272 0.088908 0.742727
Si Si5 0.726498 0.584266 0.152643
Si Si6 0.424738 0.085307 0.524959
O O1 0.850814 0.250000 0.608100
O O2 0.856556 0.440747 0.702870
O O3 0.766852 0.514017 0.544436
O O4 0.100810 0.453408 0.726231
O O5 0.680624 0.250000 0.027877
O O6 0.740841 0.503096 0.093132
O O7 0.782361 0.446370 0.992129
O O8 0.456513 0.454941 0.892909
O O9 0.981884 0.750000 0.937586
O O10 0.871784 0.525387 0.827753
O O11 0.000000 0.500000 0.000000
O O12 0.841522 0.250000 0.787665
O O13 0.571462 0.072441 0.647190
O O14 0.733229 0.750000 0.137524
O O15 0.394892 0.250000 0.492712
O O16 0.500000 0.000000 0.500000
#
# Coordination Sequence:
#
# PCOD8077681 Si02
#       6
#     4   4   4   4   4   4
#     4   9  16  26  43  67  93 122 147 175 222 274
#     4   9  18  30  44  66  90 117 154 188 223 269
#     4  11  22  33  47  66  89 121 158 193 226 264
#     4   9  17  30  44  62  89 120 151 184 225 265
#     4   9  16  28  46  66  93 122 146 180 227 273
#     4   9  17  27  41  62  90 121 149 181 221 268
#
# _framework density 16.209112000000001
#
# number of rings (size 3 to 8) (size 9 to 14) (size 15 to 20)
#    0.000    2.667    1.667    2.000    0.000    4.667 
#    0.000    0.000    0.000    0.000    0.000    1.167 
#    0.000    0.000    0.000    0.000    0.000    0.000 
#
# Total GULP energy -297426.799446 kJ/mol
# GULP energy per Si atom -12392.783310 kJ/mol
# Density = 1.617222 g / cm^3
# Si number density = 16.209112 Si / 1000 Ang^3
#
#
#
# Elastic Constant Matrix: (Units=GPa)
#
#
# Indices 1 2 3 4 5 6 
#
# 1 63.7833 39.6175 39.7224 0.0000 15.7381 0.0000
# 2 39.6175 88.4852 51.2045 0.0000 13.3496 0.0000
# 3 39.7224 51.2045 89.9960 0.0000 29.4022 0.0000
# 4 0.0000 0.0000 0.0000 32.3848 0.0000 2.4454
# 5 15.7381 13.3496 29.4022 0.0000 25.3837 0.0000
# 6 0.0000 0.0000 0.0000 2.4454 0.0000 17.6497
#
#
#
# Elastic Compliance Matrix: (Units=1/GPa)
#
#
# Indices 1 2 3 4 5 6 
#
# 1 0.024704 -0.007420 -0.004751 0.000000 -0.005911 0.000000
# 2 -0.007420 0.019285 -0.009471 0.000000 0.005429 0.000000
# 3 -0.004751 -0.009471 0.025754 0.000000 -0.021904 0.000000
# 4 0.000000 0.000000 0.000000 0.031205 0.000000 -0.004324
# 5 -0.005911 0.005429 -0.021904 0.000000 0.065577 0.000000
# 6 0.000000 0.000000 0.000000 -0.004324 0.000000 0.057257
#
#
# Mechanical properties :
#
#
# Convention : Reuss Voigt Hill
#
# Bulk Modulus (GPa) = 37.79447 55.92816 46.86131
# Shear Modulus (GPa) = 18.12346 22.53163 20.32755
#
# Velocity S-wave (km/s) = 3.34743 3.73240 3.54514
# Velocity P-wave (km/s) = 6.18933 7.29064 6.76244
#
# Compressibility (1/GPa) = 0.02645890
#
# Stress axis : x y z
#
# Youngs Moduli (GPa) = 40.47928 51.85351 38.82959
#
# Poissons Ratio (x) = 0.38473 0.18448
# Poissons Ratio (y) = 0.30034 0.36776
# Poissons Ratio (z) = 0.19232 0.49112
#
# Static dielectric constant tensor:
#      x y z
#    x 2.959640 0.000000 0.603120 
#    y 0.000000 3.232960 0.000000 
#    z 0.603120 0.000000 3.530200 
# 
# 
# High freq. dielectric constant tensor:
#      x y z
#    x 1.577900 0.000000 0.042600 
#    y 0.000000 1.633830 0.000000 
#    z 0.042600 0.000000 1.619110 
# 
# From -- ./inp_files/36993.got.cif
#   From: 2010.06.25/outbox.cif.g09.slc.cpg/sg11_19_cif.got.tgz:36993.got - 2010.06.27 23:14:04.
