data_PCOD8077509
_publ_section_title
;
Structure prediction by ZEFSAII (Michael W. Deem and Ramdas Pophale) SiO2 
 PCOD8077509
Probable space group: P 21/M
;
_chemical_formula_sum "Si O2"
_cell_formula_units_Z 20
_cell_length_a 7.151892
_cell_length_b 14.031079
_cell_length_c 11.056794
_cell_angle_alpha 90.000000
_cell_angle_beta 119.756521
_cell_angle_gamma 90.000000
_cell_volume 963.234812
_symmetry_space_group_name_H-M "P 21/M"
_symmetry_group_IT_number 11
_symmetry_cell_setting 'monoclinic'
loop_
_space_group_symop_operation_xyz
x,y,z
-x,1/2+y,-z
-x,-y,-z
x,1/2-y,z
loop_
_atom_site_type_symbol
_atom_site_label
_atom_site_fract_x
_atom_site_fract_y
_atom_site_fract_z
Si Si1 0.029276 0.250000 0.038017
Si Si2 0.420857 0.071442 0.800885
Si Si3 0.250145 0.615230 0.677004
Si Si4 0.590204 0.250000 0.470584
Si Si5 0.922034 0.750000 0.672248
Si Si6 0.645609 0.602641 0.952248
Si Si7 0.389299 0.750000 0.253316
O O1 0.802766 0.250000 0.901231
O O2 0.154047 0.153749 0.044716
O O3 0.983173 0.250000 0.163928
O O4 0.324061 0.113586 0.893992
O O5 0.468513 0.155765 0.723309
O O6 0.634785 0.009166 0.906840
O O7 0.248709 0.000714 0.678416
O O8 0.332544 0.655116 0.574302
O O9 0.014895 0.656556 0.633153
O O10 0.422927 0.651268 0.834193
O O11 0.697428 0.250000 0.637567
O O12 0.334122 0.250000 0.409542
#
# Coordination Sequence:
#
# PCOD8077509 Si02
#       7
#     2   4   4   2   2   4   2
#     4  12  21  35  65 100 119 160 202 263 299 374
#     4   9  20  40  61  88 126 162 195 268 309 353
#     4   9  19  40  64  88 119 158 210 255 292 365
#     4  11  23  42  59  92 130 161 207 254 293 389
#     4  11  18  37  70  90 105 168 218 244 307 357
#     4   9  18  38  63  94 121 148 206 269 296 350
#     4  12  26  38  56  90 136 163 195 253 329 346
#
# _framework density 20.763369999999998
#
# number of rings (size 3 to 8) (size 9 to 14) (size 15 to 20)
#    1.200    0.800    2.000    2.400    0.000    1.600 
#   10.800    1.000    0.000    0.000    0.000    0.000 
#    0.000    0.000    0.000    0.000    0.000    0.000 
#
# Total GULP energy -247830.739386 kJ/mol
# GULP energy per Si atom -12391.536969 kJ/mol
# Density = 2.071611 g / cm^3
# Si number density = 20.763370 Si / 1000 Ang^3
#
#
#
# Elastic Constant Matrix: (Units=GPa)
#
#
# Indices 1 2 3 4 5 6 
#
# 1 101.6434 37.0550 12.7257 0.0000 -17.4800 0.0000
# 2 37.0550 106.2906 13.0024 0.0000 -21.4972 0.0000
# 3 12.7257 13.0024 56.5634 0.0000 -26.0006 0.0000
# 4 0.0000 0.0000 0.0000 -11.3372 0.0000 -3.8863
# 5 -17.4800 -21.4972 -26.0006 0.0000 35.7397 0.0000
# 6 0.0000 0.0000 0.0000 -3.8863 0.0000 14.7864
#
#
#
# Elastic Compliance Matrix: (Units=1/GPa)
#
#
# Indices 1 2 3 4 5 6 
#
# 1 0.011691 -0.003330 -0.000236 0.000000 0.003543 0.000000
# 2 -0.003330 0.011681 0.000819 0.000000 0.005993 0.000000
# 3 -0.000236 0.000819 0.026619 0.000000 0.019743 0.000000
# 4 0.000000 0.000000 0.000000 -0.080915 0.000000 -0.021267
# 5 0.003543 0.005993 0.019743 0.000000 0.047681 0.000000
# 6 0.000000 0.000000 0.000000 -0.021267 0.000000 0.062040
#
#
# Mechanical properties :
#
#
# Convention : Reuss Voigt Hill
#
# Bulk Modulus (GPa) = 22.47355 43.34042 32.90698
# Shear Modulus (GPa) = 50.44153 21.28539 35.86346
#
# Velocity S-wave (km/s) = 4.93419 3.20526 4.16052
# Velocity P-wave (km/s) = 6.58094 5.88362 6.24203
#
# Compressibility (1/GPa) = 0.04449675
#
# Stress axis : x y z
#
# Youngs Moduli (GPa) = 85.53352 85.60837 37.56677
#
# Poissons Ratio (x) = 0.28510 0.00887
# Poissons Ratio (y) = 0.28486 -0.03076
# Poissons Ratio (z) = 0.02019 -0.07011
#
# Static dielectric constant tensor:
#      x y z
#    x 3.457490 0.000000 -0.197980 
#    y 0.000000 3.769970 0.000000 
#    z -0.197980 0.000000 3.541130 
# 
# 
# High freq. dielectric constant tensor:
#      x y z
#    x 1.794110 0.000000 -0.018150 
#    y 0.000000 1.812900 0.000000 
#    z -0.018150 0.000000 1.798120 
# 
# From -- ./inp_files/10119.got.cif
#   From: 2010.06.25/outbox.cif.g09.slc.cpg/sg11_6_cif.got.tgz:10119.got - 2010.06.27 23:14:04.
