data_PCOD8077310
_publ_section_title
;
Structure prediction by ZEFSAII (Michael W. Deem and Ramdas Pophale) SiO2 
 PCOD8077310
Probable space group: P 21/M
;
_chemical_formula_sum "Si O2"
_cell_formula_units_Z 32
_cell_length_a 9.070086
_cell_length_b 21.322173
_cell_length_c 14.700586
_cell_angle_alpha 90.000000
_cell_angle_beta 150.353188
_cell_angle_gamma 90.000000
_cell_volume 1406.298040
_symmetry_space_group_name_H-M "P 21/M"
_symmetry_group_IT_number 11
_symmetry_cell_setting 'monoclinic'
loop_
_space_group_symop_operation_xyz
x,y,z
-x,1/2+y,-z
-x,-y,-z
x,1/2-y,z
loop_
_atom_site_type_symbol
_atom_site_label
_atom_site_fract_x
_atom_site_fract_y
_atom_site_fract_z
Si Si1 0.387521 0.400700 0.835028
Si Si2 0.258793 0.182024 0.377147
Si Si3 0.958949 0.101164 0.881028
Si Si4 0.919146 0.325287 0.688827
Si Si5 0.585385 0.981187 0.444989
Si Si6 0.513066 0.471286 0.213358
Si Si7 0.153079 0.911781 0.754282
Si Si8 0.836917 0.181176 0.980556
O O1 0.072372 0.369041 0.694113
O O2 0.358435 0.464170 0.760478
O O3 0.594703 0.414961 0.033510
O O4 0.527261 0.348529 0.845128
O O5 0.324298 0.250000 0.455256
O O6 0.572258 0.154487 0.509337
O O7 0.081634 0.144915 0.360490
O O8 0.051475 0.186696 0.180075
O O9 0.063482 0.150903 0.860603
O O10 0.615430 0.079807 0.686209
O O11 0.002072 0.137806 0.997404
O O12 0.168826 0.039367 0.998833
O O13 0.970184 0.250000 0.701279
O O14 0.539480 0.030415 0.337215
O O15 0.939645 0.972297 0.644387
O O16 0.500000 0.000000 0.500000
O O17 0.697713 0.413489 0.266319
O O18 0.771438 0.250000 0.904357
#
# Coordination Sequence:
#
# PCOD8077310 Si02
#       8
#     4   4   4   4   4   4   4   4
#     4  11  23  43  69 101 140 175 223 272 347 406
#     4   9  21  42  70 100 134 177 226 276 337 405
#     4  12  24  44  68  99 135 179 229 280 338 407
#     4  11  23  43  71 102 136 175 225 279 333 406
#     4  12  27  43  68  97 131 181 231 279 343 400
#     4  12  26  44  63 102 140 176 229 280 339 413
#     4  11  23  42  65  99 137 178 214 278 337 402
#     4  10  22  43  69  97 132 178 227 278 336 402
#
# _framework density 22.754778999999999
#
# number of rings (size 3 to 8) (size 9 to 14) (size 15 to 20)
#    0.000    1.000    3.750    2.625    5.250    0.500 
#    2.250    0.000    0.000    0.000    0.000    0.000 
#    0.000    0.000    0.000    0.000    0.000    0.000 
#
# Total GULP energy -396448.050126 kJ/mol
# GULP energy per Si atom -12389.001566 kJ/mol
# Density = 2.270299 g / cm^3
# Si number density = 22.754779 Si / 1000 Ang^3
#
#
#
# Elastic Constant Matrix: (Units=GPa)
#
#
# Indices 1 2 3 4 5 6 
#
# 1 153.4169 56.2988 35.9697 0.0000 4.8426 0.0000
# 2 56.2988 96.2887 28.9508 0.0000 4.1372 0.0000
# 3 35.9697 28.9508 58.2316 0.0000 17.1642 0.0000
# 4 0.0000 0.0000 0.0000 31.0280 0.0000 4.9634
# 5 4.8426 4.1372 17.1642 0.0000 33.3455 0.0000
# 6 0.0000 0.0000 0.0000 4.9634 0.0000 44.9073
#
#
#
# Elastic Compliance Matrix: (Units=1/GPa)
#
#
# Indices 1 2 3 4 5 6 
#
# 1 0.008874 -0.004100 -0.003788 0.000000 0.001170 0.000000
# 2 -0.004100 0.014208 -0.004936 0.000000 0.001373 0.000000
# 3 -0.003788 -0.004936 0.025492 0.000000 -0.011959 0.000000
# 4 0.000000 0.000000 0.000000 0.032809 0.000000 -0.003626
# 5 0.001170 0.001373 -0.011959 0.000000 0.035804 0.000000
# 6 0.000000 0.000000 0.000000 -0.003626 0.000000 0.022669
#
#
# Mechanical properties :
#
#
# Convention : Reuss Voigt Hill
#
# Bulk Modulus (GPa) = 43.61896 61.15286 52.38591
# Shear Modulus (GPa) = 28.87763 34.30403 31.59083
#
# Velocity S-wave (km/s) = 3.56628 3.88693 3.73005
# Velocity P-wave (km/s) = 6.01403 6.86130 6.45159
#
# Compressibility (1/GPa) = 0.02292581
#
# Stress axis : x y z
#
# Youngs Moduli (GPa) = 112.69072 70.38498 39.22875
#
# Poissons Ratio (x) = 0.28856 0.14859
# Poissons Ratio (y) = 0.46201 0.19363
# Poissons Ratio (z) = 0.42686 0.34741
#
# Static dielectric constant tensor:
#      x y z
#    x 4.301420 0.000000 0.166810 
#    y 0.000000 4.547090 0.000000 
#    z 0.166810 0.000000 4.126070 
# 
# 
# High freq. dielectric constant tensor:
#      x y z
#    x 1.909420 0.000000 0.012150 
#    y 0.000000 1.889880 0.000000 
#    z 0.012150 0.000000 1.894980 
# 
# From -- ./inp_files/48470.got.cif
#   From: 2010.06.25/outbox.cif.g09.slc.cpg/sg11_25_cif.got.tgz:48470.got - 2010.06.27 23:14:04.
