data_PCOD8077129
_publ_section_title
;
Structure prediction by ZEFSAII (Michael W. Deem and Ramdas Pophale) SiO2 
 PCOD8077129
Probable space group: P 21/M
;
_chemical_formula_sum "Si O2"
_cell_formula_units_Z 32
_cell_length_a 23.491918
_cell_length_b 8.702574
_cell_length_c 13.802838
_cell_angle_alpha 90.000000
_cell_angle_beta 33.612768
_cell_angle_gamma 90.000000
_cell_volume 1562.114072
_symmetry_space_group_name_H-M "P 21/M"
_symmetry_group_IT_number 11
_symmetry_cell_setting 'monoclinic'
loop_
_space_group_symop_operation_xyz
x,y,z
-x,1/2+y,-z
-x,-y,-z
x,1/2-y,z
loop_
_atom_site_type_symbol
_atom_site_label
_atom_site_fract_x
_atom_site_fract_y
_atom_site_fract_z
Si Si1 0.938286 0.071777 0.443279
Si Si2 0.452611 0.926607 0.360600
Si Si3 0.112341 0.569523 0.836681
Si Si4 0.865047 0.428087 0.759259
Si Si5 0.200464 0.430577 0.519388
Si Si6 0.417447 0.928518 0.188317
Si Si7 0.724439 0.571418 0.269906
Si Si8 0.325144 0.429306 0.877497
O O1 0.929577 0.250000 0.427533
O O2 0.880379 0.032082 0.624951
O O3 0.889035 0.970719 0.428917
O O4 0.057905 0.027116 0.283424
O O5 0.424312 0.750000 0.423939
O O6 0.458847 0.955416 0.237582
O O7 0.560134 0.974058 0.255472
O O8 0.366845 0.035769 0.526696
O O9 0.101936 0.750000 0.844652
O O10 0.177876 0.510400 0.653269
O O11 0.173157 0.522446 0.847578
O O12 0.000000 0.500000 0.000000
O O13 0.886790 0.250000 0.748216
O O14 0.749441 0.472518 0.948999
O O15 0.204027 0.250000 0.531025
O O16 0.308821 0.488958 0.324755
O O17 0.402794 0.750000 0.185275
O O18 0.500000 0.000000 0.000000
O O19 0.751073 0.750000 0.237924
O O20 0.690737 0.521258 0.210758
O O21 0.303443 0.250000 0.925284
#
# Coordination Sequence:
#
# PCOD8077129 Si02
#       8
#     4   4   4   4   4   4   4   4
#     4  10  22  41  64  90 126 167 208 258 315 375
#     4  10  22  42  65  90 124 167 209 258 318 377
#     4  12  26  45  68  95 130 170 215 267 321 387
#     4  10  22  40  62  93 125 163 211 259 311 373
#     4  12  25  43  68  98 130 169 215 266 324 388
#     4  11  24  42  65  96 132 171 216 265 321 383
#     4  11  23  41  65  93 126 165 209 260 318 379
#     4  10  23  40  62  92 126 163 208 260 315 374
#
# _framework density 20.485059
#
# number of rings (size 3 to 8) (size 9 to 14) (size 15 to 20)
#    0.000    1.250    1.250    4.125    3.500    3.500 
#    0.000    0.000    0.000    0.000    0.000    0.000 
#    0.000    0.000    0.000    0.000    0.000    0.000 
#
# Total GULP energy -397059.059571 kJ/mol
# GULP energy per Si atom -12408.095612 kJ/mol
# Density = 2.043843 g / cm^3
# Si number density = 20.485059 Si / 1000 Ang^3
#
#
#
# Elastic Constant Matrix: (Units=GPa)
#
#
# Indices 1 2 3 4 5 6 
#
# 1 97.5886 32.9629 12.6045 0.0000 -16.9574 0.0000
# 2 32.9629 108.5600 26.7792 0.0000 -4.7855 0.0000
# 3 12.6045 26.7792 84.8311 0.0000 -12.2833 0.0000
# 4 0.0000 0.0000 0.0000 40.3768 0.0000 -3.3021
# 5 -16.9574 -4.7855 -12.2833 0.0000 30.1473 0.0000
# 6 0.0000 0.0000 0.0000 -3.3021 0.0000 34.2836
#
#
#
# Elastic Compliance Matrix: (Units=1/GPa)
#
#
# Indices 1 2 3 4 5 6 
#
# 1 0.012574 -0.003581 0.000217 0.000000 0.006593 0.000000
# 2 -0.003581 0.011012 -0.003170 0.000000 -0.001558 0.000000
# 3 0.000217 -0.003170 0.013498 0.000000 0.005118 0.000000
# 4 0.000000 0.000000 0.000000 0.024963 0.000000 0.002404
# 5 0.006593 -0.001558 0.005118 0.000000 0.038717 0.000000
# 6 0.000000 0.000000 0.000000 0.002404 0.000000 0.029400
#
#
# Mechanical properties :
#
#
# Convention : Reuss Voigt Hill
#
# Bulk Modulus (GPa) = 41.63878 48.40809 45.02344
# Shear Modulus (GPa) = 33.06065 35.53707 34.29886
#
# Velocity S-wave (km/s) = 4.02168 4.16959 4.09630
# Velocity P-wave (km/s) = 6.47579 6.84564 6.66328
#
# Compressibility (1/GPa) = 0.02401607
#
# Stress axis : x y z
#
# Youngs Moduli (GPa) = 79.52796 90.81005 74.08703
#
# Poissons Ratio (x) = 0.32517 -0.01605
# Poissons Ratio (y) = 0.28478 0.23483
# Poissons Ratio (z) = -0.01723 0.28784
#
# Static dielectric constant tensor:
#      x y z
#    x 3.948880 0.000000 -0.072940 
#    y 0.000000 3.744860 0.000000 
#    z -0.072940 0.000000 3.721570 
# 
# 
# High freq. dielectric constant tensor:
#      x y z
#    x 1.813650 0.000000 -0.005260 
#    y 0.000000 1.807910 0.000000 
#    z -0.005260 0.000000 1.806550 
# 
# From -- ./inp_files/55509.got.cif
#   From: 2010.06.25/outbox.cif.g09.slc.cpg/sg11_28_cif.got.tgz:55509.got - 2010.06.27 23:14:04.
