data_PCOD8077288
_publ_section_title
;
Structure prediction by ZEFSAII (Michael W. Deem and Ramdas Pophale) SiO2 
 PCOD8077288
Probable space group: P 21/M
;
_chemical_formula_sum "Si O2"
_cell_formula_units_Z 28
_cell_length_a 11.450893
_cell_length_b 20.802970
_cell_length_c 5.560004
_cell_angle_alpha 90.000000
_cell_angle_beta 66.953748
_cell_angle_gamma 90.000000
_cell_volume 1218.756388
_symmetry_space_group_name_H-M "P 21/M"
_symmetry_group_IT_number 11
_symmetry_cell_setting 'monoclinic'
loop_
_space_group_symop_operation_xyz
x,y,z
-x,1/2+y,-z
-x,-y,-z
x,1/2-y,z
loop_
_atom_site_type_symbol
_atom_site_label
_atom_site_fract_x
_atom_site_fract_y
_atom_site_fract_z
Si Si1 0.317065 0.323089 0.996643
Si Si2 0.240257 0.597776 0.856001
Si Si3 0.977395 0.069162 0.632095
Si Si4 0.848826 0.323365 0.454643
Si Si5 0.410030 0.629513 0.107351
Si Si6 0.760152 0.885249 0.455843
Si Si7 0.386614 0.990678 0.412367
O O1 0.286051 0.250000 0.961308
O O2 0.465944 0.329970 0.935397
O O3 0.280664 0.359619 0.776157
O O4 0.241938 0.339420 0.305788
O O5 0.152708 0.561125 0.116619
O O6 0.374209 0.624200 0.854394
O O7 0.163617 0.659801 0.818154
O O8 0.267739 0.546572 0.626870
O O9 0.956242 0.128508 0.466700
O O10 0.098244 0.087724 0.696985
O O11 0.000000 0.000000 0.500000
O O12 0.892725 0.250000 0.456770
O O13 0.708985 0.335121 0.674617
O O14 0.432383 0.554509 0.158231
O O15 0.663519 0.940168 0.627841
O O16 0.500000 0.000000 0.500000
#
# Coordination Sequence:
#
# PCOD8077288 Si02
#       7
#     4   4   4   4   4   4   4
#     4  12  28  48  69 101 145 195 240 286 353 434
#     4  10  23  41  69 102 136 179 238 296 365 424
#     4  11  26  46  71 101 138 187 241 306 359 429
#     4  10  23  42  67 101 135 180 236 296 358 425
#     4  10  22  42  69 102 138 179 230 297 357 435
#     4  12  28  46  72 104 142 191 237 297 358 431
#     4  11  22  40  69 107 141 176 229 296 372 429
#
# _framework density 22.974240999999999
#
# number of rings (size 3 to 8) (size 9 to 14) (size 15 to 20)
#    0.000    1.143    1.429    4.286    8.000    6.286 
#    0.000    0.000    0.000    0.000    0.000    0.000 
#    0.000    0.000    0.000    0.000    0.000    0.000 
#
# Total GULP energy -346957.915864 kJ/mol
# GULP energy per Si atom -12391.354138 kJ/mol
# Density = 2.292195 g / cm^3
# Si number density = 22.974241 Si / 1000 Ang^3
#
#
#
# Elastic Constant Matrix: (Units=GPa)
#
#
# Indices 1 2 3 4 5 6 
#
# 1 117.9173 29.2798 4.2838 0.0000 11.3587 0.0000
# 2 29.2798 148.9554 11.3542 0.0000 13.9682 0.0000
# 3 4.2838 11.3542 62.6509 0.0000 17.0085 0.0000
# 4 0.0000 0.0000 0.0000 30.1812 0.0000 2.5152
# 5 11.3587 13.9682 17.0085 0.0000 33.8175 0.0000
# 6 0.0000 0.0000 0.0000 2.5152 0.0000 32.9319
#
#
#
# Elastic Compliance Matrix: (Units=1/GPa)
#
#
# Indices 1 2 3 4 5 6 
#
# 1 0.009108 -0.001575 0.000367 0.000000 -0.002593 0.000000
# 2 -0.001575 0.007273 -0.000624 0.000000 -0.002161 0.000000
# 3 0.000367 -0.000624 0.018545 0.000000 -0.009193 0.000000
# 4 0.000000 0.000000 0.000000 0.033345 0.000000 -0.002547
# 5 -0.002593 -0.002161 -0.009193 0.000000 0.035958 0.000000
# 6 0.000000 0.000000 0.000000 -0.002547 0.000000 0.030560
#
#
# Mechanical properties :
#
#
# Convention : Reuss Voigt Hill
#
# Bulk Modulus (GPa) = 31.98752 46.59546 39.29149
# Shear Modulus (GPa) = 33.58528 38.35985 35.97257
#
# Velocity S-wave (km/s) = 3.82758 4.09062 3.96128
# Velocity P-wave (km/s) = 5.78682 6.52966 6.16943
#
# Compressibility (1/GPa) = 0.03126219
#
# Stress axis : x y z
#
# Youngs Moduli (GPa) = 109.79237 137.48974 53.92272
#
# Poissons Ratio (x) = 0.21657 -0.01977
# Poissons Ratio (y) = 0.17294 0.03363
# Poissons Ratio (z) = -0.04026 0.08574
#
# Static dielectric constant tensor:
#      x y z
#    x 4.324430 0.000000 0.199260 
#    y 0.000000 4.260610 0.000000 
#    z 0.199260 0.000000 4.191870 
# 
# 
# High freq. dielectric constant tensor:
#      x y z
#    x 1.924930 0.000000 0.008790 
#    y 0.000000 1.903690 0.000000 
#    z 0.008790 0.000000 1.900830 
# 
# From -- ./inp_files/5042.got.cif
#   From: 2010.06.25/outbox.cif.g09.slc.cpg/sg11_3_cif.got.tgz:5042.got - 2010.06.27 23:14:04.
