data_PCOD8077155
_publ_section_title
;
Structure prediction by ZEFSAII (Michael W. Deem and Ramdas Pophale) SiO2 
 PCOD8077155
Probable space group: P 21/M
;
_chemical_formula_sum "Si O2"
_cell_formula_units_Z 20
_cell_length_a 16.674115
_cell_length_b 9.671668
_cell_length_c 13.662864
_cell_angle_alpha 90.000000
_cell_angle_beta 21.438017
_cell_angle_gamma 90.000000
_cell_volume 805.316764
_symmetry_space_group_name_H-M "P 21/M"
_symmetry_group_IT_number 11
_symmetry_cell_setting 'monoclinic'
loop_
_space_group_symop_operation_xyz
x,y,z
-x,1/2+y,-z
-x,-y,-z
x,1/2-y,z
loop_
_atom_site_type_symbol
_atom_site_label
_atom_site_fract_x
_atom_site_fract_y
_atom_site_fract_z
Si Si1 0.176117 0.094744 0.248565
Si Si2 0.000000 0.983453 0.750000
Si Si3 0.556874 0.400217 0.298291
Si Si4 0.823883 0.094744 0.251436
Si Si5 0.443126 0.099783 0.201708
O O1 0.177205 0.250000 0.289948
O O2 0.128589 0.105341 0.185810
O O3 0.000000 0.000000 0.500000
O O4 0.410779 0.024846 0.009021
O O5 0.128588 0.894659 0.685811
O O6 0.182639 0.073623 0.484686
O O7 0.817362 0.073624 0.015312
O O8 0.502006 0.250000 0.408938
O O9 0.410780 0.524845 0.509019
O O10 0.499998 0.390474 0.250001
O O11 0.822793 0.250000 0.210054
O O12 0.000000 0.000000 0.000000
O O13 0.497994 0.250000 0.091061
#
# Coordination Sequence:
#
# PCOD8077155 Si02
#       5
#     4   4   4   4   4
#     4  11  24  41  62  90 123 159 202 250 299 356
#     4  10  22  40  66  90 120 160 200 246 302 356
#     4   9  19  37  62  91 121 156 200 247 297 356
#     4  11  24  41  62  90 123 159 202 250 299 356
#     4   9  19  37  62  91 121 156 200 247 297 356
#
# _framework density 24.834949000000002
#
# number of rings (size 3 to 8) (size 9 to 14) (size 15 to 20)
#    0.000    2.000    0.000    2.400    0.000   15.200 
#    0.000    0.000    0.000    0.000    0.000    0.000 
#    0.000    0.000    0.000    0.000    0.000    0.000 
#
# Total GULP energy -247871.319164 kJ/mol
# GULP energy per Si atom -12393.565958 kJ/mol
# Density = 2.477842 g / cm^3
# Si number density = 24.834949 Si / 1000 Ang^3
#
#
#
# Elastic Constant Matrix: (Units=GPa)
#
#
# Indices 1 2 3 4 5 6 
#
# 1 70.1553 3.5913 -2.9832 0.0000 -25.2989 0.0000
# 2 3.5913 254.8995 107.2046 0.0000 -2.4121 0.0000
# 3 -2.9832 107.2046 197.9067 0.0000 -21.4025 0.0000
# 4 0.0000 0.0000 0.0000 41.1759 0.0000 9.0169
# 5 -25.2989 -2.4121 -21.4025 0.0000 35.3370 0.0000
# 6 0.0000 0.0000 0.0000 9.0169 0.0000 0.1678
#
#
#
# Elastic Compliance Matrix: (Units=1/GPa)
#
#
# Indices 1 2 3 4 5 6 
#
# 1 0.020223 -0.001284 0.002736 0.000000 0.016048 0.000000
# 2 -0.001284 0.005229 -0.003117 0.000000 -0.002450 0.000000
# 3 0.002736 -0.003117 0.007460 0.000000 0.006264 0.000000
# 4 0.000000 0.000000 0.000000 -0.002255 0.000000 0.121201
# 5 0.016048 -0.002450 0.006264 0.000000 0.043415 0.000000
# 6 0.000000 0.000000 0.000000 0.121201 0.000000 -0.553464
#
#
# Mechanical properties :
#
#
# Convention : Reuss Voigt Hill
#
# Bulk Modulus (GPa) = 33.80384 82.06522 57.93453
# Shear Modulus (GPa) = -10.72496 43.01272 16.14388
#
# Velocity S-wave (km/s) = -2.08035 4.16618 2.55237
# Velocity P-wave (km/s) = 2.80543 7.50058 5.66256
#
# Compressibility (1/GPa) = 0.02958244
#
# Stress axis : x y z
#
# Youngs Moduli (GPa) = 49.44834 191.24761 134.05140
#
# Poissons Ratio (x) = 0.24549 -0.36671
# Poissons Ratio (y) = 0.06347 0.41780
# Poissons Ratio (z) = -0.13527 0.59606
#
# Static dielectric constant tensor:
#      x y z
#    x 4.734240 0.000000 -0.286640 
#    y 0.000000 4.610270 0.000000 
#    z -0.286640 0.000000 4.639480 
# 
# 
# High freq. dielectric constant tensor:
#      x y z
#    x 1.999480 0.000000 -0.012460 
#    y 0.000000 1.980230 0.000000 
#    z -0.012460 0.000000 1.982560 
# 
# From -- ./inp_files/53490.got.cif
#   From: 2010.06.25/outbox.cif.g09.slc.cpg/sg11_27_cif.got.tgz:53490.got - 2010.06.27 23:14:04.
