data_PCOD8077846
_publ_section_title
;
Structure prediction by ZEFSAII (Michael W. Deem and Ramdas Pophale) SiO2 
 PCOD8077846
Probable space group: P 21/M
;
_chemical_formula_sum "Si O2"
_cell_formula_units_Z 28
_cell_length_a 9.000442
_cell_length_b 24.099234
_cell_length_c 8.958261
_cell_angle_alpha 90.000000
_cell_angle_beta 36.495828
_cell_angle_gamma 90.000000
_cell_volume 1155.674806
_symmetry_space_group_name_H-M "P 21/M"
_symmetry_group_IT_number 11
_symmetry_cell_setting 'monoclinic'
loop_
_space_group_symop_operation_xyz
x,y,z
-x,1/2+y,-z
-x,-y,-z
x,1/2-y,z
loop_
_atom_site_type_symbol
_atom_site_label
_atom_site_fract_x
_atom_site_fract_y
_atom_site_fract_z
Si Si1 0.990891 0.358056 0.389712
Si Si2 0.379518 0.404961 0.282307
Si Si3 0.987434 0.910937 0.925819
Si Si4 0.360818 0.992361 0.767602
Si Si5 0.798063 0.661814 0.321389
Si Si6 0.880247 0.750000 0.862836
Si Si7 0.263602 0.812119 0.130144
Si Si8 0.524693 0.250000 0.543320
O O1 0.159996 0.403118 0.338990
O O2 0.162178 0.305574 0.201263
O O3 0.769899 0.335413 0.673503
O O4 0.881278 0.391332 0.334957
O O5 0.483729 0.467533 0.216599
O O6 0.276005 0.393972 0.532381
O O7 0.574329 0.356117 0.090505
O O8 0.908260 0.854138 0.070840
O O9 0.747737 0.949745 0.084082
O O10 0.157095 0.945122 0.901283
O O11 0.500000 0.000000 0.500000
O O12 0.545699 0.696989 0.500380
O O13 0.997817 0.694663 0.261475
O O14 0.179118 0.750000 0.665800
O O15 0.672200 0.750000 0.159323
O O16 0.383343 0.750000 0.042141
#
# Coordination Sequence:
#
# PCOD8077846 Si02
#       8
#     4   4   4   4   4   2   4   2
#     4  11  27  44  66 105 147 190 235 293 373 443
#     4  11  26  43  70 100 142 189 243 297 373 440
#     4  11  24  45  71 102 142 183 248 310 369 435
#     4  11  24  45  75 101 134 185 247 316 371 429
#     4  11  23  41  68 106 137 189 240 304 363 437
#     4  12  28  45  68 111 152 198 238 307 369 447
#     4  11  24  42  66  98 148 190 233 290 363 447
#     4  12  28  41  74 111 152 190 254 301 373 441
#
# _framework density 24.228268
#
# number of rings (size 3 to 8) (size 9 to 14) (size 15 to 20)
#    0.000    0.857    5.714    0.000    8.000    1.714 
#    0.000    1.429    0.000    0.000    0.000    0.000 
#    0.000    0.000    0.000    0.000    0.000    0.000 
#
# Total GULP energy -347069.165625 kJ/mol
# GULP energy per Si atom -12395.327344 kJ/mol
# Density = 2.417312 g / cm^3
# Si number density = 24.228268 Si / 1000 Ang^3
#
#
#
# Elastic Constant Matrix: (Units=GPa)
#
#
# Indices 1 2 3 4 5 6 
#
# 1 61.4312 6.4147 16.3815 0.0000 23.0067 0.0000
# 2 6.4147 68.6452 5.6117 0.0000 16.0433 0.0000
# 3 16.3815 5.6117 84.3630 0.0000 12.4461 0.0000
# 4 0.0000 0.0000 0.0000 35.8461 0.0000 5.3933
# 5 23.0067 16.0433 12.4461 0.0000 32.0360 0.0000
# 6 0.0000 0.0000 0.0000 5.3933 0.0000 37.8072
#
#
#
# Elastic Compliance Matrix: (Units=1/GPa)
#
#
# Indices 1 2 3 4 5 6 
#
# 1 0.022835 0.001902 -0.002122 0.000000 -0.016527 0.000000
# 2 0.001902 0.016658 -0.000048 0.000000 -0.009690 0.000000
# 3 -0.002122 -0.000048 0.012773 0.000000 -0.003414 0.000000
# 4 0.000000 0.000000 0.000000 0.028509 0.000000 -0.004067
# 5 -0.016527 -0.009690 -0.003414 0.000000 0.049263 0.000000
# 6 0.000000 0.000000 0.000000 -0.004067 0.000000 0.027030
#
#
# Mechanical properties :
#
#
# Convention : Reuss Voigt Hill
#
# Bulk Modulus (GPa) = 19.33102 30.13945 24.73523
# Shear Modulus (GPa) = 28.59625 33.53995 31.06810
#
# Velocity S-wave (km/s) = 3.43925 3.72470 3.58482
# Velocity P-wave (km/s) = 4.87517 5.56459 5.23125
#
# Compressibility (1/GPa) = 0.05173033
#
# Stress axis : x y z
#
# Youngs Moduli (GPa) = 43.79159 60.02954 78.29310
#
# Poissons Ratio (x) = -0.11419 0.16617
# Poissons Ratio (y) = -0.08330 0.00375
# Poissons Ratio (z) = 0.09294 0.00288
#
# Static dielectric constant tensor:
#      x y z
#    x 4.352680 0.000000 0.000610 
#    y 0.000000 4.507560 0.000000 
#    z 0.000610 0.000000 4.302750 
# 
# 
# High freq. dielectric constant tensor:
#      x y z
#    x 1.956850 0.000000 0.009860 
#    y 0.000000 1.963170 0.000000 
#    z 0.009860 0.000000 1.958420 
# 
# From -- ./inp_files/15279.got.cif
#   From: 2010.06.25/outbox.cif.g09.slc.cpg/sg11_8_cif.got.tgz:15279.got - 2010.06.27 23:14:04.
