data_PCOD8077593
_publ_section_title
;
Structure prediction by ZEFSAII (Michael W. Deem and Ramdas Pophale) SiO2 
 PCOD8077593
Probable space group: P 21/M
;
_chemical_formula_sum "Si O2"
_cell_formula_units_Z 28
_cell_length_a 16.357532
_cell_length_b 8.968001
_cell_length_c 18.527828
_cell_angle_alpha 90.000000
_cell_angle_beta 37.255249
_cell_angle_gamma 90.000000
_cell_volume 1645.343632
_symmetry_space_group_name_H-M "P 21/M"
_symmetry_group_IT_number 11
_symmetry_cell_setting 'monoclinic'
loop_
_space_group_symop_operation_xyz
x,y,z
-x,1/2+y,-z
-x,-y,-z
x,1/2-y,z
loop_
_atom_site_type_symbol
_atom_site_label
_atom_site_fract_x
_atom_site_fract_y
_atom_site_fract_z
Si Si1 0.995704 0.424636 0.735539
Si Si2 0.265778 0.573065 0.496808
Si Si3 0.191526 0.416146 0.409308
Si Si4 0.119417 0.915040 0.327899
Si Si5 0.798486 0.075508 0.166341
Si Si6 0.503061 0.427029 0.419803
Si Si7 0.025996 0.576624 0.088306
O O1 0.035701 0.250000 0.698639
O O2 0.128222 0.523626 0.631965
O O3 0.882378 0.466924 0.754930
O O4 0.932942 0.459399 0.858089
O O5 0.279948 0.750000 0.490802
O O6 0.270220 0.521109 0.410238
O O7 0.387497 0.495667 0.452251
O O8 0.253024 0.250000 0.369326
O O9 0.208829 0.477068 0.315302
O O10 0.034938 0.414437 0.538491
O O11 0.181501 0.750000 0.291662
O O12 0.816420 0.250000 0.163287
O O13 0.643306 0.029228 0.282617
O O14 0.854406 0.021163 0.048864
O O15 0.884690 0.001783 0.169609
O O16 0.500000 0.500000 0.500000
O O17 0.484139 0.250000 0.440119
O O18 0.000067 0.750000 0.095634
#
# Coordination Sequence:
#
# PCOD8077593 Si02
#       7
#     4   4   4   4   4   4   4
#     4   9  17  29  46  68  94 122 151 185 226 272
#     4  11  21  31  45  66  93 124 156 188 225 268
#     4   9  16  27  42  61  88 121 153 184 222 268
#     4   8  14  24  39  62  90 118 147 180 221 269
#     4   9  19  33  48  67  90 118 151 187 226 266
#     4  11  22  35  49  67  93 122 154 189 225 267
#     4   9  17  31  50  69  90 117 149 185 225 268
#
# _framework density 17.017721999999999
#
# number of rings (size 3 to 8) (size 9 to 14) (size 15 to 20)
#    0.000    2.571    0.000    3.857    0.000    7.429 
#    0.000    0.000    0.000    0.000    0.000    1.000 
#    0.000    0.000    0.000    0.000    0.000    0.000 
#
# Total GULP energy -347090.242022 kJ/mol
# GULP energy per Si atom -12396.080072 kJ/mol
# Density = 1.697899 g / cm^3
# Si number density = 17.017722 Si / 1000 Ang^3
#
#
#
# Elastic Constant Matrix: (Units=GPa)
#
#
# Indices 1 2 3 4 5 6 
#
# 1 127.9794 46.7650 53.0585 0.0000 26.3690 0.0000
# 2 46.7650 79.2504 36.6176 0.0000 4.0532 0.0000
# 3 53.0585 36.6176 61.3393 0.0000 13.1674 0.0000
# 4 0.0000 0.0000 0.0000 16.6521 0.0000 2.4220
# 5 26.3690 4.0532 13.1674 0.0000 26.5440 0.0000
# 6 0.0000 0.0000 0.0000 2.4220 0.0000 31.7391
#
#
#
# Elastic Compliance Matrix: (Units=1/GPa)
#
#
# Indices 1 2 3 4 5 6 
#
# 1 0.014874 -0.004583 -0.007955 0.000000 -0.010130 0.000000
# 2 -0.004583 0.019024 -0.008669 0.000000 0.005948 0.000000
# 3 -0.007955 -0.008669 0.029523 0.000000 -0.005418 0.000000
# 4 0.000000 0.000000 0.000000 0.060727 0.000000 -0.004634
# 5 -0.010130 0.005948 -0.005418 0.000000 0.049516 0.000000
# 6 0.000000 0.000000 0.000000 -0.004634 0.000000 0.031860
#
#
# Mechanical properties :
#
#
# Convention : Reuss Voigt Hill
#
# Bulk Modulus (GPa) = 47.60806 60.16125 53.88466
# Shear Modulus (GPa) = 19.61244 23.79557 21.70400
#
# Velocity S-wave (km/s) = 3.39849 3.74342 3.57512
# Velocity P-wave (km/s) = 6.59060 7.35616 6.98388
#
# Compressibility (1/GPa) = 0.02100484
#
# Stress axis : x y z
#
# Youngs Moduli (GPa) = 67.23252 52.56501 33.87230
#
# Poissons Ratio (x) = 0.24091 0.26947
# Poissons Ratio (y) = 0.30813 0.29365
# Poissons Ratio (z) = 0.53487 0.45571
#
# Static dielectric constant tensor:
#      x y z
#    x 3.556600 0.000000 0.367000 
#    y 0.000000 3.305880 0.000000 
#    z 0.367000 0.000000 3.117030 
# 
# 
# High freq. dielectric constant tensor:
#      x y z
#    x 1.662070 0.000000 0.027580 
#    y 0.000000 1.661740 0.000000 
#    z 0.027580 0.000000 1.613450 
# 
# From -- ./inp_files/42382.got.cif
#   From: 2010.06.25/outbox.cif.g09.slc.cpg/sg11_22_cif.got.tgz:42382.got - 2010.06.27 23:14:04.
