data_PCOD8077109
_publ_section_title
;
Structure prediction by ZEFSAII (Michael W. Deem and Ramdas Pophale) SiO2 
 PCOD8077109
Probable space group: P 21/M
;
_chemical_formula_sum "Si O2"
_cell_formula_units_Z 28
_cell_length_a 9.678709
_cell_length_b 8.818929
_cell_length_c 26.593970
_cell_angle_alpha 90.000000
_cell_angle_beta 38.453606
_cell_angle_gamma 90.000000
_cell_volume 1411.638696
_symmetry_space_group_name_H-M "P 21/M"
_symmetry_group_IT_number 11
_symmetry_cell_setting 'monoclinic'
loop_
_space_group_symop_operation_xyz
x,y,z
-x,1/2+y,-z
-x,-y,-z
x,1/2-y,z
loop_
_atom_site_type_symbol
_atom_site_label
_atom_site_fract_x
_atom_site_fract_y
_atom_site_fract_z
Si Si1 0.893042 0.927969 0.188688
Si Si2 0.520633 0.425987 0.233993
Si Si3 0.237988 0.926695 0.938817
Si Si4 0.981270 0.571612 0.636287
Si Si5 0.828968 0.425256 0.310230
Si Si6 0.686268 0.929949 0.981587
Si Si7 0.387208 0.075616 0.485025
O O1 0.932209 0.750000 0.171349
O O2 0.649951 0.974717 0.238234
O O3 0.921193 0.972726 0.238861
O O4 0.070340 0.017439 0.104646
O O5 0.540297 0.250000 0.243650
O O6 0.615906 0.454686 0.151715
O O7 0.266524 0.481987 0.305909
O O8 0.210040 0.750000 0.959097
O O9 0.363661 0.009954 0.948389
O O10 0.000000 0.000000 0.000000
O O11 0.004973 0.750000 0.626121
O O12 0.051745 0.519159 0.672439
O O13 0.145184 0.500844 0.547031
O O14 0.889022 0.250000 0.282473
O O15 0.559606 0.445779 0.389724
O O16 0.673730 0.750000 0.983798
O O17 0.500000 0.000000 0.000000
O O18 0.348507 0.250000 0.507919
O O19 0.500000 0.000000 0.500000
#
# Coordination Sequence:
#
# PCOD8077109 Si02
#       7
#     4   4   4   4   4   4   4
#     4  12  25  40  59  87 119 155 198 242 295 350
#     4  10  22  40  61  85 118 159 195 237 294 350
#     4  11  22  39  64  90 117 158 202 240 291 349
#     4   9  19  36  60  89 116 150 194 239 291 347
#     4   9  19  36  59  85 117 155 192 238 296 349
#     4  12  26  44  64  88 120 155 196 247 298 351
#     4   9  17  32  56  85 116 152 190 235 290 344
#
# _framework density 19.835103
#
# number of rings (size 3 to 8) (size 9 to 14) (size 15 to 20)
#    0.000    1.714    1.429    4.286    2.000    4.000 
#    0.000    0.714    0.000    0.000    0.000    0.000 
#    0.000    0.000    0.000    0.000    0.000    0.000 
#
# Total GULP energy -347214.258628 kJ/mol
# GULP energy per Si atom -12400.509237 kJ/mol
# Density = 1.978996 g / cm^3
# Si number density = 19.835103 Si / 1000 Ang^3
#
#
#
# Elastic Constant Matrix: (Units=GPa)
#
#
# Indices 1 2 3 4 5 6 
#
# 1 79.8868 24.5703 3.1234 0.0000 -11.9160 0.0000
# 2 24.5703 96.5093 17.4956 0.0000 -2.8243 0.0000
# 3 3.1234 17.4956 49.9804 0.0000 -17.4104 0.0000
# 4 0.0000 0.0000 0.0000 36.0336 0.0000 -0.5936
# 5 -11.9160 -2.8243 -17.4104 0.0000 35.1734 0.0000
# 6 0.0000 0.0000 0.0000 -0.5936 0.0000 34.6117
#
#
#
# Elastic Compliance Matrix: (Units=1/GPa)
#
#
# Indices 1 2 3 4 5 6 
#
# 1 0.014516 -0.003982 0.002524 0.000000 0.005847 0.000000
# 2 -0.003982 0.012201 -0.005016 0.000000 -0.002852 0.000000
# 3 0.002524 -0.005016 0.026298 0.000000 0.013469 0.000000
# 4 0.000000 0.000000 0.000000 0.027760 0.000000 0.000476
# 5 0.005847 -0.002852 0.013469 0.000000 0.036850 0.000000
# 6 0.000000 0.000000 0.000000 0.000476 0.000000 0.028900
#
#
# Mechanical properties :
#
#
# Convention : Reuss Voigt Hill
#
# Bulk Modulus (GPa) = 24.95828 35.19501 30.07664
# Shear Modulus (GPa) = 28.93043 33.24289 31.08666
#
# Velocity S-wave (km/s) = 3.82324 4.09829 3.96315
# Velocity P-wave (km/s) = 5.66566 6.33853 6.01152
#
# Compressibility (1/GPa) = 0.04006687
#
# Stress axis : x y z
#
# Youngs Moduli (GPa) = 68.88981 81.95865 38.02588
#
# Poissons Ratio (x) = 0.32636 -0.09596
# Poissons Ratio (y) = 0.27432 0.19073
# Poissons Ratio (z) = -0.17385 0.41108
#
# Static dielectric constant tensor:
#      x y z
#    x 3.546350 0.000000 -0.311430 
#    y 0.000000 3.590520 0.000000 
#    z -0.311430 0.000000 2.805190 
# 
# 
# High freq. dielectric constant tensor:
#      x y z
#    x 1.762150 0.000000 -0.007640 
#    y 0.000000 1.774890 0.000000 
#    z -0.007640 0.000000 1.780480 
# 
# From -- ./inp_files/70830.got.cif
#   From: 2010.06.25/outbox.cif.g09.slc.cpg/sg11_36_cif.got.tgz:70830.got - 2010.06.27 23:14:04.
