data_PCOD8077084
_publ_section_title
;
Structure prediction by ZEFSAII (Michael W. Deem and Ramdas Pophale) SiO2 
 PCOD8077084
Probable space group: P 21/M
;
_chemical_formula_sum "Si O2"
_cell_formula_units_Z 28
_cell_length_a 14.584400
_cell_length_b 8.535453
_cell_length_c 21.165037
_cell_angle_alpha 90.000000
_cell_angle_beta 150.417725
_cell_angle_gamma 90.000000
_cell_volume 1300.688868
_symmetry_space_group_name_H-M "P 21/M"
_symmetry_group_IT_number 11
_symmetry_cell_setting 'monoclinic'
loop_
_space_group_symop_operation_xyz
x,y,z
-x,1/2+y,-z
-x,-y,-z
x,1/2-y,z
loop_
_atom_site_type_symbol
_atom_site_label
_atom_site_fract_x
_atom_site_fract_y
_atom_site_fract_z
Si Si1 0.678156 0.569103 0.421435
Si Si2 0.703959 0.433464 0.121936
Si Si3 0.057079 0.934725 0.102692
Si Si4 0.758692 0.933268 0.026740
Si Si5 0.375162 0.930304 0.735486
Si Si6 0.557378 0.065667 0.602810
Si Si7 0.069814 0.430158 0.632954
O O1 0.632098 0.750000 0.384076
O O2 0.566139 0.474172 0.300628
O O3 0.608021 0.516326 0.448520
O O4 0.894254 0.538304 0.541303
O O5 0.711048 0.250000 0.144404
O O6 0.799522 0.542907 0.229839
O O7 0.500000 0.500000 0.000000
O O8 0.805882 0.463021 0.116230
O O9 0.071676 0.750000 0.103827
O O10 0.249918 0.998578 0.249913
O O11 0.893351 0.986481 0.051552
O O12 0.000000 0.000000 0.000000
O O13 0.784315 0.750000 0.057085
O O14 0.546185 0.973308 0.882596
O O15 0.325079 0.750000 0.710634
O O16 0.186077 0.022317 0.640124
O O17 0.575731 0.250000 0.605168
O O18 0.500000 0.000000 0.500000
O O19 0.007430 0.250000 0.589648
#
# Coordination Sequence:
#
# PCOD8077084 Si02
#       7
#     4   4   4   4   4   4   4
#     4  11  24  42  63  90 126 165 212 264 315 378
#     4  12  24  40  62  91 127 165 209 256 311 375
#     4  10  22  42  67  98 130 167 215 271 326 386
#     4  10  22  39  63  93 128 165 209 259 313 375
#     4  11  22  39  63  93 128 166 207 255 313 381
#     4  10  24  44  66  94 130 170 217 272 328 387
#     4  12  25  41  63  90 124 167 211 259 315 374
#
# _framework density 21.527054
#
# number of rings (size 3 to 8) (size 9 to 14) (size 15 to 20)
#    0.000    1.143    1.429    4.714    2.000    2.857 
#    0.000    0.000    0.000    0.000    0.000    0.000 
#    0.000    0.000    0.000    0.000    0.000    0.000 
#
# Total GULP energy -347145.808370 kJ/mol
# GULP energy per Si atom -12398.064585 kJ/mol
# Density = 2.147806 g / cm^3
# Si number density = 21.527054 Si / 1000 Ang^3
#
#
#
# Elastic Constant Matrix: (Units=GPa)
#
#
# Indices 1 2 3 4 5 6 
#
# 1 152.6002 31.0086 40.3434 0.0000 -8.5036 0.0000
# 2 31.0086 25.5461 23.5378 0.0000 9.9981 0.0000
# 3 40.3434 23.5378 96.2991 0.0000 -9.2953 0.0000
# 4 0.0000 0.0000 0.0000 28.9255 0.0000 -8.4410
# 5 -8.5036 9.9981 -9.2953 0.0000 36.7476 0.0000
# 6 0.0000 0.0000 0.0000 -8.4410 0.0000 34.5981
#
#
#
# Elastic Compliance Matrix: (Units=1/GPa)
#
#
# Indices 1 2 3 4 5 6 
#
# 1 0.009805 -0.014290 -0.000021 0.000000 0.006151 0.000000
# 2 -0.014290 0.084955 -0.017763 0.000000 -0.030914 0.000000
# 3 -0.000021 -0.017763 0.015581 0.000000 0.008769 0.000000
# 4 0.000000 0.000000 0.000000 0.037222 0.000000 0.009081
# 5 0.006151 -0.030914 0.008769 0.000000 0.039265 0.000000
# 6 0.000000 0.000000 0.000000 0.009081 0.000000 0.031119
#
#
# Mechanical properties :
#
#
# Convention : Reuss Voigt Hill
#
# Bulk Modulus (GPa) = 21.64759 51.58057 36.61408
# Shear Modulus (GPa) = 16.80717 32.02463 24.41590
#
# Velocity S-wave (km/s) = 2.79722 3.86119 3.37144
# Velocity P-wave (km/s) = 4.52884 6.62504 5.67457
#
# Compressibility (1/GPa) = 0.04619452
#
# Stress axis : x y z
#
# Youngs Moduli (GPa) = 101.98705 11.77093 64.17972
#
# Poissons Ratio (x) = 0.16820 0.00136
# Poissons Ratio (y) = 1.45737 1.13999
# Poissons Ratio (z) = 0.00217 0.20908
#
# Static dielectric constant tensor:
#      x y z
#    x 4.331130 0.000000 -0.291890 
#    y 0.000000 3.818530 0.000000 
#    z -0.291890 0.000000 4.346370 
# 
# 
# High freq. dielectric constant tensor:
#      x y z
#    x 1.862420 0.000000 -0.008270 
#    y 0.000000 1.834060 0.000000 
#    z -0.008270 0.000000 1.855930 
# 
# From -- ./inp_files/49485.got.cif
#   From: 2010.06.25/outbox.cif.g09.slc.cpg/sg11_25_cif.got.tgz:49485.got - 2010.06.27 23:14:04.
