data_PCOD8077381
_publ_section_title
;
Structure prediction by ZEFSAII (Michael W. Deem and Ramdas Pophale) SiO2 
 PCOD8077381
Probable space group: P 21/M
;
_chemical_formula_sum "Si O2"
_cell_formula_units_Z 28
_cell_length_a 9.239220
_cell_length_b 8.899529
_cell_length_c 26.776293
_cell_angle_alpha 90.000000
_cell_angle_beta 38.806920
_cell_angle_gamma 90.000000
_cell_volume 1379.783810
_symmetry_space_group_name_H-M "P 21/M"
_symmetry_group_IT_number 11
_symmetry_cell_setting 'monoclinic'
loop_
_space_group_symop_operation_xyz
x,y,z
-x,1/2+y,-z
-x,-y,-z
x,1/2-y,z
loop_
_atom_site_type_symbol
_atom_site_label
_atom_site_fract_x
_atom_site_fract_y
_atom_site_fract_z
Si Si1 0.672941 0.075423 0.800151
Si Si2 0.219303 0.582155 0.961661
Si Si3 0.689325 0.075739 0.484097
Si Si4 0.173970 0.576564 0.349204
Si Si5 0.028432 0.572324 0.774357
Si Si6 0.517658 0.075153 0.640314
Si Si7 0.258895 0.581725 0.065198
O O1 0.680429 0.250000 0.811537
O O2 0.665486 0.050051 0.742560
O O3 0.450806 0.005903 0.886222
O O4 0.902098 0.998918 0.760567
O O5 0.240109 0.750000 0.933825
O O6 0.168603 0.589544 0.033645
O O7 0.000000 0.500000 0.000000
O O8 0.680533 0.250000 0.473918
O O9 0.644018 0.043581 0.554358
O O10 0.500000 0.000000 0.500000
O O11 0.942414 0.016639 0.403622
O O12 0.103098 0.750000 0.373549
O O13 0.313464 0.522956 0.360473
O O14 0.000175 0.750000 0.779609
O O15 0.294436 0.528250 0.701929
O O16 0.921359 0.512610 0.854358
O O17 0.448202 0.250000 0.665123
O O18 0.284126 0.750000 0.080735
O O19 0.500000 0.500000 0.000000
#
# Coordination Sequence:
#
# PCOD8077381 Si02
#       7
#     4   4   4   4   4   4   4
#     4  11  23  41  64  90 122 164 209 258 312 369
#     4  11  25  42  63  91 125 163 207 258 313 373
#     4  11  23  40  66  95 126 164 205 250 304 364
#     4  10  23  42  65  92 125 162 204 253 309 366
#     4  12  25  40  62  93 125 163 209 258 312 369
#     4  10  23  43  64  91 126 164 204 253 309 367
#     4  11  23  41  65  91 122 163 210 258 310 367
#
# _framework density 20.293033000000001
#
# number of rings (size 3 to 8) (size 9 to 14) (size 15 to 20)
#    0.000    1.143    1.429    4.286    2.000    8.000 
#    0.000    0.000    0.000    0.000    0.000    0.000 
#    0.000    0.000    0.000    0.000    0.000    0.000 
#
# Total GULP energy -347331.153930 kJ/mol
# GULP energy per Si atom -12404.684069 kJ/mol
# Density = 2.024685 g / cm^3
# Si number density = 20.293033 Si / 1000 Ang^3
#
#
#
# Elastic Constant Matrix: (Units=GPa)
#
#
# Indices 1 2 3 4 5 6 
#
# 1 135.9121 53.4735 31.9922 0.0000 1.0241 0.0000
# 2 53.4735 142.8762 44.5403 0.0000 -2.9056 0.0000
# 3 31.9922 44.5403 80.5081 0.0000 3.4197 0.0000
# 4 0.0000 0.0000 0.0000 38.0430 0.0000 -6.7074
# 5 1.0241 -2.9056 3.4197 0.0000 39.1021 0.0000
# 6 0.0000 0.0000 0.0000 -6.7074 0.0000 33.5916
#
#
#
# Elastic Compliance Matrix: (Units=1/GPa)
#
#
# Indices 1 2 3 4 5 6 
#
# 1 0.008901 -0.002704 -0.002031 0.000000 -0.000256 0.000000
# 2 -0.002704 0.009321 -0.004130 0.000000 0.001125 0.000000
# 3 -0.002031 -0.004130 0.015582 0.000000 -0.001616 0.000000
# 4 0.000000 0.000000 0.000000 0.027245 0.000000 0.005440
# 5 -0.000256 0.001125 -0.001616 0.000000 0.025806 0.000000
# 6 0.000000 0.000000 0.000000 0.005440 0.000000 0.030856
#
#
# Mechanical properties :
#
#
# Convention : Reuss Voigt Hill
#
# Bulk Modulus (GPa) = 62.20702 68.81205 65.50953
# Shear Modulus (GPa) = 35.51170 37.43338 36.47254
#
# Velocity S-wave (km/s) = 4.18777 4.29959 4.24405
# Velocity P-wave (km/s) = 7.35555 7.65712 7.50785
#
# Compressibility (1/GPa) = 0.01607536
#
# Stress axis : x y z
#
# Youngs Moduli (GPa) = 112.34282 107.27967 64.17770
#
# Poissons Ratio (x) = 0.29005 0.13031
# Poissons Ratio (y) = 0.30374 0.26508
# Poissons Ratio (z) = 0.22811 0.44311
#
# Static dielectric constant tensor:
#      x y z
#    x 3.910250 0.000000 0.174330 
#    y 0.000000 3.844750 0.000000 
#    z 0.174330 0.000000 3.412070 
# 
# 
# High freq. dielectric constant tensor:
#      x y z
#    x 1.804870 0.000000 0.006750 
#    y 0.000000 1.803530 0.000000 
#    z 0.006750 0.000000 1.802120 
# 
# From -- ./inp_files/70825.got.cif
#   From: 2010.06.25/outbox.cif.g09.slc.cpg/sg11_36_cif.got.tgz:70825.got - 2010.06.27 23:14:04.
