data_PCOD8077723
_publ_section_title
;
Structure prediction by ZEFSAII (Michael W. Deem and Ramdas Pophale) SiO2 
 PCOD8077723
Probable space group: P 21/M
;
_chemical_formula_sum "Si O2"
_cell_formula_units_Z 28
_cell_length_a 9.876282
_cell_length_b 8.798492
_cell_length_c 28.289141
_cell_angle_alpha 90.000000
_cell_angle_beta 143.055677
_cell_angle_gamma 90.000000
_cell_volume 1477.487784
_symmetry_space_group_name_H-M "P 21/M"
_symmetry_group_IT_number 11
_symmetry_cell_setting 'monoclinic'
loop_
_space_group_symop_operation_xyz
x,y,z
-x,1/2+y,-z
-x,-y,-z
x,1/2-y,z
loop_
_atom_site_type_symbol
_atom_site_label
_atom_site_fract_x
_atom_site_fract_y
_atom_site_fract_z
Si Si1 0.866822 0.430193 0.507019
Si Si2 0.038843 0.071406 0.368607
Si Si3 0.786641 0.071424 0.964011
Si Si4 0.642207 0.078793 0.188267
Si Si5 0.644619 0.930643 0.625890
Si Si6 0.016025 0.923146 0.800207
Si Si7 0.731702 0.928656 0.049158
O O1 0.875128 0.250000 0.504458
O O2 0.977473 0.480601 0.587059
O O3 0.608441 0.490168 0.436581
O O4 0.000000 0.500000 0.500000
O O5 0.061768 0.250000 0.385642
O O6 0.249378 0.013695 0.394757
O O7 0.807467 0.034057 0.277042
O O8 0.810611 0.250000 0.977378
O O9 0.566533 0.036309 0.870926
O O10 0.782049 0.988388 0.012058
O O11 0.000000 0.000000 0.000000
O O12 0.552143 0.250000 0.170431
O O13 0.770476 0.067692 0.174519
O O14 0.659446 0.750000 0.629523
O O15 0.796407 0.989595 0.711952
O O16 0.974539 0.750000 0.804911
O O17 0.063584 0.025056 0.859171
O O18 0.705847 0.750000 0.041600
O O19 0.500000 0.000000 0.000000
#
# Coordination Sequence:
#
# PCOD8077723 Si02
#       7
#     4   4   4   4   4   4   4
#     4  11  22  37  56  82 117 155 191 232 282 341
#     4   9  18  36  62  88 111 144 187 235 289 344
#     4  12  25  41  60  84 117 156 197 242 291 347
#     4   9  18  35  60  86 115 148 189 237 290 346
#     4   8  17  35  60  86 112 146 190 235 283 339
#     4   9  17  34  60  87 113 146 191 243 289 338
#     4  12  23  37  59  88 119 154 195 241 291 343
#
# _framework density 18.951087000000001
#
# number of rings (size 3 to 8) (size 9 to 14) (size 15 to 20)
#    0.000    2.000    1.429    5.143    0.000    0.571 
#    2.571    4.286    0.000    0.000    0.000    0.000 
#    0.000    0.000    0.000    0.000    0.000    0.000 
#
# Total GULP energy -347168.258217 kJ/mol
# GULP energy per Si atom -12398.866365 kJ/mol
# Density = 1.890795 g / cm^3
# Si number density = 18.951087 Si / 1000 Ang^3
#
#
#
# Elastic Constant Matrix: (Units=GPa)
#
#
# Indices 1 2 3 4 5 6 
#
# 1 127.5515 45.3871 68.4139 0.0000 -9.5883 0.0000
# 2 45.3871 102.9129 47.4685 0.0000 -5.9776 0.0000
# 3 68.4139 47.4685 125.4886 0.0000 -10.6404 0.0000
# 4 0.0000 0.0000 0.0000 33.1900 0.0000 -3.3523
# 5 -9.5883 -5.9776 -10.6404 0.0000 25.3361 0.0000
# 6 0.0000 0.0000 0.0000 -3.3523 0.0000 29.6350
#
#
#
# Elastic Compliance Matrix: (Units=1/GPa)
#
#
# Indices 1 2 3 4 5 6 
#
# 1 0.011721 -0.002655 -0.005250 0.000000 0.001605 0.000000
# 2 -0.002655 0.012394 -0.003192 0.000000 0.000579 0.000000
# 3 -0.005250 -0.003192 0.012242 0.000000 0.002401 0.000000
# 4 0.000000 0.000000 0.000000 0.030478 0.000000 0.003448
# 5 0.001605 0.000579 0.002401 0.000000 0.041222 0.000000
# 6 0.000000 0.000000 0.000000 0.003448 0.000000 0.034134
#
#
# Mechanical properties :
#
#
# Convention : Reuss Voigt Hill
#
# Bulk Modulus (GPa) = 70.60118 75.38800 72.99459
# Shear Modulus (GPa) = 29.56768 30.61113 30.08940
#
# Velocity S-wave (km/s) = 3.95423 4.02340 3.98897
# Velocity P-wave (km/s) = 7.62780 7.83903 7.73413
#
# Compressibility (1/GPa) = 0.01416407
#
# Stress axis : x y z
#
# Youngs Moduli (GPa) = 85.31688 80.68738 81.68633
#
# Poissons Ratio (x) = 0.21419 0.42884
# Poissons Ratio (y) = 0.22648 0.26073
# Poissons Ratio (z) = 0.44790 0.25754
#
# Static dielectric constant tensor:
#      x y z
#    x 3.370600 0.000000 0.024650 
#    y 0.000000 3.435050 0.000000 
#    z 0.024650 0.000000 3.752730 
# 
# 
# High freq. dielectric constant tensor:
#      x y z
#    x 1.724600 0.000000 -0.005080 
#    y 0.000000 1.723420 0.000000 
#    z -0.005080 0.000000 1.751610 
# 
# From -- ./inp_files/70727.got.cif
#   From: 2010.06.25/outbox.cif.g09.slc.cpg/sg11_36_cif.got.tgz:70727.got - 2010.06.27 23:14:04.
