data_PCOD8077853
_publ_section_title
;
Structure prediction by ZEFSAII (Michael W. Deem and Ramdas Pophale) SiO2 
 PCOD8077853
Probable space group: P 21/M
;
_chemical_formula_sum "Si O2"
_cell_formula_units_Z 20
_cell_length_a 10.445121
_cell_length_b 13.569869
_cell_length_c 11.383920
_cell_angle_alpha 90.000000
_cell_angle_beta 144.759534
_cell_angle_gamma 90.000000
_cell_volume 931.030211
_symmetry_space_group_name_H-M "P 21/M"
_symmetry_group_IT_number 11
_symmetry_cell_setting 'monoclinic'
loop_
_space_group_symop_operation_xyz
x,y,z
-x,1/2+y,-z
-x,-y,-z
x,1/2-y,z
loop_
_atom_site_type_symbol
_atom_site_label
_atom_site_fract_x
_atom_site_fract_y
_atom_site_fract_z
Si Si1 0.371469 0.750000 0.882707
Si Si2 0.392270 0.446931 0.586556
Si Si3 0.146334 0.912384 0.560565
Si Si4 0.606591 0.250000 0.827620
Si Si5 0.057584 0.250000 0.009884
Si Si6 0.798098 0.553015 0.790436
Si Si7 0.103992 0.250000 0.771636
O O1 0.254942 0.847387 0.744102
O O2 0.320252 0.750000 0.982402
O O3 0.630666 0.750000 0.043134
O O4 0.345398 0.534406 0.641820
O O5 0.447745 0.343922 0.690260
O O6 0.600090 0.479851 0.667512
O O7 0.187565 0.433604 0.340758
O O8 0.994460 0.847321 0.361644
O O9 0.000000 0.000000 0.500000
O O10 0.821905 0.250000 0.903389
O O11 0.017662 0.250000 0.840755
O O12 0.216603 0.159824 0.162529
O O13 0.000000 0.500000 0.000000
#
# Coordination Sequence:
#
# PCOD8077853 Si02
#       7
#     2   4   4   2   2   4   2
#     4  11  27  49  70 100 141 185 236 288 348 416
#     4  11  25  43  68 100 139 178 232 283 351 408
#     4  11  26  45  73  99 135 186 236 289 341 416
#     4  12  26  43  69 105 140 180 228 291 354 409
#     4  12  24  41  71  99 140 178 226 283 352 417
#     4  11  23  42  66  99 137 180 221 281 346 417
#     4  11  25  47  70 100 139 183 236 280 350 418
#
# _framework density 21.481580000000001
#
# number of rings (size 3 to 8) (size 9 to 14) (size 15 to 20)
#    0.000    0.800    2.000    4.200    5.600    6.400 
#    0.000    0.000    0.000    0.000    0.000    0.000 
#    0.000    0.000    0.000    0.000    0.000    0.000 
#
# Total GULP energy -247944.991684 kJ/mol
# GULP energy per Si atom -12397.249584 kJ/mol
# Density = 2.143269 g / cm^3
# Si number density = 21.481580 Si / 1000 Ang^3
#
#
#
# Elastic Constant Matrix: (Units=GPa)
#
#
# Indices 1 2 3 4 5 6 
#
# 1 119.3413 41.9411 62.3259 0.0000 -22.8744 0.0000
# 2 41.9411 182.1160 74.9779 0.0000 -22.3065 0.0000
# 3 62.3259 74.9779 148.4974 0.0000 -29.1464 0.0000
# 4 0.0000 0.0000 0.0000 30.4995 0.0000 0.8505
# 5 -22.8744 -22.3065 -29.1464 0.0000 43.1040 0.0000
# 6 0.0000 0.0000 0.0000 0.8505 0.0000 37.4706
#
#
#
# Elastic Compliance Matrix: (Units=1/GPa)
#
#
# Indices 1 2 3 4 5 6 
#
# 1 0.011152 -0.000649 -0.003756 0.000000 0.003043 0.000000
# 2 -0.000649 0.007045 -0.003040 0.000000 0.001245 0.000000
# 3 -0.003756 -0.003040 0.010545 0.000000 0.003564 0.000000
# 4 0.000000 0.000000 0.000000 0.032808 0.000000 -0.000745
# 5 0.003043 0.001245 0.003564 0.000000 0.027869 0.000000
# 6 0.000000 0.000000 0.000000 -0.000745 0.000000 0.026704
#
#
# Mechanical properties :
#
#
# Convention : Reuss Voigt Hill
#
# Bulk Modulus (GPa) = 72.19297 89.82716 81.01007
# Shear Modulus (GPa) = 36.86496 40.26213 38.56354
#
# Velocity S-wave (km/s) = 4.14710 4.33397 4.24157
# Velocity P-wave (km/s) = 7.52404 8.18237 7.86010
#
# Compressibility (1/GPa) = 0.01385176
#
# Stress axis : x y z
#
# Youngs Moduli (GPa) = 89.66926 141.95153 94.83366
#
# Poissons Ratio (x) = 0.09219 0.35615
# Poissons Ratio (y) = 0.05824 0.28828
# Poissons Ratio (z) = 0.33676 0.43152
#
# Static dielectric constant tensor:
#      x y z
#    x 4.009320 0.000000 -0.378230 
#    y 0.000000 3.867070 0.000000 
#    z -0.378230 0.000000 3.910820 
# 
# 
# High freq. dielectric constant tensor:
#      x y z
#    x 1.840690 0.000000 -0.011560 
#    y 0.000000 1.868140 0.000000 
#    z -0.011560 0.000000 1.858900 
# 
# From -- ./inp_files/29659.got.cif
#   From: 2010.06.25/outbox.cif.g09.slc.cpg/sg11_15_cif.got.tgz:29659.got - 2010.06.27 23:14:04.
