data_PCOD8077539
_publ_section_title
;
Structure prediction by ZEFSAII (Michael W. Deem and Ramdas Pophale) SiO2 
 PCOD8077539
Probable space group: P 21/M
;
_chemical_formula_sum "Si O2"
_cell_formula_units_Z 24
_cell_length_a 23.031519
_cell_length_b 8.811467
_cell_length_c 16.551169
_cell_angle_alpha 90.000000
_cell_angle_beta 156.341505
_cell_angle_gamma 90.000000
_cell_volume 1347.881506
_symmetry_space_group_name_H-M "P 21/M"
_symmetry_group_IT_number 11
_symmetry_cell_setting 'monoclinic'
loop_
_space_group_symop_operation_xyz
x,y,z
-x,1/2+y,-z
-x,-y,-z
x,1/2-y,z
loop_
_atom_site_type_symbol
_atom_site_label
_atom_site_fract_x
_atom_site_fract_y
_atom_site_fract_z
Si Si1 0.083746 0.425625 0.863075
Si Si2 0.780953 0.918361 0.193002
Si Si3 0.091648 0.917988 0.505629
Si Si4 0.888028 0.573394 0.917882
Si Si5 0.575873 0.069935 0.518737
Si Si6 0.648094 0.071795 0.877482
O O1 0.124377 0.250000 0.895224
O O2 0.942238 0.472938 0.629499
O O3 0.046485 0.448193 0.909052
O O4 0.219603 0.528696 0.012564
O O5 0.714714 0.750000 0.110471
O O6 0.938952 0.918944 0.356268
O O7 0.793071 0.976526 0.301088
O O8 0.677227 0.024883 0.007413
O O9 0.158796 0.750000 0.591059
O O10 0.863954 0.750000 0.867205
O O11 0.739033 0.485059 0.720121
O O12 0.000000 0.500000 0.000000
O O13 0.570000 0.250000 0.518166
O O14 0.500000 0.000000 0.500000
O O15 0.494198 0.015175 0.334136
O O16 0.621648 0.250000 0.838987
#
# Coordination Sequence:
#
# PCOD8077539 Si02
#       6
#     4   4   4   4   4   4
#     4   9  18  32  50  71 101 138 176 218 263 312
#     4   9  16  26  40  64  99 134 166 209 260 310
#     4   8  14  25  41  64  94 131 170 209 256 309
#     4  11  23  39  57  79 109 144 182 225 269 317
#     4  12  23  37  56  80 107 140 180 223 270 322
#     4  11  20  30  49  75 103 137 175 216 263 315
#
# _framework density 17.805719
#
# number of rings (size 3 to 8) (size 9 to 14) (size 15 to 20)
#    0.000    2.000    1.667    5.000    0.000    4.667 
#    0.000    0.000    0.000    0.000    0.000    1.167 
#    0.000    0.000    0.000    0.000    0.000    0.000 
#
# Total GULP energy -297544.644205 kJ/mol
# GULP energy per Si atom -12397.693509 kJ/mol
# Density = 1.776519 g / cm^3
# Si number density = 17.805719 Si / 1000 Ang^3
#
#
#
# Elastic Constant Matrix: (Units=GPa)
#
#
# Indices 1 2 3 4 5 6 
#
# 1 88.0246 50.2102 65.8704 0.0000 -21.7837 0.0000
# 2 50.2102 142.5891 56.1303 0.0000 -12.5298 0.0000
# 3 65.8704 56.1303 95.0337 0.0000 -22.3045 0.0000
# 4 0.0000 0.0000 0.0000 30.8209 0.0000 -6.5073
# 5 -21.7837 -12.5298 -22.3045 0.0000 32.7822 0.0000
# 6 0.0000 0.0000 0.0000 -6.5073 0.0000 24.4458
#
#
#
# Elastic Compliance Matrix: (Units=1/GPa)
#
#
# Indices 1 2 3 4 5 6 
#
# 1 0.025178 -0.002635 -0.014524 0.000000 0.005842 0.000000
# 2 -0.002635 0.009415 -0.003928 0.000000 -0.000825 0.000000
# 3 -0.014524 -0.003928 0.024148 0.000000 0.005278 0.000000
# 4 0.000000 0.000000 0.000000 0.034378 0.000000 0.009151
# 5 0.005842 -0.000825 0.005278 0.000000 0.037662 0.000000
# 6 0.000000 0.000000 0.000000 0.009151 0.000000 0.043343
#
#
# Mechanical properties :
#
#
# Convention : Reuss Voigt Hill
#
# Bulk Modulus (GPa) = 60.36199 74.45211 67.40705
# Shear Modulus (GPa) = 22.54093 27.83886 25.18989
#
# Velocity S-wave (km/s) = 3.56186 3.95837 3.76534
# Velocity P-wave (km/s) = 7.13370 7.92439 7.53942
#
# Compressibility (1/GPa) = 0.01656672
#
# Stress axis : x y z
#
# Youngs Moduli (GPa) = 39.71760 106.21590 41.41122
#
# Poissons Ratio (x) = 0.27990 0.60145
# Poissons Ratio (y) = 0.10467 0.16265
# Poissons Ratio (z) = 0.57685 0.41719
#
# Static dielectric constant tensor:
#      x y z
#    x 3.375210 0.000000 -0.426100 
#    y 0.000000 3.470160 0.000000 
#    z -0.426100 0.000000 3.481810 
# 
# 
# High freq. dielectric constant tensor:
#      x y z
#    x 1.657990 0.000000 -0.050240 
#    y 0.000000 1.701320 0.000000 
#    z -0.050240 0.000000 1.672200 
# 
# From -- ./inp_files/61894.got.cif
#   From: 2010.06.25/outbox.cif.g09.slc.cpg/sg11_31_cif.got.tgz:61894.got - 2010.06.27 23:14:04.
