data_PCOD8077698
_publ_section_title
;
Structure prediction by ZEFSAII (Michael W. Deem and Ramdas Pophale) SiO2 
 PCOD8077698
Probable space group: P 21/M
;
_chemical_formula_sum "Si O2"
_cell_formula_units_Z 28
_cell_length_a 17.960298
_cell_length_b 9.244111
_cell_length_c 21.185023
_cell_angle_alpha 90.000000
_cell_angle_beta 25.308348
_cell_angle_gamma 90.000000
_cell_volume 1503.602943
_symmetry_space_group_name_H-M "P 21/M"
_symmetry_group_IT_number 11
_symmetry_cell_setting 'monoclinic'
loop_
_space_group_symop_operation_xyz
x,y,z
-x,1/2+y,-z
-x,-y,-z
x,1/2-y,z
loop_
_atom_site_type_symbol
_atom_site_label
_atom_site_fract_x
_atom_site_fract_y
_atom_site_fract_z
Si Si1 0.744491 0.087424 0.168998
Si Si2 0.854665 0.579113 0.787421
Si Si3 0.005249 0.909520 0.803020
Si Si4 0.621382 0.588634 0.153559
Si Si5 0.871438 0.587744 0.183033
Si Si6 0.496761 0.579062 0.119225
Si Si7 0.122736 0.922527 0.356462
O O1 0.680633 0.250000 0.230581
O O2 0.608974 0.012958 0.224469
O O3 0.742926 0.002263 0.236346
O O4 0.936050 0.086203 0.992945
O O5 0.855580 0.750000 0.770562
O O6 0.984897 0.544249 0.745567
O O7 0.924396 0.485398 0.675756
O O8 0.660162 0.522130 0.953207
O O9 0.089665 0.750000 0.742575
O O10 0.817024 0.903859 0.978759
O O11 0.128321 0.019734 0.746868
O O12 0.559081 0.750000 0.220615
O O13 0.503858 0.522435 0.186560
O O14 0.799185 0.750000 0.243387
O O15 0.515960 0.750000 0.109319
O O16 0.319675 0.530124 0.221935
O O17 0.097329 0.750000 0.377897
O O18 0.000000 0.000000 0.500000
#
# Coordination Sequence:
#
# PCOD8077698 Si02
#       7
#     4   4   4   4   4   4   4
#     4   9  15  21  30  49  79 113 147 182 221 263
#     4   9  17  32  52  72  93 120 155 195 239 284
#     4   8  14  24  39  58  82 111 143 182 227 271
#     4   8  13  24  40  57  79 110 147 184 223 269
#     4   9  15  21  31  49  77 114 151 182 215 260
#     4   8  16  31  51  71  92 121 157 195 236 282
#     4  11  22  35  50  70  96 125 156 192 235 282
#
# _framework density 18.621936999999999
#
# number of rings (size 3 to 8) (size 9 to 14) (size 15 to 20)
#    0.000    3.143    0.000    3.429    0.000    4.000 
#    0.000    4.286    0.000    0.000    0.000    0.000 
#    0.000    1.143    0.000    3.429    0.000    7.143 
#
# Total GULP energy -347051.671662 kJ/mol
# GULP energy per Si atom -12394.702559 kJ/mol
# Density = 1.857955 g / cm^3
# Si number density = 18.621937 Si / 1000 Ang^3
#
#
#
# Elastic Constant Matrix: (Units=GPa)
#
#
# Indices 1 2 3 4 5 6 
#
# 1 152.3627 78.6136 29.3153 0.0000 32.4127 0.0000
# 2 78.6136 120.6536 25.1604 0.0000 19.3564 0.0000
# 3 29.3153 25.1604 35.0734 0.0000 16.2963 0.0000
# 4 0.0000 0.0000 0.0000 14.4106 0.0000 6.4114
# 5 32.4127 19.3564 16.2963 0.0000 12.5483 0.0000
# 6 0.0000 0.0000 0.0000 6.4114 0.0000 35.6149
#
#
#
# Elastic Compliance Matrix: (Units=1/GPa)
#
#
# Indices 1 2 3 4 5 6 
#
# 1 0.020891 -0.006589 0.019203 0.000000 -0.068737 0.000000
# 2 -0.006589 0.013092 -0.006074 0.000000 0.004713 0.000000
# 3 0.019203 -0.006074 0.089546 0.000000 -0.156526 0.000000
# 4 0.000000 0.000000 0.000000 0.075435 0.000000 -0.013580
# 5 -0.068737 0.004713 -0.156526 0.000000 0.453253 0.000000
# 6 0.000000 0.000000 0.000000 -0.013580 0.000000 0.030523
#
#
# Mechanical properties :
#
#
# Convention : Reuss Voigt Hill
#
# Bulk Modulus (GPa) = 7.32016 63.80759 35.56387
# Shear Modulus (GPa) = 6.99110 24.18146 15.58628
#
# Velocity S-wave (km/s) = 1.93969 3.60745 2.89621
# Velocity P-wave (km/s) = 2.99265 7.18962 5.50666
#
# Compressibility (1/GPa) = 0.13660912
#
# Stress axis : x y z
#
# Youngs Moduli (GPa) = 47.86803 76.38370 11.16747
#
# Poissons Ratio (x) = 0.50327 -0.21445
# Poissons Ratio (y) = 0.31539 0.06783
# Poissons Ratio (z) = -0.91922 0.46397
#
# Static dielectric constant tensor:
#      x y z
#    x 3.769480 0.000000 0.044290 
#    y 0.000000 3.430650 0.000000 
#    z 0.044290 0.000000 2.811230 
# 
# 
# High freq. dielectric constant tensor:
#      x y z
#    x 1.741720 0.000000 0.012640 
#    y 0.000000 1.712340 0.000000 
#    z 0.012640 0.000000 1.650420 
# 
# From -- ./inp_files/61305.got.cif
#   From: 2010.06.25/outbox.cif.g09.slc.cpg/sg11_31_cif.got.tgz:61305.got - 2010.06.27 23:14:04.
