data_PCOD8077421
_publ_section_title
;
Structure prediction by ZEFSAII (Michael W. Deem and Ramdas Pophale) SiO2 
 PCOD8077421
Probable space group: P 21/M
;
_chemical_formula_sum "Si O2"
_cell_formula_units_Z 24
_cell_length_a 14.665825
_cell_length_b 8.345749
_cell_length_c 9.455182
_cell_angle_alpha 90.000000
_cell_angle_beta 81.393867
_cell_angle_gamma 90.000000
_cell_volume 1144.258050
_symmetry_space_group_name_H-M "P 21/M"
_symmetry_group_IT_number 11
_symmetry_cell_setting 'monoclinic'
loop_
_space_group_symop_operation_xyz
x,y,z
-x,1/2+y,-z
-x,-y,-z
x,1/2-y,z
loop_
_atom_site_type_symbol
_atom_site_label
_atom_site_fract_x
_atom_site_fract_y
_atom_site_fract_z
Si Si1 0.236307 0.566390 0.030179
Si Si2 0.536771 0.937779 0.637021
Si Si3 0.738352 0.060602 0.652402
Si Si4 0.573441 0.934458 0.089508
Si Si5 0.087188 0.562607 0.565389
Si Si6 0.920358 0.566019 0.117184
O O1 0.204631 0.750000 0.020022
O O2 0.338089 0.545999 0.946417
O O3 0.173295 0.454425 0.947982
O O4 0.231103 0.514201 0.195481
O O5 0.518088 0.750000 0.664140
O O6 0.500000 0.000000 0.500000
O O7 0.644863 0.970085 0.634075
O O8 0.472253 0.045994 0.749149
O O9 0.720831 0.250000 0.644401
O O10 0.818130 0.997922 0.527665
O O11 0.598999 0.750000 0.053005
O O12 0.500000 0.000000 0.000000
O O13 0.086843 0.750000 0.547663
O O14 0.082970 0.520921 0.731306
O O15 0.000000 0.500000 0.500000
O O16 0.938962 0.750000 0.146056
O O17 0.000000 0.500000 0.000000
#
# Coordination Sequence:
#
# PCOD8077421 Si02
#       6
#     4   4   4   4   4   4
#     4  11  23  42  69  99 133 173 220 273 329 390
#     4  12  26  43  66  94 132 176 223 276 329 391
#     4  10  23  43  67  95 131 172 218 269 329 394
#     4  12  24  42  66  97 133 175 225 273 326 388
#     4  11  24  44  70 100 135 173 217 268 330 395
#     4  12  26  45  69  99 134 173 222 274 328 390
#
# _framework density 20.974288999999999
#
# number of rings (size 3 to 8) (size 9 to 14) (size 15 to 20)
#    0.000    0.667    1.667    6.500    2.333    3.333 
#    0.000    0.000    0.000    0.000    0.000    0.000 
#    0.000    0.000    0.000    0.000    0.000    0.000 
#
# Total GULP energy -297660.672128 kJ/mol
# GULP energy per Si atom -12402.528005 kJ/mol
# Density = 2.092655 g / cm^3
# Si number density = 20.974289 Si / 1000 Ang^3
#
#
#
# Elastic Constant Matrix: (Units=GPa)
#
#
# Indices 1 2 3 4 5 6 
#
# 1 113.0353 11.4966 57.6704 0.0000 -6.6704 0.0000
# 2 11.4966 71.5530 10.8286 0.0000 0.9245 0.0000
# 3 57.6704 10.8286 160.2845 0.0000 -4.7353 0.0000
# 4 0.0000 0.0000 0.0000 34.0170 0.0000 2.9361
# 5 -6.6704 0.9245 -4.7353 0.0000 46.5758 0.0000
# 6 0.0000 0.0000 0.0000 2.9361 0.0000 38.8344
#
#
#
# Elastic Compliance Matrix: (Units=1/GPa)
#
#
# Indices 1 2 3 4 5 6 
#
# 1 0.011000 -0.001202 -0.003841 0.000000 0.001209 0.000000
# 2 -0.001202 0.014258 -0.000546 0.000000 -0.000511 0.000000
# 3 -0.003841 -0.000546 0.007665 0.000000 0.000240 0.000000
# 4 0.000000 0.000000 0.000000 0.029590 0.000000 -0.002237
# 5 0.001209 -0.000511 0.000240 0.000000 0.021678 0.000000
# 6 0.000000 0.000000 0.000000 -0.002237 0.000000 0.025920
#
#
# Mechanical properties :
#
#
# Convention : Reuss Voigt Hill
#
# Bulk Modulus (GPa) = 45.98633 56.09601 51.04117
# Shear Modulus (GPa) = 38.89954 41.54390 40.22172
#
# Velocity S-wave (km/s) = 4.31121 4.45534 4.38387
# Velocity P-wave (km/s) = 6.83775 7.29863 7.07194
#
# Compressibility (1/GPa) = 0.02174559
#
# Stress axis : x y z
#
# Youngs Moduli (GPa) = 90.90932 70.13628 130.46590
#
# Poissons Ratio (x) = 0.08429 0.50111
# Poissons Ratio (y) = 0.10925 0.07123
# Poissons Ratio (z) = 0.34917 0.03829
#
# Static dielectric constant tensor:
#      x y z
#    x 3.941820 0.000000 -0.122530 
#    y 0.000000 3.797710 0.000000 
#    z -0.122530 0.000000 4.051920 
# 
# 
# High freq. dielectric constant tensor:
#      x y z
#    x 1.835840 0.000000 -0.001600 
#    y 0.000000 1.828130 0.000000 
#    z -0.001600 0.000000 1.840390 
# 
# From -- ./inp_files/20334.got.cif
#   From: 2010.06.25/outbox.cif.g09.slc.cpg/sg11_11_cif.got.tgz:20334.got - 2010.06.27 23:14:04.
