data_PCOD8077775
_publ_section_title
;
Structure prediction by ZEFSAII (Michael W. Deem and Ramdas Pophale) SiO2 
 PCOD8077775
Probable space group: P 21/M
;
_chemical_formula_sum "Si O2"
_cell_formula_units_Z 28
_cell_length_a 9.265113
_cell_length_b 20.050075
_cell_length_c 14.082187
_cell_angle_alpha 90.000000
_cell_angle_beta 30.012214
_cell_angle_gamma 90.000000
_cell_volume 1308.480178
_symmetry_space_group_name_H-M "P 21/M"
_symmetry_group_IT_number 11
_symmetry_cell_setting 'monoclinic'
loop_
_space_group_symop_operation_xyz
x,y,z
-x,1/2+y,-z
-x,-y,-z
x,1/2-y,z
loop_
_atom_site_type_symbol
_atom_site_label
_atom_site_fract_x
_atom_site_fract_y
_atom_site_fract_z
Si Si1 0.243723 0.923346 0.579012
Si Si2 0.832789 0.141658 0.728516
Si Si3 0.958379 0.675582 0.595040
Si Si4 0.785156 0.446195 0.075635
Si Si5 0.637119 0.540083 0.006162
Si Si6 0.388122 0.430901 0.462337
Si Si7 0.710576 0.323781 0.003077
O O1 0.163542 0.873017 0.539956
O O2 0.485672 0.895264 0.514423
O O3 0.400823 0.988952 0.450304
O O4 0.970176 0.943511 0.798661
O O5 0.946133 0.178660 0.569982
O O6 0.527694 0.108345 0.877766
O O7 0.059218 0.085949 0.630978
O O8 0.789372 0.186611 0.846872
O O9 0.996901 0.750000 0.614364
O O10 0.625552 0.653538 0.795360
O O11 0.586790 0.491754 0.123031
O O12 0.595576 0.406724 0.260114
O O13 0.903065 0.382691 0.944277
O O14 0.000000 0.500000 0.000000
O O15 0.500000 0.500000 0.000000
O O16 0.758421 0.250000 0.022456
#
# Coordination Sequence:
#
# PCOD8077775 Si02
#       7
#     4   4   4   4   4   4   4
#     4  11  22  42  60  98 133 167 216 273 336 385
#     4  12  23  42  69 100 128 174 227 273 328 403
#     4  11  24  44  69  95 132 178 225 270 328 404
#     4  12  23  41  66  99 136 176 223 279 335 400
#     4  12  21  37  66  97 133 165 216 279 335 378
#     4  11  24  38  69  97 133 170 217 279 333 390
#     4  11  24  43  67  97 136 176 222 281 335 399
#
# _framework density 21.398872000000001
#
# number of rings (size 3 to 8) (size 9 to 14) (size 15 to 20)
#    0.000    0.571    7.143    1.286    2.000    1.143 
#    0.000    2.143    0.000    0.857    0.000    0.000 
#    0.000    0.000    0.000    0.000    0.000    0.000 
#
# Total GULP energy -346896.878572 kJ/mol
# GULP energy per Si atom -12389.174235 kJ/mol
# Density = 2.135017 g / cm^3
# Si number density = 21.398872 Si / 1000 Ang^3
#
#
#
# Elastic Constant Matrix: (Units=GPa)
#
#
# Indices 1 2 3 4 5 6 
#
# 1 123.5395 52.4402 24.3053 0.0000 4.6710 0.0000
# 2 52.4402 109.6570 7.2410 0.0000 -3.6041 0.0000
# 3 24.3053 7.2410 77.5451 0.0000 16.4725 0.0000
# 4 0.0000 0.0000 0.0000 19.4398 0.0000 -3.5530
# 5 4.6710 -3.6041 16.4725 0.0000 34.1495 0.0000
# 6 0.0000 0.0000 0.0000 -3.5530 0.0000 28.1756
#
#
#
# Elastic Compliance Matrix: (Units=1/GPa)
#
#
# Indices 1 2 3 4 5 6 
#
# 1 0.010786 -0.004997 -0.002773 0.000000 -0.000665 0.000000
# 2 -0.004997 0.011564 0.000091 0.000000 0.001860 0.000000
# 3 -0.002773 0.000091 0.015235 0.000000 -0.006960 0.000000
# 4 0.000000 0.000000 0.000000 0.052654 0.000000 0.006640
# 5 -0.000665 0.001860 -0.006960 0.000000 0.032927 0.000000
# 6 0.000000 0.000000 0.000000 0.006640 0.000000 0.036329
#
#
# Mechanical properties :
#
#
# Convention : Reuss Voigt Hill
#
# Bulk Modulus (GPa) = 44.98826 53.19051 49.08939
# Shear Modulus (GPa) = 27.43293 31.46999 29.45146
#
# Velocity S-wave (km/s) = 3.58436 3.83905 3.71389
# Velocity P-wave (km/s) = 6.18057 6.67546 6.43278
#
# Compressibility (1/GPa) = 0.02222802
#
# Stress axis : x y z
#
# Youngs Moduli (GPa) = 92.70915 86.47425 65.63946
#
# Poissons Ratio (x) = 0.43212 0.18201
# Poissons Ratio (y) = 0.46327 -0.00599
# Poissons Ratio (z) = 0.25707 -0.00790
#
# Static dielectric constant tensor:
#      x y z
#    x 3.925260 0.000000 0.095050 
#    y 0.000000 3.656220 0.000000 
#    z 0.095050 0.000000 4.048470 
# 
# 
# High freq. dielectric constant tensor:
#      x y z
#    x 1.842230 0.000000 0.014080 
#    y 0.000000 1.823310 0.000000 
#    z 0.014080 0.000000 1.843020 
# 
# From -- ./inp_files/23242.got.cif
#   From: 2010.06.25/outbox.cif.g09.slc.cpg/sg11_12_cif.got.tgz:23242.got - 2010.06.27 23:14:04.
