data_PCOD8077967
_publ_section_title
;
Structure prediction by ZEFSAII (Michael W. Deem and Ramdas Pophale) SiO2 
 PCOD8077967
Probable space group: P 21/M
;
_chemical_formula_sum "Si O2"
_cell_formula_units_Z 32
_cell_length_a 11.179027
_cell_length_b 19.916132
_cell_length_c 11.179030
_cell_angle_alpha 90.000000
_cell_angle_beta 51.541900
_cell_angle_gamma 90.000000
_cell_volume 1948.991437
_symmetry_space_group_name_H-M "P 21/M"
_symmetry_group_IT_number 11
_symmetry_cell_setting 'monoclinic'
loop_
_space_group_symop_operation_xyz
x,y,z
-x,1/2+y,-z
-x,-y,-z
x,1/2-y,z
loop_
_atom_site_type_symbol
_atom_site_label
_atom_site_fract_x
_atom_site_fract_y
_atom_site_fract_z
Si Si1 0.246745 0.174777 0.419253
Si Si2 0.331061 0.562753 0.515459
Si Si3 0.015460 0.562753 0.831061
Si Si4 0.049915 0.090688 0.865945
Si Si5 0.139094 0.071117 0.312088
Si Si6 0.365945 0.409312 0.549915
Si Si7 0.919253 0.174777 0.746745
Si Si8 0.812088 0.428883 0.639094
O O1 0.300669 0.250000 0.353685
O O2 0.244443 0.130614 0.299456
O O3 0.363840 0.143086 0.441926
O O4 0.079937 0.175060 0.579937
O O5 0.186590 0.582675 0.686590
O O6 0.355449 0.483012 0.499823
O O7 0.477573 0.601416 0.475395
O O8 0.307103 0.585654 0.393402
O O9 0.999823 0.483012 0.855449
O O10 0.893402 0.585654 0.807103
O O11 0.975396 0.601416 0.977573
O O12 0.227346 0.103734 0.727346
O O13 0.941926 0.143086 0.863839
O O14 0.981220 0.067579 0.481220
O O15 0.225440 1.000000 0.274560
O O16 0.853685 0.250000 0.800669
O O17 0.799457 0.130615 0.744443
#
# Coordination Sequence:
#
# PCOD8077967 Si02
#       8
#     4   4   4   4   4   4   4   4
#     4   9  16  26  42  64  87 113 147 183 218 258
#     4   9  16  26  44  67  88 111 142 180 220 257
#     4   9  16  26  44  67  88 111 142 180 220 257
#     4   9  16  27  43  64  89 114 142 178 216 257
#     4   9  14  24  42  63  85 110 142 182 221 254
#     4   9  16  27  43  64  89 114 142 178 216 257
#     4   9  16  26  42  64  87 113 147 183 218 258
#     4   9  14  24  42  63  85 110 142 182 221 254
#
# _framework density 16.418748999999998
#
# number of rings (size 3 to 8) (size 9 to 14) (size 15 to 20)
#    0.000    3.000    2.500    0.000    0.000    0.000 
#    0.000    1.250    0.000    4.500    0.000    0.000 
#    0.000    0.000    0.000    0.000    0.000    0.000 
#
# Total GULP energy -396706.206090 kJ/mol
# GULP energy per Si atom -12397.068940 kJ/mol
# Density = 1.638138 g / cm^3
# Si number density = 16.418749 Si / 1000 Ang^3
#
#
#
# Elastic Constant Matrix: (Units=GPa)
#
#
# Indices 1 2 3 4 5 6 
#
# 1 137.6208 67.4121 50.2425 0.0000 31.9641 0.0000
# 2 67.4121 101.3647 36.9395 0.0000 26.3901 0.0000
# 3 50.2425 36.9395 66.7040 0.0000 29.4517 0.0000
# 4 0.0000 0.0000 0.0000 13.1609 0.0000 7.8262
# 5 31.9641 26.3901 29.4517 0.0000 27.4105 0.0000
# 6 0.0000 0.0000 0.0000 7.8262 0.0000 22.1978
#
#
#
# Elastic Compliance Matrix: (Units=1/GPa)
#
#
# Indices 1 2 3 4 5 6 
#
# 1 0.012720 -0.005639 -0.004387 0.000000 -0.004689 0.000000
# 2 -0.005639 0.016040 -0.001370 0.000000 -0.007395 0.000000
# 3 -0.004387 -0.001370 0.030848 0.000000 -0.026710 0.000000
# 4 0.000000 0.000000 0.000000 0.096139 0.000000 -0.033895
# 5 -0.004689 -0.007395 -0.026710 0.000000 0.077770 0.000000
# 6 0.000000 0.000000 0.000000 -0.033895 0.000000 0.057000
#
#
# Mechanical properties :
#
#
# Convention : Reuss Voigt Hill
#
# Bulk Modulus (GPa) = 27.16301 68.31972 47.74136
# Shear Modulus (GPa) = 15.35713 22.62686 18.99200
#
# Velocity S-wave (km/s) = 3.06165 3.71632 3.40476
# Velocity P-wave (km/s) = 5.39241 7.75344 6.67810
#
# Compressibility (1/GPa) = 0.03681477
#
# Stress axis : x y z
#
# Youngs Moduli (GPa) = 78.61907 62.34260 32.41680
#
# Poissons Ratio (x) = 0.35158 0.14221
# Poissons Ratio (y) = 0.44337 0.04442
# Poissons Ratio (z) = 0.34491 0.08542
#
# Static dielectric constant tensor:
#      x y z
#    x 3.125270 0.000000 0.278750 
#    y 0.000000 3.119230 0.000000 
#    z 0.278750 0.000000 2.803400 
# 
# 
# High freq. dielectric constant tensor:
#      x y z
#    x 1.628440 0.000000 0.031850 
#    y 0.000000 1.613710 0.000000 
#    z 0.031850 0.000000 1.591660 
# 
# From -- ./inp_files/35891.got.cif
#   From: 2010.06.25/outbox.cif.g09.slc.cpg/sg11_18_cif.got.tgz:35891.got - 2010.06.27 23:14:04.
