data_PCOD8077901
_publ_section_title
;
Structure prediction by ZEFSAII (Michael W. Deem and Ramdas Pophale) SiO2 
 PCOD8077901
Probable space group: P 21/M
;
_chemical_formula_sum "Si O2"
_cell_formula_units_Z 16
_cell_length_a 5.532568
_cell_length_b 12.754775
_cell_length_c 10.534569
_cell_angle_alpha 90.000000
_cell_angle_beta 124.083515
_cell_angle_gamma 90.000000
_cell_volume 615.691121
_symmetry_space_group_name_H-M "P 21/M"
_symmetry_group_IT_number 11
_symmetry_cell_setting 'monoclinic'
loop_
_space_group_symop_operation_xyz
x,y,z
-x,1/2+y,-z
-x,-y,-z
x,1/2-y,z
loop_
_atom_site_type_symbol
_atom_site_label
_atom_site_fract_x
_atom_site_fract_y
_atom_site_fract_z
Si Si1 0.124388 0.448790 0.661285
Si Si2 0.225462 0.250000 0.560440
Si Si3 0.514647 0.250000 0.369605
Si Si4 0.883107 0.368456 0.828435
Si Si5 0.619860 0.925565 0.861288
O O1 0.333708 0.354446 0.668374
O O2 0.875781 0.397092 0.676269
O O3 0.284639 0.539875 0.791406
O O4 0.000000 0.500000 0.500000
O O5 0.381189 0.250000 0.470808
O O6 0.868333 0.250000 0.457497
O O7 0.379142 0.352467 0.262463
O O8 0.755120 0.250000 0.807162
O O9 0.744466 0.458334 0.872049
O O10 0.225802 0.367665 0.975786
#
# Coordination Sequence:
#
# PCOD8077901 Si02
#       5
#     4   2   2   4   4
#     4  12  25  44  71 108 146 198 252 315 380 456
#     4  12  28  43  77 110 156 199 250 320 381 455
#     4  12  26  51  73 116 156 201 256 316 389 451
#     4  11  25  47  72 107 150 201 260 315 384 454
#     4  11  26  46  73 106 150 202 257 317 384 450
#
# _framework density 25.987054000000001
#
# number of rings (size 3 to 8) (size 9 to 14) (size 15 to 20)
#    0.000    0.500    5.000    2.250    5.250    2.000 
#    0.000    0.000    0.000    0.000    0.000    0.000 
#    0.000    0.000    0.000    0.000    0.000    0.000 
#
# Total GULP energy -198222.218207 kJ/mol
# GULP energy per Si atom -12388.888638 kJ/mol
# Density = 2.592791 g / cm^3
# Si number density = 25.987054 Si / 1000 Ang^3
#
#
#
# Elastic Constant Matrix: (Units=GPa)
#
#
# Indices 1 2 3 4 5 6 
#
# 1 83.0278 17.5050 11.4869 0.0000 -16.8696 0.0000
# 2 17.5050 161.6147 22.6747 0.0000 -0.0734 0.0000
# 3 11.4869 22.6747 69.5971 0.0000 -3.3399 0.0000
# 4 0.0000 0.0000 0.0000 54.2185 0.0000 0.2798
# 5 -16.8696 -0.0734 -3.3399 0.0000 37.6773 0.0000
# 6 0.0000 0.0000 0.0000 0.2798 0.0000 43.0394
#
#
#
# Elastic Compliance Matrix: (Units=1/GPa)
#
#
# Indices 1 2 3 4 5 6 
#
# 1 0.013750 -0.001267 -0.001568 0.000000 0.006015 0.000000
# 2 -0.001267 0.006602 -0.001977 0.000000 -0.000729 0.000000
# 3 -0.001568 -0.001977 0.015302 0.000000 0.000651 0.000000
# 4 0.000000 0.000000 0.000000 0.018444 0.000000 -0.000120
# 5 0.006015 -0.000729 0.000651 0.000000 0.029291 0.000000
# 6 0.000000 0.000000 0.000000 -0.000120 0.000000 0.023235
#
#
# Mechanical properties :
#
#
# Convention : Reuss Voigt Hill
#
# Bulk Modulus (GPa) = 38.41510 46.39701 42.40605
# Shear Modulus (GPa) = 40.02395 44.49191 42.25793
#
# Velocity S-wave (km/s) = 3.92873 4.14222 4.03689
# Velocity P-wave (km/s) = 5.94932 6.38513 6.17108
#
# Compressibility (1/GPa) = 0.02603143
#
# Stress axis : x y z
#
# Youngs Moduli (GPa) = 72.72577 151.47469 65.34882
#
# Poissons Ratio (x) = 0.19186 0.10248
# Poissons Ratio (y) = 0.09211 0.12918
# Poissons Ratio (z) = 0.11404 0.29944
#
# Static dielectric constant tensor:
#      x y z
#    x 4.497000 0.000000 0.701270 
#    y 0.000000 5.897920 0.000000 
#    z 0.701270 0.000000 5.363240 
# 
# 
# High freq. dielectric constant tensor:
#      x y z
#    x 2.024040 0.000000 0.026300 
#    y 0.000000 2.074500 0.000000 
#    z 0.026300 0.000000 2.057760 
# 
# From -- ./inp_files/1533.got.cif
#   From: 2010.06.25/outbox.cif.g09.slc.cpg/sg11_1_cif.got.tgz:1533.got - 2010.06.27 23:14:04.
