data_PCOD8077154
_publ_section_title
;
Structure prediction by ZEFSAII (Michael W. Deem and Ramdas Pophale) SiO2 
 PCOD8077154
Probable space group: P 21/M
;
_chemical_formula_sum "Si O2"
_cell_formula_units_Z 28
_cell_length_a 9.522983
_cell_length_b 15.023892
_cell_length_c 20.570623
_cell_angle_alpha 90.000000
_cell_angle_beta 27.570969
_cell_angle_gamma 90.000000
_cell_volume 1362.198230
_symmetry_space_group_name_H-M "P 21/M"
_symmetry_group_IT_number 11
_symmetry_cell_setting 'monoclinic'
loop_
_space_group_symop_operation_xyz
x,y,z
-x,1/2+y,-z
-x,-y,-z
x,1/2-y,z
loop_
_atom_site_type_symbol
_atom_site_label
_atom_site_fract_x
_atom_site_fract_y
_atom_site_fract_z
Si Si1 0.787655 0.851782 0.539027
Si Si2 0.205916 0.149854 0.787799
Si Si3 0.144620 0.510357 0.148493
Si Si4 0.870825 0.148624 0.471113
Si Si5 0.094735 0.650017 0.827604
Si Si6 0.900571 0.479155 0.686156
Si Si7 0.237603 0.423080 0.915233
O O1 0.840918 0.750000 0.495228
O O2 0.443824 0.868817 0.702886
O O3 0.000855 0.877783 0.511217
O O4 0.868143 0.914995 0.446086
O O5 0.082501 0.250000 0.830263
O O6 0.509719 0.136379 0.621180
O O7 0.279560 0.134466 0.833227
O O8 0.952764 0.082642 0.865321
O O9 0.046694 0.542095 0.259900
O O10 0.996793 0.415605 0.192691
O O11 0.500000 0.500000 0.000000
O O12 0.961448 0.250000 0.415719
O O13 0.014443 0.082436 0.359680
O O14 0.052921 0.750000 0.818354
O O15 0.887762 0.639042 0.976097
O O16 0.556484 0.463994 0.805894
O O17 0.000000 0.500000 0.000000
#
# Coordination Sequence:
#
# PCOD8077154 Si02
#       7
#     4   4   4   4   4   4   4
#     4  10  22  40  66 102 131 164 220 278 332 385
#     4  11  24  43  69  98 133 172 220 276 327 388
#     4  12  26  46  60  96 136 176 221 265 326 394
#     4  10  22  40  66 102 132 165 220 279 332 386
#     4  11  24  42  67  95 134 175 218 273 328 391
#     4  12  24  40  71  93 132 180 213 272 331 391
#     4  12  22  41  70  98 129 169 227 271 327 390
#
# _framework density 20.555012000000001
#
# number of rings (size 3 to 8) (size 9 to 14) (size 15 to 20)
#    0.000    0.857    4.286    2.571    0.000    4.571 
#    0.000    6.429    0.000    0.000    0.000    0.000 
#    0.000    0.000    0.000    0.000    0.000    0.000 
#
# Total GULP energy -347356.524713 kJ/mol
# GULP energy per Si atom -12405.590168 kJ/mol
# Density = 2.050823 g / cm^3
# Si number density = 20.555012 Si / 1000 Ang^3
#
#
#
# Elastic Constant Matrix: (Units=GPa)
#
#
# Indices 1 2 3 4 5 6 
#
# 1 94.6204 35.7053 22.7818 0.0000 2.4699 0.0000
# 2 35.7053 111.3092 35.7492 0.0000 -7.4692 0.0000
# 3 22.7818 35.7492 92.4866 0.0000 -4.1995 0.0000
# 4 0.0000 0.0000 0.0000 30.5155 0.0000 2.0559
# 5 2.4699 -7.4692 -4.1995 0.0000 38.6511 0.0000
# 6 0.0000 0.0000 0.0000 2.0559 0.0000 20.8825
#
#
#
# Elastic Compliance Matrix: (Units=1/GPa)
#
#
# Indices 1 2 3 4 5 6 
#
# 1 0.012361 -0.003510 -0.001763 0.000000 -0.001660 0.000000
# 2 -0.003510 0.011348 -0.003429 0.000000 0.002045 0.000000
# 3 -0.001763 -0.003429 0.012609 0.000000 0.000820 0.000000
# 4 0.000000 0.000000 0.000000 0.032989 0.000000 -0.003248
# 5 -0.001660 0.002045 0.000820 0.000000 0.026463 0.000000
# 6 0.000000 0.000000 0.000000 -0.003248 0.000000 0.048207
#
#
# Mechanical properties :
#
#
# Convention : Reuss Voigt Hill
#
# Bulk Modulus (GPa) = 52.87184 54.09877 53.48531
# Shear Modulus (GPa) = 29.81740 31.62182 30.71961
#
# Velocity S-wave (km/s) = 3.81283 3.92650 3.87008
# Velocity P-wave (km/s) = 6.72023 6.85074 6.78580
#
# Compressibility (1/GPa) = 0.01891366
#
# Stress axis : x y z
#
# Youngs Moduli (GPa) = 80.89949 88.11754 79.30567
#
# Poissons Ratio (x) = 0.30931 0.13985
# Poissons Ratio (y) = 0.28397 0.27195
# Poissons Ratio (z) = 0.14266 0.30216
#
# Static dielectric constant tensor:
#      x y z
#    x 4.265510 0.000000 0.042610 
#    y 0.000000 3.718850 0.000000 
#    z 0.042610 0.000000 3.886610 
# 
# 
# High freq. dielectric constant tensor:
#      x y z
#    x 1.796690 0.000000 -0.005810 
#    y 0.000000 1.814120 0.000000 
#    z -0.005810 0.000000 1.813370 
# 
# From -- ./inp_files/63860.got.cif
#   From: 2010.06.25/outbox.cif.g09.slc.cpg/sg11_32_cif.got.tgz:63860.got - 2010.06.27 23:14:04.
