data_PCOD8077741
_publ_section_title
;
Structure prediction by ZEFSAII (Michael W. Deem and Ramdas Pophale) SiO2 
 PCOD8077741
Probable space group: P 21/M
;
_chemical_formula_sum "Si O2"
_cell_formula_units_Z 32
_cell_length_a 11.629406
_cell_length_b 13.420558
_cell_length_c 16.798388
_cell_angle_alpha 90.000000
_cell_angle_beta 143.493533
_cell_angle_gamma 90.000000
_cell_volume 1559.730444
_symmetry_space_group_name_H-M "P 21/M"
_symmetry_group_IT_number 11
_symmetry_cell_setting 'monoclinic'
loop_
_space_group_symop_operation_xyz
x,y,z
-x,1/2+y,-z
-x,-y,-z
x,1/2-y,z
loop_
_atom_site_type_symbol
_atom_site_label
_atom_site_fract_x
_atom_site_fract_y
_atom_site_fract_z
Si Si1 0.701699 0.132408 0.515133
Si Si2 0.274299 0.367056 0.035370
Si Si3 0.019782 0.135380 0.293084
Si Si4 0.714262 0.634941 0.407573
Si Si5 0.890433 0.461465 0.767275
Si Si6 0.615892 0.514778 0.749199
Si Si7 0.315758 0.866596 0.786058
Si Si8 0.067815 0.867940 0.504517
O O1 0.679328 0.250000 0.499660
O O2 0.747498 0.097221 0.628970
O O3 0.499733 0.087183 0.374329
O O4 0.875422 0.095200 0.552547
O O5 0.270517 0.250000 0.052214
O O6 0.289102 0.424998 0.126228
O O7 0.458321 0.393532 0.081016
O O8 0.086414 0.398693 0.882474
O O9 0.001198 0.250000 0.255580
O O10 0.190867 0.123435 0.452653
O O11 0.818235 0.091218 0.217340
O O12 0.068303 0.072172 0.242006
O O13 0.666150 0.750000 0.362932
O O14 0.516756 0.574278 0.291400
O O15 0.863996 0.589819 0.424508
O O16 0.791793 0.466620 0.798207
O O17 0.276675 0.750000 0.767963
O O18 0.242901 0.903556 0.658949
O O19 0.048110 0.750000 0.495273
#
# Coordination Sequence:
#
# PCOD8077741 Si02
#       8
#     4   4   4   4   4   4   4   4
#     4  11  22  38  62  91 122 152 196 259 307 347
#     4  11  24  44  65  84 117 161 201 254 305 349
#     4   9  19  37  61  90 126 160 193 248 308 355
#     4   9  19  36  61  92 126 158 194 253 306 343
#     4  12  26  41  56  92 126 160 206 242 293 364
#     4  12  24  41  61  90 116 161 215 242 284 369
#     4   8  15  33  61  89 114 152 204 242 295 366
#     4   8  15  32  59  92 119 148 197 247 301 362
#
# _framework density 20.516366000000001
#
# number of rings (size 3 to 8) (size 9 to 14) (size 15 to 20)
#    0.000    2.000    2.500    3.000    0.000    4.000 
#    0.000    0.625    0.000    3.000    0.000    0.000 
#    0.000    0.000    0.000    0.000    0.000    0.000 
#
# Total GULP energy -396775.124929 kJ/mol
# GULP energy per Si atom -12399.222654 kJ/mol
# Density = 2.046967 g / cm^3
# Si number density = 20.516366 Si / 1000 Ang^3
#
#
#
# Elastic Constant Matrix: (Units=GPa)
#
#
# Indices 1 2 3 4 5 6 
#
# 1 61.0541 12.2092 4.2273 0.0000 15.4030 0.0000
# 2 12.2092 52.2128 18.5532 0.0000 10.9445 0.0000
# 3 4.2273 18.5532 51.8638 0.0000 2.1598 0.0000
# 4 0.0000 0.0000 0.0000 27.9492 0.0000 -1.1938
# 5 15.4030 10.9445 2.1598 0.0000 23.4236 0.0000
# 6 0.0000 0.0000 0.0000 -1.1938 0.0000 29.2460
#
#
#
# Elastic Compliance Matrix: (Units=1/GPa)
#
#
# Indices 1 2 3 4 5 6 
#
# 1 0.019852 -0.001959 -0.000414 0.000000 -0.012101 0.000000
# 2 -0.001959 0.024500 -0.008213 0.000000 -0.009402 0.000000
# 3 -0.000414 -0.008213 0.022167 0.000000 0.002065 0.000000
# 4 0.000000 0.000000 0.000000 0.035842 0.000000 0.001463
# 5 -0.012101 -0.009402 0.002065 0.000000 0.054852 0.000000
# 6 0.000000 0.000000 0.000000 0.001463 0.000000 0.034252
#
#
# Mechanical properties :
#
#
# Convention : Reuss Voigt Hill
#
# Bulk Modulus (GPa) = 22.05150 26.12335 24.08742
# Shear Modulus (GPa) = 21.95375 24.79983 23.37679
#
# Velocity S-wave (km/s) = 3.27473 3.48053 3.37919
# Velocity P-wave (km/s) = 5.00700 5.37705 5.19532
#
# Compressibility (1/GPa) = 0.04534839
#
# Stress axis : x y z
#
# Youngs Moduli (GPa) = 50.37227 40.81705 45.11211
#
# Poissons Ratio (x) = 0.07995 0.01865
# Poissons Ratio (y) = 0.09866 0.37051
# Poissons Ratio (z) = 0.02083 0.33523
#
# Static dielectric constant tensor:
#      x y z
#    x 3.805760 0.000000 0.178420 
#    y 0.000000 3.721540 0.000000 
#    z 0.178420 0.000000 3.426360 
# 
# 
# High freq. dielectric constant tensor:
#      x y z
#    x 1.803130 0.000000 0.016400 
#    y 0.000000 1.811440 0.000000 
#    z 0.016400 0.000000 1.772090 
# 
# From -- ./inp_files/59534.got.cif
#   From: 2010.06.25/outbox.cif.g09.slc.cpg/sg11_30_cif.got.tgz:59534.got - 2010.06.27 23:14:04.
