data_PCOD8077920
_publ_section_title
;
Structure prediction by ZEFSAII (Michael W. Deem and Ramdas Pophale) SiO2 
 PCOD8077920
Probable space group: P 21/M
;
_chemical_formula_sum "Si O2"
_cell_formula_units_Z 24
_cell_length_a 7.860914
_cell_length_b 29.831991
_cell_length_c 6.976773
_cell_angle_alpha 90.000000
_cell_angle_beta 36.671522
_cell_angle_gamma 90.000000
_cell_volume 977.122452
_symmetry_space_group_name_H-M "P 21/M"
_symmetry_group_IT_number 11
_symmetry_cell_setting 'monoclinic'
loop_
_space_group_symop_operation_xyz
x,y,z
-x,1/2+y,-z
-x,-y,-z
x,1/2-y,z
loop_
_atom_site_type_symbol
_atom_site_label
_atom_site_fract_x
_atom_site_fract_y
_atom_site_fract_z
Si Si1 0.774514 0.697134 0.882632
Si Si2 0.322642 0.658501 0.553821
Si Si3 0.643660 0.646777 0.633295
Si Si4 0.856144 0.087555 0.805626
Si Si5 0.312868 0.005483 0.859933
Si Si6 0.807725 0.062517 0.444034
O O1 0.801918 0.750000 0.861212
O O2 0.473129 0.680806 0.235720
O O3 0.797787 0.681192 0.640267
O O4 0.001988 0.676162 0.825063
O O5 0.478284 0.672765 0.611318
O O6 0.319381 0.604147 0.560691
O O7 0.887314 0.614323 0.321035
O O8 0.421985 0.617940 0.956174
O O9 0.973866 0.079266 0.482661
O O10 0.778165 0.041830 0.978155
O O11 0.500000 0.000000 0.500000
O O12 0.545917 0.033264 0.772480
O O13 0.018668 0.034432 0.111508
#
# Coordination Sequence:
#
# PCOD8077920 Si02
#       6
#     4   4   4   4   4   4
#     4  12  26  49  76 109 147 184 238 310 375 456
#     4  12  26  47  77 109 146 195 245 300 376 446
#     4  12  25  48  76 108 146 197 245 304 370 449
#     4  12  24  46  71 105 148 197 258 301 365 435
#     4  12  26  41  66 109 149 198 259 309 360 430
#     4  12  23  45  71 100 152 200 249 309 366 433
#
# _framework density 24.561917000000001
#
# number of rings (size 3 to 8) (size 9 to 14) (size 15 to 20)
#    0.000    0.000    3.333    7.000    0.000    4.000 
#    0.000    0.000    0.000    0.000    0.000    0.000 
#    0.000    0.000    0.000    0.000    0.000    0.000 
#
# Total GULP energy -297592.139862 kJ/mol
# GULP energy per Si atom -12399.672494 kJ/mol
# Density = 2.450601 g / cm^3
# Si number density = 24.561917 Si / 1000 Ang^3
#
#
#
# Elastic Constant Matrix: (Units=GPa)
#
#
# Indices 1 2 3 4 5 6 
#
# 1 119.4754 54.7657 14.3315 0.0000 -11.5341 0.0000
# 2 54.7657 146.1207 46.9348 0.0000 -0.3871 0.0000
# 3 14.3315 46.9348 101.7877 0.0000 -9.0388 0.0000
# 4 0.0000 0.0000 0.0000 28.3634 0.0000 -2.8068
# 5 -11.5341 -0.3871 -9.0388 0.0000 32.8818 0.0000
# 6 0.0000 0.0000 0.0000 -2.8068 0.0000 15.6368
#
#
#
# Elastic Compliance Matrix: (Units=1/GPa)
#
#
# Indices 1 2 3 4 5 6 
#
# 1 0.010579 -0.004211 0.000797 0.000000 0.003880 0.000000
# 2 -0.004211 0.009738 -0.004119 0.000000 -0.002495 0.000000
# 3 0.000797 -0.004119 0.011923 0.000000 0.003508 0.000000
# 4 0.000000 0.000000 0.000000 0.035894 0.000000 0.006443
# 5 0.003880 -0.002495 0.003508 0.000000 0.032708 0.000000
# 6 0.000000 0.000000 0.000000 0.006443 0.000000 0.065108
#
#
# Mechanical properties :
#
#
# Convention : Reuss Voigt Hill
#
# Bulk Modulus (GPa) = 58.22662 66.60532 62.41597
# Shear Modulus (GPa) = 26.77491 32.13316 29.45403
#
# Velocity S-wave (km/s) = 3.30525 3.62090 3.46667
# Velocity P-wave (km/s) = 6.19062 6.68262 6.44132
#
# Compressibility (1/GPa) = 0.01717427
#
# Stress axis : x y z
#
# Youngs Moduli (GPa) = 94.52648 102.68817 83.87105
#
# Poissons Ratio (x) = 0.43238 -0.06681
# Poissons Ratio (y) = 0.39801 0.34547
# Poissons Ratio (z) = -0.07530 0.42297
#
# Static dielectric constant tensor:
#      x y z
#    x 4.733120 0.000000 -0.922820 
#    y 0.000000 4.964720 0.000000 
#    z -0.922820 0.000000 6.788610 
# 
# 
# High freq. dielectric constant tensor:
#      x y z
#    x 1.988390 0.000000 -0.009730 
#    y 0.000000 1.964600 0.000000 
#    z -0.009730 0.000000 1.991030 
# 
# From -- ./inp_files/15381.got.cif
#   From: 2010.06.25/outbox.cif.g09.slc.cpg/sg11_8_cif.got.tgz:15381.got - 2010.06.27 23:14:04.
