data_PCOD8077699
_publ_section_title
;
Structure prediction by ZEFSAII (Michael W. Deem and Ramdas Pophale) SiO2 
 PCOD8077699
Probable space group: P 21/M
;
_chemical_formula_sum "Si O2"
_cell_formula_units_Z 28
_cell_length_a 9.391632
_cell_length_b 8.631575
_cell_length_c 29.442599
_cell_angle_alpha 90.000000
_cell_angle_beta 37.425935
_cell_angle_gamma 90.000000
_cell_volume 1450.513491
_symmetry_space_group_name_H-M "P 21/M"
_symmetry_group_IT_number 11
_symmetry_cell_setting 'monoclinic'
loop_
_space_group_symop_operation_xyz
x,y,z
-x,1/2+y,-z
-x,-y,-z
x,1/2-y,z
loop_
_atom_site_type_symbol
_atom_site_label
_atom_site_fract_x
_atom_site_fract_y
_atom_site_fract_z
Si Si1 0.241151 0.567438 0.066701
Si Si2 0.677135 0.433198 0.367080
Si Si3 0.927160 0.434343 0.066541
Si Si4 0.088066 0.433760 0.198873
Si Si5 0.992618 0.066767 0.369065
Si Si6 0.598877 0.567029 0.798154
Si Si7 0.844951 0.567815 0.499934
O O1 0.255078 0.750000 0.057466
O O2 0.112703 0.523840 0.145748
O O3 0.096784 0.498551 0.061753
O O4 0.500000 0.500000 0.000000
O O5 0.667936 0.250000 0.370868
O O6 0.791365 0.489379 0.385330
O O7 0.416876 0.504057 0.429286
O O8 0.836863 0.482523 0.283766
O O9 0.939776 0.250000 0.062871
O O10 0.663201 0.494990 0.142906
O O11 0.000000 0.500000 0.000000
O O12 0.102536 0.250000 0.186354
O O13 0.291740 0.491444 0.181773
O O14 0.982078 0.250000 0.380919
O O15 0.242627 0.015679 0.284652
O O16 0.961991 0.974867 0.422934
O O17 0.603846 0.750000 0.799829
O O18 0.833705 0.750000 0.508197
O O19 0.000000 0.500000 0.500000
#
# Coordination Sequence:
#
# PCOD8077699 Si02
#       7
#     4   4   4   4   4   4   4
#     4  12  25  40  57  82 113 148 186 229 276 326
#     4   8  17  34  58  81 106 141 182 222 272 332
#     4  11  22  38  59  85 114 147 183 226 276 333
#     4   9  17  36  62  85 107 139 181 227 273 328
#     4   9  17  35  59  81 103 137 181 225 269 324
#     4   8  17  34  59  84 108 138 176 218 272 334
#     4  11  22  35  50  76 110 146 183 225 272 321
#
# _framework density 19.303511
#
# number of rings (size 3 to 8) (size 9 to 14) (size 15 to 20)
#    0.000    2.286    0.000    5.143    0.000    2.286 
#    0.000   12.857    0.000    0.000    0.000    0.000 
#    0.000    0.000    0.000    0.000    0.000    0.000 
#
# Total GULP energy -347164.758805 kJ/mol
# GULP energy per Si atom -12398.741386 kJ/mol
# Density = 1.925958 g / cm^3
# Si number density = 19.303511 Si / 1000 Ang^3
#
#
#
# Elastic Constant Matrix: (Units=GPa)
#
#
# Indices 1 2 3 4 5 6 
#
# 1 169.7765 42.5370 109.4493 0.0000 -6.2169 0.0000
# 2 42.5370 65.6509 41.4070 0.0000 -2.5977 0.0000
# 3 109.4493 41.4070 163.6308 0.0000 -3.2082 0.0000
# 4 0.0000 0.0000 0.0000 31.4033 0.0000 6.4356
# 5 -6.2169 -2.5977 -3.2082 0.0000 39.5506 0.0000
# 6 0.0000 0.0000 0.0000 6.4356 0.0000 30.6702
#
#
#
# Elastic Compliance Matrix: (Units=1/GPa)
#
#
# Indices 1 2 3 4 5 6 
#
# 1 0.010840 -0.002884 -0.006502 0.000000 0.000987 0.000000
# 2 -0.002884 0.018919 -0.002847 0.000000 0.000558 0.000000
# 3 -0.006502 -0.002847 0.011175 0.000000 -0.000303 0.000000
# 4 0.000000 0.000000 0.000000 0.033275 0.000000 -0.006982
# 5 0.000987 0.000558 -0.000303 0.000000 0.025451 0.000000
# 6 0.000000 0.000000 0.000000 -0.006982 0.000000 0.034070
#
#
# Mechanical properties :
#
#
# Convention : Reuss Voigt Hill
#
# Bulk Modulus (GPa) = 60.72535 87.31610 74.02072
# Shear Modulus (GPa) = 30.54648 34.03580 32.29114
#
# Velocity S-wave (km/s) = 3.98229 4.20359 4.09444
# Velocity P-wave (km/s) = 7.25750 8.30010 7.79625
#
# Compressibility (1/GPa) = 0.01646759
#
# Stress axis : x y z
#
# Youngs Moduli (GPa) = 92.24915 52.85781 89.48724
#
# Poissons Ratio (x) = 0.15244 0.58182
# Poissons Ratio (y) = 0.26604 0.25481
# Poissons Ratio (z) = 0.59977 0.15051
#
# Static dielectric constant tensor:
#      x y z
#    x 3.801390 0.000000 -0.322840 
#    y 0.000000 3.275160 0.000000 
#    z -0.322840 0.000000 3.958400 
# 
# 
# High freq. dielectric constant tensor:
#      x y z
#    x 1.756460 0.000000 -0.002350 
#    y 0.000000 1.724980 0.000000 
#    z -0.002350 0.000000 1.768930 
# 
# From -- ./inp_files/70803.got.cif
#   From: 2010.06.25/outbox.cif.g09.slc.cpg/sg11_36_cif.got.tgz:70803.got - 2010.06.27 23:14:04.
