data_PCOD8077906
_publ_section_title
;
Structure prediction by ZEFSAII (Michael W. Deem and Ramdas Pophale) SiO2 
 PCOD8077906
Probable space group: P 21/M
;
_chemical_formula_sum "Si O2"
_cell_formula_units_Z 16
_cell_length_a 5.274831
_cell_length_b 22.524669
_cell_length_c 5.142202
_cell_angle_alpha 90.000000
_cell_angle_beta 88.074227
_cell_angle_gamma 90.000000
_cell_volume 610.619602
_symmetry_space_group_name_H-M "P 21/M"
_symmetry_group_IT_number 11
_symmetry_cell_setting 'monoclinic'
loop_
_space_group_symop_operation_xyz
x,y,z
-x,1/2+y,-z
-x,-y,-z
x,1/2-y,z
loop_
_atom_site_type_symbol
_atom_site_label
_atom_site_fract_x
_atom_site_fract_y
_atom_site_fract_z
Si Si1 0.250000 0.847003 0.749999
Si Si2 0.413319 0.067540 0.995887
Si Si3 0.086682 0.432460 0.504113
Si Si4 0.507447 0.250000 0.572648
Si Si5 0.007442 0.750000 0.072644
O O1 0.347869 0.888311 0.985798
O O2 0.475628 0.807165 0.617928
O O3 0.152131 0.888311 0.514201
O O4 0.024371 0.807165 0.882069
O O5 0.250001 0.081576 0.250001
O O6 0.250000 0.082623 0.750001
O O7 0.500000 0.000000 0.000000
O O8 0.000000 0.500000 0.500000
O O9 0.250004 0.250000 0.750004
O O10 0.750006 0.250000 0.749998
#
# Coordination Sequence:
#
# PCOD8077906 Si02
#       5
#     4   4   4   2   2
#     4  11  30  50  82 122 170 223 286 356 426 515
#     4  12  28  49  81 123 172 221 279 346 434 518
#     4  12  28  49  81 123 172 221 279 346 434 518
#     4  11  30  55  85 120 170 230 296 356 430 502
#     4  11  30  55  85 120 170 230 296 356 430 502
#
# _framework density 26.202891000000001
#
# number of rings (size 3 to 8) (size 9 to 14) (size 15 to 20)
#    0.000    0.500    2.500    1.500   14.000    2.000 
#    0.000    3.750    0.000    0.000    0.000    0.000 
#    0.000    0.000    0.000    0.000    0.000    0.000 
#
# Total GULP energy -198437.700339 kJ/mol
# GULP energy per Si atom -12402.356271 kJ/mol
# Density = 2.614325 g / cm^3
# Si number density = 26.202891 Si / 1000 Ang^3
#
#
#
# Elastic Constant Matrix: (Units=GPa)
#
#
# Indices 1 2 3 4 5 6 
#
# 1 155.3376 77.7243 79.2943 0.0000 7.9255 0.0000
# 2 77.7243 223.2044 72.4673 0.0000 14.3365 0.0000
# 3 79.2943 72.4673 190.8841 0.0000 28.2717 0.0000
# 4 0.0000 0.0000 0.0000 45.3988 0.0000 7.8716
# 5 7.9255 14.3365 28.2717 0.0000 75.3249 0.0000
# 6 0.0000 0.0000 0.0000 7.8716 0.0000 27.7365
#
#
#
# Elastic Compliance Matrix: (Units=1/GPa)
#
#
# Indices 1 2 3 4 5 6 
#
# 1 0.009050 -0.002213 -0.003008 0.000000 0.000598 0.000000
# 2 -0.002213 0.005656 -0.001168 0.000000 -0.000405 0.000000
# 3 -0.003008 -0.001168 0.007255 0.000000 -0.002184 0.000000
# 4 0.000000 0.000000 0.000000 0.023167 0.000000 -0.006575
# 5 0.000598 -0.000405 -0.002184 0.000000 0.014110 0.000000
# 6 0.000000 0.000000 0.000000 -0.006575 0.000000 0.037920
#
#
# Mechanical properties :
#
#
# Convention : Reuss Voigt Hill
#
# Bulk Modulus (GPa) = 108.89163 114.26642 111.57902
# Shear Modulus (GPa) = 44.24937 52.35474 48.30205
#
# Velocity S-wave (km/s) = 4.11386 4.47481 4.29813
# Velocity P-wave (km/s) = 8.01327 8.39056 8.20408
#
# Compressibility (1/GPa) = 0.00918344
#
# Stress axis : x y z
#
# Youngs Moduli (GPa) = 110.49981 176.80056 137.83488
#
# Poissons Ratio (x) = 0.39130 0.41456
# Poissons Ratio (y) = 0.24456 0.16097
# Poissons Ratio (z) = 0.33235 0.20648
#
# Static dielectric constant tensor:
#      x y z
#    x 4.807830 0.000000 -0.097560 
#    y 0.000000 4.712400 0.000000 
#    z -0.097560 0.000000 4.982130 
# 
# 
# High freq. dielectric constant tensor:
#      x y z
#    x 2.045450 0.000000 0.001060 
#    y 0.000000 2.076610 0.000000 
#    z 0.001060 0.000000 2.067100 
# 
# From -- ./inp_files/571.got.cif
#   From: 2010.06.25/outbox.cif.g09.slc.cpg/sg11_1_cif.got.tgz:571.got - 2010.06.27 23:14:04.
