data_PCOD8077713
_publ_section_title
;
Structure prediction by ZEFSAII (Michael W. Deem and Ramdas Pophale) SiO2 
 PCOD8077713
Probable space group: P 21/M
;
_chemical_formula_sum "Si O2"
_cell_formula_units_Z 32
_cell_length_a 26.294169
_cell_length_b 8.753312
_cell_length_c 20.383691
_cell_angle_alpha 90.000000
_cell_angle_beta 21.317654
_cell_angle_gamma 90.000000
_cell_volume 1705.551514
_symmetry_space_group_name_H-M "P 21/M"
_symmetry_group_IT_number 11
_symmetry_cell_setting 'monoclinic'
loop_
_space_group_symop_operation_xyz
x,y,z
-x,1/2+y,-z
-x,-y,-z
x,1/2-y,z
loop_
_atom_site_type_symbol
_atom_site_label
_atom_site_fract_x
_atom_site_fract_y
_atom_site_fract_z
Si Si1 0.348266 0.431484 0.694450
Si Si2 0.600035 0.930025 0.967968
Si Si3 0.411117 0.067856 0.872605
Si Si4 0.281387 0.568675 0.527123
Si Si5 0.300330 0.930083 0.276124
Si Si6 0.906393 0.067702 0.365292
Si Si7 0.780244 0.568626 0.013489
Si Si8 0.846446 0.068250 0.182095
O O1 0.500000 0.500000 0.500000
O O2 0.353805 0.250000 0.680501
O O3 0.300215 0.482541 0.824489
O O4 0.236010 0.499039 0.779624
O O5 0.611487 0.750000 0.949263
O O6 0.710692 0.001184 0.783827
O O7 0.635482 0.986811 0.998888
O O8 0.443375 0.985384 0.138822
O O9 0.416438 0.250000 0.863272
O O10 0.564425 0.001931 0.671543
O O11 0.301892 0.002550 0.950805
O O12 0.284351 0.750000 0.518506
O O13 0.174880 0.503236 0.600606
O O14 0.232841 0.515624 0.656977
O O15 0.297011 0.750000 0.274066
O O16 0.171089 0.989007 0.475456
O O17 0.907890 0.250000 0.361197
O O18 0.063071 0.000519 0.175808
O O19 0.787313 0.750000 0.001422
O O20 0.853464 0.250000 0.167408
O O21 0.000000 0.000000 0.000000
#
# Coordination Sequence:
#
# PCOD8077713 Si02
#       8
#     4   4   4   4   4   4   4   4
#     4  11  22  38  58  82 109 143 184 226 274 329
#     4   9  16  27  46  71  96 123 157 201 247 294
#     4   9  15  27  46  71  96 122 164 212 249 288
#     4   9  16  28  49  73  96 125 168 213 251 295
#     4   9  16  27  46  71  96 124 157 198 247 298
#     4   9  15  27  46  71  98 126 164 209 250 292
#     4   9  18  30  49  75 100 127 168 217 256 298
#     4  11  22  36  56  82 111 143 178 226 278 326
#
# _framework density 18.762259
#
# number of rings (size 3 to 8) (size 9 to 14) (size 15 to 20)
#    0.000    2.500    1.250    2.250    0.000    4.000 
#    0.000    0.625    0.000    9.000    0.000    0.000 
#    0.000    0.000    0.000    0.000    0.000    0.000 
#
# Total GULP energy -396743.832140 kJ/mol
# GULP energy per Si atom -12398.244754 kJ/mol
# Density = 1.871956 g / cm^3
# Si number density = 18.762259 Si / 1000 Ang^3
#
#
#
# Elastic Constant Matrix: (Units=GPa)
#
#
# Indices 1 2 3 4 5 6 
#
# 1 187.1118 26.8584 88.0339 0.0000 7.3996 0.0000
# 2 26.8584 27.9493 23.0772 0.0000 4.9846 0.0000
# 3 88.0339 23.0772 127.1070 0.0000 3.6893 0.0000
# 4 0.0000 0.0000 0.0000 21.8929 0.0000 4.8674
# 5 7.3996 4.9846 3.6893 0.0000 41.2041 0.0000
# 6 0.0000 0.0000 0.0000 4.8674 0.0000 22.5309
#
#
#
# Elastic Compliance Matrix: (Units=1/GPa)
#
#
# Indices 1 2 3 4 5 6 
#
# 1 0.008267 -0.003677 -0.005041 0.000000 -0.000588 0.000000
# 2 -0.003677 0.044542 -0.005417 0.000000 -0.004243 0.000000
# 3 -0.005041 -0.005417 0.012329 0.000000 0.000457 0.000000
# 4 0.000000 0.000000 0.000000 0.047982 0.000000 -0.010366
# 5 -0.000588 -0.004243 0.000457 0.000000 0.024848 0.000000
# 6 0.000000 0.000000 0.000000 -0.010366 0.000000 0.046623
#
#
# Mechanical properties :
#
#
# Convention : Reuss Voigt Hill
#
# Bulk Modulus (GPa) = 27.12387 68.67854 47.90121
# Shear Modulus (GPa) = 22.20734 30.73882 26.47308
#
# Velocity S-wave (km/s) = 3.44411 4.05202 3.76037
# Velocity P-wave (km/s) = 5.50489 7.65349 6.66632
#
# Compressibility (1/GPa) = 0.03686789
#
# Stress axis : x y z
#
# Youngs Moduli (GPa) = 120.95768 22.45058 81.10855
#
# Poissons Ratio (x) = 0.08256 0.40889
# Poissons Ratio (y) = 0.44480 0.43936
# Poissons Ratio (z) = 0.60978 0.12161
#
# Static dielectric constant tensor:
#      x y z
#    x 3.665080 0.000000 0.103980 
#    y 0.000000 2.900840 0.000000 
#    z 0.103980 0.000000 3.641770 
# 
# 
# High freq. dielectric constant tensor:
#      x y z
#    x 1.740250 0.000000 0.011410 
#    y 0.000000 1.675860 0.000000 
#    z 0.011410 0.000000 1.734380 
# 
# From -- ./inp_files/66943.got.cif
#   From: 2010.06.25/outbox.cif.g09.slc.cpg/sg11_34_cif.got.tgz:66943.got - 2010.06.27 23:14:04.
