data_PCOD8077261
_publ_section_title
;
Structure prediction by ZEFSAII (Michael W. Deem and Ramdas Pophale) SiO2 
 PCOD8077261
Probable space group: P 21/M
;
_chemical_formula_sum "Si O2"
_cell_formula_units_Z 24
_cell_length_a 14.833673
_cell_length_b 8.891633
_cell_length_c 9.305773
_cell_angle_alpha 90.000000
_cell_angle_beta 80.169520
_cell_angle_gamma 90.000000
_cell_volume 1209.368781
_symmetry_space_group_name_H-M "P 21/M"
_symmetry_group_IT_number 11
_symmetry_cell_setting 'monoclinic'
loop_
_space_group_symop_operation_xyz
x,y,z
-x,1/2+y,-z
-x,-y,-z
x,1/2-y,z
loop_
_atom_site_type_symbol
_atom_site_label
_atom_site_fract_x
_atom_site_fract_y
_atom_site_fract_z
Si Si1 0.085040 0.571813 0.058785
Si Si2 0.082319 0.927257 0.392454
Si Si3 0.429442 0.581350 0.419164
Si Si4 0.550119 0.915569 0.111102
Si Si5 0.748348 0.928163 0.151281
Si Si6 0.243790 0.073123 0.518694
O O1 0.080873 0.750000 0.041213
O O2 0.079536 0.523925 0.226774
O O3 0.179826 0.511847 0.969115
O O4 0.000000 0.500000 0.000000
O O5 0.074678 0.750000 0.409016
O O6 0.174620 0.982498 0.439305
O O7 0.000000 0.000000 0.500000
O O8 0.500000 0.500000 0.500000
O O9 0.405475 0.750000 0.481457
O O10 0.474989 0.592175 0.253455
O O11 0.341877 0.475763 0.434690
O O12 0.574296 0.750000 0.048231
O O13 0.646402 0.987648 0.138061
O O14 0.500000 0.000000 0.000000
O O15 0.757428 0.750000 0.127766
O O16 0.768536 0.970643 0.311051
O O17 0.230377 0.250000 0.499248
#
# Coordination Sequence:
#
# PCOD8077261 Si02
#       6
#     4   4   4   4   4   4
#     4  11  25  43  65  93 125 160 201 251 305 366
#     4  11  25  44  65  95 127 159 202 255 308 367
#     4  11  22  40  63  91 126 165 210 258 306 364
#     4  10  23  41  60  88 126 165 208 258 305 361
#     4  10  22  42  63  89 125 163 205 254 306 362
#     4  11  23  41  65  93 125 164 208 257 309 365
#
# _framework density 19.845061999999999
#
# number of rings (size 3 to 8) (size 9 to 14) (size 15 to 20)
#    0.000    1.333    1.667    3.000    2.333   10.000 
#    0.000    0.000    0.000    0.000    0.000    0.000 
#    0.000    0.000    0.000    0.000    0.000    0.000 
#
# Total GULP energy -297620.745465 kJ/mol
# GULP energy per Si atom -12400.864394 kJ/mol
# Density = 1.979989 g / cm^3
# Si number density = 19.845062 Si / 1000 Ang^3
#
#
#
# Elastic Constant Matrix: (Units=GPa)
#
#
# Indices 1 2 3 4 5 6 
#
# 1 140.7544 32.9819 81.5647 0.0000 4.8393 0.0000
# 2 32.9819 66.3386 65.7385 0.0000 5.8541 0.0000
# 3 81.5647 65.7385 142.9769 0.0000 10.8307 0.0000
# 4 0.0000 0.0000 0.0000 37.0514 0.0000 0.0796
# 5 4.8393 5.8541 10.8307 0.0000 45.4415 0.0000
# 6 0.0000 0.0000 0.0000 0.0796 0.0000 41.9591
#
#
#
# Elastic Compliance Matrix: (Units=1/GPa)
#
#
# Indices 1 2 3 4 5 6 
#
# 1 0.010681 0.001330 -0.006727 0.000000 0.000295 0.000000
# 2 0.001330 0.027869 -0.013534 0.000000 -0.000506 0.000000
# 3 -0.006727 -0.013534 0.017178 0.000000 -0.001634 0.000000
# 4 0.000000 0.000000 0.000000 0.026990 0.000000 -0.000051
# 5 0.000295 -0.000506 -0.001634 0.000000 0.022430 0.000000
# 6 0.000000 0.000000 0.000000 -0.000051 0.000000 0.023833
#
#
# Mechanical properties :
#
#
# Convention : Reuss Voigt Hill
#
# Bulk Modulus (GPa) = 55.97214 78.96003 67.46608
# Shear Modulus (GPa) = 28.93533 36.20938 32.57235
#
# Velocity S-wave (km/s) = 3.82260 4.27617 4.05573
# Velocity P-wave (km/s) = 6.91005 8.01595 7.48346
#
# Compressibility (1/GPa) = 0.01786603
#
# Stress axis : x y z
#
# Youngs Moduli (GPa) = 93.62408 35.88155 58.21292
#
# Poissons Ratio (x) = -0.04771 0.39160
# Poissons Ratio (y) = -0.12450 0.78787
# Poissons Ratio (z) = 0.62981 0.48563
#
# Static dielectric constant tensor:
#      x y z
#    x 3.791790 0.000000 -0.007680 
#    y 0.000000 3.826370 0.000000 
#    z -0.007680 0.000000 3.651620 
# 
# 
# High freq. dielectric constant tensor:
#      x y z
#    x 1.793140 0.000000 0.000550 
#    y 0.000000 1.780710 0.000000 
#    z 0.000550 0.000000 1.783080 
# 
# From -- ./inp_files/20397.got.cif
#   From: 2010.06.25/outbox.cif.g09.slc.cpg/sg11_11_cif.got.tgz:20397.got - 2010.06.27 23:14:04.
