data_PCOD8077053
_publ_section_title
;
Structure prediction by ZEFSAII (Michael W. Deem and Ramdas Pophale) SiO2 
 PCOD8077053
Probable space group: P 21/M
;
_chemical_formula_sum "Si O2"
_cell_formula_units_Z 32
_cell_length_a 6.470279
_cell_length_b 22.534632
_cell_length_c 11.691341
_cell_angle_alpha 90.000000
_cell_angle_beta 76.515410
_cell_angle_gamma 90.000000
_cell_volume 1657.667213
_symmetry_space_group_name_H-M "P 21/M"
_symmetry_group_IT_number 11
_symmetry_cell_setting 'monoclinic'
loop_
_space_group_symop_operation_xyz
x,y,z
-x,1/2+y,-z
-x,-y,-z
x,1/2-y,z
loop_
_atom_site_type_symbol
_atom_site_label
_atom_site_fract_x
_atom_site_fract_y
_atom_site_fract_z
Si Si1 0.715411 0.894446 0.662295
Si Si2 0.413753 0.182321 0.969973
Si Si3 0.918676 0.486258 0.700639
Si Si4 0.172306 0.516061 0.888175
Si Si5 0.503374 0.421043 0.785608
Si Si6 0.074021 0.316473 0.198810
Si Si7 0.653372 0.554571 0.444324
Si Si8 0.326984 0.643946 0.864237
O O1 0.651062 0.891092 0.536811
O O2 0.526146 0.868448 0.759650
O O3 0.912073 0.855778 0.686028
O O4 0.760435 0.964403 0.671069
O O5 0.382753 0.250000 0.930786
O O6 0.446890 0.140739 0.855194
O O7 0.617358 0.179263 0.027371
O O8 0.214165 0.159902 0.072809
O O9 0.758272 0.433127 0.759181
O O10 0.059022 0.515151 0.781318
O O11 0.097186 0.464328 0.588563
O O12 0.377655 0.473603 0.866684
O O13 0.235292 0.581574 0.914806
O O14 0.000000 0.500000 0.000000
O O15 0.423980 0.417327 0.664926
O O16 0.147102 0.250000 0.220370
O O17 0.832310 0.316715 0.189385
O O18 0.500000 0.500000 0.500000
#
# Coordination Sequence:
#
# PCOD8077053 Si02
#       8
#     4   4   4   4   4   4   4   4
#     4  11  21  36  60  86 118 151 194 243 290 351
#     4  10  23  41  59  83 117 159 202 235 281 354
#     4  11  21  36  57  89 119 153 190 240 300 359
#     4  11  21  31  53  88 123 148 185 236 302 356
#     4  11  23  37  57  88 121 158 195 243 299 349
#     4  10  22  39  61  86 118 159 196 241 293 344
#     4  11  23  38  59  88 119 157 197 238 302 362
#     4  11  20  35  59  87 116 148 190 241 294 348
#
# _framework density 19.304238000000002
#
# number of rings (size 3 to 8) (size 9 to 14) (size 15 to 20)
#    0.000    1.250    3.750    3.000    1.750    2.500 
#    0.000    0.625    0.000    2.250    0.000    0.000 
#    0.000    0.000    0.000    0.000    0.000    0.000 
#
# Total GULP energy -396628.710870 kJ/mol
# GULP energy per Si atom -12394.647215 kJ/mol
# Density = 1.926030 g / cm^3
# Si number density = 19.304238 Si / 1000 Ang^3
#
#
#
# Elastic Constant Matrix: (Units=GPa)
#
#
# Indices 1 2 3 4 5 6 
#
# 1 94.7219 20.8519 29.0127 0.0000 -0.7057 0.0000
# 2 20.8519 79.3807 39.6620 0.0000 3.8359 0.0000
# 3 29.0127 39.6620 97.0940 0.0000 4.9005 0.0000
# 4 0.0000 0.0000 0.0000 23.5754 0.0000 2.0062
# 5 -0.7057 3.8359 4.9005 0.0000 28.8311 0.0000
# 6 0.0000 0.0000 0.0000 2.0062 0.0000 23.4635
#
#
#
# Elastic Compliance Matrix: (Units=1/GPa)
#
#
# Indices 1 2 3 4 5 6 
#
# 1 0.011825 -0.001714 -0.002884 0.000000 0.001008 0.000000
# 2 -0.001714 0.016106 -0.006008 0.000000 -0.001164 0.000000
# 3 -0.002884 -0.006008 0.013696 0.000000 -0.001599 0.000000
# 4 0.000000 0.000000 0.000000 0.042728 0.000000 -0.003653
# 5 0.001008 -0.001164 -0.001599 0.000000 0.035136 0.000000
# 6 0.000000 0.000000 0.000000 -0.003653 0.000000 0.042932
#
#
# Mechanical properties :
#
#
# Convention : Reuss Voigt Hill
#
# Bulk Modulus (GPa) = 48.98449 50.02775 49.50612
# Shear Modulus (GPa) = 26.25478 27.28531 26.77005
#
# Velocity S-wave (km/s) = 3.69189 3.76365 3.72794
# Velocity P-wave (km/s) = 6.60329 6.69764 6.65064
#
# Compressibility (1/GPa) = 0.02041463
#
# Stress axis : x y z
#
# Youngs Moduli (GPa) = 84.56319 62.08888 73.01300
#
# Poissons Ratio (x) = 0.10641 0.21059
# Poissons Ratio (y) = 0.14493 0.43868
# Poissons Ratio (z) = 0.24391 0.37305
#
# Static dielectric constant tensor:
#      x y z
#    x 3.612430 0.000000 -0.153880 
#    y 0.000000 3.127790 0.000000 
#    z -0.153880 0.000000 3.340030 
# 
# 
# High freq. dielectric constant tensor:
#      x y z
#    x 1.769340 0.000000 0.001270 
#    y 0.000000 1.727900 0.000000 
#    z 0.001270 0.000000 1.743610 
# 
# From -- ./inp_files/5490.got.cif
#   From: 2010.06.25/outbox.cif.g09.slc.cpg/sg11_3_cif.got.tgz:5490.got - 2010.06.27 23:14:04.
