data_PCOD8077027
_publ_section_title
;
Structure prediction by ZEFSAII (Michael W. Deem and Ramdas Pophale) SiO2 
 PCOD8077027
Probable space group: P 21/M
;
_chemical_formula_sum "Si O2"
_cell_formula_units_Z 32
_cell_length_a 18.220693
_cell_length_b 15.244287
_cell_length_c 11.065022
_cell_angle_alpha 90.000000
_cell_angle_beta 30.142048
_cell_angle_gamma 90.000000
_cell_volume 1543.312515
_symmetry_space_group_name_H-M "P 21/M"
_symmetry_group_IT_number 11
_symmetry_cell_setting 'monoclinic'
loop_
_space_group_symop_operation_xyz
x,y,z
-x,1/2+y,-z
-x,-y,-z
x,1/2-y,z
loop_
_atom_site_type_symbol
_atom_site_label
_atom_site_fract_x
_atom_site_fract_y
_atom_site_fract_z
Si Si1 0.972579 0.413692 0.613326
Si Si2 0.228694 0.987520 0.616985
Si Si3 0.285245 0.149653 0.121809
Si Si4 0.313282 0.650481 0.095714
Si Si5 0.743565 0.648821 0.102981
Si Si6 0.933512 0.497338 0.912485
Si Si7 0.587673 0.145094 0.788443
Si Si8 0.411607 0.351660 0.438064
O O1 0.853649 0.360054 0.706353
O O2 0.907185 0.431963 0.838234
O O3 0.000000 0.500000 0.500000
O O4 0.126629 0.363935 0.406814
O O5 0.332915 0.907291 0.432094
O O6 0.105173 0.998530 0.692048
O O7 0.305906 0.082376 0.516693
O O8 0.156740 0.958875 0.846533
O O9 0.313558 0.250000 0.057947
O O10 0.297713 0.107506 0.969152
O O11 0.415759 0.117296 0.023362
O O12 0.346124 0.750000 0.076299
O O13 0.352326 0.606173 0.169306
O O14 0.423383 0.620093 0.832436
O O15 0.793202 0.750000 0.023498
O O16 0.607927 0.637038 0.389220
O O17 0.882956 0.596118 0.954120
O O18 0.612505 0.250000 0.736280
O O19 0.376038 0.250000 0.451976
#
# Coordination Sequence:
#
# PCOD8077027 Si02
#       8
#     4   4   4   4   4   4   4   4
#     4  12  23  37  59  88 120 157 198 244 306 361
#     4  10  22  40  62  88 127 161 204 252 304 357
#     4  10  22  39  59  87 121 157 202 250 300 361
#     4  10  23  42  61  87 120 156 203 252 300 362
#     4   9  18  37  62  84 116 159 200 247 300 357
#     4  10  22  39  57  93 124 158 204 250 297 371
#     4  10  23  41  63  90 121 162 207 251 302 363
#     4   9  20  38  62  88 116 156 204 251 304 362
#
# _framework density 20.734622000000002
#
# number of rings (size 3 to 8) (size 9 to 14) (size 15 to 20)
#    0.000    2.000    1.250    1.125    3.500    2.000 
#    0.000    7.500    0.000    0.000    0.000    0.000 
#    0.000    0.000    0.000    0.000    0.000    0.000 
#
# Total GULP energy -396619.897036 kJ/mol
# GULP energy per Si atom -12394.371782 kJ/mol
# Density = 2.068743 g / cm^3
# Si number density = 20.734622 Si / 1000 Ang^3
#
#
#
# Elastic Constant Matrix: (Units=GPa)
#
#
# Indices 1 2 3 4 5 6 
#
# 1 119.9828 27.9350 58.3764 0.0000 -4.8053 0.0000
# 2 27.9350 49.6273 34.5830 0.0000 2.4444 0.0000
# 3 58.3764 34.5830 132.3609 0.0000 -7.8443 0.0000
# 4 0.0000 0.0000 0.0000 29.9332 0.0000 0.0833
# 5 -4.8053 2.4444 -7.8443 0.0000 37.7458 0.0000
# 6 0.0000 0.0000 0.0000 0.0833 0.0000 26.5882
#
#
#
# Elastic Compliance Matrix: (Units=1/GPa)
#
#
# Indices 1 2 3 4 5 6 
#
# 1 0.011103 -0.003561 -0.003917 0.000000 0.000830 0.000000
# 2 -0.003561 0.026111 -0.005446 0.000000 -0.003276 0.000000
# 3 -0.003917 -0.005446 0.010830 0.000000 0.002105 0.000000
# 4 0.000000 0.000000 0.000000 0.033408 0.000000 -0.000105
# 5 0.000830 -0.003276 0.002105 0.000000 0.027248 0.000000
# 6 0.000000 0.000000 0.000000 -0.000105 0.000000 0.037611
#
#
# Mechanical properties :
#
#
# Convention : Reuss Voigt Hill
#
# Bulk Modulus (GPa) = 45.05281 60.41775 52.73528
# Shear Modulus (GPa) = 27.84619 30.92520 29.38569
#
# Velocity S-wave (km/s) = 3.66864 3.86615 3.76869
# Velocity P-wave (km/s) = 6.30244 7.00938 6.66529
#
# Compressibility (1/GPa) = 0.02219618
#
# Stress axis : x y z
#
# Youngs Moduli (GPa) = 90.06835 38.29812 92.33310
#
# Poissons Ratio (x) = 0.13637 0.36168
# Poissons Ratio (y) = 0.32072 0.50284
# Poissons Ratio (z) = 0.35281 0.20857
#
# Static dielectric constant tensor:
#      x y z
#    x 3.859220 0.000000 0.339490 
#    y 0.000000 3.668930 0.000000 
#    z 0.339490 0.000000 3.455620 
# 
# 
# High freq. dielectric constant tensor:
#      x y z
#    x 1.813930 0.000000 0.007320 
#    y 0.000000 1.799710 0.000000 
#    z 0.007320 0.000000 1.817040 
# 
# From -- ./inp_files/41615.got.cif
#   From: 2010.06.25/outbox.cif.g09.slc.cpg/sg11_21_cif.got.tgz:41615.got - 2010.06.27 23:14:04.
