data_PCOD8077436
_publ_section_title
;
Structure prediction by ZEFSAII (Michael W. Deem and Ramdas Pophale) SiO2 
 PCOD8077436
Probable space group: P 21/M
;
_chemical_formula_sum "Si O2"
_cell_formula_units_Z 20
_cell_length_a 9.874981
_cell_length_b 14.168984
_cell_length_c 11.720230
_cell_angle_alpha 90.000000
_cell_angle_beta 33.669937
_cell_angle_gamma 90.000000
_cell_volume 909.160304
_symmetry_space_group_name_H-M "P 21/M"
_symmetry_group_IT_number 11
_symmetry_cell_setting 'monoclinic'
loop_
_space_group_symop_operation_xyz
x,y,z
-x,1/2+y,-z
-x,-y,-z
x,1/2-y,z
loop_
_atom_site_type_symbol
_atom_site_label
_atom_site_fract_x
_atom_site_fract_y
_atom_site_fract_z
Si Si1 0.702046 0.995402 0.543347
Si Si2 0.504982 0.083066 0.906727
Si Si3 0.892933 0.352800 0.784226
Si Si4 0.967756 0.357049 0.210698
Si Si5 0.267293 0.641487 0.853904
O O1 0.478278 0.928809 0.662761
O O2 0.931026 0.926378 0.401065
O O3 0.651602 0.051143 0.693541
O O4 0.763312 0.074085 0.406107
O O5 0.658829 0.162619 0.866029
O O6 0.238232 0.119550 0.062530
O O7 0.500000 0.000000 0.000000
O O8 0.016992 0.250000 0.712977
O O9 0.823621 0.393533 0.958325
O O10 0.903671 0.250000 0.292558
O O11 0.952822 0.366299 0.083310
O O12 0.362586 0.750000 0.795447
#
# Coordination Sequence:
#
# PCOD8077436 Si02
#       5
#     4   4   4   4   4
#     4  12  23  42  70  97 131 170 222 271 319 390
#     4  12  24  45  64  93 134 170 218 266 329 385
#     4  11  24  43  69  97 131 174 217 268 326 389
#     4  11  26  44  67  97 133 174 219 270 325 385
#     4  10  23  44  67  98 135 173 215 266 326 386
#
# _framework density 21.998321000000001
#
# number of rings (size 3 to 8) (size 9 to 14) (size 15 to 20)
#    0.000    0.800    4.000    2.400    0.000    6.400 
#    0.000    4.000    0.000    0.000    0.000    0.000 
#    0.000    0.000    0.000    0.000    0.000    0.000 
#
# Total GULP energy -247957.237918 kJ/mol
# GULP energy per Si atom -12397.861896 kJ/mol
# Density = 2.194825 g / cm^3
# Si number density = 21.998321 Si / 1000 Ang^3
#
#
#
# Elastic Constant Matrix: (Units=GPa)
#
#
# Indices 1 2 3 4 5 6 
#
# 1 128.0983 20.6337 23.6016 0.0000 8.9119 0.0000
# 2 20.6337 95.9888 31.2883 0.0000 2.6997 0.0000
# 3 23.6016 31.2883 84.0500 0.0000 14.7594 0.0000
# 4 0.0000 0.0000 0.0000 26.3122 0.0000 -3.1760
# 5 8.9119 2.6997 14.7594 0.0000 31.8914 0.0000
# 6 0.0000 0.0000 0.0000 -3.1760 0.0000 35.5504
#
#
#
# Elastic Compliance Matrix: (Units=1/GPa)
#
#
# Indices 1 2 3 4 5 6 
#
# 1 0.008411 -0.001231 -0.001643 0.000000 -0.001486 0.000000
# 2 -0.001231 0.012074 -0.004387 0.000000 0.001352 0.000000
# 3 -0.001643 -0.004387 0.015071 0.000000 -0.006144 0.000000
# 4 0.000000 0.000000 0.000000 0.038420 0.000000 0.003432
# 5 -0.001486 0.001352 -0.006144 0.000000 0.034501 0.000000
# 6 0.000000 0.000000 0.000000 0.003432 0.000000 0.028436
#
#
# Mechanical properties :
#
#
# Convention : Reuss Voigt Hill
#
# Bulk Modulus (GPa) = 47.53766 51.02047 49.27907
# Shear Modulus (GPa) = 31.55690 34.25836 32.90763
#
# Velocity S-wave (km/s) = 3.79161 3.95057 3.87190
# Velocity P-wave (km/s) = 6.38944 6.63721 6.51450
#
# Compressibility (1/GPa) = 0.02103595
#
# Stress axis : x y z
#
# Youngs Moduli (GPa) = 118.89493 82.82088 66.35314
#
# Poissons Ratio (x) = 0.10193 0.10900
# Poissons Ratio (y) = 0.14633 0.29106
# Poissons Ratio (z) = 0.19531 0.36330
#
# Static dielectric constant tensor:
#      x y z
#    x 4.969530 0.000000 0.266120 
#    y 0.000000 4.420260 0.000000 
#    z 0.266120 0.000000 3.949460 
# 
# 
# High freq. dielectric constant tensor:
#      x y z
#    x 1.874110 0.000000 0.006770 
#    y 0.000000 1.885710 0.000000 
#    z 0.006770 0.000000 1.851900 
# 
# From -- ./inp_files/35374.got.cif
#   From: 2010.06.25/outbox.cif.g09.slc.cpg/sg11_18_cif.got.tgz:35374.got - 2010.06.27 23:14:04.
