data_PCOD8077055
_publ_section_title
;
Structure prediction by ZEFSAII (Michael W. Deem and Ramdas Pophale) SiO2 
 PCOD8077055
Probable space group: P 21/M
;
_chemical_formula_sum "Si O2"
_cell_formula_units_Z 28
_cell_length_a 7.223992
_cell_length_b 11.357048
_cell_length_c 18.062923
_cell_angle_alpha 90.000000
_cell_angle_beta 110.523707
_cell_angle_gamma 90.000000
_cell_volume 1387.877535
_symmetry_space_group_name_H-M "P 21/M"
_symmetry_group_IT_number 11
_symmetry_cell_setting 'monoclinic'
loop_
_space_group_symop_operation_xyz
x,y,z
-x,1/2+y,-z
-x,-y,-z
x,1/2-y,z
loop_
_atom_site_type_symbol
_atom_site_label
_atom_site_fract_x
_atom_site_fract_y
_atom_site_fract_z
Si Si1 0.985496 0.616079 0.623187
Si Si2 0.759563 0.616635 0.734821
Si Si3 0.760270 0.115246 0.946000
Si Si4 0.345954 0.116172 0.832990
Si Si5 0.627791 0.967218 0.323554
Si Si6 0.393346 0.383827 0.519987
Si Si7 0.052242 0.973796 0.888199
O O1 0.050067 0.750000 0.647746
O O2 0.875582 0.564085 0.680331
O O3 0.836774 0.606468 0.533255
O O4 0.181464 0.545122 0.631734
O O5 0.698984 0.750000 0.709597
O O6 0.559762 0.547130 0.720970
O O7 0.896484 0.612101 0.826856
O O8 0.750233 0.250000 0.923089
O O9 0.549806 0.059831 0.892973
O O10 0.797243 0.098893 0.038897
O O11 0.939949 0.065101 0.924248
O O12 0.320682 0.250000 0.856401
O O13 0.336669 0.113693 0.742786
O O14 0.167984 0.040657 0.840239
O O15 0.584548 0.886593 0.388512
O O16 0.500000 0.500000 0.500000
O O17 0.469814 0.250000 0.505651
#
# Coordination Sequence:
#
# PCOD8077055 Si02
#       7
#     4   4   4   4   4   4   4
#     4  10  22  41  64  91 126 164 207 258 313 371
#     4  11  22  38  62  92 124 162 208 256 309 368
#     4  10  22  39  61  87 120 160 202 252 306 366
#     4  11  23  39  60  89 123 160 202 251 307 371
#     4  12  22  41  64  93 123 166 206 258 310 376
#     4  11  24  43  67  96 130 169 214 264 315 378
#     4  11  21  40  62  87 122 160 203 251 306 369
#
# _framework density 20.174689999999998
#
# number of rings (size 3 to 8) (size 9 to 14) (size 15 to 20)
#    0.000    1.143    4.286    2.571    0.000    0.571 
#    0.000    2.857    0.000    0.000    0.000    0.000 
#    0.000    0.000    0.000    0.000    0.000    0.000 
#
# Total GULP energy -347158.231502 kJ/mol
# GULP energy per Si atom -12398.508268 kJ/mol
# Density = 2.012877 g / cm^3
# Si number density = 20.174690 Si / 1000 Ang^3
#
#
#
# Elastic Constant Matrix: (Units=GPa)
#
#
# Indices 1 2 3 4 5 6 
#
# 1 79.0853 33.1838 23.8040 0.0000 3.8138 0.0000
# 2 33.1838 79.2364 14.3410 0.0000 5.0734 0.0000
# 3 23.8040 14.3410 125.2761 0.0000 3.1572 0.0000
# 4 0.0000 0.0000 0.0000 25.6635 0.0000 2.0284
# 5 3.8138 5.0734 3.1572 0.0000 38.9492 0.0000
# 6 0.0000 0.0000 0.0000 2.0284 0.0000 21.3417
#
#
#
# Elastic Compliance Matrix: (Units=1/GPa)
#
#
# Indices 1 2 3 4 5 6 
#
# 1 0.015985 -0.006240 -0.002309 0.000000 -0.000565 0.000000
# 2 -0.006240 0.015419 -0.000545 0.000000 -0.001353 0.000000
# 3 -0.002309 -0.000545 0.008493 0.000000 -0.000391 0.000000
# 4 0.000000 0.000000 0.000000 0.039261 0.000000 -0.003732
# 5 -0.000565 -0.001353 -0.000391 0.000000 0.025938 0.000000
# 6 0.000000 0.000000 0.000000 -0.003732 0.000000 0.047211
#
#
# Mechanical properties :
#
#
# Convention : Reuss Voigt Hill
#
# Bulk Modulus (GPa) = 46.06417 47.36173 46.71295
# Shear Modulus (GPa) = 28.13209 31.34213 29.73711
#
# Velocity S-wave (km/s) = 3.73825 3.94577 3.84341
# Velocity P-wave (km/s) = 6.44321 6.65474 6.54983
#
# Compressibility (1/GPa) = 0.02170884
#
# Stress axis : x y z
#
# Youngs Moduli (GPa) = 62.55784 64.85396 117.73922
#
# Poissons Ratio (x) = 0.40472 0.27183
# Poissons Ratio (y) = 0.39039 0.06420
# Poissons Ratio (z) = 0.14443 0.03536
#
# Static dielectric constant tensor:
#      x y z
#    x 3.586540 0.000000 0.091710 
#    y 0.000000 3.549420 0.000000 
#    z 0.091710 0.000000 3.902560 
# 
# 
# High freq. dielectric constant tensor:
#      x y z
#    x 1.782010 0.000000 0.005900 
#    y 0.000000 1.778670 0.000000 
#    z 0.005900 0.000000 1.806370 
# 
# From -- ./inp_files/8835.got.cif
#   From: 2010.06.25/outbox.cif.g09.slc.cpg/sg11_5_cif.got.tgz:8835.got - 2010.06.27 23:14:04.
