data_PCOD8077697
_publ_section_title
;
Structure prediction by ZEFSAII (Michael W. Deem and Ramdas Pophale) SiO2 
 PCOD8077697
Probable space group: P 21/M
;
_chemical_formula_sum "Si O2"
_cell_formula_units_Z 20
_cell_length_a 23.418321
_cell_length_b 9.338824
_cell_length_c 9.170858
_cell_angle_alpha 90.000000
_cell_angle_beta 32.921011
_cell_angle_gamma 90.000000
_cell_volume 1090.042241
_symmetry_space_group_name_H-M "P 21/M"
_symmetry_group_IT_number 11
_symmetry_cell_setting 'monoclinic'
loop_
_space_group_symop_operation_xyz
x,y,z
-x,1/2+y,-z
-x,-y,-z
x,1/2-y,z
loop_
_atom_site_type_symbol
_atom_site_label
_atom_site_fract_x
_atom_site_fract_y
_atom_site_fract_z
Si Si1 0.614953 0.408218 0.606383
Si Si2 0.571113 0.092902 0.041498
Si Si3 0.803509 0.079937 0.597986
Si Si4 0.162815 0.919095 0.799102
Si Si5 0.971783 0.921210 0.412760
O O1 0.615906 0.250000 0.535253
O O2 0.583374 0.401299 0.842276
O O3 0.731572 0.480120 0.347791
O O4 0.528004 0.495407 0.701285
O O5 0.545531 0.250000 0.156946
O O6 0.680521 0.039424 0.877240
O O7 0.822128 0.250000 0.581840
O O8 0.845969 0.027965 0.348841
O O9 0.862101 0.986007 0.593431
O O10 0.178876 0.750000 0.760166
O O11 0.060250 0.965984 0.106208
O O12 0.964483 0.750000 0.449482
O O13 0.000000 0.000000 0.500000
#
# Coordination Sequence:
#
# PCOD8077697 Si02
#       5
#     4   4   4   4   4
#     4   8  13  24  43  67  95 124 152 183 225 278
#     4   8  14  24  41  68  99 124 146 182 232 278
#     4   9  17  32  52  73  98 126 157 194 237 283
#     4   8  16  31  51  73  97 126 158 195 238 281
#     4  11  22  35  50  69  95 127 163 200 240 284
#
# _framework density 18.347912000000001
#
# number of rings (size 3 to 8) (size 9 to 14) (size 15 to 20)
#    0.000    3.200    0.000    3.600    0.000    0.800 
#    0.000    6.000    0.000    1.200    0.000    0.000 
#    0.000    0.000    0.000    0.000    0.000    0.000 
#
# Total GULP energy -247837.141188 kJ/mol
# GULP energy per Si atom -12391.857059 kJ/mol
# Density = 1.830615 g / cm^3
# Si number density = 18.347912 Si / 1000 Ang^3
#
#
#
# Elastic Constant Matrix: (Units=GPa)
#
#
# Indices 1 2 3 4 5 6 
#
# 1 128.1398 58.2219 48.1303 0.0000 -31.0067 0.0000
# 2 58.2219 73.0928 28.8207 0.0000 -18.5821 0.0000
# 3 48.1303 28.8207 34.2916 0.0000 -25.3900 0.0000
# 4 0.0000 0.0000 0.0000 22.0335 0.0000 -8.2253
# 5 -31.0067 -18.5821 -25.3900 0.0000 30.7015 0.0000
# 6 0.0000 0.0000 0.0000 -8.2253 0.0000 31.1940
#
#
#
# Elastic Compliance Matrix: (Units=1/GPa)
#
#
# Indices 1 2 3 4 5 6 
#
# 1 0.018866 -0.006532 -0.025304 0.000000 -0.005825 0.000000
# 2 -0.006532 0.022995 -0.012221 0.000000 -0.002786 0.000000
# 3 -0.025304 -0.012221 0.130391 0.000000 0.074880 0.000000
# 4 0.000000 0.000000 0.000000 0.050341 0.000000 0.013274
# 5 -0.005825 -0.002786 0.074880 0.000000 0.086928 0.000000
# 6 0.000000 0.000000 0.000000 0.013274 0.000000 0.035558
#
#
# Mechanical properties :
#
#
# Convention : Reuss Voigt Hill
#
# Bulk Modulus (GPa) = 11.88514 56.20778 34.04646
# Shear Modulus (GPa) = 10.84040 23.47588 17.15814
#
# Velocity S-wave (km/s) = 2.43333 3.58087 3.06135
# Velocity P-wave (km/s) = 3.79295 6.91359 5.57603
#
# Compressibility (1/GPa) = 0.08413865
#
# Stress axis : x y z
#
# Youngs Moduli (GPa) = 53.00435 43.48850 7.66924
#
# Poissons Ratio (x) = 0.28405 0.19406
# Poissons Ratio (y) = 0.34620 0.09373
# Poissons Ratio (z) = 1.34121 0.53149
#
# Static dielectric constant tensor:
#      x y z
#    x 3.264100 0.000000 -0.355000 
#    y 0.000000 3.367450 0.000000 
#    z -0.355000 0.000000 3.440910 
# 
# 
# High freq. dielectric constant tensor:
#      x y z
#    x 1.698100 0.000000 -0.035410 
#    y 0.000000 1.689410 0.000000 
#    z -0.035410 0.000000 1.694930 
# 
# From -- ./inp_files/16391.got.cif
#   From: 2010.06.25/outbox.cif.g09.slc.cpg/sg11_9_cif.got.tgz:16391.got - 2010.06.27 23:14:04.
