data_PCOD8077119
_publ_section_title
;
Structure prediction by ZEFSAII (Michael W. Deem and Ramdas Pophale) SiO2 
 PCOD8077119
Probable space group: P 21/M
;
_chemical_formula_sum "Si O2"
_cell_formula_units_Z 32
_cell_length_a 15.308827
_cell_length_b 21.911213
_cell_length_c 8.539536
_cell_angle_alpha 90.000000
_cell_angle_beta 147.615130
_cell_angle_gamma 90.000000
_cell_volume 1534.215169
_symmetry_space_group_name_H-M "P 21/M"
_symmetry_group_IT_number 11
_symmetry_cell_setting 'monoclinic'
loop_
_space_group_symop_operation_xyz
x,y,z
-x,1/2+y,-z
-x,-y,-z
x,1/2-y,z
loop_
_atom_site_type_symbol
_atom_site_label
_atom_site_fract_x
_atom_site_fract_y
_atom_site_fract_z
Si Si1 0.784387 0.119834 0.205397
Si Si2 0.597174 0.870929 0.812021
Si Si3 0.186559 0.009019 0.256865
Si Si4 0.328908 0.999455 0.150444
Si Si5 0.494848 0.182871 0.641288
Si Si6 0.110052 0.179375 0.585731
Si Si7 0.693818 0.620827 0.390533
Si Si8 0.619778 0.092331 0.264670
O O1 0.754670 0.119773 0.349154
O O2 0.970813 0.135524 0.448364
O O3 0.682684 0.173915 0.972187
O O4 0.713632 0.055655 0.031836
O O5 0.674370 0.938557 0.956853
O O6 0.549711 0.865521 0.559547
O O7 0.434390 0.862304 0.674300
O O8 0.734519 0.821515 0.063449
O O9 0.305708 0.967578 0.542686
O O10 0.196995 0.997689 0.087700
O O11 0.223900 0.078307 0.356339
O O12 0.000000 0.000000 0.000000
O O13 0.500000 0.000000 0.500000
O O14 0.471216 0.250000 0.536103
O O15 0.387327 0.175508 0.634404
O O16 0.053867 0.250000 0.480931
O O17 0.167169 0.149847 0.508540
O O18 0.552784 0.582264 0.087111
#
# Coordination Sequence:
#
# PCOD8077119 Si02
#       8
#     4   4   4   4   4   4   4   4
#     4  11  24  39  64  93 126 163 202 258 317 366
#     4  11  23  40  65  91 124 164 208 256 305 373
#     4  12  23  36  58  94 130 157 194 257 317 375
#     4  12  21  40  64  93 127 159 206 256 313 373
#     4  11  21  40  65  89 116 163 213 249 297 367
#     4  11  25  44  61  88 126 163 207 259 306 365
#     4  10  22  40  62  87 116 164 208 249 302 366
#     4  10  23  38  61  90 126 161 203 248 312 371
#
# _framework density 20.857569000000002
#
# number of rings (size 3 to 8) (size 9 to 14) (size 15 to 20)
#    0.000    1.000    3.750    3.000    5.250    0.500 
#    0.000    1.875    0.000    0.000    0.000    0.000 
#    0.000    0.000    0.000    0.000    0.000    0.000 
#
# Total GULP energy -396566.087193 kJ/mol
# GULP energy per Si atom -12392.690225 kJ/mol
# Density = 2.081010 g / cm^3
# Si number density = 20.857569 Si / 1000 Ang^3
#
#
#
# Elastic Constant Matrix: (Units=GPa)
#
#
# Indices 1 2 3 4 5 6 
#
# 1 169.5753 31.0164 39.0692 0.0000 12.9734 0.0000
# 2 31.0164 97.6286 26.7129 0.0000 4.4419 0.0000
# 3 39.0692 26.7129 49.6365 0.0000 8.9758 0.0000
# 4 0.0000 0.0000 0.0000 24.8899 0.0000 0.9408
# 5 12.9734 4.4419 8.9758 0.0000 36.6509 0.0000
# 6 0.0000 0.0000 0.0000 0.9408 0.0000 21.9079
#
#
#
# Elastic Compliance Matrix: (Units=1/GPa)
#
#
# Indices 1 2 3 4 5 6 
#
# 1 0.007320 -0.000884 -0.005061 0.000000 -0.001245 0.000000
# 2 -0.000884 0.012119 -0.005877 0.000000 0.000284 0.000000
# 3 -0.005061 -0.005877 0.028084 0.000000 -0.004374 0.000000
# 4 0.000000 0.000000 0.000000 0.040242 0.000000 -0.001728
# 5 -0.001245 0.000284 -0.004374 0.000000 0.028762 0.000000
# 6 0.000000 0.000000 0.000000 -0.001728 0.000000 0.045720
#
#
# Mechanical properties :
#
#
# Convention : Reuss Voigt Hill
#
# Bulk Modulus (GPa) = 41.87930 56.71527 49.29728
# Shear Modulus (GPa) = 25.79302 31.35919 28.57610
#
# Velocity S-wave (km/s) = 3.52038 3.88170 3.70545
# Velocity P-wave (km/s) = 6.05363 6.88047 6.48025
#
# Compressibility (1/GPa) = 0.02387815
#
# Stress axis : x y z
#
# Youngs Moduli (GPa) = 136.61229 82.51441 35.60772
#
# Poissons Ratio (x) = 0.07296 0.18020
# Poissons Ratio (y) = 0.12080 0.20928
# Poissons Ratio (z) = 0.69135 0.48497
#
# Static dielectric constant tensor:
#      x y z
#    x 3.686280 0.000000 0.346850 
#    y 0.000000 3.722360 0.000000 
#    z 0.346850 0.000000 3.325780 
# 
# 
# High freq. dielectric constant tensor:
#      x y z
#    x 1.841390 0.000000 0.000740 
#    y 0.000000 1.801760 0.000000 
#    z 0.000740 0.000000 1.801440 
# 
# From -- ./inp_files/23387.got.cif
#   From: 2010.06.25/outbox.cif.g09.slc.cpg/sg11_12_cif.got.tgz:23387.got - 2010.06.27 23:14:04.
