data_PCOD8077937
_publ_section_title
;
Structure prediction by ZEFSAII (Michael W. Deem and Ramdas Pophale) SiO2 
 PCOD8077937
Probable space group: P 21/M
;
_chemical_formula_sum "Si O2"
_cell_formula_units_Z 32
_cell_length_a 11.471338
_cell_length_b 18.703121
_cell_length_c 17.967716
_cell_angle_alpha 90.000000
_cell_angle_beta 150.507098
_cell_angle_gamma 90.000000
_cell_volume 1897.862522
_symmetry_space_group_name_H-M "P 21/M"
_symmetry_group_IT_number 11
_symmetry_cell_setting 'monoclinic'
loop_
_space_group_symop_operation_xyz
x,y,z
-x,1/2+y,-z
-x,-y,-z
x,1/2-y,z
loop_
_atom_site_type_symbol
_atom_site_label
_atom_site_fract_x
_atom_site_fract_y
_atom_site_fract_z
Si Si1 0.640540 0.664925 0.111959
Si Si2 0.151744 0.080294 0.159092
Si Si3 0.826212 0.080297 0.833565
Si Si4 0.205095 0.829769 0.959911
Si Si5 0.530424 0.670231 0.285233
Si Si6 0.795539 0.833661 0.037345
Si Si7 0.520985 0.333661 0.279175
Si Si8 0.054827 0.335075 0.583415
O O1 0.643487 0.750000 0.115814
O O2 0.697459 0.636822 0.061176
O O3 0.837154 0.635061 0.279038
O O4 0.376623 0.639918 0.989935
O O5 0.387158 0.124504 0.270333
O O6 0.019221 0.117900 0.154878
O O7 0.221363 0.999998 0.221357
O O8 0.979889 0.079561 0.993299
O O9 0.573814 0.117905 0.709483
O O10 0.963328 0.124502 0.846504
O O11 0.111994 0.750000 0.888821
O O12 0.353993 0.825832 0.117984
O O13 0.557523 0.750000 0.334325
O O14 0.783408 0.639915 0.396713
O O15 0.857646 0.750000 0.074873
O O16 0.594949 0.849805 0.864976
O O17 0.509334 0.250000 0.292114
O O18 0.788642 0.363178 0.424925
O O19 0.060528 0.250000 0.588191
#
# Coordination Sequence:
#
# PCOD8077937 Si02
#       8
#     4   4   4   4   4   4   4   4
#     4   8  14  25  42  62  81 103 133 167 200 236
#     4   9  16  25  38  58  83 108 135 168 202 235
#     4   9  16  25  38  58  83 108 135 168 202 235
#     4   8  13  23  40  59  77 101 136 171 198 231
#     4   8  13  23  40  59  77 101 136 171 198 231
#     4   9  16  26  42  63  84 105 130 164 205 242
#     4   9  16  26  42  63  84 105 130 164 205 242
#     4   8  14  25  42  62  81 103 133 167 200 236
#
# _framework density 16.861073999999999
#
# number of rings (size 3 to 8) (size 9 to 14) (size 15 to 20)
#    0.000    3.500    0.000    2.250    0.000    3.000 
#    0.000    1.250    0.000    2.250    0.000    7.000 
#    0.000    0.000    0.000    0.000    0.000    0.000 
#
# Total GULP energy -396598.192019 kJ/mol
# GULP energy per Si atom -12393.693501 kJ/mol
# Density = 1.682270 g / cm^3
# Si number density = 16.861074 Si / 1000 Ang^3
#
#
#
# Elastic Constant Matrix: (Units=GPa)
#
#
# Indices 1 2 3 4 5 6 
#
# 1 163.5897 61.1792 53.9162 0.0000 30.9324 0.0000
# 2 61.1792 73.7081 28.7196 0.0000 16.5788 0.0000
# 3 53.9162 28.7196 54.8362 0.0000 24.6202 0.0000
# 4 0.0000 0.0000 0.0000 7.3488 0.0000 -0.0558
# 5 30.9324 16.5788 24.6202 0.0000 27.7776 0.0000
# 6 0.0000 0.0000 0.0000 -0.0558 0.0000 7.2380
#
#
#
# Elastic Compliance Matrix: (Units=1/GPa)
#
#
# Indices 1 2 3 4 5 6 
#
# 1 0.011017 -0.005991 -0.006298 0.000000 -0.003111 0.000000
# 2 -0.005991 0.020542 -0.003918 0.000000 -0.002116 0.000000
# 3 -0.006298 -0.003918 0.037010 0.000000 -0.023451 0.000000
# 4 0.000000 0.000000 0.000000 0.136084 0.000000 0.001050
# 5 -0.003111 -0.002116 -0.023451 0.000000 0.061513 0.000000
# 6 0.000000 0.000000 0.000000 0.001050 0.000000 0.138168
#
#
# Mechanical properties :
#
#
# Convention : Reuss Voigt Hill
#
# Bulk Modulus (GPa) = 27.65880 64.41821 46.03850
# Shear Modulus (GPa) = 11.14084 18.36083 14.75084
#
# Velocity S-wave (km/s) = 2.57328 3.30350 2.96099
# Velocity P-wave (km/s) = 5.02679 7.26905 6.24931
#
# Compressibility (1/GPa) = 0.03615486
#
# Stress axis : x y z
#
# Youngs Moduli (GPa) = 90.76670 48.68020 27.01998
#
# Poissons Ratio (x) = 0.29164 0.17018
# Poissons Ratio (y) = 0.54377 0.10587
# Poissons Ratio (z) = 0.57167 0.19073
#
# Static dielectric constant tensor:
#      x y z
#    x 3.462440 0.000000 0.292790 
#    y 0.000000 3.061700 0.000000 
#    z 0.292790 0.000000 2.888970 
# 
# 
# High freq. dielectric constant tensor:
#      x y z
#    x 1.656750 0.000000 0.028270 
#    y 0.000000 1.622620 0.000000 
#    z 0.028270 0.000000 1.601380 
# 
# From -- ./inp_files/35877.got.cif
#   From: 2010.06.25/outbox.cif.g09.slc.cpg/sg11_18_cif.got.tgz:35877.got - 2010.06.27 23:14:04.
