data_PCOD8077232
_publ_section_title
;
Structure prediction by ZEFSAII (Michael W. Deem and Ramdas Pophale) SiO2 
 PCOD8077232
Probable space group: P 21/M
;
_chemical_formula_sum "Si O2"
_cell_formula_units_Z 24
_cell_length_a 9.779476
_cell_length_b 8.566788
_cell_length_c 13.925859
_cell_angle_alpha 90.000000
_cell_angle_beta 79.586414
_cell_angle_gamma 90.000000
_cell_volume 1147.473352
_symmetry_space_group_name_H-M "P 21/M"
_symmetry_group_IT_number 11
_symmetry_cell_setting 'monoclinic'
loop_
_space_group_symop_operation_xyz
x,y,z
-x,1/2+y,-z
-x,-y,-z
x,1/2-y,z
loop_
_atom_site_type_symbol
_atom_site_label
_atom_site_fract_x
_atom_site_fract_y
_atom_site_fract_z
Si Si1 0.752161 0.929669 0.261195
Si Si2 0.347596 0.431703 0.514216
Si Si3 0.952516 0.931946 0.777414
Si Si4 0.705513 0.069325 0.914982
Si Si5 0.881583 0.433663 0.582952
Si Si6 0.437693 0.930760 0.870096
O O1 0.729770 0.750000 0.237024
O O2 0.732997 0.960201 0.376326
O O3 0.638362 0.030039 0.219188
O O4 0.906269 0.980487 0.212598
O O5 0.500000 0.500000 0.500000
O O6 0.352626 0.250000 0.486845
O O7 0.268376 0.525371 0.441210
O O8 0.985194 0.750000 0.767853
O O9 0.840631 0.967230 0.874181
O O10 0.890126 0.989851 0.685508
O O11 0.743206 0.250000 0.897452
O O12 0.579154 0.029076 0.859240
O O13 0.663790 0.026514 0.028882
O O14 0.901437 0.250000 0.590856
O O15 0.000000 0.500000 0.500000
O O16 0.478865 0.750000 0.867439
#
# Coordination Sequence:
#
# PCOD8077232 Si02
#       6
#     4   4   4   4   4   4
#     4  11  24  42  64  91 127 166 207 258 314 369
#     4  11  25  43  64  92 127 168 210 257 310 366
#     4  12  25  41  65  94 125 165 211 258 309 370
#     4  10  22  42  66  93 126 164 207 256 311 372
#     4  12  24  42  66  92 127 167 207 255 308 368
#     4  10  22  41  66  94 126 164 207 256 311 372
#
# _framework density 20.915516
#
# number of rings (size 3 to 8) (size 9 to 14) (size 15 to 20)
#    0.000    1.000    1.667    5.000    2.333    4.667 
#    0.000    0.000    0.000    0.000    0.000    0.000 
#    0.000    0.000    0.000    0.000    0.000    0.000 
#
# Total GULP energy -297809.005284 kJ/mol
# GULP energy per Si atom -12408.708554 kJ/mol
# Density = 2.086791 g / cm^3
# Si number density = 20.915516 Si / 1000 Ang^3
#
#
#
# Elastic Constant Matrix: (Units=GPa)
#
#
# Indices 1 2 3 4 5 6 
#
# 1 83.3479 7.8860 -1.1474 0.0000 -4.3705 0.0000
# 2 7.8860 61.7657 28.0353 0.0000 -11.0013 0.0000
# 3 -1.1474 28.0353 29.0803 0.0000 -0.8323 0.0000
# 4 0.0000 0.0000 0.0000 33.7340 0.0000 0.2362
# 5 -4.3705 -11.0013 -0.8323 0.0000 39.4997 0.0000
# 6 0.0000 0.0000 0.0000 0.2362 0.0000 40.2637
#
#
#
# Elastic Compliance Matrix: (Units=1/GPa)
#
#
# Indices 1 2 3 4 5 6 
#
# 1 0.012363 -0.003025 0.003421 0.000000 0.000598 0.000000
# 2 -0.003025 0.031890 -0.030637 0.000000 0.007902 0.000000
# 3 0.003421 -0.030637 0.063864 0.000000 -0.006809 0.000000
# 4 0.000000 0.000000 0.000000 0.029645 0.000000 -0.000174
# 5 0.000598 0.007902 -0.006809 0.000000 0.027440 0.000000
# 6 0.000000 0.000000 0.000000 -0.000174 0.000000 0.024837
#
#
# Mechanical properties :
#
#
# Convention : Reuss Voigt Hill
#
# Bulk Modulus (GPa) = 20.99325 27.08241 24.03783
# Shear Modulus (GPa) = 18.76885 31.99413 25.38149
#
# Velocity S-wave (km/s) = 2.99885 3.91536 3.48735
# Velocity P-wave (km/s) = 4.69572 5.78071 5.26623
#
# Compressibility (1/GPa) = 0.04763436
#
# Stress axis : x y z
#
# Youngs Moduli (GPa) = 80.88965 31.35781 15.65829
#
# Poissons Ratio (x) = 0.09485 -0.05357
# Poissons Ratio (y) = 0.24467 0.47973
# Poissons Ratio (z) = -0.27672 0.96072
#
# Static dielectric constant tensor:
#      x y z
#    x 3.821700 0.000000 -0.011270 
#    y 0.000000 4.059470 0.000000 
#    z -0.011270 0.000000 3.840370 
# 
# 
# High freq. dielectric constant tensor:
#      x y z
#    x 1.830160 0.000000 -0.001420 
#    y 0.000000 1.833080 0.000000 
#    z -0.001420 0.000000 1.817880 
# 
# From -- ./inp_files/46488.got.cif
#   From: 2010.06.25/outbox.cif.g09.slc.cpg/sg11_24_cif.got.tgz:46488.got - 2010.06.27 23:14:04.
