data_PCOD8077631
_publ_section_title
;
Structure prediction by ZEFSAII (Michael W. Deem and Ramdas Pophale) SiO2 
 PCOD8077631
Probable space group: P 21/M
;
_chemical_formula_sum "Si O2"
_cell_formula_units_Z 28
_cell_length_a 17.245570
_cell_length_b 8.749983
_cell_length_c 9.828725
_cell_angle_alpha 90.000000
_cell_angle_beta 81.682517
_cell_angle_gamma 90.000000
_cell_volume 1467.539200
_symmetry_space_group_name_H-M "P 21/M"
_symmetry_group_IT_number 11
_symmetry_cell_setting 'monoclinic'
loop_
_space_group_symop_operation_xyz
x,y,z
-x,1/2+y,-z
-x,-y,-z
x,1/2-y,z
loop_
_atom_site_type_symbol
_atom_site_label
_atom_site_fract_x
_atom_site_fract_y
_atom_site_fract_z
Si Si1 0.037557 0.927113 0.359751
Si Si2 0.197023 0.922744 0.445389
Si Si3 0.199370 0.428733 0.725959
Si Si4 0.046190 0.929165 0.865994
Si Si5 0.501980 0.929893 0.849343
Si Si6 0.373229 0.573775 0.372262
Si Si7 0.365211 0.930632 0.684179
O O1 0.012460 0.750000 0.347143
O O2 0.131987 0.942422 0.345011
O O3 0.000000 0.000000 0.500000
O O4 0.006697 0.031825 0.248729
O O5 0.194914 0.750000 0.506038
O O6 0.282048 0.954738 0.359846
O O7 0.178990 0.035638 0.574332
O O8 0.200106 0.250000 0.749530
O O9 0.133058 0.501060 0.837982
O O10 0.283362 0.494815 0.747406
O O11 0.054716 0.750000 0.881922
O O12 0.000000 0.000000 0.000000
O O13 0.498554 0.750000 0.867475
O O14 0.429200 0.988900 0.776388
O O15 0.580142 0.973695 0.748258
O O16 0.500000 0.000000 0.000000
O O17 0.397169 0.750000 0.347063
O O18 0.389849 0.520297 0.524035
O O19 0.354670 0.750000 0.690809
#
# Coordination Sequence:
#
# PCOD8077631 Si02
#       7
#     4   4   4   4   4   4   4
#     4  11  21  36  61  90 119 158 201 242 293 346
#     4   9  19  36  59  87 120 155 192 237 292 346
#     4  11  21  35  60  90 118 149 194 245 296 346
#     4  12  25  42  60  83 119 160 202 247 297 354
#     4  11  23  39  59  85 118 156 191 232 288 346
#     4   9  18  36  61  87 115 149 191 237 285 341
#     4   9  20  39  62  86 114 152 193 235 291 348
#
# _framework density 19.079560000000001
#
# number of rings (size 3 to 8) (size 9 to 14) (size 15 to 20)
#    0.000    1.714    1.429    4.714    0.000    4.000 
#    2.571    0.000    0.000    0.000    0.000    0.000 
#    0.000    0.000    0.000    0.000    0.000    0.000 
#
# Total GULP energy -347215.560801 kJ/mol
# GULP energy per Si atom -12400.555743 kJ/mol
# Density = 1.903613 g / cm^3
# Si number density = 19.079560 Si / 1000 Ang^3
#
#
#
# Elastic Constant Matrix: (Units=GPa)
#
#
# Indices 1 2 3 4 5 6 
#
# 1 129.2633 40.7617 65.3540 0.0000 -13.2442 0.0000
# 2 40.7617 81.7008 37.6325 0.0000 -13.5807 0.0000
# 3 65.3540 37.6325 123.1962 0.0000 -13.7810 0.0000
# 4 0.0000 0.0000 0.0000 34.1684 0.0000 -3.1369
# 5 -13.2442 -13.5807 -13.7810 0.0000 28.5419 0.0000
# 6 0.0000 0.0000 0.0000 -3.1369 0.0000 33.6558
#
#
#
# Elastic Compliance Matrix: (Units=1/GPa)
#
#
# Indices 1 2 3 4 5 6 
#
# 1 0.011358 -0.003179 -0.004898 0.000000 0.001393 0.000000
# 2 -0.003179 0.015826 -0.002612 0.000000 0.004794 0.000000
# 3 -0.004898 -0.002612 0.011755 0.000000 0.002160 0.000000
# 4 0.000000 0.000000 0.000000 0.029519 0.000000 0.002751
# 5 0.001393 0.004794 0.002160 0.000000 0.039006 0.000000
# 6 0.000000 0.000000 0.000000 0.002751 0.000000 0.029969
#
#
# Mechanical properties :
#
#
# Convention : Reuss Voigt Hill
#
# Bulk Modulus (GPa) = 56.94482 69.07296 63.00889
# Shear Modulus (GPa) = 30.36478 31.96736 31.16607
#
# Velocity S-wave (km/s) = 3.99367 4.09770 4.04602
# Velocity P-wave (km/s) = 7.15378 7.65959 7.41100
#
# Compressibility (1/GPa) = 0.01756086
#
# Stress axis : x y z
#
# Youngs Moduli (GPa) = 88.04529 63.18888 85.06991
#
# Poissons Ratio (x) = 0.20087 0.41670
# Poissons Ratio (y) = 0.27988 0.22217
# Poissons Ratio (z) = 0.43128 0.16502
#
# Static dielectric constant tensor:
#      x y z
#    x 3.281610 0.000000 -0.114910 
#    y 0.000000 3.470000 0.000000 
#    z -0.114910 0.000000 3.254880 
# 
# 
# High freq. dielectric constant tensor:
#      x y z
#    x 1.759090 0.000000 -0.002950 
#    y 0.000000 1.746350 0.000000 
#    z -0.002950 0.000000 1.722710 
# 
# From -- ./inp_files/23987.got.cif
#   From: 2010.06.25/outbox.cif.g09.slc.cpg/sg11_12_cif.got.tgz:23987.got - 2010.06.27 23:14:04.
