data_PCOD8077925
_publ_section_title
;
Structure prediction by ZEFSAII (Michael W. Deem and Ramdas Pophale) SiO2 
 PCOD8077925
Probable space group: P 21/M
;
_chemical_formula_sum "Si O2"
_cell_formula_units_Z 16
_cell_length_a 4.732967
_cell_length_b 16.361544
_cell_length_c 8.306524
_cell_angle_alpha 90.000000
_cell_angle_beta 90.000252
_cell_angle_gamma 90.000000
_cell_volume 643.245987
_symmetry_space_group_name_H-M "P 21/M"
_symmetry_group_IT_number 11
_symmetry_cell_setting 'monoclinic'
loop_
_space_group_symop_operation_xyz
x,y,z
-x,1/2+y,-z
-x,-y,-z
x,1/2-y,z
loop_
_atom_site_type_symbol
_atom_site_label
_atom_site_fract_x
_atom_site_fract_y
_atom_site_fract_z
Si Si1 0.888402 0.156082 0.179488
Si Si2 0.111588 0.156081 0.679487
Si Si3 0.599785 0.092510 0.497981
Si Si4 0.599797 0.907491 0.002019
O O1 0.959278 0.250000 0.216411
O O2 0.740718 0.113363 0.329558
O O3 0.674026 0.149563 0.027849
O O4 0.176181 0.108052 0.141178
O O5 0.040722 0.250000 0.716417
O O6 0.325953 0.149561 0.527844
O O7 0.259275 0.113360 0.829555
O O8 0.823802 0.108055 0.641179
O O9 0.500000 0.000000 0.500000
O O10 0.500000 0.000000 0.000000
#
# Coordination Sequence:
#
# PCOD8077925 Si02
#       4
#     4   4   4   4
#     4  12  25  47  74 106 144 191 243 300 361 431
#     4  12  25  47  74 106 144 191 243 300 361 431
#     4  12  27  47  73 108 147 191 241 300 363 431
#     4  12  27  47  73 108 147 191 241 300 363 431
#
# _framework density 24.873843000000001
#
# number of rings (size 3 to 8) (size 9 to 14) (size 15 to 20)
#    0.000    0.000    0.000   10.500    0.000    4.000 
#    0.000    0.000    0.000    0.000    0.000    0.000 
#    0.000    0.000    0.000    0.000    0.000    0.000 
#
# Total GULP energy -198533.621083 kJ/mol
# GULP energy per Si atom -12408.351318 kJ/mol
# Density = 2.481723 g / cm^3
# Si number density = 24.873843 Si / 1000 Ang^3
#
#
#
# Elastic Constant Matrix: (Units=GPa)
#
#
# Indices 1 2 3 4 5 6 
#
# 1 139.0517 93.8459 14.4272 0.0000 -2.2543 0.0000
# 2 93.8459 225.1304 79.5587 0.0000 -3.7333 0.0000
# 3 14.4272 79.5587 72.7408 0.0000 -15.0804 0.0000
# 4 0.0000 0.0000 0.0000 42.9474 0.0000 -2.6276
# 5 -2.2543 -3.7333 -15.0804 0.0000 54.6467 0.0000
# 6 0.0000 0.0000 0.0000 -2.6276 0.0000 53.0054
#
#
#
# Elastic Compliance Matrix: (Units=1/GPa)
#
#
# Indices 1 2 3 4 5 6 
#
# 1 0.010961 -0.006326 0.005037 0.000000 0.001410 0.000000
# 2 -0.006326 0.011061 -0.011392 0.000000 -0.002649 0.000000
# 3 0.005037 -0.011392 0.026612 0.000000 0.006773 0.000000
# 4 0.000000 0.000000 0.000000 0.023355 0.000000 0.001158
# 5 0.001410 -0.002649 0.006773 0.000000 0.020046 0.000000
# 6 0.000000 0.000000 0.000000 0.001158 0.000000 0.018923
#
#
# Mechanical properties :
#
#
# Convention : Reuss Voigt Hill
#
# Bulk Modulus (GPa) = 42.96877 90.28742 66.62809
# Shear Modulus (GPa) = 34.70364 46.72597 40.71481
#
# Velocity S-wave (km/s) = 3.73927 4.33889 4.05019
# Velocity P-wave (km/s) = 5.99625 7.84081 6.97973
#
# Compressibility (1/GPa) = 0.02327272
#
# Stress axis : x y z
#
# Youngs Moduli (GPa) = 91.23182 90.41084 37.57667
#
# Poissons Ratio (x) = 0.57192 -0.18927
# Poissons Ratio (y) = 0.57711 0.42807
# Poissons Ratio (z) = -0.45954 1.02995
#
# Static dielectric constant tensor:
#      x y z
#    x 5.190560 0.000000 -0.077240 
#    y 0.000000 4.737140 0.000000 
#    z -0.077240 0.000000 4.895250 
# 
# 
# High freq. dielectric constant tensor:
#      x y z
#    x 2.019780 0.000000 -0.004080 
#    y 0.000000 1.992480 0.000000 
#    z -0.004080 0.000000 2.004160 
# 
# From -- ./inp_files/1766.got.cif
#   From: 2010.06.25/outbox.cif.g09.slc.cpg/sg11_1_cif.got.tgz:1766.got - 2010.06.27 23:14:04.
