data_PCOD8077387
_publ_section_title
;
Structure prediction by ZEFSAII (Michael W. Deem and Ramdas Pophale) SiO2 
 PCOD8077387
Probable space group: P 21/M
;
_chemical_formula_sum "Si O2"
_cell_formula_units_Z 22
_cell_length_a 13.412160
_cell_length_b 10.596101
_cell_length_c 17.171793
_cell_angle_alpha 90.000000
_cell_angle_beta 154.538928
_cell_angle_gamma 90.000000
_cell_volume 1049.121152
_symmetry_space_group_name_H-M "P 21/M"
_symmetry_group_IT_number 11
_symmetry_cell_setting 'monoclinic'
loop_
_space_group_symop_operation_xyz
x,y,z
-x,1/2+y,-z
-x,-y,-z
x,1/2-y,z
loop_
_atom_site_type_symbol
_atom_site_label
_atom_site_fract_x
_atom_site_fract_y
_atom_site_fract_z
Si Si1 0.084873 0.750000 0.661764
Si Si2 0.628624 0.008168 0.171897
Si Si3 0.494076 0.101888 0.386501
Si Si4 0.131099 0.750000 0.878149
Si Si5 0.121709 0.496099 0.240209
Si Si6 0.329829 0.250000 0.733166
Si Si7 0.648989 0.606482 0.884543
O O1 0.193515 0.623843 0.700682
O O2 0.126611 0.750000 0.782244
O O3 0.812744 0.750000 0.448467
O O4 0.748472 0.872460 0.271453
O O5 0.440108 0.021567 0.107487
O O6 0.500000 0.000000 0.000000
O O7 0.455733 0.250000 0.372765
O O8 0.297275 0.025627 0.293411
O O9 0.746709 0.059892 0.594204
O O10 0.477092 0.064814 0.283982
O O11 0.996402 0.868672 0.815711
O O12 0.397018 0.750000 0.094158
O O13 0.925508 0.591034 0.070771
O O14 0.589223 0.750000 0.861838
#
# Coordination Sequence:
#
# PCOD8077387 Si02
#       7
#     2   4   4   2   4   2   4
#     4  12  26  46  67  98 132 176 227 272 335 399
#     4  12  23  47  67  96 134 175 222 279 337 393
#     4  10  23  42  65  98 132 168 219 265 326 393
#     4  12  24  42  67  95 130 169 219 270 323 400
#     4  11  22  42  67  94 133 172 210 269 329 386
#     4  12  26  44  70  95 132 173 226 276 336 393
#     4  11  23  41  66  95 128 170 219 270 326 391
#
# _framework density 20.969933000000001
#
# number of rings (size 3 to 8) (size 9 to 14) (size 15 to 20)
#    0.000    0.727    5.455    1.636    2.545    0.000 
#    3.273    0.000    0.000    0.000    0.000    0.000 
#    0.000    0.000    0.000    0.000    0.000    0.000 
#
# Total GULP energy -272882.003262 kJ/mol
# GULP energy per Si atom -12403.727421 kJ/mol
# Density = 2.092220 g / cm^3
# Si number density = 20.969933 Si / 1000 Ang^3
#
#
#
# Elastic Constant Matrix: (Units=GPa)
#
#
# Indices 1 2 3 4 5 6 
#
# 1 82.6814 35.0019 38.7283 0.0000 -18.0123 0.0000
# 2 35.0019 104.9956 34.9361 0.0000 -9.3861 0.0000
# 3 38.7283 34.9361 148.5177 0.0000 -16.5607 0.0000
# 4 0.0000 0.0000 0.0000 30.1091 0.0000 8.2097
# 5 -18.0123 -9.3861 -16.5607 0.0000 24.0354 0.0000
# 6 0.0000 0.0000 0.0000 8.2097 0.0000 50.9837
#
#
#
# Elastic Compliance Matrix: (Units=1/GPa)
#
#
# Indices 1 2 3 4 5 6 
#
# 1 0.017000 -0.004009 -0.002431 0.000000 0.009499 0.000000
# 2 -0.004009 0.011426 -0.001603 0.000000 0.000353 0.000000
# 3 -0.002431 -0.001603 0.008093 0.000000 0.003129 0.000000
# 4 0.000000 0.000000 0.000000 0.034738 0.000000 -0.005594
# 5 0.009499 0.000353 0.003129 0.000000 0.051018 0.000000
# 6 0.000000 0.000000 0.000000 -0.005594 0.000000 0.020515
#
#
# Mechanical properties :
#
#
# Convention : Reuss Voigt Hill
#
# Bulk Modulus (GPa) = 48.94036 61.50303 55.22170
# Shear Modulus (GPa) = 30.17773 36.19420 33.18596
#
# Velocity S-wave (km/s) = 3.79766 4.15903 3.98244
# Velocity P-wave (km/s) = 6.52829 7.24266 6.89474
#
# Compressibility (1/GPa) = 0.02043303
#
# Stress axis : x y z
#
# Youngs Moduli (GPa) = 58.82409 87.52259 123.56454
#
# Poissons Ratio (x) = 0.35090 0.30034
# Poissons Ratio (y) = 0.23584 0.19806
# Poissons Ratio (z) = 0.14298 0.14029
#
# Static dielectric constant tensor:
#      x y z
#    x 3.577120 0.000000 -0.111390 
#    y 0.000000 4.103080 0.000000 
#    z -0.111390 0.000000 3.800890 
# 
# 
# High freq. dielectric constant tensor:
#      x y z
#    x 1.812000 0.000000 -0.005900 
#    y 0.000000 1.841150 0.000000 
#    z -0.005900 0.000000 1.831340 
# 
# From -- ./inp_files/50125.got.cif
#   From: 2010.06.25/outbox.cif.g09.slc.cpg/sg11_26_cif.got.tgz:50125.got - 2010.06.27 23:14:04.
