data_PCOD8077601
_publ_section_title
;
Structure prediction by ZEFSAII (Michael W. Deem and Ramdas Pophale) SiO2 
 PCOD8077601
Probable space group: P 21/M
;
_chemical_formula_sum "Si O2"
_cell_formula_units_Z 32
_cell_length_a 14.610815
_cell_length_b 8.944131
_cell_length_c 29.090344
_cell_angle_alpha 90.000000
_cell_angle_beta 151.164123
_cell_angle_gamma 90.000000
_cell_volume 1833.499439
_symmetry_space_group_name_H-M "P 21/M"
_symmetry_group_IT_number 11
_symmetry_cell_setting 'monoclinic'
loop_
_space_group_symop_operation_xyz
x,y,z
-x,1/2+y,-z
-x,-y,-z
x,1/2-y,z
loop_
_atom_site_type_symbol
_atom_site_label
_atom_site_fract_x
_atom_site_fract_y
_atom_site_fract_z
Si Si1 0.589912 0.078596 0.442393
Si Si2 0.021274 0.926786 0.150486
Si Si3 0.196615 0.424835 0.312997
Si Si4 0.920396 0.574503 0.637035
Si Si5 0.531726 0.926596 0.802604
Si Si6 0.716752 0.581305 0.240656
Si Si7 0.634935 0.923413 0.745863
Si Si8 0.697791 0.080796 0.955862
O O1 0.650161 0.250000 0.475986
O O2 0.415473 0.036301 0.399041
O O3 0.531123 0.046525 0.363985
O O4 0.768484 0.975427 0.532243
O O5 0.013648 0.750000 0.147472
O O6 0.061126 0.984558 0.219258
O O7 0.180315 0.980559 0.184614
O O8 0.818624 0.990463 0.046011
O O9 0.158633 0.250000 0.287982
O O10 0.151881 0.476420 0.344796
O O11 0.946967 0.750000 0.645647
O O12 0.121739 0.499438 0.716998
O O13 0.532343 0.750000 0.809603
O O14 0.557249 0.973110 0.761031
O O15 0.330365 0.993844 0.732216
O O16 0.703749 0.998995 0.908355
O O17 0.780401 0.750000 0.280562
O O18 0.523197 0.581177 0.124840
O O19 0.695505 0.750000 0.771384
O O20 0.775346 0.250000 0.984941
#
# Coordination Sequence:
#
# PCOD8077601 Si02
#       8
#     4   4   4   4   4   4   4   4
#     4   9  18  34  54  77 108 139 168 207 259 315
#     4  11  21  32  53  81 107 137 174 215 256 306
#     4   9  20  37  54  76 108 140 169 210 263 311
#     4  11  21  34  56  80 102 135 176 217 260 308
#     4   9  17  33  56  78 103 135 176 218 255 300
#     4   9  20  36  54  75 102 139 175 215 261 306
#     4   9  19  35  54  77 109 143 170 209 263 310
#     4   9  19  35  54  74 105 142 173 211 261 307
#
# _framework density 17.452963
#
# number of rings (size 3 to 8) (size 9 to 14) (size 15 to 20)
#    0.750    1.750    0.000    3.375    0.000    4.500 
#    0.000    1.250    0.000    0.000    0.000    0.000 
#    0.000    0.000    0.000    0.000    0.000    0.000 
#
# Total GULP energy -396698.365743 kJ/mol
# GULP energy per Si atom -12396.823929 kJ/mol
# Density = 1.741324 g / cm^3
# Si number density = 17.452963 Si / 1000 Ang^3
#
#
#
# Elastic Constant Matrix: (Units=GPa)
#
#
# Indices 1 2 3 4 5 6 
#
# 1 52.6027 32.9873 44.0362 0.0000 0.9072 0.0000
# 2 32.9873 98.6642 49.6065 0.0000 -1.8912 0.0000
# 3 44.0362 49.6065 92.6544 0.0000 -3.6369 0.0000
# 4 0.0000 0.0000 0.0000 33.1567 0.0000 1.9954
# 5 0.9072 -1.8912 -3.6369 0.0000 17.7291 0.0000
# 6 0.0000 0.0000 0.0000 1.9954 0.0000 25.4291
#
#
#
# Elastic Compliance Matrix: (Units=1/GPa)
#
#
# Indices 1 2 3 4 5 6 
#
# 1 0.033275 -0.004339 -0.013687 0.000000 -0.004973 0.000000
# 2 -0.004339 0.014434 -0.005642 0.000000 0.000604 0.000000
# 3 -0.013687 -0.005642 0.020487 0.000000 0.004301 0.000000
# 4 0.000000 0.000000 0.000000 0.030303 0.000000 -0.002378
# 5 -0.004973 0.000604 0.004301 0.000000 0.057606 0.000000
# 6 0.000000 0.000000 0.000000 -0.002378 0.000000 0.039512
#
#
# Mechanical properties :
#
#
# Convention : Reuss Voigt Hill
#
# Bulk Modulus (GPa) = 47.93667 55.24239 51.58953
# Shear Modulus (GPa) = 20.00741 23.08239 21.54490
#
# Velocity S-wave (km/s) = 3.38947 3.64063 3.51729
# Velocity P-wave (km/s) = 6.54552 7.02802 6.79106
#
# Compressibility (1/GPa) = 0.02086086
#
# Stress axis : x y z
#
# Youngs Moduli (GPa) = 30.05237 69.27879 48.81028
#
# Poissons Ratio (x) = 0.30060 0.66807
# Poissons Ratio (y) = 0.13040 0.27540
# Poissons Ratio (z) = 0.41133 0.39088
#
# Static dielectric constant tensor:
#      x y z
#    x 3.161140 0.000000 -0.058650 
#    y 0.000000 3.262320 0.000000 
#    z -0.058650 0.000000 3.105530 
# 
# 
# High freq. dielectric constant tensor:
#      x y z
#    x 1.659370 0.000000 -0.003320 
#    y 0.000000 1.684280 0.000000 
#    z -0.003320 0.000000 1.665780 
# 
# From -- ./inp_files/73317.got.cif
#   From: 2010.06.25/outbox.cif.g09.slc.cpg/sg11_37_cif.got.tgz:73317.got - 2010.06.27 23:14:04.
