data_PCOD8077246
_publ_section_title
;
Structure prediction by ZEFSAII (Michael W. Deem and Ramdas Pophale) SiO2 
 PCOD8077246
Probable space group: P 21/M
;
_chemical_formula_sum "Si O2"
_cell_formula_units_Z 20
_cell_length_a 7.807804
_cell_length_b 21.716952
_cell_length_c 9.162358
_cell_angle_alpha 90.000000
_cell_angle_beta 32.623060
_cell_angle_gamma 90.000000
_cell_volume 837.552930
_symmetry_space_group_name_H-M "P 21/M"
_symmetry_group_IT_number 11
_symmetry_cell_setting 'monoclinic'
loop_
_space_group_symop_operation_xyz
x,y,z
-x,1/2+y,-z
-x,-y,-z
x,1/2-y,z
loop_
_atom_site_type_symbol
_atom_site_label
_atom_site_fract_x
_atom_site_fract_y
_atom_site_fract_z
Si Si1 0.936712 0.617132 0.131313
Si Si2 0.599704 0.619879 0.826854
Si Si3 0.974492 0.750000 0.156097
Si Si4 0.811591 0.530380 0.456294
Si Si5 0.309573 0.447039 0.957355
Si Si6 0.305055 0.250000 0.337931
O O1 0.283190 0.616702 0.956511
O O2 0.809489 0.687748 0.213088
O O3 0.704166 0.576545 0.402403
O O4 0.943932 0.588179 0.964130
O O5 0.852851 0.571800 0.573263
O O6 0.745734 0.688623 0.722187
O O7 0.535185 0.601178 0.040845
O O8 0.952614 0.750000 0.347801
O O9 0.342899 0.750000 0.845136
O O10 0.563676 0.476005 0.664246
O O11 0.148135 0.501423 0.166790
#
# Coordination Sequence:
#
# PCOD8077246 Si02
#       6
#     4   4   2   4   4   2
#     4  11  25  44  68  93 131 169 213 264 316 375
#     4  11  25  44  68  93 131 169 213 264 316 375
#     4  10  22  41  68  91 121 171 214 255 317 373
#     4  12  24  43  66  95 132 172 206 262 322 380
#     4  12  28  39  66 101 128 166 216 258 320 382
#     4  10  22  41  68  91 121 171 214 255 317 373
#
# _framework density 23.879086999999998
#
# number of rings (size 3 to 8) (size 9 to 14) (size 15 to 20)
#    0.000    0.800    4.000    2.400    5.600    0.800 
#    0.000    0.000    0.000    7.200    0.000    0.000 
#    0.000    0.000    0.000    0.000    0.000    0.000 
#
# Total GULP energy -247916.203216 kJ/mol
# GULP energy per Si atom -12395.810161 kJ/mol
# Density = 2.382474 g / cm^3
# Si number density = 23.879087 Si / 1000 Ang^3
#
#
#
# Elastic Constant Matrix: (Units=GPa)
#
#
# Indices 1 2 3 4 5 6 
#
# 1 86.5575 29.9072 15.5027 0.0000 21.4563 0.0000
# 2 29.9072 151.0477 24.2523 0.0000 24.3551 0.0000
# 3 15.5027 24.2523 89.8368 0.0000 10.0335 0.0000
# 4 0.0000 0.0000 0.0000 32.5561 0.0000 9.4351
# 5 21.4563 24.3551 10.0335 0.0000 28.6510 0.0000
# 6 0.0000 0.0000 0.0000 9.4351 0.0000 0.3742
#
#
#
# Elastic Compliance Matrix: (Units=1/GPa)
#
#
# Indices 1 2 3 4 5 6 
#
# 1 0.014507 -0.001162 -0.001131 0.000000 -0.009480 0.000000
# 2 -0.001162 0.007937 -0.001338 0.000000 -0.005408 0.000000
# 3 -0.001131 -0.001338 0.011933 0.000000 -0.002194 0.000000
# 4 0.000000 0.000000 0.000000 -0.004870 0.000000 0.122793
# 5 -0.009480 -0.005408 -0.002194 0.000000 0.047368 0.000000
# 6 0.000000 0.000000 0.000000 0.122793 0.000000 -0.423703
#
#
# Mechanical properties :
#
#
# Convention : Reuss Voigt Hill
#
# Bulk Modulus (GPa) = 36.88027 51.86295 44.37161
# Shear Modulus (GPa) = -15.12736 29.50159 7.18712
#
# Velocity S-wave (km/s) = -2.51967 3.51872 1.73676
# Velocity P-wave (km/s) = 2.64823 6.18665 4.75856
#
# Compressibility (1/GPa) = 0.02711477
#
# Stress axis : x y z
#
# Youngs Moduli (GPa) = 68.93168 125.98504 83.80277
#
# Poissons Ratio (x) = 0.14642 0.09477
# Poissons Ratio (y) = 0.08011 0.11215
# Poissons Ratio (z) = 0.07795 0.16859
#
# Static dielectric constant tensor:
#      x y z
#    x 3.696090 0.000000 0.253610 
#    y 0.000000 5.070120 0.000000 
#    z 0.253610 0.000000 4.307660 
# 
# 
# High freq. dielectric constant tensor:
#      x y z
#    x 1.896620 0.000000 0.014660 
#    y 0.000000 1.971270 0.000000 
#    z 0.014660 0.000000 1.952740 
# 
# From -- ./inp_files/13914.got.cif
#   From: 2010.06.25/outbox.cif.g09.slc.cpg/sg11_7_cif.got.tgz:13914.got - 2010.06.27 23:14:04.
