data_PCOD8077606
_publ_section_title
;
Structure prediction by ZEFSAII (Michael W. Deem and Ramdas Pophale) SiO2 
 PCOD8077606
Probable space group: P 21/M
;
_chemical_formula_sum "Si O2"
_cell_formula_units_Z 32
_cell_length_a 16.953702
_cell_length_b 9.363949
_cell_length_c 11.611007
_cell_angle_alpha 90.000000
_cell_angle_beta 94.473236
_cell_angle_gamma 90.000000
_cell_volume 1837.674282
_symmetry_space_group_name_H-M "P 21/M"
_symmetry_group_IT_number 11
_symmetry_cell_setting 'monoclinic'
loop_
_space_group_symop_operation_xyz
x,y,z
-x,1/2+y,-z
-x,-y,-z
x,1/2-y,z
loop_
_atom_site_type_symbol
_atom_site_label
_atom_site_fract_x
_atom_site_fract_y
_atom_site_fract_z
Si Si1 0.670407 0.591368 0.268035
Si Si2 0.730847 0.582316 0.637354
Si Si3 0.795956 0.418613 0.851365
Si Si4 0.828677 0.907736 0.434401
Si Si5 0.422465 0.417388 0.526571
Si Si6 0.041266 0.418629 0.108980
Si Si7 0.903306 0.086631 0.262149
Si Si8 0.752847 0.414443 0.102131
O O1 0.648751 0.750000 0.223425
O O2 0.751340 0.593193 0.347381
O O3 0.602770 0.533479 0.347143
O O4 0.679905 0.495051 0.155403
O O5 0.736485 0.750000 0.670758
O O6 0.737598 0.480058 0.748162
O O7 0.802531 0.540855 0.558475
O O8 0.646731 0.546619 0.571244
O O9 0.813451 0.250000 0.836495
O O10 0.875817 0.509220 0.854476
O O11 0.752093 0.447008 0.966871
O O12 0.865304 0.750000 0.446896
O O13 0.895530 0.005671 0.383319
O O14 0.500000 0.500000 0.500000
O O15 0.440051 0.250000 0.528449
O O16 0.050167 0.250000 0.080590
O O17 0.989029 0.439986 0.217615
O O18 0.000000 0.500000 0.000000
O O19 0.889132 0.250000 0.290514
O O20 0.837493 0.034619 0.162329
O O21 0.739044 0.250000 0.126740
#
# Coordination Sequence:
#
# PCOD8077606 Si02
#       8
#     4   4   4   4   4   4   4   4
#     4   8  15  28  47  74 101 127 161 202 244 294
#     4   9  19  36  53  74 104 135 167 206 250 302
#     4  11  22  35  50  73 103 135 174 214 254 305
#     4   8  15  29  49  70  94 125 164 207 251 298
#     4   9  18  33  55  82 110 132 161 203 247 298
#     4  11  21  34  50  71 101 135 172 217 262 304
#     4   9  17  30  47  69  97 125 162 213 260 298
#     4   9  17  30  46  69 100 129 163 211 253 291
#
# _framework density 17.413314
#
# number of rings (size 3 to 8) (size 9 to 14) (size 15 to 20)
#    0.000    2.750    1.250    2.250    0.000    3.500 
#    0.000    3.125    0.000    0.750    0.000    0.000 
#    0.000    0.000    0.000    0.000    0.000    0.000 
#
# Total GULP energy -396656.229288 kJ/mol
# GULP energy per Si atom -12395.507165 kJ/mol
# Density = 1.737368 g / cm^3
# Si number density = 17.413314 Si / 1000 Ang^3
#
#
#
# Elastic Constant Matrix: (Units=GPa)
#
#
# Indices 1 2 3 4 5 6 
#
# 1 84.8094 56.7004 53.7465 0.0000 -22.7894 0.0000
# 2 56.7004 91.5117 66.7539 0.0000 -17.1661 0.0000
# 3 53.7465 66.7539 112.7708 0.0000 -21.8348 0.0000
# 4 0.0000 0.0000 0.0000 34.3383 0.0000 -5.9030
# 5 -22.7894 -17.1661 -21.8348 0.0000 26.4733 0.0000
# 6 0.0000 0.0000 0.0000 -5.9030 0.0000 30.1991
#
#
#
# Elastic Compliance Matrix: (Units=1/GPa)
#
#
# Indices 1 2 3 4 5 6 
#
# 1 0.023591 -0.010381 -0.002939 0.000000 0.011153 0.000000
# 2 -0.010381 0.024104 -0.009550 0.000000 -0.001183 0.000000
# 3 -0.002939 -0.009550 0.016937 0.000000 0.005247 0.000000
# 4 0.000000 0.000000 0.000000 0.030135 0.000000 0.005890
# 5 0.011153 -0.001183 0.005247 0.000000 0.050935 0.000000
# 6 0.000000 0.000000 0.000000 0.005890 0.000000 0.034265
#
#
# Mechanical properties :
#
#
# Convention : Reuss Voigt Hill
#
# Bulk Modulus (GPa) = 52.93098 71.49927 62.21513
# Shear Modulus (GPa) = 21.55147 25.66154 23.60651
#
# Velocity S-wave (km/s) = 3.52183 3.84301 3.68592
# Velocity P-wave (km/s) = 6.85570 7.80006 7.34307
#
# Compressibility (1/GPa) = 0.01889253
#
# Stress axis : x y z
#
# Youngs Moduli (GPa) = 42.38923 41.48766 59.04208
#
# Poissons Ratio (x) = 0.43068 0.17353
# Poissons Ratio (y) = 0.44004 0.56382
# Poissons Ratio (z) = 0.12459 0.39619
#
# Static dielectric constant tensor:
#      x y z
#    x 3.051130 0.000000 -0.227870 
#    y 0.000000 3.475870 0.000000 
#    z -0.227870 0.000000 3.351750 
# 
# 
# High freq. dielectric constant tensor:
#      x y z
#    x 1.642360 0.000000 -0.023860 
#    y 0.000000 1.674470 0.000000 
#    z -0.023860 0.000000 1.669630 
# 
# From -- ./inp_files/40630.got.cif
#   From: 2010.06.25/outbox.cif.g09.slc.cpg/sg11_21_cif.got.tgz:40630.got - 2010.06.27 23:14:04.
