data_PCOD8077178
_publ_section_title
;
Structure prediction by ZEFSAII (Michael W. Deem and Ramdas Pophale) SiO2 
 PCOD8077178
Probable space group: P 21/M
;
_chemical_formula_sum "Si O2"
_cell_formula_units_Z 16
_cell_length_a 7.288897
_cell_length_b 13.925300
_cell_length_c 7.731353
_cell_angle_alpha 90.000000
_cell_angle_beta 101.661696
_cell_angle_gamma 90.000000
_cell_volume 768.534597
_symmetry_space_group_name_H-M "P 21/M"
_symmetry_group_IT_number 11
_symmetry_cell_setting 'monoclinic'
loop_
_space_group_symop_operation_xyz
x,y,z
-x,1/2+y,-z
-x,-y,-z
x,1/2-y,z
loop_
_atom_site_type_symbol
_atom_site_label
_atom_site_fract_x
_atom_site_fract_y
_atom_site_fract_z
Si Si1 0.938683 0.362991 0.898336
Si Si2 0.440495 0.522586 0.180954
Si Si3 0.790054 0.639966 0.354893
Si Si4 0.796268 0.640296 0.744183
O O1 0.910632 0.250000 0.896561
O O2 0.736845 0.408512 0.851250
O O3 0.055802 0.395968 0.752235
O O4 0.046080 0.397879 0.092326
O O5 0.607235 0.574121 0.313398
O O6 0.391217 0.422762 0.267450
O O7 0.500000 0.500000 0.000000
O O8 0.732917 0.750000 0.302796
O O9 0.875062 0.631138 0.564261
O O10 0.741238 0.750000 0.777289
#
# Coordination Sequence:
#
# PCOD8077178 Si02
#       4
#     4   4   4   4
#     4  10  22  42  63  87 121 159 199 248 302 357
#     4  12  23  38  65  91 123 161 200 245 304 359
#     4  10  22  42  63  88 122 159 201 251 300 353
#     4  10  22  41  62  87 123 161 202 251 298 352
#
# _framework density 20.818843999999999
#
# number of rings (size 3 to 8) (size 9 to 14) (size 15 to 20)
#    0.000    1.500    2.500    2.250    0.000    2.000 
#    4.500    0.000    0.000    0.000    0.000    0.000 
#    0.000    0.000    0.000    0.000    0.000    0.000 
#
# Total GULP energy -198460.435045 kJ/mol
# GULP energy per Si atom -12403.777190 kJ/mol
# Density = 2.077146 g / cm^3
# Si number density = 20.818844 Si / 1000 Ang^3
#
#
#
# Elastic Constant Matrix: (Units=GPa)
#
#
# Indices 1 2 3 4 5 6 
#
# 1 133.3790 37.4659 56.6064 0.0000 -11.0046 0.0000
# 2 37.4659 39.4524 26.6452 0.0000 -5.4401 0.0000
# 3 56.6064 26.6452 134.2010 0.0000 -26.4255 0.0000
# 4 0.0000 0.0000 0.0000 26.8003 0.0000 -1.9976
# 5 -11.0046 -5.4401 -26.4255 0.0000 25.8863 0.0000
# 6 0.0000 0.0000 0.0000 -1.9976 0.0000 39.5842
#
#
#
# Elastic Compliance Matrix: (Units=1/GPa)
#
#
# Indices 1 2 3 4 5 6 
#
# 1 0.011190 -0.008592 -0.003045 0.000000 -0.000157 0.000000
# 2 -0.008592 0.035871 -0.003420 0.000000 0.000394 0.000000
# 3 -0.003045 -0.003420 0.011288 0.000000 0.009509 0.000000
# 4 0.000000 0.000000 0.000000 0.037454 0.000000 0.001890
# 5 -0.000157 0.000394 0.009509 0.000000 0.048354 0.000000
# 6 0.000000 0.000000 0.000000 0.001890 0.000000 0.025358
#
#
# Mechanical properties :
#
#
# Convention : Reuss Voigt Hill
#
# Bulk Modulus (GPa) = 35.41852 60.94083 48.17968
# Shear Modulus (GPa) = 23.91888 30.87516 27.39702
#
# Velocity S-wave (km/s) = 3.39323 3.85520 3.63157
# Velocity P-wave (km/s) = 5.69224 7.01087 6.38568
#
# Compressibility (1/GPa) = 0.02823381
#
# Stress axis : x y z
#
# Youngs Moduli (GPa) = 89.36340 27.87804 88.59334
#
# Poissons Ratio (x) = 0.23952 0.26978
# Poissons Ratio (y) = 0.76780 0.30301
# Poissons Ratio (z) = 0.27212 0.09535
#
# Static dielectric constant tensor:
#      x y z
#    x 3.659380 0.000000 -0.164830 
#    y 0.000000 4.080740 0.000000 
#    z -0.164830 0.000000 3.895890 
# 
# 
# High freq. dielectric constant tensor:
#      x y z
#    x 1.801910 0.000000 -0.014500 
#    y 0.000000 1.834190 0.000000 
#    z -0.014500 0.000000 1.823930 
# 
# From -- ./inp_files/1516.got.cif
#   From: 2010.06.25/outbox.cif.g09.slc.cpg/sg11_1_cif.got.tgz:1516.got - 2010.06.27 23:14:04.
