data_PCOD8077614
_publ_section_title
;
Structure prediction by ZEFSAII (Michael W. Deem and Ramdas Pophale) SiO2 
 PCOD8077614
Probable space group: P 21/M
;
_chemical_formula_sum "Si O2"
_cell_formula_units_Z 16
_cell_length_a 7.697169
_cell_length_b 17.361503
_cell_length_c 7.254410
_cell_angle_alpha 90.000000
_cell_angle_beta 62.851505
_cell_angle_gamma 90.000000
_cell_volume 862.632818
_symmetry_space_group_name_H-M "P 21/M"
_symmetry_group_IT_number 11
_symmetry_cell_setting 'monoclinic'
loop_
_space_group_symop_operation_xyz
x,y,z
-x,1/2+y,-z
-x,-y,-z
x,1/2-y,z
loop_
_atom_site_type_symbol
_atom_site_label
_atom_site_fract_x
_atom_site_fract_y
_atom_site_fract_z
Si Si1 0.940178 0.931440 0.298310
Si Si2 0.270946 0.839020 0.277783
Si Si3 0.980775 0.598121 0.679799
Si Si4 0.712462 0.661371 0.112706
O O1 0.150327 0.887605 0.182160
O O2 0.864837 0.926023 0.547989
O O3 0.782499 0.891730 0.245370
O O4 0.964604 0.021079 0.231543
O O5 0.250177 0.750000 0.235960
O O6 0.494721 0.865519 0.167321
O O7 0.176997 0.855538 0.526016
O O8 0.846845 0.652536 0.868255
O O9 0.714739 0.750000 0.176355
#
# Coordination Sequence:
#
# PCOD8077614 Si02
#       4
#     4   4   4   4
#     4   9  20  39  54  79 109 139 177 221 262 310
#     4   9  19  36  53  79 109 135 180 221 254 318
#     4   9  20  39  54  79 109 139 177 221 262 310
#     4  11  21  34  57  79 105 145 174 215 272 310
#
# _framework density 18.54787
#
# number of rings (size 3 to 8) (size 9 to 14) (size 15 to 20)
#    1.500    1.000    0.000    2.250    0.000    2.000 
#    4.500    0.000    0.000    0.000    0.000    0.000 
#    0.000    0.000    0.000    0.000    0.000    0.000 
#
# Total GULP energy -198299.034409 kJ/mol
# GULP energy per Si atom -12393.689651 kJ/mol
# Density = 1.850565 g / cm^3
# Si number density = 18.547870 Si / 1000 Ang^3
#
#
#
# Elastic Constant Matrix: (Units=GPa)
#
#
# Indices 1 2 3 4 5 6 
#
# 1 51.4875 19.6716 -2.6616 0.0000 -13.7647 0.0000
# 2 19.6716 61.8055 -3.3299 0.0000 -11.7820 0.0000
# 3 -2.6616 -3.3299 61.7678 0.0000 -15.6481 0.0000
# 4 0.0000 0.0000 0.0000 15.3266 0.0000 3.7323
# 5 -13.7647 -11.7820 -15.6481 0.0000 23.7032 0.0000
# 6 0.0000 0.0000 0.0000 3.7323 0.0000 25.6602
#
#
#
# Elastic Compliance Matrix: (Units=1/GPa)
#
#
# Indices 1 2 3 4 5 6 
#
# 1 0.025752 -0.004950 0.004813 0.000000 0.015671 0.000000
# 2 -0.004950 0.019625 0.003108 0.000000 0.008932 0.000000
# 3 0.004813 0.003108 0.021212 0.000000 0.018343 0.000000
# 4 0.000000 0.000000 0.000000 0.067642 0.000000 -0.009839
# 5 0.015671 0.008932 0.018343 0.000000 0.067838 0.000000
# 6 0.000000 0.000000 0.000000 -0.009839 0.000000 0.040402
#
#
# Mechanical properties :
#
#
# Convention : Reuss Voigt Hill
#
# Bulk Modulus (GPa) = 13.78729 22.49124 18.13926
# Shear Modulus (GPa) = 19.17873 23.69669 21.43771
#
# Velocity S-wave (km/s) = 3.21909 3.57823 3.40340
# Velocity P-wave (km/s) = 4.61153 5.40592 5.02445
#
# Compressibility (1/GPa) = 0.07253058
#
# Stress axis : x y z
#
# Youngs Moduli (GPa) = 38.83244 50.95453 47.14419
#
# Poissons Ratio (x) = 0.25220 -0.22690
# Poissons Ratio (y) = 0.19220 -0.14651
# Poissons Ratio (z) = -0.18690 -0.15835
#
# Static dielectric constant tensor:
#      x y z
#    x 3.144740 0.000000 -0.069980 
#    y 0.000000 3.405640 0.000000 
#    z -0.069980 0.000000 3.175180 
# 
# 
# High freq. dielectric constant tensor:
#      x y z
#    x 1.699080 0.000000 -0.002810 
#    y 0.000000 1.732950 0.000000 
#    z -0.002810 0.000000 1.700830 
# 
# From -- ./inp_files/1590.got.cif
#   From: 2010.06.25/outbox.cif.g09.slc.cpg/sg11_1_cif.got.tgz:1590.got - 2010.06.27 23:14:04.
