data_PCOD8077132
_publ_section_title
;
Structure prediction by ZEFSAII (Michael W. Deem and Ramdas Pophale) SiO2 
 PCOD8077132
Probable space group: P 21/M
;
_chemical_formula_sum "Si O2"
_cell_formula_units_Z 24
_cell_length_a 14.399860
_cell_length_b 8.952191
_cell_length_c 16.006464
_cell_angle_alpha 90.000000
_cell_angle_beta 143.190053
_cell_angle_gamma 90.000000
_cell_volume 1236.310934
_symmetry_space_group_name_H-M "P 21/M"
_symmetry_group_IT_number 11
_symmetry_cell_setting 'monoclinic'
loop_
_space_group_symop_operation_xyz
x,y,z
-x,1/2+y,-z
-x,-y,-z
x,1/2-y,z
loop_
_atom_site_type_symbol
_atom_site_label
_atom_site_fract_x
_atom_site_fract_y
_atom_site_fract_z
Si Si1 0.014874 0.575685 0.255396
Si Si2 0.619976 0.923596 0.201782
Si Si3 0.307451 0.575279 0.575569
Si Si4 0.715774 0.076315 0.104899
Si Si5 0.887015 0.078562 0.855815
Si Si6 0.535004 0.423626 0.612144
O O1 0.969779 0.750000 0.221950
O O2 0.862497 0.476876 0.157828
O O3 0.137652 0.541165 0.416785
O O4 0.091750 0.522258 0.223912
O O5 0.657705 0.750000 0.242279
O O6 0.688041 0.016623 0.327274
O O7 0.708423 0.979431 0.183420
O O8 0.436202 0.951786 0.060911
O O9 0.344407 0.750000 0.599319
O O10 0.437920 0.492570 0.616835
O O11 0.730643 0.250000 0.139339
O O12 0.930856 0.250000 0.890146
O O13 0.713895 0.048888 0.762629
O O14 0.000000 0.000000 0.000000
O O15 0.500000 0.500000 0.500000
O O16 0.495412 0.250000 0.575222
#
# Coordination Sequence:
#
# PCOD8077132 Si02
#       6
#     4   4   4   4   4   4
#     4  10  22  41  60  85 121 158 196 245 295 348
#     4  10  22  41  63  90 120 153 195 244 296 354
#     4  11  23  40  62  89 120 158 201 243 294 353
#     4  10  22  40  63  90 119 154 196 243 295 354
#     4  10  23  41  59  86 121 157 200 245 293 347
#     4  11  22  40  62  87 121 158 199 246 293 348
#
# _framework density 19.412593000000001
#
# number of rings (size 3 to 8) (size 9 to 14) (size 15 to 20)
#    0.000    1.667    1.667    2.000    2.333    6.000 
#    0.000    0.000    0.000    0.000    0.000    0.000 
#    0.000    0.000    0.000    0.000    0.000    0.000 
#
# Total GULP energy -297716.094448 kJ/mol
# GULP energy per Si atom -12404.837269 kJ/mol
# Density = 1.936841 g / cm^3
# Si number density = 19.412593 Si / 1000 Ang^3
#
#
#
# Elastic Constant Matrix: (Units=GPa)
#
#
# Indices 1 2 3 4 5 6 
#
# 1 62.8633 27.4829 17.7644 0.0000 11.8676 0.0000
# 2 27.4829 84.6856 47.3815 0.0000 10.3655 0.0000
# 3 17.7644 47.3815 101.9597 0.0000 -9.2152 0.0000
# 4 0.0000 0.0000 0.0000 37.2895 0.0000 -2.9055
# 5 11.8676 10.3655 -9.2152 0.0000 27.3575 0.0000
# 6 0.0000 0.0000 0.0000 -2.9055 0.0000 40.5239
#
#
#
# Elastic Compliance Matrix: (Units=1/GPa)
#
#
# Indices 1 2 3 4 5 6 
#
# 1 0.019850 -0.004287 -0.002164 0.000000 -0.007715 0.000000
# 2 -0.004287 0.019248 -0.008962 0.000000 -0.008452 0.000000
# 3 -0.002164 -0.008962 0.015204 0.000000 0.009455 0.000000
# 4 0.000000 0.000000 0.000000 0.026968 0.000000 0.001934
# 5 -0.007715 -0.008452 0.009455 0.000000 0.046287 0.000000
# 6 0.000000 0.000000 0.000000 0.001934 0.000000 0.024815
#
#
# Mechanical properties :
#
#
# Convention : Reuss Voigt Hill
#
# Bulk Modulus (GPa) = 42.59436 48.30736 45.45086
# Shear Modulus (GPa) = 26.17491 31.49284 28.83387
#
# Velocity S-wave (km/s) = 3.67597 4.03213 3.85816
# Velocity P-wave (km/s) = 6.32505 6.82759 6.58112
#
# Compressibility (1/GPa) = 0.02347729
#
# Stress axis : x y z
#
# Youngs Moduli (GPa) = 50.37883 51.95273 65.77237
#
# Poissons Ratio (x) = 0.22272 0.14230
# Poissons Ratio (y) = 0.21597 0.58944
# Poissons Ratio (z) = 0.10900 0.46559
#
# Static dielectric constant tensor:
#      x y z
#    x 3.738580 0.000000 0.049770 
#    y 0.000000 3.553280 0.000000 
#    z 0.049770 0.000000 3.526780 
# 
# 
# High freq. dielectric constant tensor:
#      x y z
#    x 1.761890 0.000000 -0.000220 
#    y 0.000000 1.764520 0.000000 
#    z -0.000220 0.000000 1.761830 
# 
# From -- ./inp_files/51817.got.cif
#   From: 2010.06.25/outbox.cif.g09.slc.cpg/sg11_26_cif.got.tgz:51817.got - 2010.06.27 23:14:04.
