data_PCOD8077953
_publ_section_title
;
Structure prediction by ZEFSAII (Michael W. Deem and Ramdas Pophale) SiO2 
 PCOD8077953
Probable space group: P 21/M
;
_chemical_formula_sum "Si O2"
_cell_formula_units_Z 28
_cell_length_a 17.935222
_cell_length_b 18.439003
_cell_length_c 11.444780
_cell_angle_alpha 90.000000
_cell_angle_beta 154.451747
_cell_angle_gamma 90.000000
_cell_volume 1632.307494
_symmetry_space_group_name_H-M "P 21/M"
_symmetry_group_IT_number 11
_symmetry_cell_setting 'monoclinic'
loop_
_space_group_symop_operation_xyz
x,y,z
-x,1/2+y,-z
-x,-y,-z
x,1/2-y,z
loop_
_atom_site_type_symbol
_atom_site_label
_atom_site_fract_x
_atom_site_fract_y
_atom_site_fract_z
Si Si1 0.268283 0.330315 0.593198
Si Si2 0.761067 0.413531 0.952644
Si Si3 0.085106 0.444162 0.775846
Si Si4 0.890214 0.921733 0.446562
Si Si5 0.901730 0.330669 0.949907
Si Si6 0.438306 0.165899 0.599557
Si Si7 0.077999 0.165711 0.968814
O O1 0.307026 0.250000 0.698409
O O2 0.264655 0.387389 0.695211
O O3 0.411910 0.351589 0.699878
O O4 0.088210 0.329908 0.271776
O O5 0.774090 0.385647 0.836770
O O6 0.587488 0.386187 0.765567
O O7 0.767602 0.501693 0.963037
O O8 0.926723 0.382991 0.260320
O O9 0.152747 0.409100 0.750302
O O10 0.911096 0.491787 0.503171
O O11 0.038381 0.380659 0.798176
O O12 0.820221 0.250000 0.839796
O O13 0.931540 0.354876 0.857723
O O14 0.489551 0.250000 0.655267
O O15 0.267865 0.147507 0.284821
O O16 0.063729 0.250000 0.915754
#
# Coordination Sequence:
#
# PCOD8077953 Si02
#       7
#     4   4   4   4   4   4   4
#     4   8  14  27  46  67  88 117 153 185 219 265
#     4   9  16  28  47  69  91 117 143 190 229 258
#     4   9  18  31  47  64  95 117 155 185 220 269
#     4   8  17  32  46  66  91 118 151 194 217 256
#     4   8  14  26  44  66  88 113 149 184 222 265
#     4   9  17  29  46  69  94 114 144 188 229 267
#     4   9  18  31  46  64  90 122 149 180 225 276
#
# _framework density 17.15363
#
# number of rings (size 3 to 8) (size 9 to 14) (size 15 to 20)
#    0.857    2.571    0.000    2.143    0.000    2.286 
#    0.000    0.714    0.000    0.000    0.000    2.000 
#    0.000    0.000    0.000    0.000    0.000    0.000 
#
# Total GULP energy -346890.264370 kJ/mol
# GULP energy per Si atom -12388.938013 kJ/mol
# Density = 1.711459 g / cm^3
# Si number density = 17.153630 Si / 1000 Ang^3
#
#
#
# Elastic Constant Matrix: (Units=GPa)
#
#
# Indices 1 2 3 4 5 6 
#
# 1 165.1688 80.3098 31.5688 0.0000 -9.8958 0.0000
# 2 80.3098 74.3508 18.2565 0.0000 -7.8671 0.0000
# 3 31.5688 18.2565 18.2932 0.0000 -0.8634 0.0000
# 4 0.0000 0.0000 0.0000 7.9249 0.0000 -7.4243
# 5 -9.8958 -7.8671 -0.8634 0.0000 26.0205 0.0000
# 6 0.0000 0.0000 0.0000 -7.4243 0.0000 37.9286
#
#
#
# Elastic Compliance Matrix: (Units=1/GPa)
#
#
# Indices 1 2 3 4 5 6 
#
# 1 0.014697 -0.012609 -0.012714 0.000000 0.001355 0.000000
# 2 -0.012609 0.029254 -0.007256 0.000000 0.003809 0.000000
# 3 -0.012714 -0.007256 0.083647 0.000000 -0.004254 0.000000
# 4 0.000000 0.000000 0.000000 0.154520 0.000000 0.030246
# 5 0.001355 0.003809 -0.004254 0.000000 0.039957 0.000000
# 6 0.000000 0.000000 0.000000 0.030246 0.000000 0.032286
#
#
# Mechanical properties :
#
#
# Convention : Reuss Voigt Hill
#
# Bulk Modulus (GPa) = 16.01562 57.56475 36.79019
# Shear Modulus (GPa) = 11.35507 22.88666 17.12087
#
# Velocity S-wave (km/s) = 2.57566 3.65666 3.16268
# Velocity P-wave (km/s) = 4.26640 7.17352 5.90176
#
# Compressibility (1/GPa) = 0.06243903
#
# Stress axis : x y z
#
# Youngs Moduli (GPa) = 68.04259 34.18309 11.95502
#
# Poissons Ratio (x) = 0.43102 0.15200
# Poissons Ratio (y) = 0.85797 0.08674
# Poissons Ratio (z) = 0.86512 0.24802
#
# Static dielectric constant tensor:
#      x y z
#    x 3.363000 0.000000 -0.020260 
#    y 0.000000 3.141730 0.000000 
#    z -0.020260 0.000000 2.636370 
# 
# 
# High freq. dielectric constant tensor:
#      x y z
#    x 1.674050 0.000000 -0.002690 
#    y 0.000000 1.651200 0.000000 
#    z -0.002690 0.000000 1.600250 
# 
# From -- ./inp_files/41786.got.cif
#   From: 2010.06.25/outbox.cif.g09.slc.cpg/sg11_21_cif.got.tgz:41786.got - 2010.06.27 23:14:04.
