data_PCOD8077874
_publ_section_title
;
Structure prediction by ZEFSAII (Michael W. Deem and Ramdas Pophale) SiO2 
 PCOD8077874
Probable space group: P 21/M
;
_chemical_formula_sum "Si O2"
_cell_formula_units_Z 32
_cell_length_a 12.585465
_cell_length_b 17.956821
_cell_length_c 16.633296
_cell_angle_alpha 90.000000
_cell_angle_beta 153.882881
_cell_angle_gamma 90.000000
_cell_volume 1654.757809
_symmetry_space_group_name_H-M "P 21/M"
_symmetry_group_IT_number 11
_symmetry_cell_setting 'monoclinic'
loop_
_space_group_symop_operation_xyz
x,y,z
-x,1/2+y,-z
-x,-y,-z
x,1/2-y,z
loop_
_atom_site_type_symbol
_atom_site_label
_atom_site_fract_x
_atom_site_fract_y
_atom_site_fract_z
Si Si1 0.450185 0.085005 0.947049
Si Si2 0.822715 0.838792 0.940890
Si Si3 0.870508 0.165566 0.154091
Si Si4 0.358865 0.838697 0.324951
Si Si5 0.556870 0.161720 0.185632
Si Si6 0.278767 0.165563 0.562344
Si Si7 0.940758 0.914995 0.443895
Si Si8 0.257155 0.338699 0.291073
O O1 0.183635 0.094060 0.727882
O O2 0.643084 0.112410 0.012314
O O3 0.468449 0.133445 0.039592
O O4 0.500000 0.000000 0.000000
O O5 0.828945 0.750000 0.942957
O O6 0.087730 0.870374 0.142912
O O7 0.633438 0.867803 0.877798
O O8 0.746695 0.870376 0.801870
O O9 0.780115 0.250000 0.078781
O O10 0.036857 0.162262 0.345626
O O11 0.016887 0.136111 0.175730
O O12 0.361264 0.750000 0.328709
O O13 0.493386 0.863892 0.334544
O O14 0.504190 0.869515 0.501385
O O15 0.566579 0.250000 0.188834
O O16 0.818171 0.133457 0.389287
O O17 0.323904 0.250000 0.622567
O O18 0.249256 0.112409 0.618479
O O19 0.000000 0.000000 0.500000
O O20 0.263633 0.250000 0.296170
#
# Coordination Sequence:
#
# PCOD8077874 Si02
#       8
#     4   4   4   4   4   4   4   4
#     4  12  24  40  61  84 118 164 203 247 306 363
#     4   9  18  32  53  81 119 156 187 233 289 350
#     4   9  17  32  56  87 120 147 189 254 302 347
#     4   8  15  28  49  80 115 149 185 236 298 344
#     4  11  24  42  61  91 128 157 199 251 294 358
#     4   9  17  32  56  87 120 147 189 254 302 347
#     4  12  24  40  61  84 118 164 203 247 306 363
#     4   8  15  28  49  80 115 149 185 236 298 344
#
# _framework density 19.338177000000002
#
# number of rings (size 3 to 8) (size 9 to 14) (size 15 to 20)
#    0.000    2.250    2.500    2.250    1.750    3.000 
#    0.000    2.500    0.000    3.000    0.000    5.250 
#    0.000    0.000    0.000    0.000    0.000    0.000 
#
# Total GULP energy -396756.550055 kJ/mol
# GULP energy per Si atom -12398.642189 kJ/mol
# Density = 1.929416 g / cm^3
# Si number density = 19.338177 Si / 1000 Ang^3
#
#
#
# Elastic Constant Matrix: (Units=GPa)
#
#
# Indices 1 2 3 4 5 6 
#
# 1 145.0182 35.6279 85.8426 0.0000 1.5140 0.0000
# 2 35.6279 61.7862 33.7694 0.0000 0.4199 0.0000
# 3 85.8426 33.7694 156.3352 0.0000 -4.2936 0.0000
# 4 0.0000 0.0000 0.0000 20.4239 0.0000 -4.3771
# 5 1.5140 0.4199 -4.2936 0.0000 27.7839 0.0000
# 6 0.0000 0.0000 0.0000 -4.3771 0.0000 2.2460
#
#
#
# Elastic Compliance Matrix: (Units=1/GPa)
#
#
# Indices 1 2 3 4 5 6 
#
# 1 0.010858 -0.003371 -0.005271 0.000000 -0.001355 0.000000
# 2 -0.003371 0.019420 -0.002357 0.000000 -0.000474 0.000000
# 3 -0.005271 -0.002357 0.009851 0.000000 0.001845 0.000000
# 4 0.000000 0.000000 0.000000 0.084078 0.000000 0.163855
# 5 -0.001355 -0.000474 0.001845 0.000000 0.036358 0.000000
# 6 0.000000 0.000000 0.000000 0.163855 0.000000 0.764568
#
#
# Mechanical properties :
#
#
# Convention : Reuss Voigt Hill
#
# Bulk Modulus (GPa) = 55.15496 74.84662 65.00079
# Shear Modulus (GPa) = 5.24563 23.95074 14.59818
#
# Velocity S-wave (km/s) = 1.64878 3.52308 2.75051
# Velocity P-wave (km/s) = 5.67519 7.43892 6.61609
#
# Compressibility (1/GPa) = 0.01813074
#
# Stress axis : x y z
#
# Youngs Moduli (GPa) = 92.09509 51.49313 101.51536
#
# Poissons Ratio (x) = 0.17358 0.53512
# Poissons Ratio (y) = 0.31045 0.23926
# Poissons Ratio (z) = 0.48546 0.12136
#
# Static dielectric constant tensor:
#      x y z
#    x 3.728750 0.000000 0.010710 
#    y 0.000000 3.106850 0.000000 
#    z 0.010710 0.000000 3.683010 
# 
# 
# High freq. dielectric constant tensor:
#      x y z
#    x 1.756720 0.000000 -0.001720 
#    y 0.000000 1.707190 0.000000 
#    z -0.001720 0.000000 1.763800 
# 
# From -- ./inp_files/50740.got.cif
#   From: 2010.06.25/outbox.cif.g09.slc.cpg/sg11_26_cif.got.tgz:50740.got - 2010.06.27 23:14:04.
