data_PCOD8077734
_publ_section_title
;
Structure prediction by ZEFSAII (Michael W. Deem and Ramdas Pophale) SiO2 
 PCOD8077734
Probable space group: P 21/M
;
_chemical_formula_sum "Si O2"
_cell_formula_units_Z 32
_cell_length_a 12.269921
_cell_length_b 15.523521
_cell_length_c 19.527629
_cell_angle_alpha 90.000000
_cell_angle_beta 152.724197
_cell_angle_gamma 90.000000
_cell_volume 1704.539056
_symmetry_space_group_name_H-M "P 21/M"
_symmetry_group_IT_number 11
_symmetry_cell_setting 'monoclinic'
loop_
_space_group_symop_operation_xyz
x,y,z
-x,1/2+y,-z
-x,-y,-z
x,1/2-y,z
loop_
_atom_site_type_symbol
_atom_site_label
_atom_site_fract_x
_atom_site_fract_y
_atom_site_fract_z
Si Si1 0.397351 0.351786 0.851483
Si Si2 0.613515 0.352200 0.109655
Si Si3 0.858212 0.850524 0.560095
Si Si4 0.147238 0.943341 0.133024
Si Si5 0.903326 0.348371 0.641336
Si Si6 0.558475 0.998925 0.453792
Si Si7 0.524761 0.849229 0.254275
Si Si8 0.148243 0.348444 0.920656
O O1 0.424702 0.250000 0.863070
O O2 0.459024 0.394094 0.811861
O O3 0.127215 0.374736 0.719853
O O4 0.573653 0.387859 0.009597
O O5 0.584491 0.250000 0.090775
O O6 0.868089 0.380287 0.281096
O O7 0.405542 0.388427 0.043137
O O8 0.825663 0.750000 0.563807
O O9 0.704383 0.910513 0.523988
O O10 0.770640 0.865183 0.433198
O O11 0.317280 0.000935 0.275449
O O12 0.302322 0.879041 0.174264
O O13 0.954981 0.894845 0.071292
O O14 0.000000 0.000000 0.000000
O O15 0.821443 0.250000 0.579920
O O16 0.696868 0.415386 0.507560
O O17 0.965882 0.357650 0.756066
O O18 0.500000 0.000000 0.500000
O O19 0.483746 0.750000 0.218252
O O20 0.181869 0.250000 0.960334
#
# Coordination Sequence:
#
# PCOD8077734 Si02
#       8
#     4   4   4   4   4   4   4   4
#     4   8  15  31  55  80 107 138 180 227 276 327
#     4   8  15  31  56  85 108 133 182 237 273 318
#     4   9  19  35  55  83 114 144 182 226 277 330
#     4  11  23  38  51  78 117 147 183 230 276 332
#     4   9  18  36  60  84 108 142 188 236 279 326
#     4  11  22  38  57  81 113 145 192 233 274 331
#     4   9  18  35  57  77 103 148 185 217 273 339
#     4   9  17  35  62  81 104 149 191 223 272 333
#
# _framework density 18.773402999999998
#
# number of rings (size 3 to 8) (size 9 to 14) (size 15 to 20)
#    0.000    2.750    1.250    1.875    0.000    2.000 
#    4.500    3.750    0.000    0.000    0.000    0.000 
#    0.000    0.000    0.000    0.000    0.000    0.000 
#
# Total GULP energy -396635.252722 kJ/mol
# GULP energy per Si atom -12394.851648 kJ/mol
# Density = 1.873067 g / cm^3
# Si number density = 18.773403 Si / 1000 Ang^3
#
#
#
# Elastic Constant Matrix: (Units=GPa)
#
#
# Indices 1 2 3 4 5 6 
#
# 1 155.9264 34.7541 76.5587 0.0000 -13.5987 0.0000
# 2 34.7541 54.8401 43.4039 0.0000 -0.4815 0.0000
# 3 76.5587 43.4039 146.5802 0.0000 1.8936 0.0000
# 4 0.0000 0.0000 0.0000 24.3989 0.0000 -0.8398
# 5 -13.5987 -0.4815 1.8936 0.0000 21.8928 0.0000
# 6 0.0000 0.0000 0.0000 -0.8398 0.0000 19.6370
#
#
#
# Elastic Compliance Matrix: (Units=1/GPa)
#
#
# Indices 1 2 3 4 5 6 
#
# 1 0.009698 -0.002634 -0.004367 0.000000 0.006344 0.000000
# 2 -0.002634 0.024560 -0.005889 0.000000 -0.000586 0.000000
# 3 -0.004367 -0.005889 0.010896 0.000000 -0.003785 0.000000
# 4 0.000000 0.000000 0.000000 0.041046 0.000000 0.001755
# 5 0.006344 -0.000586 -0.003785 0.000000 0.049932 0.000000
# 6 0.000000 0.000000 0.000000 0.001755 0.000000 0.050999
#
#
# Mechanical properties :
#
#
# Convention : Reuss Voigt Hill
#
# Bulk Modulus (GPa) = 51.61745 74.08666 62.85205
# Shear Modulus (GPa) = 22.79265 26.69441 24.74353
#
# Velocity S-wave (km/s) = 3.48816 3.77494 3.63438
# Velocity P-wave (km/s) = 6.61647 7.65176 7.15287
#
# Compressibility (1/GPa) = 0.01937329
#
# Stress axis : x y z
#
# Youngs Moduli (GPa) = 103.11600 40.71681 91.77670
#
# Poissons Ratio (x) = 0.10723 0.40081
# Poissons Ratio (y) = 0.27157 0.54050
# Poissons Ratio (z) = 0.45034 0.23979
#
# Static dielectric constant tensor:
#      x y z
#    x 3.474250 0.000000 0.112530 
#    y 0.000000 3.257350 0.000000 
#    z 0.112530 0.000000 3.647500 
# 
# 
# High freq. dielectric constant tensor:
#      x y z
#    x 1.733970 0.000000 0.000720 
#    y 0.000000 1.711760 0.000000 
#    z 0.000720 0.000000 1.723750 
# 
# From -- ./inp_files/41638.got.cif
#   From: 2010.06.25/outbox.cif.g09.slc.cpg/sg11_21_cif.got.tgz:41638.got - 2010.06.27 23:14:04.
