data_PCOD8077133
_publ_section_title
;
Structure prediction by ZEFSAII (Michael W. Deem and Ramdas Pophale) SiO2 
 PCOD8077133
Probable space group: P 21/M
;
_chemical_formula_sum "Si O2"
_cell_formula_units_Z 28
_cell_length_a 15.996819
_cell_length_b 8.736519
_cell_length_c 20.183661
_cell_angle_alpha 90.000000
_cell_angle_beta 150.196006
_cell_angle_gamma 90.000000
_cell_volume 1402.033825
_symmetry_space_group_name_H-M "P 21/M"
_symmetry_group_IT_number 11
_symmetry_cell_setting 'monoclinic'
loop_
_space_group_symop_operation_xyz
x,y,z
-x,1/2+y,-z
-x,-y,-z
x,1/2-y,z
loop_
_atom_site_type_symbol
_atom_site_label
_atom_site_fract_x
_atom_site_fract_y
_atom_site_fract_z
Si Si1 0.529237 0.930673 0.208084
Si Si2 0.454686 0.071221 0.399453
Si Si3 0.079047 0.072955 0.736364
Si Si4 0.826463 0.929524 0.049233
Si Si5 0.306382 0.570111 0.553134
Si Si6 0.071689 0.069922 0.115579
Si Si7 0.366882 0.929988 0.858202
O O1 0.523861 0.750000 0.195975
O O2 0.648925 0.976588 0.350694
O O3 0.606959 0.004313 0.196343
O O4 0.342126 0.991684 0.093258
O O5 0.479941 0.250000 0.424156
O O6 0.577530 0.008847 0.426728
O O7 0.266581 0.026300 0.250828
O O8 0.500000 0.000000 0.500000
O O9 0.111229 0.250000 0.741805
O O10 0.147943 0.032622 0.856294
O O11 0.883877 0.031683 0.597547
O O12 0.178889 0.970478 0.752241
O O13 0.812880 0.750000 0.026359
O O14 0.985400 0.995182 0.119806
O O15 0.334163 0.750000 0.585343
O O16 0.040686 0.250000 0.095456
O O17 0.000000 0.000000 0.000000
O O18 0.394314 0.750000 0.874708
O O19 0.500000 0.000000 0.000000
#
# Coordination Sequence:
#
# PCOD8077133 Si02
#       7
#     4   4   4   4   4   4   4
#     4  12  25  41  64  94 127 165 208 258 314 375
#     4  10  22  40  63  90 123 165 209 256 309 368
#     4  10  22  40  65  93 123 162 209 258 310 370
#     4  11  22  39  64  91 122 162 207 258 314 371
#     4  10  22  42  64  91 127 167 210 257 312 372
#     4  11  23  38  59  90 125 161 208 260 311 371
#     4  12  24  41  66  94 126 163 206 257 311 371
#
# _framework density 19.970987999999998
#
# number of rings (size 3 to 8) (size 9 to 14) (size 15 to 20)
#    0.000    1.143    1.429    5.143    0.000    5.714 
#    0.000    0.000    0.000    0.000    0.000    0.000 
#    0.000    0.000    0.000    0.000    0.000    0.000 
#
# Total GULP energy -347398.272493 kJ/mol
# GULP energy per Si atom -12407.081160 kJ/mol
# Density = 1.992553 g / cm^3
# Si number density = 19.970988 Si / 1000 Ang^3
#
#
#
# Elastic Constant Matrix: (Units=GPa)
#
#
# Indices 1 2 3 4 5 6 
#
# 1 128.4071 49.8947 42.9414 0.0000 9.7158 0.0000
# 2 49.8947 108.1979 52.2370 0.0000 3.5374 0.0000
# 3 42.9414 52.2370 105.9139 0.0000 -0.8927 0.0000
# 4 0.0000 0.0000 0.0000 32.7871 0.0000 -0.7134
# 5 9.7158 3.5374 -0.8927 0.0000 40.2123 0.0000
# 6 0.0000 0.0000 0.0000 -0.7134 0.0000 39.2457
#
#
#
# Elastic Compliance Matrix: (Units=1/GPa)
#
#
# Indices 1 2 3 4 5 6 
#
# 1 0.010090 -0.003409 -0.002428 0.000000 -0.002192 0.000000
# 2 -0.003409 0.013341 -0.005201 0.000000 -0.000465 0.000000
# 3 -0.002428 -0.005201 0.013003 0.000000 0.001333 0.000000
# 4 0.000000 0.000000 0.000000 0.030512 0.000000 0.000555
# 5 -0.002192 -0.000465 0.001333 0.000000 0.025468 0.000000
# 6 0.000000 0.000000 0.000000 0.000555 0.000000 0.025491
#
#
# Mechanical properties :
#
#
# Convention : Reuss Voigt Hill
#
# Bulk Modulus (GPa) = 69.65506 70.29611 69.97558
# Shear Modulus (GPa) = 34.53824 35.61209 35.07517
#
# Velocity S-wave (km/s) = 4.16314 4.22737 4.19538
# Velocity P-wave (km/s) = 7.61990 7.68785 7.65395
#
# Compressibility (1/GPa) = 0.01435646
#
# Stress axis : x y z
#
# Youngs Moduli (GPa) = 99.10584 74.95766 76.90733
#
# Poissons Ratio (x) = 0.25554 0.18673
# Poissons Ratio (y) = 0.33787 0.40003
# Poissons Ratio (z) = 0.24063 0.38989
#
# Static dielectric constant tensor:
#      x y z
#    x 3.884550 0.000000 0.086900 
#    y 0.000000 3.704030 0.000000 
#    z 0.086900 0.000000 3.649570 
# 
# 
# High freq. dielectric constant tensor:
#      x y z
#    x 1.796620 0.000000 0.004360 
#    y 0.000000 1.781600 0.000000 
#    z 0.004360 0.000000 1.790000 
# 
# From -- ./inp_files/65475.got.cif
#   From: 2010.06.25/outbox.cif.g09.slc.cpg/sg11_33_cif.got.tgz:65475.got - 2010.06.27 23:14:04.
