data_PCOD8077344
_publ_section_title
;
Structure prediction by ZEFSAII (Michael W. Deem and Ramdas Pophale) SiO2 
 PCOD8077344
Probable space group: P 21/M
;
_chemical_formula_sum "Si O2"
_cell_formula_units_Z 20
_cell_length_a 7.704505
_cell_length_b 26.852645
_cell_length_c 4.944293
_cell_angle_alpha 90.000000
_cell_angle_beta 60.618818
_cell_angle_gamma 90.000000
_cell_volume 891.335295
_symmetry_space_group_name_H-M "P 21/M"
_symmetry_group_IT_number 11
_symmetry_cell_setting 'monoclinic'
loop_
_space_group_symop_operation_xyz
x,y,z
-x,1/2+y,-z
-x,-y,-z
x,1/2-y,z
loop_
_atom_site_type_symbol
_atom_site_label
_atom_site_fract_x
_atom_site_fract_y
_atom_site_fract_z
Si Si1 0.917915 0.445734 0.012342
Si Si2 0.416961 0.343836 0.133644
Si Si3 0.172085 0.804624 0.249536
Si Si4 0.729285 0.094595 0.643033
Si Si5 0.155491 0.349444 0.850796
O O1 0.847887 0.440949 0.758643
O O2 0.087944 0.406021 0.956591
O O3 0.730016 0.432925 0.354061
O O4 0.000000 0.500000 0.000000
O O5 0.598498 0.304729 0.032495
O O6 0.507790 0.394873 0.928194
O O7 0.246002 0.325168 0.056224
O O8 0.329603 0.352611 0.494731
O O9 0.127067 0.750000 0.410451
O O10 0.151640 0.851481 0.474153
O O11 0.024289 0.814195 0.110784
#
# Coordination Sequence:
#
# PCOD8077344 Si02
#       5
#     4   4   4   4   4
#     4  11  21  40  66  93 126 171 213 262 322 381
#     4  10  23  40  64  90 132 161 212 257 318 369
#     4   9  22  41  66  92 130 166 210 264 323 379
#     4   9  21  40  61  88 133 161 201 270 315 362
#     4  11  22  41  64  92 126 170 206 266 310 380
#
# _framework density 22.438245999999999
#
# number of rings (size 3 to 8) (size 9 to 14) (size 15 to 20)
#    1.200    0.800    0.000    4.200    0.000    1.600 
#    0.000   20.000    0.000    0.000    0.000    0.000 
#    0.000    0.000    0.000    0.000    0.000    0.000 
#
# Total GULP energy -247796.658579 kJ/mol
# GULP energy per Si atom -12389.832929 kJ/mol
# Density = 2.238718 g / cm^3
# Si number density = 22.438246 Si / 1000 Ang^3
#
#
#
# Elastic Constant Matrix: (Units=GPa)
#
#
# Indices 1 2 3 4 5 6 
#
# 1 80.2302 17.3455 -5.7621 0.0000 -14.6657 0.0000
# 2 17.3455 109.9780 22.2622 0.0000 3.2831 0.0000
# 3 -5.7621 22.2622 57.8135 0.0000 10.8327 0.0000
# 4 0.0000 0.0000 0.0000 18.5850 0.0000 1.1203
# 5 -14.6657 3.2831 10.8327 0.0000 28.5731 0.0000
# 6 0.0000 0.0000 0.0000 1.1203 0.0000 11.4553
#
#
#
# Elastic Compliance Matrix: (Units=1/GPa)
#
#
# Indices 1 2 3 4 5 6 
#
# 1 0.014472 -0.002728 0.001122 0.000000 0.007316 0.000000
# 2 -0.002728 0.010379 -0.004072 0.000000 -0.001049 0.000000
# 3 0.001122 -0.004072 0.020217 0.000000 -0.006621 0.000000
# 4 0.000000 0.000000 0.000000 0.054126 0.000000 -0.005294
# 5 0.007316 -0.001049 -0.006621 0.000000 0.041384 0.000000
# 6 0.000000 0.000000 0.000000 -0.005294 0.000000 0.087813
#
#
# Mechanical properties :
#
#
# Convention : Reuss Voigt Hill
#
# Bulk Modulus (GPa) = 29.66288 35.07922 32.37105
# Shear Modulus (GPa) = 19.92162 26.00109 22.96135
#
# Velocity S-wave (km/s) = 2.98290 3.40779 3.20240
# Velocity P-wave (km/s) = 5.01119 5.58136 5.30395
#
# Compressibility (1/GPa) = 0.03371217
#
# Stress axis : x y z
#
# Youngs Moduli (GPa) = 69.09978 96.35280 49.46242
#
# Poissons Ratio (x) = 0.26285 -0.05550
# Poissons Ratio (y) = 0.18850 0.20140
# Poissons Ratio (z) = -0.07753 0.39233
#
# Static dielectric constant tensor:
#      x y z
#    x 4.028460 0.000000 -0.113310 
#    y 0.000000 3.664630 0.000000 
#    z -0.113310 0.000000 3.925270 
# 
# 
# High freq. dielectric constant tensor:
#      x y z
#    x 1.886150 0.000000 -0.003030 
#    y 0.000000 1.849680 0.000000 
#    z -0.003030 0.000000 1.885480 
# 
# From -- ./inp_files/2956.got.cif
#   From: 2010.06.25/outbox.cif.g09.slc.cpg/sg11_2_cif.got.tgz:2956.got - 2010.06.27 23:14:04.
