data_PCOD8077278
_publ_section_title
;
Structure prediction by ZEFSAII (Michael W. Deem and Ramdas Pophale) SiO2 
 PCOD8077278
Probable space group: P 21/M
;
_chemical_formula_sum "Si O2"
_cell_formula_units_Z 32
_cell_length_a 15.144224
_cell_length_b 22.710045
_cell_length_c 9.382208
_cell_angle_alpha 90.000000
_cell_angle_beta 150.799469
_cell_angle_gamma 90.000000
_cell_volume 1574.244505
_symmetry_space_group_name_H-M "P 21/M"
_symmetry_group_IT_number 11
_symmetry_cell_setting 'monoclinic'
loop_
_space_group_symop_operation_xyz
x,y,z
-x,1/2+y,-z
-x,-y,-z
x,1/2-y,z
loop_
_atom_site_type_symbol
_atom_site_label
_atom_site_fract_x
_atom_site_fract_y
_atom_site_fract_z
Si Si1 0.342795 0.600193 0.685816
Si Si2 0.259585 0.405039 0.288973
Si Si3 0.962727 0.183241 0.409654
Si Si4 0.843412 0.518206 0.607758
Si Si5 0.211916 0.015484 0.973892
Si Si6 0.023368 0.683413 0.234229
Si Si7 0.742350 0.595278 0.218625
Si Si8 0.363763 0.600241 0.052180
O O1 0.262939 0.541203 0.503515
O O2 0.214410 0.654288 0.461785
O O3 0.537722 0.614116 0.890377
O O4 0.352530 0.590803 0.868504
O O5 0.132476 0.445389 0.212057
O O6 0.435806 0.379899 0.618081
O O7 0.322054 0.445261 0.243150
O O8 0.143217 0.349802 0.073256
O O9 0.948747 0.250000 0.334309
O O10 0.999614 0.180991 0.629160
O O11 0.133878 0.152158 0.575249
O O12 0.779070 0.150258 0.103693
O O13 0.720030 0.556979 0.329345
O O14 0.029949 0.506220 0.791517
O O15 0.160754 0.057490 0.769007
O O16 0.327444 0.961007 0.081137
O O17 0.024428 0.750000 0.178762
#
# Coordination Sequence:
#
# PCOD8077278 Si02
#       8
#     4   4   4   4   4   4   4   4
#     4  11  22  39  65  94 124 163 209 253 305 367
#     4  12  24  40  61  97 130 162 197 255 318 369
#     4  10  22  42  66  89 115 163 219 258 297 362
#     4  12  22  39  63  95 132 161 199 255 312 373
#     4  12  22  38  63  93 130 166 198 247 316 377
#     4  10  23  44  65  86 121 167 211 253 308 368
#     4  12  21  39  66  92 126 162 206 255 303 369
#     4  11  22  39  63  93 126 162 206 254 309 365
#
# _framework density 20.327210000000001
#
# number of rings (size 3 to 8) (size 9 to 14) (size 15 to 20)
#    0.000    0.750    6.250    3.000    0.000    1.000 
#    0.000    0.625    0.000    0.000    0.000    0.000 
#    0.000    0.000    0.000    0.000    0.000    0.000 
#
# Total GULP energy -396889.445596 kJ/mol
# GULP energy per Si atom -12402.795175 kJ/mol
# Density = 2.028094 g / cm^3
# Si number density = 20.327210 Si / 1000 Ang^3
#
#
#
# Elastic Constant Matrix: (Units=GPa)
#
#
# Indices 1 2 3 4 5 6 
#
# 1 64.7194 40.8884 23.3087 0.0000 9.5064 0.0000
# 2 40.8884 157.4421 60.4278 0.0000 7.7236 0.0000
# 3 23.3087 60.4278 106.5895 0.0000 15.0970 0.0000
# 4 0.0000 0.0000 0.0000 23.0885 0.0000 -2.2189
# 5 9.5064 7.7236 15.0970 0.0000 41.2690 0.0000
# 6 0.0000 0.0000 0.0000 -2.2189 0.0000 11.4531
#
#
#
# Elastic Compliance Matrix: (Units=1/GPa)
#
#
# Indices 1 2 3 4 5 6 
#
# 1 0.019098 -0.004312 -0.001290 0.000000 -0.003120 0.000000
# 2 -0.004312 0.009093 -0.004336 0.000000 0.000878 0.000000
# 3 -0.001290 -0.004336 0.012619 0.000000 -0.003508 0.000000
# 4 0.000000 0.000000 0.000000 0.044133 0.000000 0.008550
# 5 -0.003120 0.000878 -0.003508 0.000000 0.026069 0.000000
# 6 0.000000 0.000000 0.000000 0.008550 0.000000 0.088969
#
#
# Mechanical properties :
#
#
# Convention : Reuss Voigt Hill
#
# Bulk Modulus (GPa) = 47.76917 64.22229 55.99573
# Shear Modulus (GPa) = 22.04245 28.77052 25.40649
#
# Velocity S-wave (km/s) = 3.29657 3.76622 3.53919
# Velocity P-wave (km/s) = 6.16773 7.11164 6.65644
#
# Compressibility (1/GPa) = 0.02093400
#
# Stress axis : x y z
#
# Youngs Moduli (GPa) = 52.36063 109.98048 79.24589
#
# Poissons Ratio (x) = 0.47421 0.10223
# Poissons Ratio (y) = 0.22576 0.34363
# Poissons Ratio (z) = 0.06754 0.47690
#
# Static dielectric constant tensor:
#      x y z
#    x 3.688940 0.000000 -0.029490 
#    y 0.000000 3.760390 0.000000 
#    z -0.029490 0.000000 3.731760 
# 
# 
# High freq. dielectric constant tensor:
#      x y z
#    x 1.787220 0.000000 0.006460 
#    y 0.000000 1.783490 0.000000 
#    z 0.006460 0.000000 1.800000 
# 
# From -- ./inp_files/23382.got.cif
#   From: 2010.06.25/outbox.cif.g09.slc.cpg/sg11_12_cif.got.tgz:23382.got - 2010.06.27 23:14:04.
