data_PCOD8077740
_publ_section_title
;
Structure prediction by ZEFSAII (Michael W. Deem and Ramdas Pophale) SiO2 
 PCOD8077740
Probable space group: P 21/M
;
_chemical_formula_sum "Si O2"
_cell_formula_units_Z 20
_cell_length_a 9.378194
_cell_length_b 13.208669
_cell_length_c 12.851613
_cell_angle_alpha 90.000000
_cell_angle_beta 144.774646
_cell_angle_gamma 90.000000
_cell_volume 918.240690
_symmetry_space_group_name_H-M "P 21/M"
_symmetry_group_IT_number 11
_symmetry_cell_setting 'monoclinic'
loop_
_space_group_symop_operation_xyz
x,y,z
-x,1/2+y,-z
-x,-y,-z
x,1/2-y,z
loop_
_atom_site_type_symbol
_atom_site_label
_atom_site_fract_x
_atom_site_fract_y
_atom_site_fract_z
Si Si1 0.124272 0.056917 0.755046
Si Si2 0.355993 0.635356 0.608396
Si Si3 0.348130 0.635601 0.966259
Si Si4 0.751788 0.363676 0.680882
Si Si5 0.724947 0.471440 0.865289
O O1 0.917916 0.084371 0.544453
O O2 0.011711 0.081503 0.803087
O O3 0.203717 0.938617 0.799963
O O4 0.359114 0.127764 0.875922
O O5 0.353933 0.750000 0.651875
O O6 0.427739 0.636496 0.527652
O O7 0.555333 0.569208 0.790243
O O8 0.260949 0.750000 0.892473
O O9 0.283134 0.606779 0.045501
O O10 0.818385 0.250000 0.754352
O O11 0.615312 0.417954 0.695693
O O12 0.000000 0.500000 0.000000
#
# Coordination Sequence:
#
# PCOD8077740 Si02
#       5
#     4   4   4   4   4
#     4   9  20  42  61  83 114 156 200 237 288 358
#     4   9  20  39  62  81 114 161 198 236 291 352
#     4  11  22  38  62  89 121 152 192 249 294 340
#     4   9  18  37  59  80 113 155 193 234 291 349
#     4  12  22  36  53  92 121 148 195 248 291 344
#
# _framework density 21.780781999999999
#
# number of rings (size 3 to 8) (size 9 to 14) (size 15 to 20)
#    1.200    0.800    2.000    2.400    0.000    2.400 
#    0.000    3.000    0.000    0.000    0.000    0.000 
#    0.000    0.000    0.000    0.000    0.000    0.000 
#
# Total GULP energy -247857.210004 kJ/mol
# GULP energy per Si atom -12392.860500 kJ/mol
# Density = 2.173121 g / cm^3
# Si number density = 21.780782 Si / 1000 Ang^3
#
#
#
# Elastic Constant Matrix: (Units=GPa)
#
#
# Indices 1 2 3 4 5 6 
#
# 1 68.2347 18.6296 3.4635 0.0000 11.6315 0.0000
# 2 18.6296 174.6315 32.8234 0.0000 25.6108 0.0000
# 3 3.4635 32.8234 48.1107 0.0000 26.3017 0.0000
# 4 0.0000 0.0000 0.0000 26.7073 0.0000 0.6682
# 5 11.6315 25.6108 26.3017 0.0000 30.4450 0.0000
# 6 0.0000 0.0000 0.0000 0.6682 0.0000 27.1069
#
#
#
# Elastic Compliance Matrix: (Units=1/GPa)
#
#
# Indices 1 2 3 4 5 6 
#
# 1 0.016347 -0.001278 0.004779 0.000000 -0.009298 0.000000
# 2 -0.001278 0.006830 -0.003210 0.000000 -0.002484 0.000000
# 3 0.004779 -0.003210 0.041980 0.000000 -0.035392 0.000000
# 4 0.000000 0.000000 0.000000 0.037466 0.000000 -0.000924
# 5 -0.009298 -0.002484 -0.035392 0.000000 0.069064 0.000000
# 6 0.000000 0.000000 0.000000 -0.000924 0.000000 0.036914
#
#
# Mechanical properties :
#
#
# Convention : Reuss Voigt Hill
#
# Bulk Modulus (GPa) = 15.21189 44.53444 29.87317
# Shear Modulus (GPa) = 21.74546 32.58921 27.16734
#
# Velocity S-wave (km/s) = 3.16314 3.87232 3.53556
# Velocity P-wave (km/s) = 4.50997 6.36272 5.51471
#
# Compressibility (1/GPa) = 0.06573803
#
# Stress axis : x y z
#
# Youngs Moduli (GPa) = 61.17414 146.40470 23.82088
#
# Poissons Ratio (x) = 0.18716 -0.11383
# Poissons Ratio (y) = 0.07821 0.07646
# Poissons Ratio (z) = -0.29233 0.46992
#
# Static dielectric constant tensor:
#      x y z
#    x 3.853480 0.000000 -0.091750 
#    y 0.000000 3.918720 0.000000 
#    z -0.091750 0.000000 3.541600 
# 
# 
# High freq. dielectric constant tensor:
#      x y z
#    x 1.844580 0.000000 -0.002490 
#    y 0.000000 1.859850 0.000000 
#    z -0.002490 0.000000 1.831330 
# 
# From -- ./inp_files/31589.got.cif
#   From: 2010.06.25/outbox.cif.g09.slc.cpg/sg11_16_cif.got.tgz:31589.got - 2010.06.27 23:14:04.
