data_PCOD8077191
_publ_section_title
;
Structure prediction by ZEFSAII (Michael W. Deem and Ramdas Pophale) SiO2 
 PCOD8077191
Probable space group: P 21/M
;
_chemical_formula_sum "Si O2"
_cell_formula_units_Z 28
_cell_length_a 15.475691
_cell_length_b 8.851927
_cell_length_c 11.747853
_cell_angle_alpha 90.000000
_cell_angle_beta 123.487517
_cell_angle_gamma 90.000000
_cell_volume 1342.194885
_symmetry_space_group_name_H-M "P 21/M"
_symmetry_group_IT_number 11
_symmetry_cell_setting 'monoclinic'
loop_
_space_group_symop_operation_xyz
x,y,z
-x,1/2+y,-z
-x,-y,-z
x,1/2-y,z
loop_
_atom_site_type_symbol
_atom_site_label
_atom_site_fract_x
_atom_site_fract_y
_atom_site_fract_z
Si Si1 0.389591 0.924888 0.399280
Si Si2 0.535313 0.928159 0.142160
Si Si3 0.639754 0.927267 0.848734
Si Si4 0.162818 0.425291 0.858087
Si Si5 0.771568 0.574452 0.345358
Si Si6 0.805199 0.423759 0.599015
Si Si7 0.982831 0.927865 0.865242
O O1 0.407076 0.750000 0.383435
O O2 0.315350 0.945792 0.454641
O O3 0.500000 0.000000 0.500000
O O4 0.330046 0.004897 0.251427
O O5 0.521773 0.750000 0.123835
O O6 0.652879 0.975102 0.249461
O O7 0.467427 0.994178 0.194722
O O8 0.500000 0.000000 0.000000
O O9 0.620776 0.750000 0.824946
O O10 0.728351 0.966138 0.003983
O O11 0.136177 0.250000 0.859682
O O12 0.170142 0.462820 0.729848
O O13 0.073751 0.527773 0.845111
O O14 0.780872 0.750000 0.382447
O O15 0.824375 0.480126 0.484581
O O16 0.839405 0.250000 0.631636
O O17 0.873992 0.518281 0.736335
O O18 0.980484 0.750000 0.879054
O O19 0.000000 0.000000 0.000000
#
# Coordination Sequence:
#
# PCOD8077191 Si02
#       7
#     4   4   4   4   4   4   4
#     4  11  24  41  62  91 125 165 211 259 312 376
#     4  11  21  36  59  90 129 171 213 257 309 370
#     4  11  22  38  61  91 126 166 210 261 319 373
#     4  10  22  42  65  92 127 165 209 260 311 373
#     4  10  22  41  63  92 129 170 212 256 313 374
#     4  11  25  44  66  94 127 166 211 260 314 375
#     4  12  26  45  70  97 124 161 207 260 319 377
#
# _framework density 20.861350999999999
#
# number of rings (size 3 to 8) (size 9 to 14) (size 15 to 20)
#    0.000    1.143    1.429    4.714    0.000   10.286 
#    0.000    0.000    0.000    0.000    0.000    0.000 
#    0.000    0.000    0.000    0.000    0.000    0.000 
#
# Total GULP energy -347373.707219 kJ/mol
# GULP energy per Si atom -12406.203829 kJ/mol
# Density = 2.081387 g / cm^3
# Si number density = 20.861351 Si / 1000 Ang^3
#
#
#
# Elastic Constant Matrix: (Units=GPa)
#
#
# Indices 1 2 3 4 5 6 
#
# 1 104.8316 48.4734 42.7256 0.0000 -1.7652 0.0000
# 2 48.4734 114.8014 64.3683 0.0000 6.8807 0.0000
# 3 42.7256 64.3683 133.0776 0.0000 -13.4570 0.0000
# 4 0.0000 0.0000 0.0000 41.0910 0.0000 -3.4712
# 5 -1.7652 6.8807 -13.4570 0.0000 32.9392 0.0000
# 6 0.0000 0.0000 0.0000 -3.4712 0.0000 38.1863
#
#
#
# Elastic Compliance Matrix: (Units=1/GPa)
#
#
# Indices 1 2 3 4 5 6 
#
# 1 0.012232 -0.004192 -0.001820 0.000000 0.000787 0.000000
# 2 -0.004192 0.014258 -0.006128 0.000000 -0.005707 0.000000
# 3 -0.001820 -0.006128 0.011664 0.000000 0.005948 0.000000
# 4 0.000000 0.000000 0.000000 0.024525 0.000000 0.002229
# 5 0.000787 -0.005707 0.005948 0.000000 0.034023 0.000000
# 6 0.000000 0.000000 0.000000 0.002229 0.000000 0.026390
#
#
# Mechanical properties :
#
#
# Convention : Reuss Voigt Hill
#
# Bulk Modulus (GPa) = 72.06925 73.76060 72.91493
# Shear Modulus (GPa) = 32.89518 35.58617 34.24067
#
# Velocity S-wave (km/s) = 3.97526 4.13466 4.05575
# Velocity P-wave (km/s) = 7.46271 7.63074 7.54719
#
# Compressibility (1/GPa) = 0.01387554
#
# Stress axis : x y z
#
# Youngs Moduli (GPa) = 81.75021 70.13365 85.73132
#
# Poissons Ratio (x) = 0.29397 0.15605
# Poissons Ratio (y) = 0.34266 0.52536
# Poissons Ratio (z) = 0.14881 0.42978
#
# Static dielectric constant tensor:
#      x y z
#    x 3.663580 0.000000 -0.149950 
#    y 0.000000 3.801430 0.000000 
#    z -0.149950 0.000000 3.842550 
# 
# 
# High freq. dielectric constant tensor:
#      x y z
#    x 1.824280 0.000000 -0.007690 
#    y 0.000000 1.822320 0.000000 
#    z -0.007690 0.000000 1.825970 
# 
# From -- ./inp_files/38453.got.cif
#   From: 2010.06.25/outbox.cif.g09.slc.cpg/sg11_20_cif.got.tgz:38453.got - 2010.06.27 23:14:04.
