data_PCOD8077065
_publ_section_title
;
Structure prediction by ZEFSAII (Michael W. Deem and Ramdas Pophale) SiO2 
 PCOD8077065
Probable space group: P 21/M
;
_chemical_formula_sum "Si O2"
_cell_formula_units_Z 32
_cell_length_a 11.867977
_cell_length_b 8.651464
_cell_length_c 28.603234
_cell_angle_alpha 90.000000
_cell_angle_beta 32.533269
_cell_angle_gamma 90.000000
_cell_volume 1579.405134
_symmetry_space_group_name_H-M "P 21/M"
_symmetry_group_IT_number 11
_symmetry_cell_setting 'monoclinic'
loop_
_space_group_symop_operation_xyz
x,y,z
-x,1/2+y,-z
-x,-y,-z
x,1/2-y,z
loop_
_atom_site_type_symbol
_atom_site_label
_atom_site_fract_x
_atom_site_fract_y
_atom_site_fract_z
Si Si1 0.723006 0.574113 0.428755
Si Si2 0.777536 0.924733 0.304921
Si Si3 0.800121 0.433826 0.880329
Si Si4 0.595101 0.567274 0.039070
Si Si5 0.570927 0.432278 0.727544
Si Si6 0.990313 0.430048 0.413089
Si Si7 0.376361 0.934213 0.395327
Si Si8 0.234703 0.066191 0.920445
O O1 0.500000 0.500000 0.500000
O O2 0.711405 0.750000 0.452396
O O3 0.830012 0.572443 0.340956
O O4 0.853835 0.460374 0.415205
O O5 0.763557 0.750000 0.291174
O O6 0.555818 0.001788 0.367507
O O7 0.974925 0.006274 0.211371
O O8 0.802072 0.250000 0.879968
O O9 0.631785 0.490655 0.900187
O O10 0.762633 0.494751 0.945386
O O11 0.611477 0.750000 0.030763
O O12 0.648460 0.510315 0.072895
O O13 0.553171 0.250000 0.733309
O O14 0.567712 0.499081 0.675754
O O15 0.378551 0.496007 0.826754
O O16 0.795989 0.477296 0.669325
O O17 0.042480 0.250000 0.399385
O O18 0.851843 0.490556 0.506106
O O19 0.369843 0.750000 0.398174
O O20 0.218191 0.250000 0.924868
O O21 0.000000 0.000000 0.000000
#
# Coordination Sequence:
#
# PCOD8077065 Si02
#       8
#     4   4   4   4   4   4   4   4
#     4  11  21  36  58  83 116 153 191 230 280 338
#     4   9  18  32  56  84 110 145 185 231 277 330
#     4   9  18  33  59  84 105 142 187 224 273 339
#     4   9  19  36  54  80 116 143 174 229 287 334
#     4  10  22  39  62  86 109 150 200 238 280 341
#     4  11  22  38  59  85 120 153 188 240 292 339
#     4   9  18  35  57  84 116 147 190 239 281 331
#     4  10  23  40  60  84 114 149 190 238 287 340
#
# _framework density 20.260791999999999
#
# number of rings (size 3 to 8) (size 9 to 14) (size 15 to 20)
#    0.000    2.250    1.250    1.125    3.500    1.000 
#    0.000    1.875    0.000    0.000    0.000    0.000 
#    0.000    0.000    0.000    0.000    0.000    0.000 
#
# Total GULP energy -396575.419075 kJ/mol
# GULP energy per Si atom -12392.981846 kJ/mol
# Density = 2.021468 g / cm^3
# Si number density = 20.260792 Si / 1000 Ang^3
#
#
#
# Elastic Constant Matrix: (Units=GPa)
#
#
# Indices 1 2 3 4 5 6 
#
# 1 107.4052 6.9749 47.3740 0.0000 7.1093 0.0000
# 2 6.9749 10.5695 13.0007 0.0000 6.1363 0.0000
# 3 47.3740 13.0007 165.4127 0.0000 0.0770 0.0000
# 4 0.0000 0.0000 0.0000 26.1472 0.0000 -1.8088
# 5 7.1093 6.1363 0.0770 0.0000 27.7255 0.0000
# 6 0.0000 0.0000 0.0000 -1.8088 0.0000 26.9723
#
#
#
# Elastic Compliance Matrix: (Units=1/GPa)
#
#
# Indices 1 2 3 4 5 6 
#
# 1 0.010908 -0.002243 -0.002947 0.000000 -0.002292 0.000000
# 2 -0.002243 0.122528 -0.008975 0.000000 -0.026518 0.000000
# 3 -0.002947 -0.008975 0.007594 0.000000 0.002721 0.000000
# 4 0.000000 0.000000 0.000000 0.038423 0.000000 0.002577
# 5 -0.002292 -0.026518 0.002721 0.000000 0.042517 0.000000
# 6 0.000000 0.000000 0.000000 0.002577 0.000000 0.037248
#
#
# Mechanical properties :
#
#
# Convention : Reuss Voigt Hill
#
# Bulk Modulus (GPa) = 8.87319 46.45407 27.66363
# Shear Modulus (GPa) = 15.37926 30.57151 22.97538
#
# Velocity S-wave (km/s) = 2.75810 3.88867 3.37112
# Velocity P-wave (km/s) = 3.81206 6.56812 5.36992
#
# Compressibility (1/GPa) = 0.11269901
#
# Stress axis : x y z
#
# Youngs Moduli (GPa) = 91.67932 8.16142 131.69086
#
# Poissons Ratio (x) = 0.01830 0.38804
# Poissons Ratio (y) = 0.20562 1.18198
# Poissons Ratio (z) = 0.27014 0.07325
#
# Static dielectric constant tensor:
#      x y z
#    x 3.645180 0.000000 0.257880 
#    y 0.000000 3.345170 0.000000 
#    z 0.257880 0.000000 3.937790 
# 
# 
# High freq. dielectric constant tensor:
#      x y z
#    x 1.798290 0.000000 0.000500 
#    y 0.000000 1.752830 0.000000 
#    z 0.000500 0.000000 1.804000 
# 
# From -- ./inp_files/73053.got.cif
#   From: 2010.06.25/outbox.cif.g09.slc.cpg/sg11_37_cif.got.tgz:73053.got - 2010.06.27 23:14:04.
