data_PCOD8077050
_publ_section_title
;
Structure prediction by ZEFSAII (Michael W. Deem and Ramdas Pophale) SiO2 
 PCOD8077050
Probable space group: P 21/M
;
_chemical_formula_sum "Si O2"
_cell_formula_units_Z 28
_cell_length_a 17.117561
_cell_length_b 13.247051
_cell_length_c 6.740502
_cell_angle_alpha 90.000000
_cell_angle_beta 58.088744
_cell_angle_gamma 90.000000
_cell_volume 1297.458345
_symmetry_space_group_name_H-M "P 21/M"
_symmetry_group_IT_number 11
_symmetry_cell_setting 'monoclinic'
loop_
_space_group_symop_operation_xyz
x,y,z
-x,1/2+y,-z
-x,-y,-z
x,1/2-y,z
loop_
_atom_site_type_symbol
_atom_site_label
_atom_site_fract_x
_atom_site_fract_y
_atom_site_fract_z
Si Si1 0.773139 0.869901 0.012071
Si Si2 0.026771 0.037061 0.250850
Si Si3 0.666881 0.995732 0.838421
Si Si4 0.422678 0.867193 0.717827
Si Si5 0.624687 0.865511 0.534551
Si Si6 0.286292 0.635448 0.560787
Si Si7 0.918295 0.137366 0.088863
O O1 0.766832 0.750000 0.986840
O O2 0.877492 0.903829 0.902094
O O3 0.736323 0.926076 0.867146
O O4 0.711893 0.902441 0.285924
O O5 0.946338 0.110124 0.277556
O O6 0.000000 0.000000 0.500000
O O7 0.025437 0.933867 0.130686
O O8 0.723708 0.074072 0.628477
O O9 0.611656 0.925484 0.757853
O O10 0.600015 0.060513 0.067432
O O11 0.396485 0.750000 0.800187
O O12 0.531604 0.877705 0.528746
O O13 0.367631 0.904949 0.596354
O O14 0.639444 0.750000 0.575431
O O15 0.307512 0.750000 0.472368
O O16 0.190228 0.625716 0.805189
O O17 0.950450 0.250000 0.997523
#
# Coordination Sequence:
#
# PCOD8077050 Si02
#       7
#     4   4   4   4   4   4   4
#     4  11  25  43  62  88 125 164 201 246 303 366
#     4  11  23  41  65  92 120 156 201 250 304 364
#     4  12  21  36  62  90 119 158 206 252 296 350
#     4  10  22  39  60  89 124 162 205 252 301 353
#     4  10  23  41  59  85 124 166 205 248 299 357
#     4  10  22  40  61  87 121 157 195 247 306 361
#     4  10  22  40  62  90 122 156 197 247 304 363
#
# _framework density 21.580653999999999
#
# number of rings (size 3 to 8) (size 9 to 14) (size 15 to 20)
#    0.000    1.429    0.000    5.143    0.000    5.714 
#    0.000    6.429    0.000    0.000    0.000    0.000 
#    0.000    0.000    0.000    0.000    0.000    0.000 
#
# Total GULP energy -347207.690697 kJ/mol
# GULP energy per Si atom -12400.274668 kJ/mol
# Density = 2.153154 g / cm^3
# Si number density = 21.580654 Si / 1000 Ang^3
#
#
#
# Elastic Constant Matrix: (Units=GPa)
#
#
# Indices 1 2 3 4 5 6 
#
# 1 126.4443 40.6026 38.8928 0.0000 2.0900 0.0000
# 2 40.6026 103.1678 46.8714 0.0000 2.1118 0.0000
# 3 38.8928 46.8714 105.8651 0.0000 6.6473 0.0000
# 4 0.0000 0.0000 0.0000 35.6938 0.0000 5.5189
# 5 2.0900 2.1118 6.6473 0.0000 32.1595 0.0000
# 6 0.0000 0.0000 0.0000 5.5189 0.0000 40.1443
#
#
#
# Elastic Compliance Matrix: (Units=1/GPa)
#
#
# Indices 1 2 3 4 5 6 
#
# 1 0.009477 -0.002688 -0.002293 0.000000 0.000035 0.000000
# 2 -0.002688 0.012899 -0.004743 0.000000 0.000308 0.000000
# 3 -0.002293 -0.004743 0.012522 0.000000 -0.002128 0.000000
# 4 0.000000 0.000000 0.000000 0.028625 0.000000 -0.003935
# 5 0.000035 0.000308 -0.002128 0.000000 0.031512 0.000000
# 6 0.000000 0.000000 0.000000 -0.003935 0.000000 0.025451
#
#
# Mechanical properties :
#
#
# Convention : Reuss Voigt Hill
#
# Bulk Modulus (GPa) = 64.72993 65.35674 65.04333
# Shear Modulus (GPa) = 34.46246 35.54021 35.00134
#
# Velocity S-wave (km/s) = 4.00048 4.06255 4.03163
# Velocity P-wave (km/s) = 7.16924 7.23577 7.20258
#
# Compressibility (1/GPa) = 0.01544880
#
# Stress axis : x y z
#
# Youngs Moduli (GPa) = 105.52119 77.52255 79.85907
#
# Poissons Ratio (x) = 0.20841 0.18316
# Poissons Ratio (y) = 0.28368 0.37876
# Poissons Ratio (z) = 0.24201 0.36768
#
# Static dielectric constant tensor:
#      x y z
#    x 4.143730 0.000000 0.057840 
#    y 0.000000 4.212600 0.000000 
#    z 0.057840 0.000000 3.667610 
# 
# 
# High freq. dielectric constant tensor:
#      x y z
#    x 1.852520 0.000000 0.003480 
#    y 0.000000 1.876750 0.000000 
#    z 0.003480 0.000000 1.829500 
# 
# From -- ./inp_files/8017.got.cif
#   From: 2010.06.25/outbox.cif.g09.slc.cpg/sg11_5_cif.got.tgz:8017.got - 2010.06.27 23:14:04.
