data_PCOD8077349
_publ_section_title
;
Structure prediction by ZEFSAII (Michael W. Deem and Ramdas Pophale) SiO2 
 PCOD8077349
Probable space group: P 21/M
;
_chemical_formula_sum "Si O2"
_cell_formula_units_Z 20
_cell_length_a 25.714685
_cell_length_b 8.770465
_cell_length_c 8.925786
_cell_angle_alpha 90.000000
_cell_angle_beta 150.123648
_cell_angle_gamma 90.000000
_cell_volume 1002.750548
_symmetry_space_group_name_H-M "P 21/M"
_symmetry_group_IT_number 11
_symmetry_cell_setting 'monoclinic'
loop_
_space_group_symop_operation_xyz
x,y,z
-x,1/2+y,-z
-x,-y,-z
x,1/2-y,z
loop_
_atom_site_type_symbol
_atom_site_label
_atom_site_fract_x
_atom_site_fract_y
_atom_site_fract_z
Si Si1 0.790539 0.424736 0.150300
Si Si2 0.201196 0.571479 0.176887
Si Si3 0.993268 0.928260 0.145668
Si Si4 0.599983 0.569556 0.171286
Si Si5 0.598094 0.571321 0.826329
O O1 0.755836 0.250000 0.084634
O O2 0.898818 0.458572 0.501388
O O3 0.802539 0.466738 0.007239
O O4 0.703774 0.531418 0.005166
O O5 0.214194 0.750000 0.240745
O O6 0.296943 0.483335 0.487787
O O7 0.094767 0.513713 0.981802
O O8 0.966456 0.750000 0.067248
O O9 0.000000 0.000000 0.000000
O O10 0.592030 0.750000 0.159049
O O11 0.500000 0.500000 0.000000
O O12 0.604278 0.510190 0.011476
O O13 0.500000 0.500000 0.500000
O O14 0.582188 0.750000 0.785338
#
# Coordination Sequence:
#
# PCOD8077349 Si02
#       5
#     4   4   4   4   4
#     4  10  23  41  61  87 120 156 197 243 294 349
#     4  11  23  40  62  89 120 156 198 245 294 351
#     4  11  23  40  62  89 121 158 198 244 295 350
#     4  11  24  41  61  89 121 156 198 245 296 352
#     4  11  24  40  61  88 119 154 196 243 293 350
#
# _framework density 19.945139000000001
#
# number of rings (size 3 to 8) (size 9 to 14) (size 15 to 20)
#    0.000    1.200    0.000    5.400    0.000   14.400 
#    0.000    0.000    0.000    0.000    0.000    0.000 
#    0.000    0.000    0.000    0.000    0.000    0.000 
#
# Total GULP energy -248131.341839 kJ/mol
# GULP energy per Si atom -12406.567092 kJ/mol
# Density = 1.989974 g / cm^3
# Si number density = 19.945139 Si / 1000 Ang^3
#
#
#
# Elastic Constant Matrix: (Units=GPa)
#
#
# Indices 1 2 3 4 5 6 
#
# 1 165.3107 51.3852 69.5826 0.0000 -5.9072 0.0000
# 2 51.3852 63.9080 34.3640 0.0000 -7.6493 0.0000
# 3 69.5826 34.3640 123.9792 0.0000 -17.7964 0.0000
# 4 0.0000 0.0000 0.0000 39.4570 0.0000 6.1935
# 5 -5.9072 -7.6493 -17.7964 0.0000 44.0895 0.0000
# 6 0.0000 0.0000 0.0000 6.1935 0.0000 38.6269
#
#
#
# Elastic Compliance Matrix: (Units=1/GPa)
#
#
# Indices 1 2 3 4 5 6 
#
# 1 0.009387 -0.005605 -0.003900 0.000000 -0.001289 0.000000
# 2 -0.005605 0.021795 -0.002612 0.000000 0.001976 0.000000
# 3 -0.003900 -0.002612 0.011505 0.000000 0.003668 0.000000
# 4 0.000000 0.000000 0.000000 0.025998 0.000000 -0.004169
# 5 -0.001289 0.001976 0.003668 0.000000 0.024332 0.000000
# 6 0.000000 0.000000 0.000000 -0.004169 0.000000 0.026557
#
#
# Mechanical properties :
#
#
# Convention : Reuss Voigt Hill
#
# Bulk Modulus (GPa) = 54.18810 73.76238 63.97524
# Shear Modulus (GPa) = 33.34260 37.62577 35.48419
#
# Velocity S-wave (km/s) = 4.09310 4.34806 4.22250
# Velocity P-wave (km/s) = 7.04028 7.89116 7.47783
#
# Compressibility (1/GPa) = 0.01845424
#
# Stress axis : x y z
#
# Youngs Moduli (GPa) = 106.53181 45.88228 86.91817
#
# Poissons Ratio (x) = 0.25716 0.33896
# Poissons Ratio (y) = 0.59709 0.22700
# Poissons Ratio (z) = 0.41545 0.11983
#
# Static dielectric constant tensor:
#      x y z
#    x 4.006030 0.000000 -0.168540 
#    y 0.000000 3.744810 0.000000 
#    z -0.168540 0.000000 3.749120 
# 
# 
# High freq. dielectric constant tensor:
#      x y z
#    x 1.800010 0.000000 -0.002390 
#    y 0.000000 1.788880 0.000000 
#    z -0.002390 0.000000 1.799750 
# 
# From -- ./inp_files/15901.got.cif
#   From: 2010.06.25/outbox.cif.g09.slc.cpg/sg11_8_cif.got.tgz:15901.got - 2010.06.27 23:14:04.
