data_PCOD8077857
_publ_section_title
;
Structure prediction by ZEFSAII (Michael W. Deem and Ramdas Pophale) SiO2 
 PCOD8077857
Probable space group: P 21/M
;
_chemical_formula_sum "Si O2"
_cell_formula_units_Z 20
_cell_length_a 7.247671
_cell_length_b 25.397228
_cell_length_c 4.884562
_cell_angle_alpha 90.000000
_cell_angle_beta 111.812579
_cell_angle_gamma 90.000000
_cell_volume 834.732928
_symmetry_space_group_name_H-M "P 21/M"
_symmetry_group_IT_number 11
_symmetry_cell_setting 'monoclinic'
loop_
_space_group_symop_operation_xyz
x,y,z
-x,1/2+y,-z
-x,-y,-z
x,1/2-y,z
loop_
_atom_site_type_symbol
_atom_site_label
_atom_site_fract_x
_atom_site_fract_y
_atom_site_fract_z
Si Si1 0.597870 0.553652 0.777760
Si Si2 0.654622 0.624717 0.312302
Si Si3 0.288815 0.810833 0.296456
Si Si4 0.815752 0.025049 0.244066
Si Si5 0.089313 0.857385 0.696999
O O1 0.616666 0.604513 0.985102
O O2 0.764312 0.510336 0.950328
O O3 0.638502 0.573003 0.493603
O O4 0.378960 0.527531 0.667012
O O5 0.498002 0.669868 0.293663
O O6 0.869627 0.651113 0.458539
O O7 0.301253 0.750000 0.382932
O O8 0.243454 0.844101 0.542084
O O9 0.119814 0.819415 0.973352
O O10 0.872535 0.083403 0.175040
O O11 0.000000 0.000000 0.500000
#
# Coordination Sequence:
#
# PCOD8077857 Si02
#       5
#     4   4   4   4   4
#     4  11  25  41  68 103 146 184 223 272 341 409
#     4  12  24  47  70 102 138 182 230 286 338 415
#     4  12  27  49  72  98 135 181 234 299 349 400
#     4  11  23  43  68 108 142 189 224 274 339 425
#     4  12  26  46  73 104 140 180 235 281 350 416
#
# _framework density 23.959758999999998
#
# number of rings (size 3 to 8) (size 9 to 14) (size 15 to 20)
#    0.000    0.400    6.000    1.800    0.000    7.200 
#    0.000    0.000    0.000    0.000    0.000    0.000 
#    0.000    0.000    0.000    0.000    0.000    0.000 
#
# Total GULP energy -248191.827292 kJ/mol
# GULP energy per Si atom -12409.591365 kJ/mol
# Density = 2.390523 g / cm^3
# Si number density = 23.959759 Si / 1000 Ang^3
#
#
#
# Elastic Constant Matrix: (Units=GPa)
#
#
# Indices 1 2 3 4 5 6 
#
# 1 67.3051 28.2017 19.8828 0.0000 30.0988 0.0000
# 2 28.2017 116.6839 22.6498 0.0000 15.1299 0.0000
# 3 19.8828 22.6498 86.3313 0.0000 18.4497 0.0000
# 4 0.0000 0.0000 0.0000 34.1851 0.0000 7.8139
# 5 30.0988 15.1299 18.4497 0.0000 48.5911 0.0000
# 6 0.0000 0.0000 0.0000 7.8139 0.0000 21.0179
#
#
#
# Elastic Compliance Matrix: (Units=1/GPa)
#
#
# Indices 1 2 3 4 5 6 
#
# 1 0.022181 -0.003485 -0.001621 0.000000 -0.012039 0.000000
# 2 -0.003485 0.009775 -0.001712 0.000000 -0.000235 0.000000
# 3 -0.001621 -0.001712 0.013144 0.000000 -0.003453 0.000000
# 4 0.000000 0.000000 0.000000 0.031969 0.000000 -0.011885
# 5 -0.012039 -0.000235 -0.003453 0.000000 0.029421 0.000000
# 6 0.000000 0.000000 0.000000 -0.011885 0.000000 0.051997
#
#
# Mechanical properties :
#
#
# Convention : Reuss Voigt Hill
#
# Bulk Modulus (GPa) = 31.78312 45.75431 38.76872
# Shear Modulus (GPa) = 27.38053 34.06456 30.72254
#
# Velocity S-wave (km/s) = 3.38416 3.77469 3.58474
# Velocity P-wave (km/s) = 5.34453 6.17539 5.77492
#
# Compressibility (1/GPa) = 0.03146324
#
# Stress axis : x y z
#
# Youngs Moduli (GPa) = 45.08431 102.29911 76.08169
#
# Poissons Ratio (x) = 0.35654 0.12335
# Poissons Ratio (y) = 0.15713 0.13023
# Poissons Ratio (z) = 0.07309 0.17511
#
# Static dielectric constant tensor:
#      x y z
#    x 4.411240 0.000000 0.235260 
#    y 0.000000 4.161750 0.000000 
#    z 0.235260 0.000000 4.368310 
# 
# 
# High freq. dielectric constant tensor:
#      x y z
#    x 1.955670 0.000000 0.011740 
#    y 0.000000 1.939250 0.000000 
#    z 0.011740 0.000000 1.963010 
# 
# From -- ./inp_files/2939.got.cif
#   From: 2010.06.25/outbox.cif.g09.slc.cpg/sg11_2_cif.got.tgz:2939.got - 2010.06.27 23:14:04.
