data_PCOD8077842
_publ_section_title
;
Structure prediction by ZEFSAII (Michael W. Deem and Ramdas Pophale) SiO2 
 PCOD8077842
Probable space group: P 21/M
;
_chemical_formula_sum "Si O2"
_cell_formula_units_Z 24
_cell_length_a 9.519360
_cell_length_b 18.946233
_cell_length_c 9.346045
_cell_angle_alpha 90.000000
_cell_angle_beta 45.637843
_cell_angle_gamma 90.000000
_cell_volume 1205.104847
_symmetry_space_group_name_H-M "P 21/M"
_symmetry_group_IT_number 11
_symmetry_cell_setting 'monoclinic'
loop_
_space_group_symop_operation_xyz
x,y,z
-x,1/2+y,-z
-x,-y,-z
x,1/2-y,z
loop_
_atom_site_type_symbol
_atom_site_label
_atom_site_fract_x
_atom_site_fract_y
_atom_site_fract_z
Si Si1 0.996709 0.429458 0.594275
Si Si2 0.798271 0.668399 0.771630
Si Si3 0.358722 0.580301 0.729658
Si Si4 0.435451 0.922279 0.004053
Si Si5 0.239158 0.065140 0.706735
Si Si6 0.007508 0.168811 0.068455
O O1 0.775436 0.404157 0.780009
O O2 0.000000 0.500000 0.500000
O O3 0.107725 0.366790 0.435076
O O4 0.100440 0.446005 0.669645
O O5 0.762805 0.750000 0.762352
O O6 0.944165 0.656806 0.799915
O O7 0.589454 0.633336 0.959138
O O8 0.539502 0.585540 0.492183
O O9 0.237931 0.507830 0.795615
O O10 0.215294 0.645195 0.799707
O O11 0.440096 0.585016 0.830832
O O12 0.500000 0.000000 0.000000
O O13 0.160055 0.126929 0.862256
O O14 0.027333 0.250000 0.010292
#
# Coordination Sequence:
#
# PCOD8077842 Si02
#       6
#     4   4   4   4   4   4
#     4  12  23  41  68  98 127 170 216 266 322 381
#     4  11  26  45  64  96 136 169 212 270 327 382
#     4  11  23  41  67  97 125 165 216 268 314 373
#     4  12  23  41  68  98 127 170 216 266 322 381
#     4  11  23  41  67  97 125 165 216 268 314 373
#     4  11  25  43  65  92 129 175 208 258 326 380
#
# _framework density 19.915279999999999
#
# number of rings (size 3 to 8) (size 9 to 14) (size 15 to 20)
#    0.000    0.667    5.000    2.500    0.000    6.667 
#    0.000    3.333    0.000    0.000    0.000    0.000 
#    0.000    0.000    0.000    0.000    0.000    0.000 
#
# Total GULP energy -297792.840740 kJ/mol
# GULP energy per Si atom -12408.035031 kJ/mol
# Density = 1.986995 g / cm^3
# Si number density = 19.915280 Si / 1000 Ang^3
#
#
#
# Elastic Constant Matrix: (Units=GPa)
#
#
# Indices 1 2 3 4 5 6 
#
# 1 91.7454 39.5594 6.2410 0.0000 -4.9390 0.0000
# 2 39.5594 118.3208 23.4905 0.0000 -2.7684 0.0000
# 3 6.2410 23.4905 69.9882 0.0000 -16.7302 0.0000
# 4 0.0000 0.0000 0.0000 32.3044 0.0000 -0.5068
# 5 -4.9390 -2.7684 -16.7302 0.0000 40.1485 0.0000
# 6 0.0000 0.0000 0.0000 -0.5068 0.0000 33.4243
#
#
#
# Elastic Compliance Matrix: (Units=1/GPa)
#
#
# Indices 1 2 3 4 5 6 
#
# 1 0.012830 -0.004393 0.000706 0.000000 0.001569 0.000000
# 2 -0.004393 0.010578 -0.003458 0.000000 -0.001252 0.000000
# 3 0.000706 -0.003458 0.017048 0.000000 0.006952 0.000000
# 4 0.000000 0.000000 0.000000 0.030963 0.000000 0.000470
# 5 0.001569 -0.001252 0.006952 0.000000 0.027911 0.000000
# 6 0.000000 0.000000 0.000000 0.000470 0.000000 0.029925
#
#
# Mechanical properties :
#
#
# Convention : Reuss Voigt Hill
#
# Bulk Modulus (GPa) = 38.21889 46.51515 42.36702
# Shear Modulus (GPa) = 32.83691 35.22634 34.03162
#
# Velocity S-wave (km/s) = 4.06498 4.21028 4.13827
# Velocity P-wave (km/s) = 6.42375 6.85876 6.64481
#
# Compressibility (1/GPa) = 0.02616507
#
# Stress axis : x y z
#
# Youngs Moduli (GPa) = 77.93947 94.53970 58.65916
#
# Poissons Ratio (x) = 0.41532 -0.04138
# Poissons Ratio (y) = 0.34240 0.20283
# Poissons Ratio (z) = -0.05499 0.32689
#
# Static dielectric constant tensor:
#      x y z
#    x 3.899610 0.000000 -0.032380 
#    y 0.000000 4.254920 0.000000 
#    z -0.032380 0.000000 4.367170 
# 
# 
# High freq. dielectric constant tensor:
#      x y z
#    x 1.796740 0.000000 -0.004120 
#    y 0.000000 1.772960 0.000000 
#    z -0.004120 0.000000 1.788460 
# 
# From -- ./inp_files/14206.got.cif
#   From: 2010.06.25/outbox.cif.g09.slc.cpg/sg11_8_cif.got.tgz:14206.got - 2010.06.27 23:14:04.
