data_PCOD8077659
_publ_section_title
;
Structure prediction by ZEFSAII (Michael W. Deem and Ramdas Pophale) SiO2 
 PCOD8077659
Probable space group: P 21/M
;
_chemical_formula_sum "Si O2"
_cell_formula_units_Z 28
_cell_length_a 15.332849
_cell_length_b 8.800786
_cell_length_c 17.414551
_cell_angle_alpha 90.000000
_cell_angle_beta 36.475167
_cell_angle_gamma 90.000000
_cell_volume 1396.978440
_symmetry_space_group_name_H-M "P 21/M"
_symmetry_group_IT_number 11
_symmetry_cell_setting 'monoclinic'
loop_
_space_group_symop_operation_xyz
x,y,z
-x,1/2+y,-z
-x,-y,-z
x,1/2-y,z
loop_
_atom_site_type_symbol
_atom_site_label
_atom_site_fract_x
_atom_site_fract_y
_atom_site_fract_z
Si Si1 0.684992 0.925731 0.555792
Si Si2 0.651399 0.585378 0.983243
Si Si3 0.680677 0.414010 0.821333
Si Si4 0.843454 0.069032 0.133247
Si Si5 0.137797 0.930509 0.444689
Si Si6 0.659843 0.573506 0.396487
Si Si7 0.385481 0.068390 0.820267
O O1 0.655141 0.750000 0.596954
O O2 0.713835 0.946502 0.445189
O O3 0.829199 0.988346 0.497455
O O4 0.547796 0.027074 0.678699
O O5 0.725069 0.750000 0.940409
O O6 0.492810 0.600415 0.057255
O O7 0.643511 0.508583 0.072437
O O8 0.743328 0.496107 0.853569
O O9 0.756194 0.250000 0.773599
O O10 0.729874 0.483149 0.705286
O O11 0.856027 0.250000 0.128985
O O12 0.783032 0.006789 0.257032
O O13 0.729482 0.020998 0.149269
O O14 0.000000 0.000000 0.000000
O O15 0.123487 0.750000 0.467755
O O16 0.000000 0.000000 0.500000
O O17 0.500000 0.500000 0.500000
O O18 0.647953 0.750000 0.381258
O O19 0.366787 0.250000 0.827236
#
# Coordination Sequence:
#
# PCOD8077659 Si02
#       7
#     4   4   4   4   4   4   4
#     4  11  23  39  64  96 125 162 214 266 319 384
#     4   9  18  33  55  85 114 147 192 242 296 355
#     4   9  18  34  54  80 113 151 192 242 297 353
#     4  12  26  45  67  95 130 171 214 264 329 393
#     4  11  23  41  61  85 121 164 209 262 322 380
#     4  11  23  41  68 101 134 170 217 271 325 392
#     4  11  21  38  64  92 125 162 206 260 316 381
#
# _framework density 20.043258000000002
#
# number of rings (size 3 to 8) (size 9 to 14) (size 15 to 20)
#    0.000    1.429    2.857    3.000    0.000    4.000 
#    2.571    0.000    0.000    0.000    0.000    0.000 
#    0.000    0.000    0.000    0.000    0.000    0.000 
#
# Total GULP energy -347030.225376 kJ/mol
# GULP energy per Si atom -12393.936621 kJ/mol
# Density = 1.999764 g / cm^3
# Si number density = 20.043258 Si / 1000 Ang^3
#
#
#
# Elastic Constant Matrix: (Units=GPa)
#
#
# Indices 1 2 3 4 5 6 
#
# 1 131.4930 56.6028 46.5057 0.0000 17.0092 0.0000
# 2 56.6028 124.9933 50.9763 0.0000 13.9708 0.0000
# 3 46.5057 50.9763 86.2615 0.0000 13.5947 0.0000
# 4 0.0000 0.0000 0.0000 33.5244 0.0000 2.8613
# 5 17.0092 13.9708 13.5947 0.0000 40.1477 0.0000
# 6 0.0000 0.0000 0.0000 2.8613 0.0000 36.6026
#
#
#
# Elastic Compliance Matrix: (Units=1/GPa)
#
#
# Indices 1 2 3 4 5 6 
#
# 1 0.010434 -0.003066 -0.003470 0.000000 -0.002179 0.000000
# 2 -0.003066 0.011546 -0.005009 0.000000 -0.001023 0.000000
# 3 -0.003470 -0.005009 0.016814 0.000000 -0.002481 0.000000
# 4 0.000000 0.000000 0.000000 0.030029 0.000000 -0.002347
# 5 -0.002179 -0.001023 -0.002481 0.000000 0.027027 0.000000
# 6 0.000000 0.000000 0.000000 -0.002347 0.000000 0.027504
#
#
# Mechanical properties :
#
#
# Convention : Reuss Voigt Hill
#
# Bulk Modulus (GPa) = 63.67710 72.32416 68.00063
# Shear Modulus (GPa) = 32.96436 34.63250 33.79843
#
# Velocity S-wave (km/s) = 4.05984 4.16130 4.11088
# Velocity P-wave (km/s) = 7.33589 7.69746 7.51885
#
# Compressibility (1/GPa) = 0.01570423
#
# Stress axis : x y z
#
# Youngs Moduli (GPa) = 95.84160 86.60938 59.47354
#
# Poissons Ratio (x) = 0.26558 0.20636
# Poissons Ratio (y) = 0.29389 0.29789
# Poissons Ratio (z) = 0.33255 0.43381
#
# Static dielectric constant tensor:
#      x y z
#    x 2.373000 0.000000 2.015020 
#    y 0.000000 3.959340 0.000000 
#    z 2.015020 0.000000 0.045930 
# 
# 
# High freq. dielectric constant tensor:
#      x y z
#    x 1.785220 0.000000 0.023180 
#    y 0.000000 1.791140 0.000000 
#    z 0.023180 0.000000 1.774270 
# 
# From -- ./inp_files/60065.got.cif
#   From: 2010.06.25/outbox.cif.g09.slc.cpg/sg11_31_cif.got.tgz:60065.got - 2010.06.27 23:14:04.
