data_PCOD8077485
_publ_section_title
;
Structure prediction by ZEFSAII (Michael W. Deem and Ramdas Pophale) SiO2 
 PCOD8077485
Probable space group: P 21/M
;
_chemical_formula_sum "Si O2"
_cell_formula_units_Z 32
_cell_length_a 15.745607
_cell_length_b 21.904579
_cell_length_c 9.495585
_cell_angle_alpha 90.000000
_cell_angle_beta 27.614724
_cell_angle_gamma 90.000000
_cell_volume 1518.056876
_symmetry_space_group_name_H-M "P 21/M"
_symmetry_group_IT_number 11
_symmetry_cell_setting 'monoclinic'
loop_
_space_group_symop_operation_xyz
x,y,z
-x,1/2+y,-z
-x,-y,-z
x,1/2-y,z
loop_
_atom_site_type_symbol
_atom_site_label
_atom_site_fract_x
_atom_site_fract_y
_atom_site_fract_z
Si Si1 0.762986 0.532400 0.574650
Si Si2 0.452587 0.495716 0.363689
Si Si3 0.046361 0.821838 0.801477
Si Si4 0.630254 0.384423 0.192564
Si Si5 0.876560 0.083786 0.069588
Si Si6 0.165835 0.904279 0.385091
Si Si7 0.238042 0.413970 0.136913
Si Si8 0.666242 0.681570 0.223200
O O1 0.584284 0.532674 0.737738
O O2 0.776984 0.466308 0.624178
O O3 0.745479 0.586600 0.716590
O O4 0.939188 0.544769 0.216656
O O5 0.483266 0.440630 0.430368
O O6 0.285020 0.540083 0.640213
O O7 0.651860 0.526570 0.074750
O O8 0.090370 0.750000 0.756727
O O9 0.096941 0.858576 0.867400
O O10 0.161590 0.848685 0.501778
O O11 0.833714 0.834301 0.080584
O O12 0.816775 0.390654 0.006204
O O13 0.519328 0.326321 0.413402
O O14 0.687249 0.381531 0.945991
O O15 0.971626 0.918731 0.599232
O O16 0.334054 0.356078 0.922486
O O17 0.679719 0.750000 0.149386
#
# Coordination Sequence:
#
# PCOD8077485 Si02
#       8
#     4   4   4   4   4   4   4   4
#     4  12  23  38  62 100 136 167 213 265 328 390
#     4  12  24  37  62  99 134 172 210 264 329 385
#     4  10  24  47  68  90 125 174 222 263 320 388
#     4  12  24  40  66  98 133 166 215 269 326 386
#     4  12  24  41  64  99 132 175 213 266 324 385
#     4  11  23  41  66  97 130 171 209 268 328 389
#     4  11  22  40  63  92 136 165 210 266 324 385
#     4  10  24  45  68  91 124 172 220 267 321 385
#
# _framework density 21.079578999999999
#
# number of rings (size 3 to 8) (size 9 to 14) (size 15 to 20)
#    0.000    0.750    5.000    3.000    3.500    1.000 
#    0.000    0.625    0.000    0.750    0.000    0.000 
#    0.000    0.000    0.000    0.000    0.000    0.000 
#
# Total GULP energy -396736.358615 kJ/mol
# GULP energy per Si atom -12398.011207 kJ/mol
# Density = 2.103160 g / cm^3
# Si number density = 21.079579 Si / 1000 Ang^3
#
#
#
# Elastic Constant Matrix: (Units=GPa)
#
#
# Indices 1 2 3 4 5 6 
#
# 1 102.8859 53.1665 21.8889 0.0000 8.0644 0.0000
# 2 53.1665 78.3476 34.8231 0.0000 2.6788 0.0000
# 3 21.8889 34.8231 101.7812 0.0000 9.6597 0.0000
# 4 0.0000 0.0000 0.0000 21.2351 0.0000 -3.9986
# 5 8.0644 2.6788 9.6597 0.0000 23.5768 0.0000
# 6 0.0000 0.0000 0.0000 -3.9986 0.0000 26.8581
#
#
#
# Elastic Compliance Matrix: (Units=1/GPa)
#
#
# Indices 1 2 3 4 5 6 
#
# 1 0.015395 -0.010627 0.000739 0.000000 -0.004361 0.000000
# 2 -0.010627 0.022391 -0.005701 0.000000 0.003426 0.000000
# 3 0.000739 -0.005701 0.012048 0.000000 -0.004541 0.000000
# 4 0.000000 0.000000 0.000000 0.048450 0.000000 0.007213
# 5 -0.004361 0.003426 -0.004541 0.000000 0.045378 0.000000
# 6 0.000000 0.000000 0.000000 0.007213 0.000000 0.038307
#
#
# Mechanical properties :
#
#
# Convention : Reuss Voigt Hill
#
# Bulk Modulus (GPa) = 53.59853 55.86353 54.73103
# Shear Modulus (GPa) = 22.79307 25.87642 24.33474
#
# Velocity S-wave (km/s) = 3.29186 3.50745 3.40137
# Velocity P-wave (km/s) = 6.31905 6.55452 6.43786
#
# Compressibility (1/GPa) = 0.01865723
#
# Stress axis : x y z
#
# Youngs Moduli (GPa) = 64.95421 44.65990 83.00445
#
# Poissons Ratio (x) = 0.47458 -0.06132
# Poissons Ratio (y) = 0.69024 0.47319
# Poissons Ratio (z) = -0.04798 0.25460
#
# Static dielectric constant tensor:
#      x y z
#    x 4.128090 0.000000 0.019580 
#    y 0.000000 3.652670 0.000000 
#    z 0.019580 0.000000 3.937140 
# 
# 
# High freq. dielectric constant tensor:
#      x y z
#    x 1.839480 0.000000 -0.000780 
#    y 0.000000 1.800610 0.000000 
#    z -0.000780 0.000000 1.837810 
# 
# From -- ./inp_files/23362.got.cif
#   From: 2010.06.25/outbox.cif.g09.slc.cpg/sg11_12_cif.got.tgz:23362.got - 2010.06.27 23:14:04.
