data_PCOD8077410
_publ_section_title
;
Structure prediction by ZEFSAII (Michael W. Deem and Ramdas Pophale) SiO2 
 PCOD8077410
Probable space group: P 21/M
;
_chemical_formula_sum "Si O2"
_cell_formula_units_Z 20
_cell_length_a 10.920886
_cell_length_b 9.606184
_cell_length_c 23.424393
_cell_angle_alpha 90.000000
_cell_angle_beta 158.289556
_cell_angle_gamma 90.000000
_cell_volume 909.034513
_symmetry_space_group_name_H-M "P 21/M"
_symmetry_group_IT_number 11
_symmetry_cell_setting 'monoclinic'
loop_
_space_group_symop_operation_xyz
x,y,z
-x,1/2+y,-z
-x,-y,-z
x,1/2-y,z
loop_
_atom_site_type_symbol
_atom_site_label
_atom_site_fract_x
_atom_site_fract_y
_atom_site_fract_z
Si Si1 0.787822 0.250000 0.639429
Si Si2 0.818067 0.250000 0.032598
Si Si3 0.501498 0.750000 0.606128
Si Si4 0.304258 0.750000 0.273376
Si Si5 0.648463 0.476660 0.375642
Si Si6 0.557253 0.750000 0.917214
Si Si7 0.697291 0.750000 0.846635
Si Si8 0.347885 0.026734 0.872976
O O1 0.522729 0.250000 0.472952
O O2 0.591059 0.250000 0.614309
O O3 0.002797 0.108473 0.727902
O O4 0.117808 0.250000 0.208448
O O5 0.926650 0.250000 0.013379
O O6 0.607327 0.112909 0.948856
O O7 0.318472 0.886901 0.551842
O O8 0.451733 0.617346 0.304632
O O9 0.902001 0.750000 0.101807
O O10 0.456415 0.390552 0.244745
O O11 0.000000 0.500000 0.500000
O O12 0.675984 0.750000 0.904226
O O13 0.318597 0.620242 0.827985
O O14 0.500000 0.000000 0.000000
#
# Coordination Sequence:
#
# PCOD8077410 Si02
#       8
#     2   2   2   2   4   2   2   4
#     4  11  26  42  65 104 129 178 220 269 325 390
#     4   9  21  44  63  88 136 174 208 274 327 386
#     4  10  23  43  65  92 135 170 217 269 322 387
#     4  12  23  43  71  94 132 173 218 266 329 391
#     4  10  23  45  65  91 131 172 213 269 326 384
#     4  12  23  40  67 101 129 174 220 270 321 392
#     4  10  24  40  63  95 127 169 221 264 322 380
#     4  11  22  43  66  93 139 172 216 269 330 386
#
# _framework density 22.001363999999999
#
# number of rings (size 3 to 8) (size 9 to 14) (size 15 to 20)
#    0.000    1.600    2.000    4.200    2.800    4.000 
#    3.600    0.000    0.000    0.000    0.000    0.000 
#    0.000    0.000    0.000    0.000    0.000    0.000 
#
# Total GULP energy -247942.346902 kJ/mol
# GULP energy per Si atom -12397.117345 kJ/mol
# Density = 2.195129 g / cm^3
# Si number density = 22.001364 Si / 1000 Ang^3
#
#
#
# Elastic Constant Matrix: (Units=GPa)
#
#
# Indices 1 2 3 4 5 6 
#
# 1 108.2203 38.5579 3.4462 0.0000 -10.2144 0.0000
# 2 38.5579 175.1777 21.1270 0.0000 13.5060 0.0000
# 3 3.4462 21.1270 32.4932 0.0000 5.3997 0.0000
# 4 0.0000 0.0000 0.0000 1.9244 0.0000 -10.8207
# 5 -10.2144 13.5060 5.3997 0.0000 45.2978 0.0000
# 6 0.0000 0.0000 0.0000 -10.8207 0.0000 15.8333
#
#
#
# Elastic Compliance Matrix: (Units=1/GPa)
#
#
# Indices 1 2 3 4 5 6 
#
# 1 0.010438 -0.002541 0.000028 0.000000 0.003108 0.000000
# 2 -0.002541 0.006900 -0.003856 0.000000 -0.002171 0.000000
# 3 0.000028 -0.003856 0.033757 0.000000 -0.002868 0.000000
# 4 0.000000 0.000000 0.000000 -0.182793 0.000000 -0.124924
# 5 0.003108 -0.002171 -0.002868 0.000000 0.023766 0.000000
# 6 0.000000 0.000000 0.000000 -0.124924 0.000000 -0.022217
#
#
# Mechanical properties :
#
#
# Convention : Reuss Voigt Hill
#
# Bulk Modulus (GPa) = 26.07034 49.12815 37.59925
# Shear Modulus (GPa) = -47.78897 29.46177 -9.16360
#
# Velocity S-wave (km/s) = -4.66563 3.66333 -2.04305
# Velocity P-wave (km/s) = 4.14113 6.34597 3.40018
#
# Compressibility (1/GPa) = 0.03835776
#
# Stress axis : x y z
#
# Youngs Moduli (GPa) = 95.80374 144.92552 29.62384
#
# Poissons Ratio (x) = 0.36818 -0.00084
# Poissons Ratio (y) = 0.24339 0.11424
# Poissons Ratio (z) = -0.00271 0.55887
#
# Static dielectric constant tensor:
#      x y z
#    x 4.156130 0.000000 0.193690 
#    y 0.000000 8.783040 0.000000 
#    z 0.193690 0.000000 3.779760 
# 
# 
# High freq. dielectric constant tensor:
#      x y z
#    x 1.880510 0.000000 0.012260 
#    y 0.000000 1.887240 0.000000 
#    z 0.012260 0.000000 1.837810 
# 
# From -- ./inp_files/30633.got.cif
#   From: 2010.06.25/outbox.cif.g09.slc.cpg/sg11_16_cif.got.tgz:30633.got - 2010.06.27 23:14:04.
