data_PCOD8077086
_publ_section_title
;
Structure prediction by ZEFSAII (Michael W. Deem and Ramdas Pophale) SiO2 
 PCOD8077086
Probable space group: P 21/M
;
_chemical_formula_sum "Si O2"
_cell_formula_units_Z 24
_cell_length_a 14.467325
_cell_length_b 12.854119
_cell_length_c 15.207991
_cell_angle_alpha 90.000000
_cell_angle_beta 154.244473
_cell_angle_gamma 90.000000
_cell_volume 1228.921963
_symmetry_space_group_name_H-M "P 21/M"
_symmetry_group_IT_number 11
_symmetry_cell_setting 'monoclinic'
loop_
_space_group_symop_operation_xyz
x,y,z
-x,1/2+y,-z
-x,-y,-z
x,1/2-y,z
loop_
_atom_site_type_symbol
_atom_site_label
_atom_site_fract_x
_atom_site_fract_y
_atom_site_fract_z
Si Si1 0.193976 0.629415 0.615326
Si Si2 0.735866 0.537167 0.684602
Si Si3 0.307306 0.131346 0.537904
Si Si4 0.911493 0.040852 0.293468
Si Si5 0.599455 0.969299 0.877352
Si Si6 0.088489 0.369864 0.989414
O O1 0.147870 0.750000 0.562087
O O2 0.204095 0.600945 0.726621
O O3 0.418214 0.600810 0.764891
O O4 0.000318 0.570146 0.401961
O O5 0.500000 0.500000 0.500000
O O6 0.752175 0.609190 0.613456
O O7 0.819757 0.605976 0.836311
O O8 0.876742 0.435039 0.789289
O O9 0.380057 0.250000 0.610664
O O10 0.504679 0.060309 0.735608
O O11 0.103882 0.111867 0.424647
O O12 0.738569 0.024284 0.070622
O O13 0.738247 0.893930 0.936131
O O14 0.023349 0.250000 0.927944
#
# Coordination Sequence:
#
# PCOD8077086 Si02
#       6
#     4   4   4   4   4   4
#     4  10  22  39  64  91 121 164 205 250 311 368
#     4  11  23  45  61  91 128 160 213 256 295 374
#     4  11  23  40  64  90 126 169 205 255 312 358
#     4  10  22  42  61  90 128 158 206 259 301 372
#     4  11  22  42  61  95 128 155 208 258 300 375
#     4  11  24  41  66  93 126 166 202 254 313 360
#
# _framework density 19.529311
#
# number of rings (size 3 to 8) (size 9 to 14) (size 15 to 20)
#    0.000    1.333    3.333    2.000    0.000    4.000 
#    0.000    0.000    0.000    0.000    0.000    0.000 
#    0.000    0.000    0.000    0.000    0.000    0.000 
#
# Total GULP energy -297765.842152 kJ/mol
# GULP energy per Si atom -12406.910090 kJ/mol
# Density = 1.948486 g / cm^3
# Si number density = 19.529311 Si / 1000 Ang^3
#
#
#
# Elastic Constant Matrix: (Units=GPa)
#
#
# Indices 1 2 3 4 5 6 
#
# 1 124.3043 38.4182 23.8398 0.0000 3.6590 0.0000
# 2 38.4182 126.7361 21.4190 0.0000 8.6027 0.0000
# 3 23.8398 21.4190 81.6314 0.0000 -1.5542 0.0000
# 4 0.0000 0.0000 0.0000 16.9217 0.0000 1.0777
# 5 3.6590 8.6027 -1.5542 0.0000 36.4756 0.0000
# 6 0.0000 0.0000 0.0000 1.0777 0.0000 22.5545
#
#
#
# Elastic Compliance Matrix: (Units=1/GPa)
#
#
# Indices 1 2 3 4 5 6 
#
# 1 0.009198 -0.002410 -0.002062 0.000000 -0.000442 0.000000
# 2 -0.002410 0.009043 -0.001706 0.000000 -0.001964 0.000000
# 3 -0.002062 -0.001706 0.013323 0.000000 0.001177 0.000000
# 4 0.000000 0.000000 0.000000 0.059276 0.000000 -0.002832
# 5 -0.000442 -0.001964 0.001177 0.000000 0.027973 0.000000
# 6 0.000000 0.000000 0.000000 -0.002832 0.000000 0.044472
#
#
# Mechanical properties :
#
#
# Convention : Reuss Voigt Hill
#
# Bulk Modulus (GPa) = 52.06572 55.55841 53.81206
# Shear Modulus (GPa) = 27.46591 31.79002 29.62796
#
# Velocity S-wave (km/s) = 3.75426 4.03899 3.89923
# Velocity P-wave (km/s) = 6.74617 7.08955 6.91999
#
# Compressibility (1/GPa) = 0.01920650
#
# Stress axis : x y z
#
# Youngs Moduli (GPa) = 108.71834 110.58846 75.06041
#
# Poissons Ratio (x) = 0.26648 0.15480
# Poissons Ratio (y) = 0.26198 0.12808
# Poissons Ratio (z) = 0.22422 0.18870
#
# Static dielectric constant tensor:
#      x y z
#    x 3.899050 0.000000 -0.071590 
#    y 0.000000 3.444280 0.000000 
#    z -0.071590 0.000000 3.630260 
# 
# 
# High freq. dielectric constant tensor:
#      x y z
#    x 1.784600 0.000000 -0.002910 
#    y 0.000000 1.759600 0.000000 
#    z -0.002910 0.000000 1.764740 
# 
# From -- ./inp_files/52348.got.cif
#   From: 2010.06.25/outbox.cif.g09.slc.cpg/sg11_27_cif.got.tgz:52348.got - 2010.06.27 23:14:04.
