data_PCOD8077040
_publ_section_title
;
Structure prediction by ZEFSAII (Michael W. Deem and Ramdas Pophale) SiO2 
 PCOD8077040
Probable space group: P 21/M
;
_chemical_formula_sum "Si O2"
_cell_formula_units_Z 32
_cell_length_a 12.173031
_cell_length_b 13.780658
_cell_length_c 18.040171
_cell_angle_alpha 90.000000
_cell_angle_beta 149.872883
_cell_angle_gamma 90.000000
_cell_volume 1518.951670
_symmetry_space_group_name_H-M "P 21/M"
_symmetry_group_IT_number 11
_symmetry_cell_setting 'monoclinic'
loop_
_space_group_symop_operation_xyz
x,y,z
-x,1/2+y,-z
-x,-y,-z
x,1/2-y,z
loop_
_atom_site_type_symbol
_atom_site_label
_atom_site_fract_x
_atom_site_fract_y
_atom_site_fract_z
Si Si1 0.542164 0.488403 0.907540
Si Si2 0.406561 0.136308 0.429200
Si Si3 0.426872 0.142143 0.611406
Si Si4 0.774052 0.014877 0.409026
Si Si5 0.003724 0.457421 0.120419
Si Si6 0.918561 0.359988 0.922042
Si Si7 0.808923 0.136405 0.566907
Si Si8 0.297735 0.134137 0.880927
O O1 0.424260 0.524329 0.764130
O O2 0.397010 0.405841 0.862048
O O3 0.574453 0.583761 0.976912
O O4 0.771283 0.436800 0.022513
O O5 0.365155 0.250000 0.389638
O O6 0.462139 0.115140 0.546574
O O7 0.191537 0.074876 0.285786
O O8 0.610095 0.094258 0.500245
O O9 0.331274 0.250000 0.563368
O O10 0.660583 0.132528 0.787722
O O11 0.253392 0.074293 0.550350
O O12 0.778785 0.110065 0.462955
O O13 0.000000 0.000000 0.500000
O O14 0.014848 0.572305 0.108229
O O15 0.040955 0.394915 0.067461
O O16 0.988083 0.250000 0.942286
O O17 0.801926 0.250000 0.569015
O O18 0.043450 0.101000 0.735307
O O19 0.328286 0.250000 0.902512
#
# Coordination Sequence:
#
# PCOD8077040 Si02
#       8
#     4   4   4   4   4   4   4   4
#     4  11  25  43  64  99 127 169 223 260 331 395
#     4  10  23  41  65  98 131 168 221 273 326 388
#     4  10  23  42  65  95 127 168 217 267 324 388
#     4  12  24  42  66  94 133 170 215 275 319 385
#     4  11  23  39  62  93 129 168 206 266 323 381
#     4  10  22  39  59  90 127 165 208 255 323 394
#     4  10  23  43  68  95 128 175 222 268 328 385
#     4  10  24  46  68  91 127 173 219 273 323 387
#
# _framework density 21.067162
#
# number of rings (size 3 to 8) (size 9 to 14) (size 15 to 20)
#    0.000    1.500    2.500    1.125    5.250    4.000 
#    0.000    1.250    0.000    0.000    0.000    0.000 
#    0.000    0.000    0.000    0.000    0.000    0.000 
#
# Total GULP energy -396935.162921 kJ/mol
# GULP energy per Si atom -12404.223841 kJ/mol
# Density = 2.101921 g / cm^3
# Si number density = 21.067162 Si / 1000 Ang^3
#
#
#
# Elastic Constant Matrix: (Units=GPa)
#
#
# Indices 1 2 3 4 5 6 
#
# 1 109.2300 20.3002 36.9875 0.0000 14.4887 0.0000
# 2 20.3002 77.7500 35.2495 0.0000 2.2345 0.0000
# 3 36.9875 35.2495 101.7325 0.0000 6.7842 0.0000
# 4 0.0000 0.0000 0.0000 28.8177 0.0000 -2.6599
# 5 14.4887 2.2345 6.7842 0.0000 42.2092 0.0000
# 6 0.0000 0.0000 0.0000 -2.6599 0.0000 29.5902
#
#
#
# Elastic Compliance Matrix: (Units=1/GPa)
#
#
# Indices 1 2 3 4 5 6 
#
# 1 0.010934 -0.001254 -0.003331 0.000000 -0.003151 0.000000
# 2 -0.001254 0.015403 -0.004908 0.000000 0.000404 0.000000
# 3 -0.003331 -0.004908 0.012785 0.000000 -0.000652 0.000000
# 4 0.000000 0.000000 0.000000 0.034991 0.000000 0.003145
# 5 -0.003151 0.000404 -0.000652 0.000000 0.024857 0.000000
# 6 0.000000 0.000000 0.000000 0.003145 0.000000 0.034078
#
#
# Mechanical properties :
#
#
# Convention : Reuss Voigt Hill
#
# Bulk Modulus (GPa) = 49.66254 52.64299 51.15276
# Shear Modulus (GPa) = 31.49725 33.20177 32.34951
#
# Velocity S-wave (km/s) = 3.87083 3.97419 3.92285
# Velocity P-wave (km/s) = 6.60321 6.78980 6.69715
#
# Compressibility (1/GPa) = 0.02013590
#
# Stress axis : x y z
#
# Youngs Moduli (GPa) = 91.45860 64.92383 78.21909
#
# Poissons Ratio (x) = 0.08143 0.26051
# Poissons Ratio (y) = 0.11471 0.38389
# Poissons Ratio (z) = 0.30461 0.31864
#
# Static dielectric constant tensor:
#      x y z
#    x 3.865850 0.000000 0.037910 
#    y 0.000000 3.791400 0.000000 
#    z 0.037910 0.000000 3.890090 
# 
# 
# High freq. dielectric constant tensor:
#      x y z
#    x 1.829010 0.000000 -0.003710 
#    y 0.000000 1.827310 0.000000 
#    z -0.003710 0.000000 1.831600 
# 
# From -- ./inp_files/59439.got.cif
#   From: 2010.06.25/outbox.cif.g09.slc.cpg/sg11_30_cif.got.tgz:59439.got - 2010.06.27 23:14:04.
