data_PCOD8077541
_publ_section_title
;
Structure prediction by ZEFSAII (Michael W. Deem and Ramdas Pophale) SiO2 
 PCOD8077541
Probable space group: P 21/M
;
_chemical_formula_sum "Si O2"
_cell_formula_units_Z 32
_cell_length_a 16.953996
_cell_length_b 19.398531
_cell_length_c 11.343517
_cell_angle_alpha 90.000000
_cell_angle_beta 151.099135
_cell_angle_gamma 90.000000
_cell_volume 1803.023915
_symmetry_space_group_name_H-M "P 21/M"
_symmetry_group_IT_number 11
_symmetry_cell_setting 'monoclinic'
loop_
_space_group_symop_operation_xyz
x,y,z
-x,1/2+y,-z
-x,-y,-z
x,1/2-y,z
loop_
_atom_site_type_symbol
_atom_site_label
_atom_site_fract_x
_atom_site_fract_y
_atom_site_fract_z
Si Si1 0.206331 0.175093 0.475780
Si Si2 0.385959 0.966837 0.015177
Si Si3 0.064865 0.328118 0.042574
Si Si4 0.587156 0.671882 0.609447
Si Si5 0.130201 0.542112 0.245064
Si Si6 0.436881 0.824907 0.167433
Si Si7 0.743258 0.966837 0.372476
Si Si8 0.515338 0.042112 0.400475
O O1 0.170814 0.250000 0.489677
O O2 0.080931 0.163068 0.204478
O O3 0.385045 0.176419 0.655133
O O4 0.190048 0.112197 0.547024
O O5 0.333071 0.887803 0.976095
O O6 0.561125 0.966677 0.183375
O O7 0.391851 0.011027 0.142339
O O8 0.252807 0.000000 0.752806
O O9 0.014909 0.250000 0.945262
O O10 0.233480 0.348733 0.200438
O O11 0.923071 0.378429 0.811620
O O12 0.584554 0.750000 0.654201
O O13 0.457382 0.663067 0.333835
O O14 0.534521 0.621571 0.645972
O O15 0.141364 0.511028 0.390876
O O16 0.301038 0.536471 0.403113
O O17 0.000000 0.500000 0.000000
O O18 0.351950 0.750000 0.033088
O O19 0.500000 0.000000 0.500000
#
# Coordination Sequence:
#
# PCOD8077541 Si02
#       8
#     4   4   4   4   4   4   4   4
#     4   8  13  24  44  67  90 121 163 201 235 284
#     4   9  17  29  45  69 100 130 163 207 250 288
#     4   9  17  31  51  74  99 129 167 207 248 297
#     4   9  17  31  51  74  99 129 167 207 248 297
#     4  11  20  31  50  75 103 130 163 207 253 299
#     4   8  13  24  44  67  90 121 163 201 235 284
#     4   9  17  29  45  69 100 130 163 207 250 288
#     4  11  20  31  50  75 103 130 163 207 253 299
#
# _framework density 17.747962000000001
#
# number of rings (size 3 to 8) (size 9 to 14) (size 15 to 20)
#    0.000    2.750    2.500    2.250    0.000    0.500 
#    0.000    1.250    0.000    7.500    0.000    0.000 
#    0.000    0.000    0.000    0.000    0.000    0.000 
#
# Total GULP energy -396607.733155 kJ/mol
# GULP energy per Si atom -12393.991661 kJ/mol
# Density = 1.770757 g / cm^3
# Si number density = 17.747962 Si / 1000 Ang^3
#
#
#
# Elastic Constant Matrix: (Units=GPa)
#
#
# Indices 1 2 3 4 5 6 
#
# 1 53.2174 46.2267 33.4568 0.0000 -19.2304 0.0000
# 2 46.2267 176.2380 62.3015 0.0000 -28.9535 0.0000
# 3 33.4568 62.3015 77.7948 0.0000 -25.0382 0.0000
# 4 0.0000 0.0000 0.0000 29.0461 0.0000 -2.0572
# 5 -19.2304 -28.9535 -25.0382 0.0000 25.6803 0.0000
# 6 0.0000 0.0000 0.0000 -2.0572 0.0000 27.9042
#
#
#
# Elastic Compliance Matrix: (Units=1/GPa)
#
#
# Indices 1 2 3 4 5 6 
#
# 1 0.030414 -0.003784 -0.005964 0.000000 0.012694 0.000000
# 2 -0.003784 0.008678 -0.004496 0.000000 0.002567 0.000000
# 3 -0.005964 -0.004496 0.023246 0.000000 0.013129 0.000000
# 4 0.000000 0.000000 0.000000 0.034609 0.000000 0.002551
# 5 0.012694 0.002567 0.013129 0.000000 0.064141 0.000000
# 6 0.000000 0.000000 0.000000 0.002551 0.000000 0.036025
#
#
# Mechanical properties :
#
#
# Convention : Reuss Voigt Hill
#
# Bulk Modulus (GPa) = 29.54275 65.69112 47.61694
# Shear Modulus (GPa) = 21.10743 27.54381 24.32562
#
# Velocity S-wave (km/s) = 3.45235 3.94374 3.70620
# Velocity P-wave (km/s) = 5.70731 7.60468 6.72327
#
# Compressibility (1/GPa) = 0.03384925
#
# Stress axis : x y z
#
# Youngs Moduli (GPa) = 32.87924 115.23820 43.01888
#
# Poissons Ratio (x) = 0.43602 0.25658
# Poissons Ratio (y) = 0.12440 0.19342
# Poissons Ratio (z) = 0.19610 0.51813
#
# Static dielectric constant tensor:
#      x y z
#    x 2.991780 0.000000 -0.203070 
#    y 0.000000 3.863730 0.000000 
#    z -0.203070 0.000000 3.104500 
# 
# 
# High freq. dielectric constant tensor:
#      x y z
#    x 1.644130 0.000000 -0.010370 
#    y 0.000000 1.710900 0.000000 
#    z -0.010370 0.000000 1.649890 
# 
# From -- ./inp_files/41968.got.cif
#   From: 2010.06.25/outbox.cif.g09.slc.cpg/sg11_21_cif.got.tgz:41968.got - 2010.06.27 23:14:04.
