data_PCOD8077565
_publ_section_title
;
Structure prediction by ZEFSAII (Michael W. Deem and Ramdas Pophale) SiO2 
 PCOD8077565
Probable space group: P 21/M
;
_chemical_formula_sum "Si O2"
_cell_formula_units_Z 28
_cell_length_a 10.751051
_cell_length_b 19.627109
_cell_length_c 11.636244
_cell_angle_alpha 90.000000
_cell_angle_beta 38.335322
_cell_angle_gamma 90.000000
_cell_volume 1522.985445
_symmetry_space_group_name_H-M "P 21/M"
_symmetry_group_IT_number 11
_symmetry_cell_setting 'monoclinic'
loop_
_space_group_symop_operation_xyz
x,y,z
-x,1/2+y,-z
-x,-y,-z
x,1/2-y,z
loop_
_atom_site_type_symbol
_atom_site_label
_atom_site_fract_x
_atom_site_fract_y
_atom_site_fract_z
Si Si1 0.715723 0.029704 0.469805
Si Si2 0.768706 0.480745 0.683533
Si Si3 0.853164 0.674166 0.122007
Si Si4 0.622603 0.060180 0.023039
Si Si5 0.567993 0.895287 0.489024
Si Si6 0.092472 0.461274 0.043576
Si Si7 0.305449 0.673985 0.862588
O O1 0.710284 0.054821 0.605687
O O2 0.524127 0.063246 0.550256
O O3 0.923720 0.051256 0.261214
O O4 0.694505 0.947323 0.477337
O O5 0.613402 0.542942 0.820920
O O6 0.000000 0.500000 0.500000
O O7 0.739104 0.433158 0.816619
O O8 0.813064 0.750000 0.097658
O O9 0.707713 0.663060 0.335658
O O10 0.824957 0.613691 0.049627
O O11 0.069784 0.671384 0.020647
O O12 0.630373 0.135086 0.069484
O O13 0.727363 0.005557 0.033213
O O14 0.392311 0.860710 0.686493
O O15 0.000000 0.500000 0.000000
O O16 0.389465 0.750000 0.813611
#
# Coordination Sequence:
#
# PCOD8077565 Si02
#       7
#     4   4   4   4   4   4   4
#     4  11  20  34  60  89 117 148 192 250 288 343
#     4  11  23  37  56  87 116 148 198 246 286 339
#     4  11  23  35  54  88 125 155 187 234 300 366
#     4  11  22  38  61  85 118 158 196 245 294 340
#     4  11  20  36  59  87 120 151 188 236 307 347
#     4  12  19  36  61  88 119 152 191 245 299 350
#     4  11  22  37  58  89 123 152 191 242 298 358
#
# _framework density 18.384943
#
# number of rings (size 3 to 8) (size 9 to 14) (size 15 to 20)
#    0.000    0.857    7.143    1.286    0.000    0.000 
#    0.000    0.000    0.000    9.429    0.000    0.000 
#    0.000    0.000    0.000    0.000    0.000    0.000 
#
# Total GULP energy -347130.772842 kJ/mol
# GULP energy per Si atom -12397.527602 kJ/mol
# Density = 1.834310 g / cm^3
# Si number density = 18.384943 Si / 1000 Ang^3
#
#
#
# Elastic Constant Matrix: (Units=GPa)
#
#
# Indices 1 2 3 4 5 6 
#
# 1 78.3301 30.8504 38.0335 0.0000 13.9037 0.0000
# 2 30.8504 109.4757 28.1071 0.0000 9.9796 0.0000
# 3 38.0335 28.1071 123.1167 0.0000 7.5286 0.0000
# 4 0.0000 0.0000 0.0000 19.3947 0.0000 0.8573
# 5 13.9037 9.9796 7.5286 0.0000 39.9430 0.0000
# 6 0.0000 0.0000 0.0000 0.8573 0.0000 17.7430
#
#
#
# Elastic Compliance Matrix: (Units=1/GPa)
#
#
# Indices 1 2 3 4 5 6 
#
# 1 0.016853 -0.003284 -0.004196 0.000000 -0.004255 0.000000
# 2 -0.003284 0.010509 -0.001309 0.000000 -0.001236 0.000000
# 3 -0.004196 -0.001309 0.009720 0.000000 -0.000044 0.000000
# 4 0.000000 0.000000 0.000000 0.051671 0.000000 -0.002497
# 5 -0.004255 -0.001236 -0.000044 0.000000 0.026834 0.000000
# 6 0.000000 0.000000 0.000000 -0.002497 0.000000 0.056481
#
#
# Mechanical properties :
#
#
# Convention : Reuss Voigt Hill
#
# Bulk Modulus (GPa) = 51.27396 56.10049 53.68722
# Shear Modulus (GPa) = 25.49118 29.67824 27.58471
#
# Velocity S-wave (km/s) = 3.72765 4.02216 3.87770
# Velocity P-wave (km/s) = 6.81739 7.22156 7.02238
#
# Compressibility (1/GPa) = 0.01950308
#
# Stress axis : x y z
#
# Youngs Moduli (GPa) = 59.33808 95.16037 102.87791
#
# Poissons Ratio (x) = 0.31249 0.43170
# Poissons Ratio (y) = 0.19486 0.13467
# Poissons Ratio (z) = 0.24900 0.12457
#
# Static dielectric constant tensor:
#      x y z
#    x 3.420040 0.000000 0.039330 
#    y 0.000000 3.465810 0.000000 
#    z 0.039330 0.000000 3.651420 
# 
# 
# High freq. dielectric constant tensor:
#      x y z
#    x 1.699060 0.000000 -0.005860 
#    y 0.000000 1.683340 0.000000 
#    z -0.005860 0.000000 1.742930 
# 
# From -- ./inp_files/35988.got.cif
#   From: 2010.06.25/outbox.cif.g09.slc.cpg/sg11_18_cif.got.tgz:35988.got - 2010.06.27 23:14:04.
