data_PCOD8077870
_publ_section_title
;
Structure prediction by ZEFSAII (Michael W. Deem and Ramdas Pophale) SiO2 
 PCOD8077870
Probable space group: P 21/M
;
_chemical_formula_sum "Si O2"
_cell_formula_units_Z 20
_cell_length_a 22.147698
_cell_length_b 8.387009
_cell_length_c 5.040487
_cell_angle_alpha 90.000000
_cell_angle_beta 83.427552
_cell_angle_gamma 90.000000
_cell_volume 930.131951
_symmetry_space_group_name_H-M "P 21/M"
_symmetry_group_IT_number 11
_symmetry_cell_setting 'monoclinic'
loop_
_space_group_symop_operation_xyz
x,y,z
-x,1/2+y,-z
-x,-y,-z
x,1/2-y,z
loop_
_atom_site_type_symbol
_atom_site_label
_atom_site_fract_x
_atom_site_fract_y
_atom_site_fract_z
Si Si1 0.434797 0.436345 0.451156
Si Si2 0.827342 0.062264 0.380759
Si Si3 0.369583 0.563994 0.982275
Si Si4 0.035244 0.562352 0.732171
Si Si5 0.762396 0.936867 0.912879
O O1 0.500000 0.500000 0.500000
O O2 0.437550 0.250000 0.386556
O O3 0.416322 0.527904 0.194037
O O4 0.386945 0.468215 0.709033
O O5 0.821513 0.250000 0.334660
O O6 0.895702 0.999496 0.300705
O O7 0.809329 0.020440 0.689746
O O8 0.783037 0.971049 0.202084
O O9 0.370841 0.750000 0.914008
O O10 0.303355 0.510356 0.108851
O O11 0.035711 0.750000 0.728206
O O12 0.000000 0.500000 0.500000
O O13 0.000000 0.500000 0.000000
O O14 0.760298 0.750000 0.858975
#
# Coordination Sequence:
#
# PCOD8077870 Si02
#       5
#     4   4   4   4   4
#     4  12  25  44  67  96 130 167 211 260 311 370
#     4  11  24  43  64  91 126 167 208 255 312 375
#     4  12  25  44  67  94 128 169 210 257 314 373
#     4  11  24  41  64  92 126 164 208 257 312 371
#     4  12  25  42  65  95 126 163 209 261 312 369
#
# _framework density 21.502326
#
# number of rings (size 3 to 8) (size 9 to 14) (size 15 to 20)
#    0.000    0.400    0.000    9.600    0.000    8.000 
#    0.000    0.000    0.000    0.000    0.000    0.000 
#    0.000    0.000    0.000    0.000    0.000    0.000 
#
# Total GULP energy -248200.821666 kJ/mol
# GULP energy per Si atom -12410.041083 kJ/mol
# Density = 2.145339 g / cm^3
# Si number density = 21.502326 Si / 1000 Ang^3
#
#
#
# Elastic Constant Matrix: (Units=GPa)
#
#
# Indices 1 2 3 4 5 6 
#
# 1 108.3114 42.8712 13.8102 0.0000 1.9532 0.0000
# 2 42.8712 83.9803 11.1394 0.0000 -3.5789 0.0000
# 3 13.8102 11.1394 101.5831 0.0000 -1.9330 0.0000
# 4 0.0000 0.0000 0.0000 42.7606 0.0000 1.2293
# 5 1.9532 -3.5789 -1.9330 0.0000 44.8977 0.0000
# 6 0.0000 0.0000 0.0000 1.2293 0.0000 37.6098
#
#
#
# Elastic Compliance Matrix: (Units=1/GPa)
#
#
# Indices 1 2 3 4 5 6 
#
# 1 0.011706 -0.005891 -0.000965 0.000000 -0.001020 0.000000
# 2 -0.005891 0.015085 -0.000826 0.000000 0.001423 0.000000
# 3 -0.000965 -0.000826 0.010074 0.000000 0.000410 0.000000
# 4 0.000000 0.000000 0.000000 0.023408 0.000000 -0.000765
# 5 -0.001020 0.001423 0.000410 0.000000 0.022448 0.000000
# 6 0.000000 0.000000 0.000000 -0.000765 0.000000 0.026614
#
#
# Mechanical properties :
#
#
# Convention : Reuss Voigt Hill
#
# Bulk Modulus (GPa) = 46.51103 47.72405 47.11754
# Shear Modulus (GPa) = 37.91716 40.12389 39.02052
#
# Velocity S-wave (km/s) = 4.20384 4.32444 4.26456
# Velocity P-wave (km/s) = 6.72612 6.86858 6.79772
#
# Compressibility (1/GPa) = 0.02150027
#
# Stress axis : x y z
#
# Youngs Moduli (GPa) = 85.42694 66.28996 99.26818
#
# Poissons Ratio (x) = 0.39053 0.09578
# Poissons Ratio (y) = 0.50327 0.08202
# Poissons Ratio (z) = 0.08242 0.05477
#
# Static dielectric constant tensor:
#      x y z
#    x 4.152920 0.000000 -0.099240 
#    y 0.000000 3.715180 0.000000 
#    z -0.099240 0.000000 3.955450 
# 
# 
# High freq. dielectric constant tensor:
#      x y z
#    x 1.862180 0.000000 -0.001050 
#    y 0.000000 1.858310 0.000000 
#    z -0.001050 0.000000 1.860240 
# 
# From -- ./inp_files/8496.got.cif
#   From: 2010.06.25/outbox.cif.g09.slc.cpg/sg11_5_cif.got.tgz:8496.got - 2010.06.27 23:14:04.
