data_PCOD8077000
_publ_section_title
;
Structure prediction by ZEFSAII (Michael W. Deem and Ramdas Pophale) SiO2 
 PCOD8077000
Probable space group: P 21/M
;
_chemical_formula_sum "Si O2"
_cell_formula_units_Z 32
_cell_length_a 26.285260
_cell_length_b 8.886977
_cell_length_c 15.493187
_cell_angle_alpha 90.000000
_cell_angle_beta 153.042039
_cell_angle_gamma 90.000000
_cell_volume 1640.695199
_symmetry_space_group_name_H-M "P 21/M"
_symmetry_group_IT_number 11
_symmetry_cell_setting 'monoclinic'
loop_
_space_group_symop_operation_xyz
x,y,z
-x,1/2+y,-z
-x,-y,-z
x,1/2-y,z
loop_
_atom_site_type_symbol
_atom_site_label
_atom_site_fract_x
_atom_site_fract_y
_atom_site_fract_z
Si Si1 0.172419 0.427776 0.268508
Si Si2 0.442182 0.571425 0.994855
Si Si3 0.576666 0.928648 0.365059
Si Si4 0.991888 0.425736 0.857850
Si Si5 0.005056 0.574542 0.335751
Si Si6 0.554132 0.071776 0.665367
Si Si7 0.767938 0.925206 0.056492
Si Si8 0.226820 0.426410 0.736594
O O1 0.176508 0.250000 0.283226
O O2 0.297250 0.494063 0.446446
O O3 0.119303 0.491754 0.276055
O O4 0.100004 0.479602 0.076128
O O5 0.442756 0.750000 0.987059
O O6 0.314574 0.514623 0.809243
O O7 0.500000 0.500000 0.000000
O O8 0.510178 0.513355 0.180973
O O9 0.578609 0.750000 0.369352
O O10 0.515239 0.989527 0.357365
O O11 0.972159 0.250000 0.840361
O O12 0.012796 0.469385 0.790860
O O13 0.034977 0.750000 0.391554
O O14 0.102523 0.474790 0.523186
O O15 0.892938 0.531248 0.217155
O O16 0.548991 0.250000 0.649820
O O17 0.500000 0.000000 0.500000
O O18 0.682542 0.020049 0.869032
O O19 0.745032 0.750000 0.005094
O O20 0.751858 0.969439 0.131796
O O21 0.240648 0.250000 0.741587
#
# Coordination Sequence:
#
# PCOD8077000 Si02
#       8
#     4   4   4   4   4   4   4   4
#     4   9  18  35  58  80 111 150 188 231 285 347
#     4  11  23  41  62  90 123 160 204 249 304 364
#     4   9  20  38  62  87 115 157 198 239 299 361
#     4   9  19  35  55  83 113 147 188 234 288 345
#     4  10  22  38  60  87 116 154 198 245 301 361
#     4  11  23  40  63  91 123 161 203 249 303 362
#     4  10  22  41  63  87 118 156 200 249 302 360
#     4  11  23  40  61  88 119 155 200 250 302 359
#
# _framework density 19.503926
#
# number of rings (size 3 to 8) (size 9 to 14) (size 15 to 20)
#    0.000    2.000    1.250    1.500    3.500    1.500 
#    0.000    1.875    0.000    0.000    0.000    0.000 
#    0.000    0.000    0.000    0.000    0.000    0.000 
#
# Total GULP energy -396943.083789 kJ/mol
# GULP energy per Si atom -12404.471368 kJ/mol
# Density = 1.945953 g / cm^3
# Si number density = 19.503926 Si / 1000 Ang^3
#
#
#
# Elastic Constant Matrix: (Units=GPa)
#
#
# Indices 1 2 3 4 5 6 
#
# 1 142.2828 48.9724 65.2177 0.0000 4.4598 0.0000
# 2 48.9724 60.0341 45.5313 0.0000 -0.9378 0.0000
# 3 65.2177 45.5313 125.7071 0.0000 11.8275 0.0000
# 4 0.0000 0.0000 0.0000 33.2840 0.0000 1.1551
# 5 4.4598 -0.9378 11.8275 0.0000 35.9902 0.0000
# 6 0.0000 0.0000 0.0000 1.1551 0.0000 31.3431
#
#
#
# Elastic Compliance Matrix: (Units=1/GPa)
#
#
# Indices 1 2 3 4 5 6 
#
# 1 0.010680 -0.006269 -0.003230 0.000000 -0.000425 0.000000
# 2 -0.006269 0.027065 -0.006904 0.000000 0.003751 0.000000
# 3 -0.003230 -0.006904 0.012497 0.000000 -0.003887 0.000000
# 4 0.000000 0.000000 0.000000 0.030083 0.000000 -0.001109
# 5 -0.000425 0.003751 -0.003887 0.000000 0.029213 0.000000
# 6 0.000000 0.000000 0.000000 -0.001109 0.000000 0.031946
#
#
# Mechanical properties :
#
#
# Convention : Reuss Voigt Hill
#
# Bulk Modulus (GPa) = 57.34971 71.94075 64.64523
# Shear Modulus (GPa) = 27.76203 31.34363 29.55283
#
# Velocity S-wave (km/s) = 3.77690 4.01314 3.89681
# Velocity P-wave (km/s) = 6.96333 7.64455 7.31188
#
# Compressibility (1/GPa) = 0.01743688
#
# Stress axis : x y z
#
# Youngs Moduli (GPa) = 93.63411 36.94743 80.01862
#
# Poissons Ratio (x) = 0.23162 0.25848
# Poissons Ratio (y) = 0.58697 0.55243
# Poissons Ratio (z) = 0.30246 0.25508
#
# Static dielectric constant tensor:
#      x y z
#    x 3.698450 0.000000 0.028800 
#    y 0.000000 3.368070 0.000000 
#    z 0.028800 0.000000 3.708940 
# 
# 
# High freq. dielectric constant tensor:
#      x y z
#    x 1.770230 0.000000 0.002980 
#    y 0.000000 1.744960 0.000000 
#    z 0.002980 0.000000 1.770340 
# 
# From -- ./inp_files/55694.got.cif
#   From: 2010.06.25/outbox.cif.g09.slc.cpg/sg11_28_cif.got.tgz:55694.got - 2010.06.27 23:14:04.
