data_PCOD8077528
_publ_section_title
;
Structure prediction by ZEFSAII (Michael W. Deem and Ramdas Pophale) SiO2 
 PCOD8077528
Probable space group: P 21/M
;
_chemical_formula_sum "Si O2"
_cell_formula_units_Z 24
_cell_length_a 13.679494
_cell_length_b 11.015722
_cell_length_c 13.945065
_cell_angle_alpha 90.000000
_cell_angle_beta 32.312169
_cell_angle_gamma 90.000000
_cell_volume 1123.251845
_symmetry_space_group_name_H-M "P 21/M"
_symmetry_group_IT_number 11
_symmetry_cell_setting 'monoclinic'
loop_
_space_group_symop_operation_xyz
x,y,z
-x,1/2+y,-z
-x,-y,-z
x,1/2-y,z
loop_
_atom_site_type_symbol
_atom_site_label
_atom_site_fract_x
_atom_site_fract_y
_atom_site_fract_z
Si Si1 0.244252 0.750000 0.463655
Si Si2 0.863944 0.511817 0.428693
Si Si3 0.304187 0.750000 0.637614
Si Si4 0.714495 0.509396 0.342529
Si Si5 0.648122 0.750000 0.083608
Si Si6 0.267869 0.487885 0.095585
Si Si7 0.709316 0.750000 0.257618
Si Si8 0.366034 0.112084 0.214887
O O1 0.133327 0.872994 0.532096
O O2 0.295027 0.750000 0.531493
O O3 0.430290 0.750000 0.246595
O O4 0.750017 0.525061 0.425760
O O5 0.769301 0.599147 0.583629
O O6 0.073301 0.553987 0.240798
O O7 0.208811 0.624978 0.755330
O O8 0.522054 0.750000 0.475220
O O9 0.500000 0.500000 0.500000
O O10 0.807035 0.622840 0.209002
O O11 0.696806 0.750000 0.154696
O O12 0.739278 0.865576 0.959711
O O13 0.295160 0.468461 0.185986
O O14 0.430765 0.571919 0.920899
O O15 0.372340 0.250000 0.175157
#
# Coordination Sequence:
#
# PCOD8077528 Si02
#       8
#     2   4   2   4   2   4   2   4
#     4   9  17  33  63  92 113 169 214 253 312 380
#     4  11  22  40  68  95 129 167 221 266 322 386
#     4   7  14  29  51  84 118 153 217 257 297 375
#     4   9  18  34  59  93 124 169 214 264 319 385
#     4  11  19  41  68  88 134 171 215 270 314 395
#     4  11  24  43  65  96 128 169 217 271 321 397
#     4   9  18  31  58  88 123 167 212 260 323 370
#     4  11  25  43  64  95 130 170 213 270 337 383
#
# _framework density 21.366534999999999
#
# number of rings (size 3 to 8) (size 9 to 14) (size 15 to 20)
#    0.000    2.000    2.500    2.000    1.167    0.667 
#    0.000    0.833    0.000    0.000    0.000    0.000 
#    0.000    0.000    0.000    0.000    0.000    0.000 
#
# Total GULP energy -297443.036872 kJ/mol
# GULP energy per Si atom -12393.459870 kJ/mol
# Density = 2.131790 g / cm^3
# Si number density = 21.366535 Si / 1000 Ang^3
#
#
#
# Elastic Constant Matrix: (Units=GPa)
#
#
# Indices 1 2 3 4 5 6 
#
# 1 85.5531 23.4865 35.4080 0.0000 0.8745 0.0000
# 2 23.4865 113.9175 18.2958 0.0000 6.1140 0.0000
# 3 35.4080 18.2958 100.8810 0.0000 -13.6041 0.0000
# 4 0.0000 0.0000 0.0000 9.8818 0.0000 9.2464
# 5 0.8745 6.1140 -13.6041 0.0000 27.2393 0.0000
# 6 0.0000 0.0000 0.0000 9.2464 0.0000 25.1617
#
#
#
# Elastic Compliance Matrix: (Units=1/GPa)
#
#
# Indices 1 2 3 4 5 6 
#
# 1 0.014340 -0.002018 -0.005005 0.000000 -0.002507 0.000000
# 2 -0.002018 0.009569 -0.001402 0.000000 -0.002783 0.000000
# 3 -0.005005 -0.001402 0.012854 0.000000 0.006895 0.000000
# 4 0.000000 0.000000 0.000000 0.154228 0.000000 -0.056676
# 5 -0.002507 -0.002783 0.006895 0.000000 0.040860 0.000000
# 6 0.000000 0.000000 0.000000 -0.056676 0.000000 0.060570
#
#
# Mechanical properties :
#
#
# Convention : Reuss Voigt Hill
#
# Bulk Modulus (GPa) = 50.22368 50.52581 50.37475
# Shear Modulus (GPa) = 15.82731 27.33397 21.58064
#
# Velocity S-wave (km/s) = 2.72463 3.58059 3.18153
# Velocity P-wave (km/s) = 5.78402 6.38692 6.09293
#
# Compressibility (1/GPa) = 0.01991093
#
# Stress axis : x y z
#
# Youngs Moduli (GPa) = 69.73611 104.50436 77.79932
#
# Poissons Ratio (x) = 0.21089 0.38940
# Poissons Ratio (y) = 0.14073 0.10911
# Poissons Ratio (z) = 0.34904 0.14657
#
# Static dielectric constant tensor:
#      x y z
#    x 3.682630 0.000000 -0.076800 
#    y 0.000000 4.496640 0.000000 
#    z -0.076800 0.000000 3.595140 
# 
# 
# High freq. dielectric constant tensor:
#      x y z
#    x 1.828110 0.000000 -0.002940 
#    y 0.000000 1.845640 0.000000 
#    z -0.002940 0.000000 1.811730 
# 
# From -- ./inp_files/52248.got.cif
#   From: 2010.06.25/outbox.cif.g09.slc.cpg/sg11_27_cif.got.tgz:52248.got - 2010.06.27 23:14:04.
