data_PCOD8077936
_publ_section_title
;
Structure prediction by ZEFSAII (Michael W. Deem and Ramdas Pophale) SiO2 
 PCOD8077936
Probable space group: P 21/M
;
_chemical_formula_sum "Si O2"
_cell_formula_units_Z 28
_cell_length_a 12.463547
_cell_length_b 9.548166
_cell_length_c 20.561431
_cell_angle_alpha 90.000000
_cell_angle_beta 133.590092
_cell_angle_gamma 90.000000
_cell_volume 1772.262731
_symmetry_space_group_name_H-M "P 21/M"
_symmetry_group_IT_number 11
_symmetry_cell_setting 'monoclinic'
loop_
_space_group_symop_operation_xyz
x,y,z
-x,1/2+y,-z
-x,-y,-z
x,1/2-y,z
loop_
_atom_site_type_symbol
_atom_site_label
_atom_site_fract_x
_atom_site_fract_y
_atom_site_fract_z
Si Si1 0.386738 0.584050 0.794321
Si Si2 0.952867 0.086237 0.127221
Si Si3 0.101128 0.916297 0.749089
Si Si4 0.217932 0.595415 0.599002
Si Si5 0.897853 0.412872 0.909325
Si Si6 0.081363 0.405208 0.444791
Si Si7 0.672799 0.092503 0.919985
O O1 0.406614 0.750000 0.807460
O O2 0.261863 0.529281 0.792644
O O3 0.339736 0.539752 0.701381
O O4 0.540152 0.513087 0.877549
O O5 0.997052 0.250000 0.141794
O O6 0.930533 0.033429 0.191371
O O7 0.801865 0.057228 0.025251
O O8 0.086316 0.990726 0.153692
O O9 0.103482 0.750000 0.744277
O O10 0.970521 0.970739 0.646276
O O11 0.262364 0.750000 0.593355
O O12 0.209732 0.497705 0.531836
O O13 0.060857 0.601984 0.568715
O O14 0.948188 0.250000 0.925816
O O15 0.732923 0.421986 0.870779
O O16 0.000000 0.500000 0.000000
O O17 0.148010 0.250000 0.463191
O O18 0.615343 0.250000 0.907719
#
# Coordination Sequence:
#
# PCOD8077936 Si02
#       7
#     4   4   4   4   4   4   4
#     4   9  17  28  42  60  85 117 145 167 199 249
#     4   9  17  30  46  62  84 113 141 172 209 246
#     4   8  15  28  43  61  87 115 141 168 202 248
#     4   8  14  24  37  56  81 106 135 171 205 236
#     4   9  17  30  46  63  82 104 137 180 218 247
#     4   8  13  23  40  58  77 106 139 167 200 243
#     4   9  18  29  41  60  85 110 137 174 212 240
#
# _framework density 15.799011999999999
#
# number of rings (size 3 to 8) (size 9 to 14) (size 15 to 20)
#    0.000    3.429    0.000    3.000    0.000    4.000 
#    0.000    3.571    0.000    0.000    0.000    1.000 
#    0.000    0.000    0.000    0.000    0.000    0.000 
#
# Total GULP energy -346932.277405 kJ/mol
# GULP energy per Si atom -12390.438479 kJ/mol
# Density = 1.576305 g / cm^3
# Si number density = 15.799012 Si / 1000 Ang^3
#
#
#
# Elastic Constant Matrix: (Units=GPa)
#
#
# Indices 1 2 3 4 5 6 
#
# 1 67.7530 30.3271 35.0755 0.0000 -26.9351 0.0000
# 2 30.3271 56.5789 27.3131 0.0000 -14.2665 0.0000
# 3 35.0755 27.3131 63.2482 0.0000 -26.8885 0.0000
# 4 0.0000 0.0000 0.0000 23.8845 0.0000 1.6541
# 5 -26.9351 -14.2665 -26.8885 0.0000 16.2424 0.0000
# 6 0.0000 0.0000 0.0000 1.6541 0.0000 22.5343
#
#
#
# Elastic Compliance Matrix: (Units=1/GPa)
#
#
# Indices 1 2 3 4 5 6 
#
# 1 0.060354 -0.011906 0.032997 0.000000 0.144254 0.000000
# 2 -0.011906 0.025433 -0.011063 0.000000 -0.015719 0.000000
# 3 0.032997 -0.011063 0.072313 0.000000 0.164714 0.000000
# 4 0.000000 0.000000 0.000000 0.042082 0.000000 -0.003089
# 5 0.144254 -0.015719 0.164714 0.000000 0.559655 0.000000
# 6 0.000000 0.000000 0.000000 -0.003089 0.000000 0.044603
#
#
# Mechanical properties :
#
#
# Convention : Reuss Voigt Hill
#
# Bulk Modulus (GPa) = 5.61302 41.44572 23.52937
# Shear Modulus (GPa) = 5.92578 18.85654 12.39116
#
# Velocity S-wave (km/s) = 1.93878 3.45849 2.80357
# Velocity P-wave (km/s) = 2.92785 6.49910 5.04037
#
# Compressibility (1/GPa) = 0.17815726
#
# Stress axis : x y z
#
# Youngs Moduli (GPa) = 16.56884 39.31863 13.82873
#
# Poissons Ratio (x) = 0.46813 -0.45631
# Poissons Ratio (y) = 0.19727 0.15299
# Poissons Ratio (z) = -0.54673 0.43498
#
# Static dielectric constant tensor:
#      x y z
#    x 3.066010 0.000000 -0.298100 
#    y 0.000000 3.082520 0.000000 
#    z -0.298100 0.000000 3.038160 
# 
# 
# High freq. dielectric constant tensor:
#      x y z
#    x 1.574920 0.000000 -0.016090 
#    y 0.000000 1.598010 0.000000 
#    z -0.016090 0.000000 1.591160 
# 
# From -- ./inp_files/40383.got.cif
#   From: 2010.06.25/outbox.cif.g09.slc.cpg/sg11_21_cif.got.tgz:40383.got - 2010.06.27 23:14:04.
