data_PCOD8077972
_publ_section_title
;
Structure prediction by ZEFSAII (Michael W. Deem and Ramdas Pophale) SiO2 
 PCOD8077972
Probable space group: P 21/M
;
_chemical_formula_sum "Si O2"
_cell_formula_units_Z 32
_cell_length_a 22.733736
_cell_length_b 9.213694
_cell_length_c 27.848251
_cell_angle_alpha 90.000000
_cell_angle_beta 162.277716
_cell_angle_gamma 90.000000
_cell_volume 1775.629055
_symmetry_space_group_name_H-M "P 21/M"
_symmetry_group_IT_number 11
_symmetry_cell_setting 'monoclinic'
loop_
_space_group_symop_operation_xyz
x,y,z
-x,1/2+y,-z
-x,-y,-z
x,1/2-y,z
loop_
_atom_site_type_symbol
_atom_site_label
_atom_site_fract_x
_atom_site_fract_y
_atom_site_fract_z
Si Si1 0.794609 0.413885 0.733028
Si Si2 0.461632 0.080293 0.897634
Si Si3 0.451813 0.413885 0.390200
Si Si4 0.537677 0.422651 0.850128
Si Si5 0.291749 0.080885 0.479665
Si Si6 0.043448 0.919115 0.855565
Si Si7 0.794323 0.419708 0.230358
Si Si8 0.212419 0.422651 0.524902
O O1 0.852510 0.250000 0.792009
O O2 0.618288 0.414110 0.559152
O O3 0.733611 0.500001 0.733633
O O4 0.976989 0.493368 0.850864
O O5 0.415058 0.250000 0.861290
O O6 0.490242 0.018554 0.866326
O O7 0.279299 0.000003 0.779279
O O8 0.656382 0.045539 0.078200
O O9 0.389615 0.250000 0.329070
O O10 0.527667 0.493369 0.401499
O O11 0.540456 0.250000 0.853448
O O12 0.376621 0.482364 0.688301
O O13 0.746685 0.479032 0.995904
O O14 0.347118 0.250000 0.522092
O O15 0.256205 0.020971 0.505474
O O16 0.097363 0.052189 0.298655
O O17 0.047034 0.750000 0.872097
O O18 0.799956 0.250000 0.246227
O O19 0.005384 0.481443 0.381516
O O20 0.207481 0.250000 0.520506
#
# Coordination Sequence:
#
# PCOD8077972 Si02
#       8
#     4   4   4   4   4   4   4   4
#     4   9  16  26  42  66  94 120 147 183 226 268
#     4   9  17  30  48  69  92 118 149 185 224 266
#     4   9  16  26  42  66  94 120 147 183 226 268
#     4   9  17  29  46  67  90 118 152 187 222 264
#     4   9  16  27  45  67  89 115 148 185 224 266
#     4   9  16  27  45  67  89 115 148 185 224 266
#     4   9  17  30  48  69  92 118 149 185 224 266
#     4   9  17  29  46  67  90 118 152 187 222 264
#
# _framework density 18.021782000000002
#
# number of rings (size 3 to 8) (size 9 to 14) (size 15 to 20)
#    0.000    3.000    0.000    1.500    0.000    6.500 
#    0.000    1.250    0.000    9.000    0.000    0.000 
#    0.000    0.000    0.000    0.000    0.000    0.000 
#
# Total GULP energy -396792.447915 kJ/mol
# GULP energy per Si atom -12399.763997 kJ/mol
# Density = 1.798076 g / cm^3
# Si number density = 18.021782 Si / 1000 Ang^3
#
#
#
# Elastic Constant Matrix: (Units=GPa)
#
#
# Indices 1 2 3 4 5 6 
#
# 1 165.6492 59.7215 92.8691 0.0000 41.2796 0.0000
# 2 59.7215 67.1898 37.5227 0.0000 15.3417 0.0000
# 3 92.8691 37.5227 83.3236 0.0000 15.6966 0.0000
# 4 0.0000 0.0000 0.0000 14.4986 0.0000 9.4543
# 5 41.2796 15.3417 15.6966 0.0000 24.1977 0.0000
# 6 0.0000 0.0000 0.0000 9.4543 0.0000 28.2067
#
#
#
# Elastic Compliance Matrix: (Units=1/GPa)
#
#
# Indices 1 2 3 4 5 6 
#
# 1 0.029479 -0.005409 -0.024599 0.000000 -0.030903 0.000000
# 2 -0.005409 0.022237 -0.003495 0.000000 -0.002605 0.000000
# 3 -0.024599 -0.003495 0.037217 0.000000 0.020037 0.000000
# 4 0.000000 0.000000 0.000000 0.088264 0.000000 -0.029584
# 5 -0.030903 -0.002605 0.020037 0.000000 0.082698 0.000000
# 6 0.000000 0.000000 0.000000 -0.029584 0.000000 0.045369
#
#
# Mechanical properties :
#
#
# Convention : Reuss Voigt Hill
#
# Bulk Modulus (GPa) = 45.60237 77.37656 61.48947
# Shear Modulus (GPa) = 13.17251 21.78385 17.47818
#
# Velocity S-wave (km/s) = 2.70649 3.48048 3.11760
# Velocity P-wave (km/s) = 5.92670 7.69285 6.86679
#
# Compressibility (1/GPa) = 0.02192868
#
# Stress axis : x y z
#
# Youngs Moduli (GPa) = 33.92287 44.96952 26.86923
#
# Poissons Ratio (x) = 0.24322 0.66095
# Poissons Ratio (y) = 0.18347 0.09391
# Poissons Ratio (z) = 0.83445 0.15717
#
# Static dielectric constant tensor:
#      x y z
#    x 3.478190 0.000000 0.193840 
#    y 0.000000 3.109310 0.000000 
#    z 0.193840 0.000000 3.197310 
# 
# 
# High freq. dielectric constant tensor:
#      x y z
#    x 1.705030 0.000000 0.020800 
#    y 0.000000 1.668660 0.000000 
#    z 0.020800 0.000000 1.674880 
# 
# From -- ./inp_files/66985.got.cif
#   From: 2010.06.25/outbox.cif.g09.slc.cpg/sg11_34_cif.got.tgz:66985.got - 2010.06.27 23:14:04.
