data_PCOD8077425
_publ_section_title
;
Structure prediction by ZEFSAII (Michael W. Deem and Ramdas Pophale) SiO2 
 PCOD8077425
Probable space group: P 21/M
;
_chemical_formula_sum "Si O2"
_cell_formula_units_Z 28
_cell_length_a 11.218324
_cell_length_b 14.422117
_cell_length_c 8.772862
_cell_angle_alpha 90.000000
_cell_angle_beta 72.242985
_cell_angle_gamma 90.000000
_cell_volume 1351.757345
_symmetry_space_group_name_H-M "P 21/M"
_symmetry_group_IT_number 11
_symmetry_cell_setting 'monoclinic'
loop_
_space_group_symop_operation_xyz
x,y,z
-x,1/2+y,-z
-x,-y,-z
x,1/2-y,z
loop_
_atom_site_type_symbol
_atom_site_label
_atom_site_fract_x
_atom_site_fract_y
_atom_site_fract_z
Si Si1 0.159317 0.857695 0.792836
Si Si2 0.440707 0.854181 0.149561
Si Si3 0.054124 0.357704 0.889790
Si Si4 0.329171 0.464246 0.304770
Si Si5 0.098233 0.012662 0.594585
Si Si6 0.280709 0.357885 0.017104
Si Si7 0.428488 0.644014 0.797534
O O1 0.151155 0.750000 0.754635
O O2 0.300239 0.890365 0.772372
O O3 0.110764 0.912499 0.666275
O O4 0.074192 0.879914 0.972628
O O5 0.403595 0.750000 0.215512
O O6 0.355665 0.926180 0.274306
O O7 0.587920 0.873087 0.121701
O O8 0.414575 0.869250 0.982473
O O9 0.067090 0.250000 0.845077
O O10 0.049932 0.412506 0.734053
O O11 0.170658 0.390847 0.948141
O O12 0.229350 0.451470 0.476912
O O13 0.275496 0.418924 0.171540
O O14 0.456671 0.415712 0.310920
O O15 0.000000 0.000000 0.500000
O O16 0.265433 0.250000 0.070441
O O17 0.456513 0.750000 0.744754
#
# Coordination Sequence:
#
# PCOD8077425 Si02
#       7
#     4   4   4   4   4   4   4
#     4  10  23  44  67  88 120 164 211 258 301 360
#     4   9  19  34  58  92 123 158 205 246 295 364
#     4  10  23  43  68  89 116 162 210 256 301 356
#     4  11  22  36  62  92 129 164 189 251 318 360
#     4  12  28  41  59  93 129 164 204 253 313 375
#     4   9  18  37  64  92 117 155 209 253 294 355
#     4   9  19  37  64  93 117 157 210 253 300 363
#
# _framework density 20.713777
#
# number of rings (size 3 to 8) (size 9 to 14) (size 15 to 20)
#    0.000    2.000    0.000    4.286    6.000    2.857 
#    0.000    0.000    0.000    0.000    0.000    0.000 
#    0.000    0.000    0.000    0.000    0.000    0.000 
#
# Total GULP energy -347305.390556 kJ/mol
# GULP energy per Si atom -12403.763948 kJ/mol
# Density = 2.066663 g / cm^3
# Si number density = 20.713777 Si / 1000 Ang^3
#
#
#
# Elastic Constant Matrix: (Units=GPa)
#
#
# Indices 1 2 3 4 5 6 
#
# 1 142.6485 69.3039 70.8763 0.0000 7.0833 0.0000
# 2 69.3039 98.8214 61.3813 0.0000 -0.2604 0.0000
# 3 70.8763 61.3813 104.2528 0.0000 -4.9211 0.0000
# 4 0.0000 0.0000 0.0000 21.1922 0.0000 -1.0807
# 5 7.0833 -0.2604 -4.9211 0.0000 26.9964 0.0000
# 6 0.0000 0.0000 0.0000 -1.0807 0.0000 31.2315
#
#
#
# Elastic Compliance Matrix: (Units=1/GPa)
#
#
# Indices 1 2 3 4 5 6 
#
# 1 0.012641 -0.005376 -0.005636 0.000000 -0.004396 0.000000
# 2 -0.005376 0.018306 -0.007110 0.000000 0.000291 0.000000
# 3 -0.005636 -0.007110 0.017830 0.000000 0.004660 0.000000
# 4 0.000000 0.000000 0.000000 0.047271 0.000000 0.001636
# 5 -0.004396 0.000291 0.004660 0.000000 0.039048 0.000000
# 6 0.000000 0.000000 0.000000 0.001636 0.000000 0.032076
#
#
# Mechanical properties :
#
#
# Convention : Reuss Voigt Hill
#
# Bulk Modulus (GPa) = 79.78709 83.20508 81.49608
# Shear Modulus (GPa) = 24.08576 25.49476 24.79026
#
# Velocity S-wave (km/s) = 3.41367 3.51210 3.46323
# Velocity P-wave (km/s) = 7.35799 7.53011 7.44455
#
# Compressibility (1/GPa) = 0.01253336
#
# Stress axis : x y z
#
# Youngs Moduli (GPa) = 79.11011 54.62642 56.08576
#
# Poissons Ratio (x) = 0.29366 0.31611
# Poissons Ratio (y) = 0.42527 0.39876
# Poissons Ratio (z) = 0.44588 0.38838
#
# Static dielectric constant tensor:
#      x y z
#    x 3.992210 0.000000 -0.112230 
#    y 0.000000 3.882030 0.000000 
#    z -0.112230 0.000000 3.446870 
# 
# 
# High freq. dielectric constant tensor:
#      x y z
#    x 1.823490 0.000000 -0.005700 
#    y 0.000000 1.823910 0.000000 
#    z -0.005700 0.000000 1.782810 
# 
# From -- ./inp_files/17675.got.cif
#   From: 2010.06.25/outbox.cif.g09.slc.cpg/sg11_9_cif.got.tgz:17675.got - 2010.06.27 23:14:04.
