data_PCOD8077796
_publ_section_title
;
Structure prediction by ZEFSAII (Michael W. Deem and Ramdas Pophale) SiO2 
 PCOD8077796
Probable space group: P 21/M
;
_chemical_formula_sum "Si O2"
_cell_formula_units_Z 28
_cell_length_a 14.280025
_cell_length_b 8.641099
_cell_length_c 14.239609
_cell_angle_alpha 90.000000
_cell_angle_beta 119.768531
_cell_angle_gamma 90.000000
_cell_volume 1525.228425
_symmetry_space_group_name_H-M "P 21/M"
_symmetry_group_IT_number 11
_symmetry_cell_setting 'monoclinic'
loop_
_space_group_symop_operation_xyz
x,y,z
-x,1/2+y,-z
-x,-y,-z
x,1/2-y,z
loop_
_atom_site_type_symbol
_atom_site_label
_atom_site_fract_x
_atom_site_fract_y
_atom_site_fract_z
Si Si1 0.947911 0.432330 0.245702
Si Si2 0.171441 0.568728 0.338921
Si Si3 0.890321 0.565719 0.401374
Si Si4 0.486994 0.431922 0.389778
Si Si5 0.697369 0.569010 0.438950
Si Si6 0.744307 0.567112 0.798425
Si Si7 0.900883 0.432728 0.009970
O O1 0.966533 0.250000 0.264249
O O2 0.867709 0.494555 0.286546
O O3 0.907404 0.479326 0.122602
O O4 0.057929 0.520659 0.326208
O O5 0.191353 0.750000 0.359620
O O6 0.265930 0.475831 0.438010
O O7 0.173138 0.514077 0.232473
O O8 0.897435 0.750000 0.401924
O O9 0.786815 0.510086 0.409931
O O10 0.000000 0.500000 0.500000
O O11 0.500000 0.500000 0.500000
O O12 0.488400 0.250000 0.401121
O O13 0.582132 0.486531 0.366951
O O14 0.376995 0.487605 0.284329
O O15 0.678942 0.750000 0.422199
O O16 0.757741 0.750000 0.798872
O O17 0.786584 0.505466 0.919755
O O18 0.900430 0.250000 0.996694
O O19 0.000000 0.500000 0.000000
#
# Coordination Sequence:
#
# PCOD8077796 Si02
#       7
#     4   4   4   4   4   4   4
#     4  11  23  38  56  82 118 152 190 237 283 337
#     4  12  22  32  55  84 115 155 193 228 280 344
#     4  11  23  37  58  84 114 153 191 233 287 340
#     4  11  23  37  58  84 114 153 191 233 287 340
#     4  11  23  38  56  82 118 152 190 237 283 337
#     4  11  23  38  56  82 118 152 190 237 283 337
#     4  11  23  37  58  84 114 153 191 233 287 340
#
# _framework density 18.357907000000001
#
# number of rings (size 3 to 8) (size 9 to 14) (size 15 to 20)
#    0.000    0.857    4.286    3.857    0.000    5.143 
#    0.000    0.000    0.000    0.857    0.000    0.000 
#    0.000    0.000    0.000    0.000    0.000    0.000 
#
# Total GULP energy -347254.760187 kJ/mol
# GULP energy per Si atom -12401.955721 kJ/mol
# Density = 1.831612 g / cm^3
# Si number density = 18.357907 Si / 1000 Ang^3
#
#
#
# Elastic Constant Matrix: (Units=GPa)
#
#
# Indices 1 2 3 4 5 6 
#
# 1 107.4898 36.5922 56.1306 0.0000 0.8361 0.0000
# 2 36.5922 67.2976 38.4656 0.0000 3.0078 0.0000
# 3 56.1306 38.4656 113.2453 0.0000 2.9866 0.0000
# 4 0.0000 0.0000 0.0000 32.0880 0.0000 0.0383
# 5 0.8361 3.0078 2.9866 0.0000 30.7225 0.0000
# 6 0.0000 0.0000 0.0000 0.0383 0.0000 32.0389
#
#
#
# Elastic Compliance Matrix: (Units=1/GPa)
#
#
# Indices 1 2 3 4 5 6 
#
# 1 0.013523 -0.004391 -0.005226 0.000000 0.000570 0.000000
# 2 -0.004391 0.019909 -0.004549 0.000000 -0.001387 0.000000
# 3 -0.005226 -0.004549 0.012984 0.000000 -0.000675 0.000000
# 4 0.000000 0.000000 0.000000 0.031164 0.000000 -0.000037
# 5 0.000570 -0.001387 -0.000675 0.000000 0.032735 0.000000
# 6 0.000000 0.000000 0.000000 -0.000037 0.000000 0.031212
#
#
# Mechanical properties :
#
#
# Convention : Reuss Voigt Hill
#
# Bulk Modulus (GPa) = 55.30222 61.15662 58.22942
# Shear Modulus (GPa) = 28.42712 29.42618 28.92665
#
# Velocity S-wave (km/s) = 3.93936 4.00799 3.97382
# Velocity P-wave (km/s) = 7.13311 7.40300 7.26931
#
# Compressibility (1/GPa) = 0.01808246
#
# Stress axis : x y z
#
# Youngs Moduli (GPa) = 73.94996 50.22766 77.01900
#
# Poissons Ratio (x) = 0.22056 0.40251
# Poissons Ratio (y) = 0.32472 0.35039
# Poissons Ratio (z) = 0.38647 0.22851
#
# Static dielectric constant tensor:
#      x y z
#    x 3.552590 0.000000 0.044080 
#    y 0.000000 3.417430 0.000000 
#    z 0.044080 0.000000 3.536300 
# 
# 
# High freq. dielectric constant tensor:
#      x y z
#    x 1.702930 0.000000 -0.000030 
#    y 0.000000 1.726570 0.000000 
#    z -0.000030 0.000000 1.702170 
# 
# From -- ./inp_files/51450.got.cif
#   From: 2010.06.25/outbox.cif.g09.slc.cpg/sg11_26_cif.got.tgz:51450.got - 2010.06.27 23:14:04.
