data_PCOD8077785
_publ_section_title
;
Structure prediction by ZEFSAII (Michael W. Deem and Ramdas Pophale) SiO2 
 PCOD8077785
Probable space group: P 21/M
;
_chemical_formula_sum "Si O2"
_cell_formula_units_Z 20
_cell_length_a 14.896627
_cell_length_b 9.409026
_cell_length_c 14.896633
_cell_angle_alpha 90.000000
_cell_angle_beta 144.492598
_cell_angle_gamma 90.000000
_cell_volume 1212.700103
_symmetry_space_group_name_H-M "P 21/M"
_symmetry_group_IT_number 11
_symmetry_cell_setting 'monoclinic'
loop_
_space_group_symop_operation_xyz
x,y,z
-x,1/2+y,-z
-x,-y,-z
x,1/2-y,z
loop_
_atom_site_type_symbol
_atom_site_label
_atom_site_fract_x
_atom_site_fract_y
_atom_site_fract_z
Si Si1 0.527503 0.590168 0.799564
Si Si2 0.799563 0.409832 0.527502
Si Si3 0.964433 0.085621 0.381608
Si Si4 0.453113 0.588693 0.546887
Si Si5 0.618392 0.085621 0.035566
O O1 0.581086 0.750000 0.869292
O O2 0.340280 0.579943 0.659721
O O3 0.564827 0.559173 0.724296
O O4 0.614361 0.475968 0.931432
O O5 0.869292 0.250000 0.581085
O O6 0.724296 0.440826 0.564826
O O7 0.931432 0.524032 0.614360
O O8 0.006435 0.250000 0.430471
O O9 0.787800 0.064893 0.212200
O O10 0.000000 0.000000 0.500000
O O11 0.500000 0.500000 0.500000
O O12 0.469926 0.750000 0.530076
O O13 0.569529 0.250000 0.993565
O O14 0.500000 0.000000 0.000000
#
# Coordination Sequence:
#
# PCOD8077785 Si02
#       5
#     4   4   4   4   4
#     4   8  17  33  51  74 102 129 165 207 247 296
#     4   8  17  33  51  74 102 129 165 207 247 296
#     4  11  23  35  49  72 101 133 171 211 251 301
#     4   8  16  30  52  80 106 130 164 210 253 298
#     4  11  23  35  49  72 101 133 171 211 251 301
#
# _framework density 16.492122999999999
#
# number of rings (size 3 to 8) (size 9 to 14) (size 15 to 20)
#    1.200    1.600    0.000    2.400    0.000   10.400 
#    0.000    0.000    0.000    1.200    0.000    0.000 
#    0.000    0.000    0.000    0.000    0.000    0.000 
#
# Total GULP energy -247771.032893 kJ/mol
# GULP energy per Si atom -12388.551645 kJ/mol
# Density = 1.645459 g / cm^3
# Si number density = 16.492123 Si / 1000 Ang^3
#
#
#
# Elastic Constant Matrix: (Units=GPa)
#
#
# Indices 1 2 3 4 5 6 
#
# 1 108.1486 84.2157 46.8818 0.0000 -14.3035 0.0000
# 2 84.2157 147.9504 66.8453 0.0000 -9.0215 0.0000
# 3 46.8818 66.8453 64.5454 0.0000 -8.3422 0.0000
# 4 0.0000 0.0000 0.0000 29.8849 0.0000 -3.7467
# 5 -14.3035 -9.0215 -8.3422 0.0000 19.9589 0.0000
# 6 0.0000 0.0000 0.0000 -3.7467 0.0000 37.0991
#
#
#
# Elastic Compliance Matrix: (Units=1/GPa)
#
#
# Indices 1 2 3 4 5 6 
#
# 1 0.018352 -0.008276 -0.003745 0.000000 0.007846 0.000000
# 2 -0.008276 0.016436 -0.011435 0.000000 -0.003281 0.000000
# 3 -0.003745 -0.011435 0.030699 0.000000 0.004979 0.000000
# 4 0.000000 0.000000 0.000000 0.033891 0.000000 0.003423
# 5 0.007846 -0.003281 0.004979 0.000000 0.056323 0.000000
# 6 0.000000 0.000000 0.000000 0.003423 0.000000 0.027300
#
#
# Mechanical properties :
#
#
# Convention : Reuss Voigt Hill
#
# Bulk Modulus (GPa) = 53.83371 79.61444 66.72408
# Shear Modulus (GPa) = 21.17706 25.56868 23.37287
#
# Velocity S-wave (km/s) = 3.58728 3.94173 3.76867
# Velocity P-wave (km/s) = 7.06194 8.31236 7.71253
#
# Compressibility (1/GPa) = 0.01857572
#
# Stress axis : x y z
#
# Youngs Moduli (GPa) = 54.48963 60.84232 32.57466
#
# Poissons Ratio (x) = 0.50352 0.12200
# Poissons Ratio (y) = 0.45095 0.37248
# Poissons Ratio (z) = 0.20407 0.69571
#
# Static dielectric constant tensor:
#      x y z
#    x 2.962600 0.000000 -0.007520 
#    y 0.000000 4.036850 0.000000 
#    z -0.007520 0.000000 2.948100 
# 
# 
# High freq. dielectric constant tensor:
#      x y z
#    x 1.623670 0.000000 -0.006860 
#    y 0.000000 1.643850 0.000000 
#    z -0.006860 0.000000 1.610450 
# 
# From -- ./inp_files/53118.got.cif
#   From: 2010.06.25/outbox.cif.g09.slc.cpg/sg11_27_cif.got.tgz:53118.got - 2010.06.27 23:14:04.
