data_PCOD8077007
_publ_section_title
;
Structure prediction by ZEFSAII (Michael W. Deem and Ramdas Pophale) SiO2 
 PCOD8077007
Probable space group: P 21/M
;
_chemical_formula_sum "Si O2"
_cell_formula_units_Z 28
_cell_length_a 5.222284
_cell_length_b 21.012756
_cell_length_c 11.042072
_cell_angle_alpha 90.000000
_cell_angle_beta 83.237332
_cell_angle_gamma 90.000000
_cell_volume 1203.266678
_symmetry_space_group_name_H-M "P 21/M"
_symmetry_group_IT_number 11
_symmetry_cell_setting 'monoclinic'
loop_
_space_group_symop_operation_xyz
x,y,z
-x,1/2+y,-z
-x,-y,-z
x,1/2-y,z
loop_
_atom_site_type_symbol
_atom_site_label
_atom_site_fract_x
_atom_site_fract_y
_atom_site_fract_z
Si Si1 0.816892 0.878630 0.075602
Si Si2 0.815446 0.750000 0.927896
Si Si3 0.944507 0.910123 0.450193
Si Si4 0.613677 0.633776 0.649999
Si Si5 0.823500 0.947861 0.835934
Si Si6 0.237731 0.527141 0.645682
Si Si7 0.352873 0.750000 0.767895
Si Si8 0.706609 0.087141 0.785756
O O1 0.567463 0.879229 0.176706
O O2 0.083907 0.888851 0.129648
O O3 0.834867 0.810725 0.011821
O O4 0.788096 0.935727 0.979841
O O5 0.546197 0.750000 0.870650
O O6 0.054783 0.750000 0.820718
O O7 0.803084 0.849705 0.524662
O O8 0.019478 0.950636 0.564140
O O9 0.189918 0.891921 0.353504
O O10 0.740144 0.950915 0.377822
O O11 0.743050 0.618006 0.772404
O O12 0.494858 0.566410 0.611984
O O13 0.404719 0.688798 0.680135
O O14 0.124782 0.960970 0.787783
O O15 0.664556 0.010437 0.799252
#
# Coordination Sequence:
#
# PCOD8077007 Si02
#       8
#     4   2   4   4   4   4   2   4
#     4  12  25  44  66  95 130 178 224 272 325 392
#     4  12  26  50  70  91 133 174 232 267 330 402
#     4   9  21  39  60  98 133 173 217 260 333 404
#     4  11  22  38  70  96 134 174 220 278 340 386
#     4  10  22  38  63 102 131 166 220 283 337 387
#     4   9  19  36  65  95 132 174 211 270 336 393
#     4  12  26  44  72 101 129 168 224 287 326 386
#     4  11  26  40  66  98 138 175 215 269 333 397
#
# _framework density 23.269985999999999
#
# number of rings (size 3 to 8) (size 9 to 14) (size 15 to 20)
#    0.000    1.429    1.429    3.857   10.000    0.000 
#    0.000    1.429    0.000    0.000    0.000    0.000 
#    0.000    0.000    0.000    0.000    0.000    0.000 
#
# Total GULP energy -346966.303388 kJ/mol
# GULP energy per Si atom -12391.653692 kJ/mol
# Density = 2.321702 g / cm^3
# Si number density = 23.269986 Si / 1000 Ang^3
#
#
#
# Elastic Constant Matrix: (Units=GPa)
#
#
# Indices 1 2 3 4 5 6 
#
# 1 59.7516 13.8287 15.8878 0.0000 -19.6247 0.0000
# 2 13.8287 67.2631 34.1874 0.0000 -15.4812 0.0000
# 3 15.8878 34.1874 121.7066 0.0000 -38.5165 0.0000
# 4 0.0000 0.0000 0.0000 27.3104 0.0000 -12.0929
# 5 -19.6247 -15.4812 -38.5165 0.0000 39.9341 0.0000
# 6 0.0000 0.0000 0.0000 -12.0929 0.0000 25.5969
#
#
#
# Elastic Compliance Matrix: (Units=1/GPa)
#
#
# Indices 1 2 3 4 5 6 
#
# 1 0.020343 -0.002473 0.001294 0.000000 0.010287 0.000000
# 2 -0.002473 0.017882 -0.004161 0.000000 0.001704 0.000000
# 3 0.001294 -0.004161 0.012820 0.000000 0.011388 0.000000
# 4 0.000000 0.000000 0.000000 0.046302 0.000000 0.021875
# 5 0.010287 0.001704 0.011388 0.000000 0.041741 0.000000
# 6 0.000000 0.000000 0.000000 0.021875 0.000000 0.049402
#
#
# Mechanical properties :
#
#
# Convention : Reuss Voigt Hill
#
# Bulk Modulus (GPa) = 24.77277 41.83657 33.30467
# Shear Modulus (GPa) = 23.51563 30.88944 27.20254
#
# Velocity S-wave (km/s) = 3.18237 3.64735 3.42277
# Velocity P-wave (km/s) = 4.91653 5.97958 5.47392
#
# Compressibility (1/GPa) = 0.04036690
#
# Stress axis : x y z
#
# Youngs Moduli (GPa) = 49.15788 55.92064 78.00060
#
# Poissons Ratio (x) = 0.13827 -0.10097
# Poissons Ratio (y) = 0.12155 0.32457
# Poissons Ratio (z) = -0.06363 0.23270
#
# Static dielectric constant tensor:
#      x y z
#    x 3.972140 0.000000 -0.091340 
#    y 0.000000 3.976690 0.000000 
#    z -0.091340 0.000000 4.468980 
# 
# 
# High freq. dielectric constant tensor:
#      x y z
#    x 1.919840 0.000000 -0.011760 
#    y 0.000000 1.883690 0.000000 
#    z -0.011760 0.000000 1.935560 
# 
# From -- ./inp_files/29994.got.cif
#   From: 2010.06.25/outbox.cif.g09.slc.cpg/sg11_15_cif.got.tgz:29994.got - 2010.06.27 23:14:04.
