data_PCOD8077228
_publ_section_title
;
Structure prediction by ZEFSAII (Michael W. Deem and Ramdas Pophale) SiO2 
 PCOD8077228
Probable space group: P 21/M
;
_chemical_formula_sum "Si O2"
_cell_formula_units_Z 28
_cell_length_a 15.780159
_cell_length_b 8.688289
_cell_length_c 11.888358
_cell_angle_alpha 90.000000
_cell_angle_beta 123.275904
_cell_angle_gamma 90.000000
_cell_volume 1362.679178
_symmetry_space_group_name_H-M "P 21/M"
_symmetry_group_IT_number 11
_symmetry_cell_setting 'monoclinic'
loop_
_space_group_symop_operation_xyz
x,y,z
-x,1/2+y,-z
-x,-y,-z
x,1/2-y,z
loop_
_atom_site_type_symbol
_atom_site_label
_atom_site_fract_x
_atom_site_fract_y
_atom_site_fract_z
Si Si1 0.388629 0.067925 0.414310
Si Si2 0.545069 0.067726 0.145606
Si Si3 0.646704 0.930672 0.858399
Si Si4 0.172448 0.433222 0.860828
Si Si5 0.764120 0.567858 0.335784
Si Si6 0.790583 0.431842 0.585391
Si Si7 0.983096 0.067909 0.865073
O O1 0.395312 0.250000 0.432246
O O2 0.338054 0.017593 0.259080
O O3 0.500000 0.000000 0.500000
O O4 0.318584 0.999570 0.460999
O O5 0.561431 0.250000 0.147037
O O6 0.465916 0.022445 0.185556
O O7 0.648564 0.985411 0.251204
O O8 0.500000 0.000000 0.000000
O O9 0.659151 0.750000 0.879077
O O10 0.733316 0.005767 0.000292
O O11 0.176988 0.250000 0.866421
O O12 0.179882 0.490035 0.737105
O O13 0.069380 0.493591 0.842690
O O14 0.768120 0.750000 0.349284
O O15 0.820681 0.493280 0.483757
O O16 0.782878 0.250000 0.574851
O O17 0.875601 0.486538 0.736267
O O18 0.988749 0.250000 0.879213
O O19 0.000000 0.000000 0.000000
#
# Coordination Sequence:
#
# PCOD8077228 Si02
#       7
#     4   4   4   4   4   4   4
#     4  11  22  38  62  88 118 160 203 247 300 359
#     4  11  20  34  56  86 123 161 197 242 298 359
#     4   9  18  33  56  83 113 150 194 243 294 350
#     4   9  18  36  60  86 114 150 198 248 301 357
#     4  11  22  38  61  87 117 159 207 251 302 366
#     4  11  24  41  59  87 126 161 197 249 309 365
#     4  10  22  41  66  90 118 156 199 252 306 360
#
# _framework density 20.547756
#
# number of rings (size 3 to 8) (size 9 to 14) (size 15 to 20)
#    0.000    1.714    1.429    3.429    0.000    4.000 
#    0.000    3.571    0.000    0.000    0.000    0.000 
#    0.000    0.000    0.000    0.000    0.000    0.000 
#
# Total GULP energy -347217.466074 kJ/mol
# GULP energy per Si atom -12400.623788 kJ/mol
# Density = 2.050099 g / cm^3
# Si number density = 20.547756 Si / 1000 Ang^3
#
#
#
# Elastic Constant Matrix: (Units=GPa)
#
#
# Indices 1 2 3 4 5 6 
#
# 1 145.0745 30.9198 69.7474 0.0000 -9.5657 0.0000
# 2 30.9198 59.0311 45.1793 0.0000 -3.0298 0.0000
# 3 69.7474 45.1793 144.2902 0.0000 -7.8715 0.0000
# 4 0.0000 0.0000 0.0000 32.7035 0.0000 -2.1973
# 5 -9.5657 -3.0298 -7.8715 0.0000 37.2852 0.0000
# 6 0.0000 0.0000 0.0000 -2.1973 0.0000 23.5191
#
#
#
# Elastic Compliance Matrix: (Units=1/GPa)
#
#
# Indices 1 2 3 4 5 6 
#
# 1 0.009203 -0.001844 -0.003794 0.000000 0.001410 0.000000
# 2 -0.001844 0.022653 -0.006198 0.000000 0.000059 0.000000
# 3 -0.003794 -0.006198 0.010749 0.000000 0.000792 0.000000
# 4 0.000000 0.000000 0.000000 0.030771 0.000000 0.002875
# 5 0.001410 0.000059 0.000792 0.000000 0.027354 0.000000
# 6 0.000000 0.000000 0.000000 0.002875 0.000000 0.042787
#
#
# Mechanical properties :
#
#
# Convention : Reuss Voigt Hill
#
# Bulk Modulus (GPa) = 52.82278 71.12099 61.97189
# Shear Modulus (GPa) = 28.81822 32.20483 30.51153
#
# Velocity S-wave (km/s) = 3.74906 3.96323 3.85763
# Velocity P-wave (km/s) = 6.67111 7.45859 7.07582
#
# Compressibility (1/GPa) = 0.01893123
#
# Stress axis : x y z
#
# Youngs Moduli (GPa) = 108.65728 44.14409 93.03555
#
# Poissons Ratio (x) = 0.08141 0.35301
# Poissons Ratio (y) = 0.20039 0.57666
# Poissons Ratio (z) = 0.41228 0.27362
#
# Static dielectric constant tensor:
#      x y z
#    x 3.782360 0.000000 -0.257680 
#    y 0.000000 3.463280 0.000000 
#    z -0.257680 0.000000 3.663480 
# 
# 
# High freq. dielectric constant tensor:
#      x y z
#    x 1.811700 0.000000 -0.008250 
#    y 0.000000 1.778570 0.000000 
#    z -0.008250 0.000000 1.818070 
# 
# From -- ./inp_files/37476.got.cif
#   From: 2010.06.25/outbox.cif.g09.slc.cpg/sg11_19_cif.got.tgz:37476.got - 2010.06.27 23:14:04.
