data_PCOD8077481
_publ_section_title
;
Structure prediction by ZEFSAII (Michael W. Deem and Ramdas Pophale) SiO2 
 PCOD8077481
Probable space group: P 21/M
;
_chemical_formula_sum "Si O2"
_cell_formula_units_Z 20
_cell_length_a 9.016514
_cell_length_b 9.835990
_cell_length_c 13.049212
_cell_angle_alpha 90.000000
_cell_angle_beta 133.706341
_cell_angle_gamma 90.000000
_cell_volume 836.591895
_symmetry_space_group_name_H-M "P 21/M"
_symmetry_group_IT_number 11
_symmetry_cell_setting 'monoclinic'
loop_
_space_group_symop_operation_xyz
x,y,z
-x,1/2+y,-z
-x,-y,-z
x,1/2-y,z
loop_
_atom_site_type_symbol
_atom_site_label
_atom_site_fract_x
_atom_site_fract_y
_atom_site_fract_z
Si Si1 0.213644 0.250000 0.089138
Si Si2 0.213341 0.044107 0.691600
Si Si3 0.669858 0.544107 0.691600
Si Si4 0.643827 0.250000 0.189566
Si Si5 0.235305 0.750000 0.189566
Si Si6 0.777166 1.000000 0.527166
Si Si7 0.535369 0.250000 0.910862
O O1 0.212476 0.116915 0.160321
O O2 0.404315 0.250000 0.103555
O O3 0.011438 0.250000 0.923725
O O4 0.241979 0.881503 0.711148
O O5 0.989858 0.085801 0.629553
O O6 0.222120 0.091334 0.576385
O O7 0.391835 0.116915 0.839679
O O8 0.680317 0.381503 0.711148
O O9 0.430651 0.591334 0.576386
O O10 0.769248 0.585801 0.629553
O O11 0.663988 0.250000 0.076275
O O12 0.302794 0.750000 0.103554
#
# Coordination Sequence:
#
# PCOD8077481 Si02
#       7
#     2   4   4   2   2   4   2
#     4  12  26  45  67  96 132 173 220 268 318 387
#     4  11  25  44  69  98 132 168 220 265 329 381
#     4  11  25  44  69  98 132 168 220 265 329 381
#     4  12  26  45  67  96 132 173 220 268 318 387
#     4  12  26  45  67  96 132 173 220 268 318 387
#     4  10  24  44  70  98 132 172 210 274 324 390
#     4  12  26  45  67  96 132 173 220 268 318 387
#
# _framework density 23.906518999999999
#
# number of rings (size 3 to 8) (size 9 to 14) (size 15 to 20)
#    0.000    0.800    4.000    1.200    5.600    9.600 
#    0.000    0.000    0.000    0.000    0.000    0.000 
#    0.000    0.000    0.000    0.000    0.000    0.000 
#
# Total GULP energy -247941.776490 kJ/mol
# GULP energy per Si atom -12397.088824 kJ/mol
# Density = 2.385211 g / cm^3
# Si number density = 23.906519 Si / 1000 Ang^3
#
#
#
# Elastic Constant Matrix: (Units=GPa)
#
#
# Indices 1 2 3 4 5 6 
#
# 1 169.1679 9.8585 42.9812 0.0000 -1.9316 0.0000
# 2 9.8585 131.7028 22.0930 0.0000 0.8500 0.0000
# 3 42.9812 22.0930 89.7292 0.0000 -3.5868 0.0000
# 4 0.0000 0.0000 0.0000 -0.4862 0.0000 -1.0946
# 5 -1.9316 0.8500 -3.5868 0.0000 49.0750 0.0000
# 6 0.0000 0.0000 0.0000 -1.0946 0.0000 15.2700
#
#
#
# Elastic Compliance Matrix: (Units=1/GPa)
#
#
# Indices 1 2 3 4 5 6 
#
# 1 0.006731 0.000038 -0.003232 0.000000 0.000028 0.000000
# 2 0.000038 0.007924 -0.001981 0.000000 -0.000280 0.000000
# 3 -0.003232 -0.001981 0.013216 0.000000 0.000873 0.000000
# 4 0.000000 0.000000 0.000000 -1.770935 0.000000 -0.126945
# 5 0.000028 -0.000280 0.000873 0.000000 0.020447 0.000000
# 6 0.000000 0.000000 0.000000 -0.126945 0.000000 0.056388
#
#
# Mechanical properties :
#
#
# Convention : Reuss Voigt Hill
#
# Bulk Modulus (GPa) = 57.07493 60.05169 58.56331
# Shear Modulus (GPa) = -3.03023 33.81625 15.39301
#
# Velocity S-wave (km/s) = -1.12707 3.76509 2.54024
# Velocity P-wave (km/s) = 4.71512 6.63891 5.75793
#
# Compressibility (1/GPa) = 0.01752083
#
# Stress axis : x y z
#
# Youngs Moduli (GPa) = 148.57446 126.19819 75.66864
#
# Poissons Ratio (x) = -0.00482 0.24459
# Poissons Ratio (y) = -0.00568 0.14987
# Poissons Ratio (z) = 0.48024 0.24994
#
# Static dielectric constant tensor:
#      x y z
#    x 4.630210 0.000000 -0.034420 
#    y 0.000000 3.872100 0.000000 
#    z -0.034420 0.000000 4.134770 
# 
# 
# High freq. dielectric constant tensor:
#      x y z
#    x 1.970090 0.000000 -0.001010 
#    y 0.000000 1.912790 0.000000 
#    z -0.001010 0.000000 1.955590 
# 
# From -- ./inp_files/31250.got.cif
#   From: 2010.06.25/outbox.cif.g09.slc.cpg/sg11_16_cif.got.tgz:31250.got - 2010.06.27 23:14:04.
