data_PCOD8077042
_publ_section_title
;
Structure prediction by ZEFSAII (Michael W. Deem and Ramdas Pophale) SiO2 
 PCOD8077042
Probable space group: P 21/M
;
_chemical_formula_sum "Si O2"
_cell_formula_units_Z 28
_cell_length_a 14.461367
_cell_length_b 8.828875
_cell_length_c 11.713471
_cell_angle_alpha 90.000000
_cell_angle_beta 110.309529
_cell_angle_gamma 90.000000
_cell_volume 1402.571499
_symmetry_space_group_name_H-M "P 21/M"
_symmetry_group_IT_number 11
_symmetry_cell_setting 'monoclinic'
loop_
_space_group_symop_operation_xyz
x,y,z
-x,1/2+y,-z
-x,-y,-z
x,1/2-y,z
loop_
_atom_site_type_symbol
_atom_site_label
_atom_site_fract_x
_atom_site_fract_y
_atom_site_fract_z
Si Si1 0.476673 0.928718 0.111369
Si Si2 0.953896 0.571768 0.652221
Si Si3 0.305767 0.426412 0.173416
Si Si4 0.355960 0.924902 0.668209
Si Si5 0.916124 0.929087 0.887427
Si Si6 0.606856 0.571493 0.543716
Si Si7 0.860530 0.076495 0.403769
O O1 0.477238 0.750000 0.098741
O O2 0.369573 0.980034 0.109668
O O3 0.559707 0.978518 0.236056
O O4 0.500000 0.000000 0.000000
O O5 0.943280 0.750000 0.654351
O O6 0.064551 0.520487 0.662666
O O7 0.929056 0.503350 0.765432
O O8 0.875297 0.515678 0.526293
O O9 0.322696 0.250000 0.155415
O O10 0.191530 0.473268 0.110126
O O11 0.337530 0.466012 0.315545
O O12 0.390315 0.750000 0.678187
O O13 0.251592 0.942860 0.689396
O O14 0.335297 0.989063 0.533269
O O15 0.929372 0.750000 0.892184
O O16 0.000000 0.000000 0.000000
O O17 0.500000 0.500000 0.500000
O O18 0.600852 0.750000 0.518470
O O19 0.883191 0.250000 0.443646
#
# Coordination Sequence:
#
# PCOD8077042 Si02
#       7
#     4   4   4   4   4   4   4
#     4  12  26  43  63  85 115 155 199 244 298 360
#     4   9  18  36  58  83 116 152 193 241 296 348
#     4  10  22  41  62  87 122 158 198 251 307 358
#     4  11  22  37  57  87 125 159 197 243 292 355
#     4  10  22  39  60  86 117 157 202 250 297 348
#     4  11  21  35  60  90 121 156 197 247 300 354
#     4   9  19  34  57  87 118 152 190 238 293 348
#
# _framework density 19.963332999999999
#
# number of rings (size 3 to 8) (size 9 to 14) (size 15 to 20)
#    0.000    1.714    1.429    3.000    0.000    5.143 
#    0.000    1.429    0.000    0.000    0.000    0.000 
#    0.000    0.000    0.000    0.000    0.000    0.000 
#
# Total GULP energy -347223.492986 kJ/mol
# GULP energy per Si atom -12400.839035 kJ/mol
# Density = 1.991790 g / cm^3
# Si number density = 19.963333 Si / 1000 Ang^3
#
#
#
# Elastic Constant Matrix: (Units=GPa)
#
#
# Indices 1 2 3 4 5 6 
#
# 1 152.8007 57.0750 68.2424 0.0000 3.3565 0.0000
# 2 57.0750 85.1490 45.8162 0.0000 -3.7997 0.0000
# 3 68.2424 45.8162 97.6337 0.0000 -4.7742 0.0000
# 4 0.0000 0.0000 0.0000 33.8300 0.0000 -1.1258
# 5 3.3565 -3.7997 -4.7742 0.0000 38.3184 0.0000
# 6 0.0000 0.0000 0.0000 -1.1258 0.0000 29.1129
#
#
#
# Elastic Compliance Matrix: (Units=1/GPa)
#
#
# Indices 1 2 3 4 5 6 
#
# 1 0.010657 -0.004244 -0.005557 0.000000 -0.002047 0.000000
# 2 -0.004244 0.017417 -0.005135 0.000000 0.001459 0.000000
# 3 -0.005557 -0.005135 0.016637 0.000000 0.002050 0.000000
# 4 0.000000 0.000000 0.000000 0.029598 0.000000 0.001145
# 5 -0.002047 0.001459 0.002050 0.000000 0.026677 0.000000
# 6 0.000000 0.000000 0.000000 0.001145 0.000000 0.034393
#
#
# Mechanical properties :
#
#
# Convention : Reuss Voigt Hill
#
# Bulk Modulus (GPa) = 67.39808 75.31673 71.35740
# Shear Modulus (GPa) = 29.37770 31.21558 30.29664
#
# Velocity S-wave (km/s) = 3.84028 3.95859 3.89988
# Velocity P-wave (km/s) = 7.31423 7.66181 7.49003
#
# Compressibility (1/GPa) = 0.01483722
#
# Stress axis : x y z
#
# Youngs Moduli (GPa) = 93.83871 57.41381 60.10862
#
# Poissons Ratio (x) = 0.24369 0.33402
# Poissons Ratio (y) = 0.39829 0.30868
# Poissons Ratio (z) = 0.52145 0.29484
#
# Static dielectric constant tensor:
#      x y z
#    x 3.938470 0.000000 -0.110450 
#    y 0.000000 3.646160 0.000000 
#    z -0.110450 0.000000 3.344590 
# 
# 
# High freq. dielectric constant tensor:
#      x y z
#    x 1.800070 0.000000 0.000120 
#    y 0.000000 1.774450 0.000000 
#    z 0.000120 0.000000 1.766760 
# 
# From -- ./inp_files/38423.got.cif
#   From: 2010.06.25/outbox.cif.g09.slc.cpg/sg11_20_cif.got.tgz:38423.got - 2010.06.27 23:14:04.
