data_PCOD8077537
_publ_section_title
;
Structure prediction by ZEFSAII (Michael W. Deem and Ramdas Pophale) SiO2 
 PCOD8077537
Probable space group: P 21/M
;
_chemical_formula_sum "Si O2"
_cell_formula_units_Z 24
_cell_length_a 10.285922
_cell_length_b 8.560117
_cell_length_c 23.044137
_cell_angle_alpha 90.000000
_cell_angle_beta 139.245922
_cell_angle_gamma 90.000000
_cell_volume 1324.562989
_symmetry_space_group_name_H-M "P 21/M"
_symmetry_group_IT_number 11
_symmetry_cell_setting 'monoclinic'
loop_
_space_group_symop_operation_xyz
x,y,z
-x,1/2+y,-z
-x,-y,-z
x,1/2-y,z
loop_
_atom_site_type_symbol
_atom_site_label
_atom_site_fract_x
_atom_site_fract_y
_atom_site_fract_z
Si Si1 0.338178 0.433879 0.274288
Si Si2 0.959819 0.067417 0.904279
Si Si3 0.016886 0.433968 0.441646
Si Si4 0.450618 0.434386 0.545715
Si Si5 0.620941 0.568472 0.271597
Si Si6 0.317260 0.428091 0.094389
O O1 0.310330 0.250000 0.264100
O O2 0.124616 0.516137 0.187062
O O3 0.396942 0.488559 0.357918
O O4 0.507888 0.482339 0.285751
O O5 0.912428 0.250000 0.900122
O O6 0.842663 0.957107 0.909218
O O7 0.198692 0.036739 0.993615
O O8 0.990521 0.250000 0.434871
O O9 0.845684 0.507234 0.343268
O O10 0.000000 0.500000 0.500000
O O11 0.226489 0.484280 0.485510
O O12 0.500000 0.500000 0.500000
O O13 0.478056 0.250000 0.556872
O O14 0.619514 0.750000 0.285343
O O15 0.511221 0.534806 0.172582
O O16 0.389874 0.250000 0.120938
#
# Coordination Sequence:
#
# PCOD8077537 Si02
#       6
#     4   4   4   4   4   4
#     4  11  20  31  50  73 102 138 176 217 262 313
#     4   9  16  26  42  65  97 133 170 211 258 311
#     4  11  22  36  56  79 105 139 178 218 263 316
#     4  11  24  40  57  78 106 139 178 221 266 315
#     4  11  20  30  48  74 105 138 174 217 262 311
#     4   9  16  26  41  65  98 134 169 210 259 310
#
# _framework density 18.119183
#
# number of rings (size 3 to 8) (size 9 to 14) (size 15 to 20)
#    0.000    1.667    1.667    7.000    0.000    4.000 
#    0.000    0.000    0.000    0.000    0.000    1.167 
#    0.000    0.000    0.000    0.000    0.000    0.000 
#
# Total GULP energy -297481.259677 kJ/mol
# GULP energy per Si atom -12395.052487 kJ/mol
# Density = 1.807794 g / cm^3
# Si number density = 18.119183 Si / 1000 Ang^3
#
#
#
# Elastic Constant Matrix: (Units=GPa)
#
#
# Indices 1 2 3 4 5 6 
#
# 1 60.1248 28.8261 47.8446 0.0000 -0.2967 0.0000
# 2 28.8261 83.0583 51.4285 0.0000 1.8132 0.0000
# 3 47.8446 51.4285 187.5349 0.0000 10.0813 0.0000
# 4 0.0000 0.0000 0.0000 36.2619 0.0000 0.4738
# 5 -0.2967 1.8132 10.0813 0.0000 17.5753 0.0000
# 6 0.0000 0.0000 0.0000 0.4738 0.0000 18.2820
#
#
#
# Elastic Compliance Matrix: (Units=1/GPa)
#
#
# Indices 1 2 3 4 5 6 
#
# 1 0.022764 -0.005136 -0.004590 0.000000 0.003547 0.000000
# 2 -0.005136 0.015672 -0.002988 0.000000 0.000010 0.000000
# 3 -0.004590 -0.002988 0.007543 0.000000 -0.004096 0.000000
# 4 0.000000 0.000000 0.000000 0.027586 0.000000 -0.000715
# 5 0.003547 0.000010 -0.004096 0.000000 0.059306 0.000000
# 6 0.000000 0.000000 0.000000 -0.000715 0.000000 0.054717
#
#
# Mechanical properties :
#
#
# Convention : Reuss Voigt Hill
#
# Bulk Modulus (GPa) = 48.65826 65.21296 56.93561
# Shear Modulus (GPa) = 22.74088 27.93175 25.33631
#
# Velocity S-wave (km/s) = 3.54654 3.93053 3.74346
# Velocity P-wave (km/s) = 6.60935 7.52781 7.08348
#
# Compressibility (1/GPa) = 0.02055149
#
# Stress axis : x y z
#
# Youngs Moduli (GPa) = 43.92814 63.80727 132.57368
#
# Poissons Ratio (x) = 0.32771 0.60851
# Poissons Ratio (y) = 0.22561 0.39614
# Poissons Ratio (z) = 0.20163 0.19066
#
# Static dielectric constant tensor:
#      x y z
#    x 3.615170 0.000000 1.907270 
#    y 0.000000 3.461420 0.000000 
#    z 1.907270 0.000000 7.655610 
# 
# 
# High freq. dielectric constant tensor:
#      x y z
#    x 1.619650 0.000000 0.016230 
#    y 0.000000 1.721740 0.000000 
#    z 0.016230 0.000000 1.735770 
# 
# From -- ./inp_files/25733.got.cif
#   From: 2010.06.25/outbox.cif.g09.slc.cpg/sg11_13_cif.got.tgz:25733.got - 2010.06.27 23:14:04.
