data_PCOD8077233
_publ_section_title
;
Structure prediction by ZEFSAII (Michael W. Deem and Ramdas Pophale) SiO2 
 PCOD8077233
Probable space group: P 21/M
;
_chemical_formula_sum "Si O2"
_cell_formula_units_Z 28
_cell_length_a 11.834445
_cell_length_b 8.621646
_cell_length_c 15.473293
_cell_angle_alpha 90.000000
_cell_angle_beta 58.689033
_cell_angle_gamma 90.000000
_cell_volume 1348.843056
_symmetry_space_group_name_H-M "P 21/M"
_symmetry_group_IT_number 11
_symmetry_cell_setting 'monoclinic'
loop_
_space_group_symop_operation_xyz
x,y,z
-x,1/2+y,-z
-x,-y,-z
x,1/2-y,z
loop_
_atom_site_type_symbol
_atom_site_label
_atom_site_fract_x
_atom_site_fract_y
_atom_site_fract_z
Si Si1 0.422160 0.933604 0.611529
Si Si2 0.400881 0.428680 0.162263
Si Si3 0.897832 0.932869 0.471235
Si Si4 0.877763 0.067688 0.297012
Si Si5 0.630855 0.431156 0.645969
Si Si6 0.682525 0.430064 0.974031
Si Si7 0.058504 0.433233 0.063422
O O1 0.432152 0.750000 0.609056
O O2 0.270435 0.988649 0.666940
O O3 0.500000 0.000000 0.500000
O O4 0.490259 0.000202 0.670854
O O5 0.380012 0.250000 0.195871
O O6 0.352895 0.535517 0.259456
O O7 0.310613 0.469581 0.116113
O O8 0.551808 0.468407 0.080320
O O9 0.903672 0.750000 0.476581
O O10 0.935738 0.983866 0.359007
O O11 0.749685 0.990893 0.546547
O O12 0.000000 0.000000 0.500000
O O13 0.880733 0.250000 0.313631
O O14 0.968330 0.019887 0.180488
O O15 0.636321 0.250000 0.624761
O O16 0.688586 0.250000 0.947097
O O17 0.801942 0.481868 0.985952
O O18 0.076918 0.250000 0.049570
O O19 0.000000 0.500000 0.000000
#
# Coordination Sequence:
#
# PCOD8077233 Si02
#       7
#     4   4   4   4   4   4   4
#     4  11  22  40  65  93 126 163 209 259 314 375
#     4  10  22  41  66  94 126 166 212 264 322 379
#     4  12  26  44  68  96 132 172 217 266 322 389
#     4  10  24  45  67  92 129 172 215 267 324 383
#     4  12  25  41  64  96 131 167 213 262 317 382
#     4  10  22  42  66  93 127 165 212 266 323 383
#     4  11  25  44  66  94 129 171 218 267 324 385
#
# _framework density 20.758528999999999
#
# number of rings (size 3 to 8) (size 9 to 14) (size 15 to 20)
#    0.000    1.143    1.429    4.286    4.000    3.429 
#    0.000    0.000    0.000    0.000    0.000    0.000 
#    0.000    0.000    0.000    0.000    0.000    0.000 
#
# Total GULP energy -347385.371403 kJ/mol
# GULP energy per Si atom -12406.620407 kJ/mol
# Density = 2.071128 g / cm^3
# Si number density = 20.758529 Si / 1000 Ang^3
#
#
#
# Elastic Constant Matrix: (Units=GPa)
#
#
# Indices 1 2 3 4 5 6 
#
# 1 126.6923 33.2641 32.7129 0.0000 12.3447 0.0000
# 2 33.2641 96.6126 40.8377 0.0000 2.6023 0.0000
# 3 32.7129 40.8377 99.7611 0.0000 16.6113 0.0000
# 4 0.0000 0.0000 0.0000 35.7205 0.0000 6.5482
# 5 12.3447 2.6023 16.6113 0.0000 28.7988 0.0000
# 6 0.0000 0.0000 0.0000 6.5482 0.0000 39.1676
#
#
#
# Elastic Compliance Matrix: (Units=1/GPa)
#
#
# Indices 1 2 3 4 5 6 
#
# 1 0.009210 -0.002440 -0.001550 0.000000 -0.002834 0.000000
# 2 -0.002440 0.013270 -0.005096 0.000000 0.002786 0.000000
# 3 -0.001550 -0.005096 0.013752 0.000000 -0.006807 0.000000
# 4 0.000000 0.000000 0.000000 0.028880 0.000000 -0.004828
# 5 -0.002834 0.002786 -0.006807 0.000000 0.039613 0.000000
# 6 0.000000 0.000000 0.000000 -0.004828 0.000000 0.026339
#
#
# Mechanical properties :
#
#
# Convention : Reuss Voigt Hill
#
# Bulk Modulus (GPa) = 55.36829 59.63282 57.50055
# Shear Modulus (GPa) = 32.20546 35.15414 33.67980
#
# Velocity S-wave (km/s) = 3.94310 4.11965 4.03234
# Velocity P-wave (km/s) = 6.88920 7.17063 7.03133
#
# Compressibility (1/GPa) = 0.01806088
#
# Stress axis : x y z
#
# Youngs Moduli (GPa) = 108.57878 75.36047 72.71917
#
# Poissons Ratio (x) = 0.18386 0.11268
# Poissons Ratio (y) = 0.26490 0.37057
# Poissons Ratio (z) = 0.16824 0.38403
#
# Static dielectric constant tensor:
#      x y z
#    x 4.023370 0.000000 0.004080 
#    y 0.000000 3.808700 0.000000 
#    z 0.004080 0.000000 3.805060 
# 
# 
# High freq. dielectric constant tensor:
#      x y z
#    x 1.826200 0.000000 0.005830 
#    y 0.000000 1.820850 0.000000 
#    z 0.005830 0.000000 1.816320 
# 
# From -- ./inp_files/49171.got.cif
#   From: 2010.06.25/outbox.cif.g09.slc.cpg/sg11_25_cif.got.tgz:49171.got - 2010.06.27 23:14:04.
