data_PCOD8077691
_publ_section_title
;
Structure prediction by ZEFSAII (Michael W. Deem and Ramdas Pophale) SiO2 
 PCOD8077691
Probable space group: P 21/M
;
_chemical_formula_sum "Si O2"
_cell_formula_units_Z 24
_cell_length_a 24.410949
_cell_length_b 8.879338
_cell_length_c 12.029461
_cell_angle_alpha 90.000000
_cell_angle_beta 151.272513
_cell_angle_gamma 90.000000
_cell_volume 1253.242646
_symmetry_space_group_name_H-M "P 21/M"
_symmetry_group_IT_number 11
_symmetry_cell_setting 'monoclinic'
loop_
_space_group_symop_operation_xyz
x,y,z
-x,1/2+y,-z
-x,-y,-z
x,1/2-y,z
loop_
_atom_site_type_symbol
_atom_site_label
_atom_site_fract_x
_atom_site_fract_y
_atom_site_fract_z
Si Si1 0.833213 0.928287 0.482704
Si Si2 0.683732 0.071715 0.034251
Si Si3 0.910884 0.071060 0.035714
Si Si4 0.450454 0.575707 0.645311
Si Si5 0.286051 0.928944 0.161216
Si Si6 0.244400 0.924291 0.439247
O O1 0.830673 0.750000 0.466929
O O2 0.961553 0.991803 0.726037
O O3 0.757731 0.977541 0.453303
O O4 0.784793 0.999980 0.284792
O O5 0.694438 0.250000 0.058238
O O6 0.697066 0.008201 0.932581
O O7 0.562161 0.022477 0.866590
O O8 0.909830 0.250000 0.035494
O O9 0.833435 0.010651 0.000305
O O10 0.855481 0.017468 0.820816
O O11 0.485435 0.750000 0.697095
O O12 0.390147 0.517492 0.424816
O O13 0.366567 0.551241 0.599699
O O14 0.284164 0.750000 0.158480
O O15 0.226220 0.750000 0.437868
#
# Coordination Sequence:
#
# PCOD8077691 Si02
#       6
#     4   4   4   4   4   4
#     4  11  22  34  51  76 107 140 171 207 251 301
#     4  11  22  34  51  76 107 140 171 207 251 301
#     4   8  16  33  56  79 102 131 168 210 257 305
#     4   9  18  35  58  79 100 130 169 213 259 305
#     4   8  16  33  56  79 102 131 168 210 257 305
#     4   9  18  35  58  79 100 130 169 213 259 305
#
# _framework density 19.150321000000002
#
# number of rings (size 3 to 8) (size 9 to 14) (size 15 to 20)
#    0.000    2.667    0.000    4.000    0.000    2.000 
#    0.000    1.667    0.000    7.000    0.000    0.000 
#    0.000    0.000    0.000    0.000    0.000    0.000 
#
# Total GULP energy -297595.288287 kJ/mol
# GULP energy per Si atom -12399.803679 kJ/mol
# Density = 1.910673 g / cm^3
# Si number density = 19.150321 Si / 1000 Ang^3
#
#
#
# Elastic Constant Matrix: (Units=GPa)
#
#
# Indices 1 2 3 4 5 6 
#
# 1 72.0579 19.2909 25.5824 0.0000 1.4597 0.0000
# 2 19.2909 45.3029 16.7341 0.0000 1.3107 0.0000
# 3 25.5824 16.7341 68.0449 0.0000 0.5479 0.0000
# 4 0.0000 0.0000 0.0000 23.0789 0.0000 -0.0957
# 5 1.4597 1.3107 0.5479 0.0000 22.2588 0.0000
# 6 0.0000 0.0000 0.0000 -0.0957 0.0000 22.8927
#
#
#
# Elastic Compliance Matrix: (Units=1/GPa)
#
#
# Indices 1 2 3 4 5 6 
#
# 1 0.017152 -0.005394 -0.005117 0.000000 -0.000681 0.000000
# 2 -0.005394 0.026012 -0.004361 0.000000 -0.001071 0.000000
# 3 -0.005117 -0.004361 0.017691 0.000000 0.000157 0.000000
# 4 0.000000 0.000000 0.000000 0.043330 0.000000 0.000181
# 5 -0.000681 -0.001071 0.000157 0.000000 0.045030 0.000000
# 6 0.000000 0.000000 0.000000 0.000181 0.000000 0.043683
#
#
# Mechanical properties :
#
#
# Convention : Reuss Voigt Hill
#
# Bulk Modulus (GPa) = 32.14090 34.29118 33.21604
# Shear Modulus (GPa) = 21.45818 21.89931 21.67875
#
# Velocity S-wave (km/s) = 3.35104 3.38531 3.36822
# Velocity P-wave (km/s) = 5.63849 5.76417 5.70167
#
# Compressibility (1/GPa) = 0.03111301
#
# Stress axis : x y z
#
# Youngs Moduli (GPa) = 58.30193 38.44346 56.52618
#
# Poissons Ratio (x) = 0.20737 0.28922
# Poissons Ratio (y) = 0.31448 0.24648
# Poissons Ratio (z) = 0.29830 0.16763
#
# Static dielectric constant tensor:
#      x y z
#    x 3.679910 0.000000 0.039400 
#    y 0.000000 3.101110 0.000000 
#    z 0.039400 0.000000 3.602350 
# 
# 
# High freq. dielectric constant tensor:
#      x y z
#    x 1.752240 0.000000 0.002640 
#    y 0.000000 1.711690 0.000000 
#    z 0.002640 0.000000 1.747030 
# 
# From -- ./inp_files/33827.got.cif
#   From: 2010.06.25/outbox.cif.g09.slc.cpg/sg11_17_cif.got.tgz:33827.got - 2010.06.27 23:14:04.
