data_PCOD8077827
_publ_section_title
;
Structure prediction by ZEFSAII (Michael W. Deem and Ramdas Pophale) SiO2 
 PCOD8077827
Probable space group: P 21/M
;
_chemical_formula_sum "Si O2"
_cell_formula_units_Z 28
_cell_length_a 9.684884
_cell_length_b 8.890688
_cell_length_c 26.707220
_cell_angle_alpha 90.000000
_cell_angle_beta 142.008300
_cell_angle_gamma 90.000000
_cell_volume 1415.532741
_symmetry_space_group_name_H-M "P 21/M"
_symmetry_group_IT_number 11
_symmetry_cell_setting 'monoclinic'
loop_
_space_group_symop_operation_xyz
x,y,z
-x,1/2+y,-z
-x,-y,-z
x,1/2-y,z
loop_
_atom_site_type_symbol
_atom_site_label
_atom_site_fract_x
_atom_site_fract_y
_atom_site_fract_z
Si Si1 0.742477 0.428389 0.565109
Si Si2 0.828881 0.575112 0.488480
Si Si3 0.485305 0.924109 0.864286
Si Si4 0.030685 0.425564 0.276844
Si Si5 0.333408 0.423514 0.191015
Si Si6 0.363576 0.576299 0.301205
Si Si7 0.112239 0.922658 0.985352
O O1 0.500000 0.500000 0.500000
O O2 0.719189 0.250000 0.555684
O O3 0.864984 0.491561 0.551216
O O4 0.889481 0.473289 0.654495
O O5 0.886754 0.750000 0.511324
O O6 0.576336 0.551190 0.397559
O O7 0.000000 0.500000 0.500000
O O8 0.544078 0.750000 0.883638
O O9 0.543643 0.980765 0.824564
O O10 0.230809 0.958656 0.806010
O O11 0.641464 0.004066 0.951101
O O12 0.075685 0.250000 0.300730
O O13 0.160026 0.475652 0.263825
O O14 0.395912 0.250000 0.218891
O O15 0.424595 0.523006 0.262752
O O16 0.061412 0.443797 0.110315
O O17 0.291991 0.750000 0.279927
O O18 0.148610 0.750000 0.008123
O O19 0.000000 0.000000 0.000000
#
# Coordination Sequence:
#
# PCOD8077827 Si02
#       7
#     4   4   4   4   4   4   4
#     4  12  24  41  64  89 117 156 200 241 292 351
#     4  11  25  43  62  88 120 155 198 247 297 349
#     4   9  20  37  59  89 117 148 193 240 289 346
#     4  11  23  40  62  87 118 157 196 241 295 348
#     4   9  19  36  58  85 117 152 190 237 292 346
#     4  11  24  40  58  85 118 154 196 241 293 350
#     4   9  17  32  56  85 116 152 191 235 288 343
#
# _framework density 19.780539000000001
#
# number of rings (size 3 to 8) (size 9 to 14) (size 15 to 20)
#    0.000    1.714    1.429    3.857    2.000    5.714 
#    0.000    0.714    0.000    0.000    0.000    0.000 
#    0.000    0.000    0.000    0.000    0.000    0.000 
#
# Total GULP energy -347223.726132 kJ/mol
# GULP energy per Si atom -12400.847362 kJ/mol
# Density = 1.973552 g / cm^3
# Si number density = 19.780539 Si / 1000 Ang^3
#
#
#
# Elastic Constant Matrix: (Units=GPa)
#
#
# Indices 1 2 3 4 5 6 
#
# 1 81.3614 28.3972 0.3558 0.0000 11.5834 0.0000
# 2 28.3972 111.1378 28.3037 0.0000 9.9184 0.0000
# 3 0.3558 28.3037 34.8441 0.0000 9.1559 0.0000
# 4 0.0000 0.0000 0.0000 36.9212 0.0000 -0.6616
# 5 11.5834 9.9184 9.1559 0.0000 31.4130 0.0000
# 6 0.0000 0.0000 0.0000 -0.6616 0.0000 32.1885
#
#
#
# Elastic Compliance Matrix: (Units=1/GPa)
#
#
# Indices 1 2 3 4 5 6 
#
# 1 0.014612 -0.004507 0.004932 0.000000 -0.005402 0.000000
# 2 -0.004507 0.012762 -0.010503 0.000000 0.000694 0.000000
# 3 0.004932 -0.010503 0.039838 0.000000 -0.010114 0.000000
# 4 0.000000 0.000000 0.000000 0.027095 0.000000 0.000557
# 5 -0.005402 0.000694 -0.010114 0.000000 0.036555 0.000000
# 6 0.000000 0.000000 0.000000 0.000557 0.000000 0.031078
#
#
# Mechanical properties :
#
#
# Convention : Reuss Voigt Hill
#
# Bulk Modulus (GPa) = 21.25197 37.93963 29.59580
# Shear Modulus (GPa) = 25.28028 31.45699 28.36863
#
# Velocity S-wave (km/s) = 3.57884 3.99218 3.79115
# Velocity P-wave (km/s) = 5.27681 6.36176 5.84451
#
# Compressibility (1/GPa) = 0.04705445
#
# Stress axis : x y z
#
# Youngs Moduli (GPa) = 68.43907 78.35488 25.10156
#
# Poissons Ratio (x) = 0.35317 -0.12379
# Poissons Ratio (y) = 0.30847 0.26365
# Poissons Ratio (z) = -0.33751 0.82297
#
# Static dielectric constant tensor:
#      x y z
#    x 3.508500 0.000000 0.094040 
#    y 0.000000 4.482490 0.000000 
#    z 0.094040 0.000000 3.982170 
# 
# 
# High freq. dielectric constant tensor:
#      x y z
#    x 1.758430 0.000000 0.006600 
#    y 0.000000 1.780240 0.000000 
#    z 0.006600 0.000000 1.774660 
# 
# From -- ./inp_files/57512.got.cif
#   From: 2010.06.25/outbox.cif.g09.slc.cpg/sg11_29_cif.got.tgz:57512.got - 2010.06.27 23:14:04.
