data_PCOD8077970
_publ_section_title
;
Structure prediction by ZEFSAII (Michael W. Deem and Ramdas Pophale) SiO2 
 PCOD8077970
Probable space group: P 21/M
;
_chemical_formula_sum "Si O2"
_cell_formula_units_Z 32
_cell_length_a 12.312339
_cell_length_b 17.897178
_cell_length_c 9.228820
_cell_angle_alpha 90.000000
_cell_angle_beta 112.010791
_cell_angle_gamma 90.000000
_cell_volume 1885.402602
_symmetry_space_group_name_H-M "P 21/M"
_symmetry_group_IT_number 11
_symmetry_cell_setting 'monoclinic'
loop_
_space_group_symop_operation_xyz
x,y,z
-x,1/2+y,-z
-x,-y,-z
x,1/2-y,z
loop_
_atom_site_type_symbol
_atom_site_label
_atom_site_fract_x
_atom_site_fract_y
_atom_site_fract_z
Si Si1 0.037962 0.390387 0.606457
Si Si2 0.246444 0.332482 0.538840
Si Si3 0.631083 0.517556 0.735358
Si Si4 0.631083 0.517555 0.395724
Si Si5 0.753556 0.832482 0.792394
Si Si6 0.838199 0.049285 0.332012
Si Si7 0.037962 0.390387 0.931505
Si Si8 0.161801 0.950715 0.993814
O O1 0.129619 0.335408 0.576190
O O2 0.091620 0.472509 0.636491
O O3 0.013269 0.361710 0.756634
O O4 0.915986 0.390011 0.457041
O O5 0.303341 0.250000 0.588101
O O6 0.340147 0.396044 0.630210
O O7 0.207644 0.345712 0.353823
O O8 0.647909 0.502247 0.573954
O O9 0.500000 0.500000 0.720837
O O10 0.659852 0.603957 0.790060
O O11 0.715335 0.461265 0.862977
O O12 0.715335 0.461265 0.352357
O O13 0.696659 0.750000 0.784758
O O14 0.870380 0.835408 0.946571
O O15 0.814476 0.078183 0.157238
O O16 0.915986 0.390011 0.958945
O O17 0.091619 0.472509 0.955128
#
# Coordination Sequence:
#
# PCOD8077970 Si02
#       8
#     4   4   4   4   4   4   4   4
#     4   9  16  26  42  64  88 112 140 176 219 267
#     4   9  17  29  45  65  89 116 146 184 231 278
#     4   9  17  29  45  65  89 119 156 193 227 268
#     4   9  17  29  45  65  89 119 156 193 227 268
#     4   9  17  29  45  65  89 116 146 184 231 278
#     4   9  16  26  42  64  88 113 142 179 222 265
#     4   9  16  26  42  64  88 112 140 176 219 267
#     4   9  16  26  42  64  88 113 142 179 222 265
#
# _framework density 16.972503
#
# number of rings (size 3 to 8) (size 9 to 14) (size 15 to 20)
#    0.000    3.000    0.000    1.500    0.000    7.000 
#    0.000    0.000    0.000    1.500    0.000    3.500 
#    0.000    0.000    0.000    0.000    0.000    0.000 
#
# Total GULP energy -396694.028737 kJ/mol
# GULP energy per Si atom -12396.688398 kJ/mol
# Density = 1.693387 g / cm^3
# Si number density = 16.972503 Si / 1000 Ang^3
#
#
#
# Elastic Constant Matrix: (Units=GPa)
#
#
# Indices 1 2 3 4 5 6 
#
# 1 129.5844 38.2390 62.1173 0.0000 6.9775 0.0000
# 2 38.2390 57.6349 28.5842 0.0000 6.1846 0.0000
# 3 62.1173 28.5842 106.0208 0.0000 8.1159 0.0000
# 4 0.0000 0.0000 0.0000 14.9904 0.0000 0.4791
# 5 6.9775 6.1846 8.1159 0.0000 27.5576 0.0000
# 6 0.0000 0.0000 0.0000 0.4791 0.0000 15.7385
#
#
#
# Elastic Compliance Matrix: (Units=1/GPa)
#
#
# Indices 1 2 3 4 5 6 
#
# 1 0.011915 -0.005111 -0.005586 0.000000 -0.000225 0.000000
# 2 -0.005111 0.022462 -0.002839 0.000000 -0.002911 0.000000
# 3 -0.005586 -0.002839 0.013620 0.000000 -0.001960 0.000000
# 4 0.000000 0.000000 0.000000 0.066774 0.000000 -0.002032
# 5 -0.000225 -0.002911 -0.001960 0.000000 0.037575 0.000000
# 6 0.000000 0.000000 0.000000 -0.002032 0.000000 0.063600
#
#
# Mechanical properties :
#
#
# Convention : Reuss Voigt Hill
#
# Bulk Modulus (GPa) = 47.78678 61.23567 54.51122
# Shear Modulus (GPa) = 20.00068 22.61063 21.30565
#
# Velocity S-wave (km/s) = 3.43653 3.65388 3.54687
# Velocity P-wave (km/s) = 6.63045 7.34566 6.99720
#
# Compressibility (1/GPa) = 0.02092629
#
# Stress axis : x y z
#
# Youngs Moduli (GPa) = 83.92959 44.52042 73.42074
#
# Poissons Ratio (x) = 0.22753 0.41011
# Poissons Ratio (y) = 0.42894 0.20842
# Poissons Ratio (z) = 0.46881 0.12638
#
# Static dielectric constant tensor:
#      x y z
#    x 3.126190 0.000000 -0.118840 
#    y 0.000000 2.893530 0.000000 
#    z -0.118840 0.000000 3.311690 
# 
# 
# High freq. dielectric constant tensor:
#      x y z
#    x 1.641190 0.000000 -0.011460 
#    y 0.000000 1.616100 0.000000 
#    z -0.011460 0.000000 1.659080 
# 
# From -- ./inp_files/19175.got.cif
#   From: 2010.06.25/outbox.cif.g09.slc.cpg/sg11_10_cif.got.tgz:19175.got - 2010.06.27 23:14:04.
