data_PCOD8077748
_publ_section_title
;
Structure prediction by ZEFSAII (Michael W. Deem and Ramdas Pophale) SiO2 
 PCOD8077748
Probable space group: P 21/M
;
_chemical_formula_sum "Si O2"
_cell_formula_units_Z 32
_cell_length_a 12.143098
_cell_length_b 19.699393
_cell_length_c 9.253158
_cell_angle_alpha 90.000000
_cell_angle_beta 50.468038
_cell_angle_gamma 90.000000
_cell_volume 1707.177012
_symmetry_space_group_name_H-M "P 21/M"
_symmetry_group_IT_number 11
_symmetry_cell_setting 'monoclinic'
loop_
_space_group_symop_operation_xyz
x,y,z
-x,1/2+y,-z
-x,-y,-z
x,1/2-y,z
loop_
_atom_site_type_symbol
_atom_site_label
_atom_site_fract_x
_atom_site_fract_y
_atom_site_fract_z
Si Si1 0.535993 0.172518 0.099044
Si Si2 0.863209 0.325569 0.853978
Si Si3 0.083424 0.175251 0.907249
Si Si4 0.882398 0.963795 0.997913
Si Si5 0.887208 0.461540 0.691058
Si Si6 0.374373 0.172905 0.517534
Si Si7 0.573974 0.441631 0.852171
Si Si8 0.564587 0.553476 0.340636
O O1 0.506045 0.250000 0.080539
O O2 0.423813 0.148364 0.316337
O O3 0.696366 0.161206 0.023678
O O4 0.519955 0.128879 0.967185
O O5 0.888597 0.250000 0.764914
O O6 0.930364 0.383823 0.694752
O O7 0.932520 0.330552 0.953684
O O8 0.100863 0.250000 0.965417
O O9 0.089097 0.117784 0.026437
O O10 0.203582 0.165856 0.681009
O O11 0.724729 0.973907 0.190296
O O12 0.879082 0.993219 0.841042
O O13 0.000000 0.000000 0.000000
O O14 0.742100 0.455502 0.721896
O O15 0.000000 0.500000 0.500000
O O16 0.427343 0.250000 0.495507
O O17 0.447706 0.127964 0.579614
O O18 0.526559 0.443053 0.727651
O O19 0.500000 0.500000 0.000000
O O20 0.500000 0.500000 0.500000
#
# Coordination Sequence:
#
# PCOD8077748 Si02
#       8
#     4   4   4   4   4   4   4   4
#     4   9  19  36  59  84 114 152 189 233 289 349
#     4   9  18  35  58  82 110 149 192 232 281 340
#     4   9  18  34  58  84 113 149 189 240 285 337
#     4  11  22  39  59  86 116 150 195 239 291 349
#     4  11  24  39  58  86 118 156 191 242 295 346
#     4   9  19  35  56  84 114 147 192 234 286 349
#     4  11  22  39  57  82 119 152 193 241 292 348
#     4  11  24  37  59  86 114 153 193 246 290 344
#
# _framework density 18.744395000000001
#
# number of rings (size 3 to 8) (size 9 to 14) (size 15 to 20)
#    0.000    2.000    2.500    0.750    3.500    1.500 
#    0.000    0.625    0.000    0.000    0.000    0.000 
#    0.000    0.000    0.000    0.000    0.000    0.000 
#
# Total GULP energy -396618.350069 kJ/mol
# GULP energy per Si atom -12394.323440 kJ/mol
# Density = 1.870173 g / cm^3
# Si number density = 18.744395 Si / 1000 Ang^3
#
#
#
# Elastic Constant Matrix: (Units=GPa)
#
#
# Indices 1 2 3 4 5 6 
#
# 1 114.9965 52.8528 40.7656 0.0000 14.9363 0.0000
# 2 52.8528 136.2212 64.3583 0.0000 7.1608 0.0000
# 3 40.7656 64.3583 93.5601 0.0000 12.8872 0.0000
# 4 0.0000 0.0000 0.0000 34.7952 0.0000 3.7665
# 5 14.9363 7.1608 12.8872 0.0000 25.0429 0.0000
# 6 0.0000 0.0000 0.0000 3.7665 0.0000 29.3036
#
#
#
# Elastic Compliance Matrix: (Units=1/GPa)
#
#
# Indices 1 2 3 4 5 6 
#
# 1 0.011571 -0.003212 -0.002161 0.000000 -0.004871 0.000000
# 2 -0.003212 0.011782 -0.007001 0.000000 0.002150 0.000000
# 3 -0.002161 -0.007001 0.017213 0.000000 -0.005567 0.000000
# 4 0.000000 0.000000 0.000000 0.029145 0.000000 -0.003746
# 5 -0.004871 0.002150 -0.005567 0.000000 0.045087 0.000000
# 6 0.000000 0.000000 0.000000 -0.003746 0.000000 0.034607
#
#
# Mechanical properties :
#
#
# Convention : Reuss Voigt Hill
#
# Bulk Modulus (GPa) = 63.22442 73.41457 68.31950
# Shear Modulus (GPa) = 27.86668 30.28176 29.07422
#
# Velocity S-wave (km/s) = 3.85992 4.02370 3.94266
# Velocity P-wave (km/s) = 7.32586 7.79988 7.56658
#
# Compressibility (1/GPa) = 0.01581667
#
# Stress axis : x y z
#
# Youngs Moduli (GPa) = 86.42253 84.87454 58.09690
#
# Poissons Ratio (x) = 0.27266 0.12555
# Poissons Ratio (y) = 0.27763 0.40674
# Poissons Ratio (z) = 0.18676 0.59421
#
# Static dielectric constant tensor:
#      x y z
#    x 3.398480 0.000000 -0.177260 
#    y 0.000000 3.885240 0.000000 
#    z -0.177260 0.000000 3.819670 
# 
# 
# High freq. dielectric constant tensor:
#      x y z
#    x 1.723630 0.000000 -0.015410 
#    y 0.000000 1.750840 0.000000 
#    z -0.015410 0.000000 1.709540 
# 
# From -- ./inp_files/19388.got.cif
#   From: 2010.06.25/outbox.cif.g09.slc.cpg/sg11_10_cif.got.tgz:19388.got - 2010.06.27 23:14:04.
