data_PCOD8077672
_publ_section_title
;
Structure prediction by ZEFSAII (Michael W. Deem and Ramdas Pophale) SiO2 
 PCOD8077672
Probable space group: P 21/M
;
_chemical_formula_sum "Si O2"
_cell_formula_units_Z 28
_cell_length_a 8.387610
_cell_length_b 15.295870
_cell_length_c 11.528559
_cell_angle_alpha 90.000000
_cell_angle_beta 63.962466
_cell_angle_gamma 90.000000
_cell_volume 1328.950330
_symmetry_space_group_name_H-M "P 21/M"
_symmetry_group_IT_number 11
_symmetry_cell_setting 'monoclinic'
loop_
_space_group_symop_operation_xyz
x,y,z
-x,1/2+y,-z
-x,-y,-z
x,1/2-y,z
loop_
_atom_site_type_symbol
_atom_site_label
_atom_site_fract_x
_atom_site_fract_y
_atom_site_fract_z
Si Si1 0.581707 0.651024 0.529172
Si Si2 0.618814 0.846808 0.024443
Si Si3 0.731479 0.419837 0.234392
Si Si4 0.802019 0.515744 0.602322
Si Si5 0.477081 0.092545 0.704802
Si Si6 0.256051 0.650140 0.018345
Si Si7 0.118552 0.022261 0.163100
O O1 0.629491 0.750000 0.541502
O O2 0.380251 0.630828 0.632003
O O3 0.724411 0.595114 0.553229
O O4 0.602934 0.633721 0.385812
O O5 0.691310 0.750000 0.970686
O O6 0.549135 0.842950 0.179032
O O7 0.456997 0.871358 0.991398
O O8 0.775143 0.917308 0.961606
O O9 0.621314 0.503507 0.228956
O O10 0.915298 0.449045 0.232479
O O11 0.762282 0.358096 0.114012
O O12 0.685360 0.428561 0.618645
O O13 0.794489 0.538935 0.740228
O O14 0.000000 0.500000 0.500000
O O15 0.203272 0.750000 0.070457
O O16 0.127742 0.579708 0.121872
#
# Coordination Sequence:
#
# PCOD8077672 Si02
#       7
#     4   4   4   4   4   4   4
#     4  11  24  43  66  96 132 173 221 272 327 391
#     4  11  23  39  64  97 130 172 218 269 330 394
#     4  11  23  41  66  93 129 172 220 263 330 394
#     4  11  23  43  70  94 126 171 224 270 332 397
#     4  11  21  42  66  90 133 174 214 265 328 395
#     4  11  23  41  63  93 129 170 218 272 330 389
#     4  12  23  42  66  96 133 172 220 274 329 396
#
# _framework density 21.069258999999999
#
# number of rings (size 3 to 8) (size 9 to 14) (size 15 to 20)
#    0.000    0.857    2.857    6.857    0.000    2.857 
#    0.000    5.714    0.000    0.000    0.000    0.000 
#    0.000    0.000    0.000    0.000    0.000    0.000 
#
# Total GULP energy -347312.283828 kJ/mol
# GULP energy per Si atom -12404.010137 kJ/mol
# Density = 2.102130 g / cm^3
# Si number density = 21.069259 Si / 1000 Ang^3
#
#
#
# Elastic Constant Matrix: (Units=GPa)
#
#
# Indices 1 2 3 4 5 6 
#
# 1 109.2140 43.8161 41.3427 0.0000 -2.0464 0.0000
# 2 43.8161 117.1100 41.9520 0.0000 -10.2664 0.0000
# 3 41.3427 41.9520 94.6749 0.0000 6.3682 0.0000
# 4 0.0000 0.0000 0.0000 24.2758 0.0000 7.0614
# 5 -2.0464 -10.2664 6.3682 0.0000 40.3585 0.0000
# 6 0.0000 0.0000 0.0000 7.0614 0.0000 17.1121
#
#
#
# Elastic Compliance Matrix: (Units=1/GPa)
#
#
# Indices 1 2 3 4 5 6 
#
# 1 0.011833 -0.003003 -0.003867 0.000000 0.000446 0.000000
# 2 -0.003003 0.011374 -0.003955 0.000000 0.003365 0.000000
# 3 -0.003867 -0.003955 0.014235 0.000000 -0.003448 0.000000
# 4 0.000000 0.000000 0.000000 0.046812 0.000000 -0.019318
# 5 0.000446 0.003365 -0.003448 0.000000 0.026201 0.000000
# 6 0.000000 0.000000 0.000000 -0.019318 0.000000 0.066410
#
#
# Mechanical properties :
#
#
# Convention : Reuss Voigt Hill
#
# Bulk Modulus (GPa) = 63.31769 63.91339 63.61554
# Shear Modulus (GPa) = 24.53624 29.27516 26.90570
#
# Velocity S-wave (km/s) = 3.41626 3.73161 3.57741
# Velocity P-wave (km/s) = 6.75859 6.99766 6.87916
#
# Compressibility (1/GPa) = 0.01579337
#
# Stress axis : x y z
#
# Youngs Moduli (GPa) = 84.50786 87.91652 70.24696
#
# Poissons Ratio (x) = 0.26402 0.27162
# Poissons Ratio (y) = 0.25378 0.27784
# Poissons Ratio (z) = 0.32676 0.34772
#
# Static dielectric constant tensor:
#      x y z
#    x 3.789730 0.000000 0.059550 
#    y 0.000000 3.779730 0.000000 
#    z 0.059550 0.000000 3.835100 
# 
# 
# High freq. dielectric constant tensor:
#      x y z
#    x 1.828320 0.000000 0.011250 
#    y 0.000000 1.821130 0.000000 
#    z 0.011250 0.000000 1.830500 
# 
# From -- ./inp_files/31810.got.cif
#   From: 2010.06.25/outbox.cif.g09.slc.cpg/sg11_16_cif.got.tgz:31810.got - 2010.06.27 23:14:04.
