data_PCOD8077522
_publ_section_title
;
Structure prediction by ZEFSAII (Michael W. Deem and Ramdas Pophale) SiO2 
 PCOD8077522
Probable space group: P 21/M
;
_chemical_formula_sum "Si O2"
_cell_formula_units_Z 32
_cell_length_a 22.202521
_cell_length_b 14.496643
_cell_length_c 14.955355
_cell_angle_alpha 90.000000
_cell_angle_beta 161.212635
_cell_angle_gamma 90.000000
_cell_volume 1550.240607
_symmetry_space_group_name_H-M "P 21/M"
_symmetry_group_IT_number 11
_symmetry_cell_setting 'monoclinic'
loop_
_space_group_symop_operation_xyz
x,y,z
-x,1/2+y,-z
-x,-y,-z
x,1/2-y,z
loop_
_atom_site_type_symbol
_atom_site_label
_atom_site_fract_x
_atom_site_fract_y
_atom_site_fract_z
Si Si1 0.631884 0.977461 0.102861
Si Si2 0.656774 0.644217 0.669249
Si Si3 0.040167 0.911974 0.692519
Si Si4 0.828670 0.149030 0.311223
Si Si5 0.241662 0.648966 0.137542
Si Si6 0.177311 0.108463 0.910304
Si Si7 0.483066 0.855145 0.737325
Si Si8 0.193388 0.980241 0.225572
O O1 0.668918 0.072358 0.100399
O O2 0.826755 0.937735 0.413544
O O3 0.500000 0.000000 0.000000
O O4 0.537851 0.900957 0.908297
O O5 0.661993 0.750000 0.642575
O O6 0.449987 0.614827 0.408540
O O7 0.711708 0.578320 0.664063
O O8 0.797200 0.631270 0.949658
O O9 0.053583 0.870360 0.612807
O O10 0.176901 0.999584 0.892207
O O11 0.114517 0.840638 0.870447
O O12 0.732872 0.250000 0.171130
O O13 0.978089 0.150335 0.601592
O O14 0.250868 0.750000 0.196059
O O15 0.148797 0.575191 0.072374
O O16 0.344228 0.151885 0.087814
O O17 0.413791 0.750000 0.657710
O O18 0.320162 0.917278 0.466968
O O19 0.000000 0.000000 0.000000
#
# Coordination Sequence:
#
# PCOD8077522 Si02
#       8
#     4   4   4   4   4   4   4   4
#     4  11  26  43  65  95 137 172 214 261 326 386
#     4  11  23  41  68  96 127 169 220 272 322 379
#     4  11  21  40  65  95 131 171 209 274 332 376
#     4  11  22  39  65  97 131 170 217 272 327 385
#     4  11  23  40  65  96 126 165 215 270 329 382
#     4  11  19  39  68  99 126 164 223 281 321 368
#     4  12  24  43  72  98 124 170 223 267 317 384
#     4  12  27  43  64  93 138 171 209 263 323 388
#
# _framework density 20.641957000000001
#
# number of rings (size 3 to 8) (size 9 to 14) (size 15 to 20)
#    0.000    0.750    5.000    3.750    1.750    2.000 
#    0.000    0.000    0.000    0.000    0.000    0.000 
#    0.000    0.000    0.000    0.000    0.000    0.000 
#
# Total GULP energy -396900.517848 kJ/mol
# GULP energy per Si atom -12403.141183 kJ/mol
# Density = 2.059498 g / cm^3
# Si number density = 20.641957 Si / 1000 Ang^3
#
#
#
# Elastic Constant Matrix: (Units=GPa)
#
#
# Indices 1 2 3 4 5 6 
#
# 1 97.5395 57.7042 61.6095 0.0000 13.8296 0.0000
# 2 57.7042 155.2448 50.8814 0.0000 6.4952 0.0000
# 3 61.6095 50.8814 90.2747 0.0000 -8.4931 0.0000
# 4 0.0000 0.0000 0.0000 18.7234 0.0000 -8.3266
# 5 13.8296 6.4952 -8.4931 0.0000 35.9721 0.0000
# 6 0.0000 0.0000 0.0000 -8.3266 0.0000 16.9550
#
#
#
# Elastic Compliance Matrix: (Units=1/GPa)
#
#
# Indices 1 2 3 4 5 6 
#
# 1 0.023653 -0.003210 -0.015478 0.000000 -0.012168 0.000000
# 2 -0.003210 0.008569 -0.002729 0.000000 -0.000958 0.000000
# 3 -0.015478 -0.002729 0.024325 0.000000 0.012187 0.000000
# 4 0.000000 0.000000 0.000000 0.068333 0.000000 0.033559
# 5 -0.012168 -0.000958 0.012187 0.000000 0.035528 0.000000
# 6 0.000000 0.000000 0.000000 0.033559 0.000000 0.075461
#
#
# Mechanical properties :
#
#
# Convention : Reuss Voigt Hill
#
# Bulk Modulus (GPa) = 72.92246 75.93880 74.43063
# Shear Modulus (GPa) = 17.65077 25.85436 21.75256
#
# Velocity S-wave (km/s) = 2.92737 3.54293 3.24976
# Velocity P-wave (km/s) = 6.84324 7.32154 7.08643
#
# Compressibility (1/GPa) = 0.01371320
#
# Stress axis : x y z
#
# Youngs Moduli (GPa) = 42.27826 116.69834 41.10930
#
# Poissons Ratio (x) = 0.37457 0.63629
# Poissons Ratio (y) = 0.13570 0.11220
# Poissons Ratio (z) = 0.65438 0.31851
#
# Static dielectric constant tensor:
#      x y z
#    x 2.300710 0.000000 1.425260 
#    y 0.000000 4.051380 0.000000 
#    z 1.425260 0.000000 1.605210 
# 
# 
# High freq. dielectric constant tensor:
#      x y z
#    x 1.790450 0.000000 -0.018830 
#    y 0.000000 1.827920 0.000000 
#    z -0.018830 0.000000 1.799840 
# 
# From -- ./inp_files/55046.got.cif
#   From: 2010.06.25/outbox.cif.g09.slc.cpg/sg11_28_cif.got.tgz:55046.got - 2010.06.27 23:14:04.
