data_PCOD8077217
_publ_section_title
;
Structure prediction by ZEFSAII (Michael W. Deem and Ramdas Pophale) SiO2 
 PCOD8077217
Probable space group: P 21/M
;
_chemical_formula_sum "Si O2"
_cell_formula_units_Z 28
_cell_length_a 7.784629
_cell_length_b 19.033137
_cell_length_c 13.176108
_cell_angle_alpha 90.000000
_cell_angle_beta 141.538609
_cell_angle_gamma 90.000000
_cell_volume 1214.274400
_symmetry_space_group_name_H-M "P 21/M"
_symmetry_group_IT_number 11
_symmetry_cell_setting 'monoclinic'
loop_
_space_group_symop_operation_xyz
x,y,z
-x,1/2+y,-z
-x,-y,-z
x,1/2-y,z
loop_
_atom_site_type_symbol
_atom_site_label
_atom_site_fract_x
_atom_site_fract_y
_atom_site_fract_z
Si Si1 0.953184 0.080487 0.575623
Si Si2 0.857125 0.668532 0.633028
Si Si3 0.010636 0.670070 0.924773
Si Si4 0.621966 0.072034 0.599096
Si Si5 0.168320 0.097269 0.954098
Si Si6 0.250735 0.556641 0.737684
Si Si7 0.389535 0.332487 0.854758
O O1 0.199235 0.136528 0.675069
O O2 0.739702 0.113733 0.556407
O O3 0.787957 0.059339 0.400729
O O4 0.080704 0.011758 0.694432
O O5 0.864245 0.750000 0.599622
O O6 0.815428 0.664325 0.735228
O O7 0.613172 0.624002 0.464566
O O8 0.144433 0.630155 0.736154
O O9 0.059446 0.750000 0.979082
O O10 0.863732 0.635240 0.952712
O O11 0.305410 0.636859 0.026825
O O12 0.500000 0.000000 0.500000
O O13 0.872130 0.059787 0.795445
O O14 0.425870 0.043739 0.087528
O O15 0.259933 0.147831 0.904309
O O16 0.393681 0.250000 0.849228
#
# Coordination Sequence:
#
# PCOD8077217 Si02
#       7
#     4   4   4   4   4   4   4
#     4  10  24  42  69  95 139 177 225 283 341 412
#     4  11  24  43  69  99 139 182 225 282 344 408
#     4  10  22  41  66  99 138 176 225 283 342 405
#     4  11  24  44  67 100 138 180 229 285 339 411
#     4  11  24  41  71  98 132 181 225 285 336 411
#     4  11  23  44  68 100 134 180 231 278 346 408
#     4  10  22  41  64  98 134 173 223 282 340 401
#
# _framework density 23.059038000000001
#
# number of rings (size 3 to 8) (size 9 to 14) (size 15 to 20)
#    0.000    1.429    2.857    1.286    2.000    7.429 
#    0.000    2.143    0.000    0.000    0.000    0.000 
#    0.000    0.000    0.000    0.000    0.000    0.000 
#
# Total GULP energy -346911.997709 kJ/mol
# GULP energy per Si atom -12389.714204 kJ/mol
# Density = 2.300655 g / cm^3
# Si number density = 23.059038 Si / 1000 Ang^3
#
#
#
# Elastic Constant Matrix: (Units=GPa)
#
#
# Indices 1 2 3 4 5 6 
#
# 1 69.7930 15.1932 16.1226 0.0000 13.3646 0.0000
# 2 15.1932 80.4721 30.5495 0.0000 10.5095 0.0000
# 3 16.1226 30.5495 146.7812 0.0000 22.5861 0.0000
# 4 0.0000 0.0000 0.0000 30.3273 0.0000 3.4860
# 5 13.3646 10.5095 22.5861 0.0000 30.4010 0.0000
# 6 0.0000 0.0000 0.0000 3.4860 0.0000 25.1974
#
#
#
# Elastic Compliance Matrix: (Units=1/GPa)
#
#
# Indices 1 2 3 4 5 6 
#
# 1 0.016029 -0.002088 -0.000398 0.000000 -0.006029 0.000000
# 2 -0.002088 0.013997 -0.002349 0.000000 -0.002176 0.000000
# 3 -0.000398 -0.002349 0.008122 0.000000 -0.005047 0.000000
# 4 0.000000 0.000000 0.000000 0.033506 0.000000 -0.004635
# 5 -0.006029 -0.002176 -0.005047 0.000000 0.040046 0.000000
# 6 0.000000 0.000000 0.000000 -0.004635 0.000000 0.040328
#
#
# Mechanical properties :
#
#
# Convention : Reuss Voigt Hill
#
# Bulk Modulus (GPa) = 35.11534 46.75298 40.93416
# Shear Modulus (GPa) = 29.20717 32.86388 31.03553
#
# Velocity S-wave (km/s) = 3.56283 3.77929 3.67265
# Velocity P-wave (km/s) = 5.67332 6.27402 5.98122
#
# Compressibility (1/GPa) = 0.02847758
#
# Stress axis : x y z
#
# Youngs Moduli (GPa) = 62.38674 71.44531 123.12017
#
# Poissons Ratio (x) = 0.14916 0.04906
# Poissons Ratio (y) = 0.13024 0.28921
# Poissons Ratio (z) = 0.02486 0.16783
#
# Static dielectric constant tensor:
#      x y z
#    x 4.173440 0.000000 0.242730 
#    y 0.000000 3.922920 0.000000 
#    z 0.242730 0.000000 4.528160 
# 
# 
# High freq. dielectric constant tensor:
#      x y z
#    x 1.915290 0.000000 0.008510 
#    y 0.000000 1.888310 0.000000 
#    z 0.008510 0.000000 1.923380 
# 
# From -- ./inp_files/48339.got.cif
#   From: 2010.06.25/outbox.cif.g09.slc.cpg/sg11_25_cif.got.tgz:48339.got - 2010.06.27 23:14:04.
