data_PCOD8077708
_publ_section_title
;
Structure prediction by ZEFSAII (Michael W. Deem and Ramdas Pophale) SiO2 
 PCOD8077708
Probable space group: P 21/M
;
_chemical_formula_sum "Si O2"
_cell_formula_units_Z 24
_cell_length_a 23.030061
_cell_length_b 8.934956
_cell_length_c 11.435862
_cell_angle_alpha 90.000000
_cell_angle_beta 30.593081
_cell_angle_gamma 90.000000
_cell_volume 1197.624959
_symmetry_space_group_name_H-M "P 21/M"
_symmetry_group_IT_number 11
_symmetry_cell_setting 'monoclinic'
loop_
_space_group_symop_operation_xyz
x,y,z
-x,1/2+y,-z
-x,-y,-z
x,1/2-y,z
loop_
_atom_site_type_symbol
_atom_site_label
_atom_site_fract_x
_atom_site_fract_y
_atom_site_fract_z
Si Si1 0.107842 0.916534 0.359371
Si Si2 0.875522 0.428038 0.214218
Si Si3 0.329313 0.919149 0.828204
Si Si4 0.548906 0.073885 0.154322
Si Si5 0.302947 0.074975 0.634142
Si Si6 0.758856 0.071641 0.651851
O O1 0.068007 0.750000 0.458412
O O2 0.156091 0.989793 0.395281
O O3 0.201107 0.917838 0.096877
O O4 0.000000 0.000000 0.500000
O O5 0.888375 0.250000 0.190588
O O6 0.805521 0.481215 0.222132
O O7 0.802796 0.488514 0.451286
O O8 0.000000 0.500000 0.000000
O O9 0.364526 0.750000 0.729535
O O10 0.411860 0.987113 0.786120
O O11 0.334114 0.031460 0.711645
O O12 0.569955 0.250000 0.126908
O O13 0.416260 0.035676 0.360295
O O14 0.630502 0.012821 0.907620
O O15 0.273546 0.250000 0.678351
O O16 0.759589 0.250000 0.649541
#
# Coordination Sequence:
#
# PCOD8077708 Si02
#       6
#     4   4   4   4   4   4
#     4   9  18  32  53  80 106 139 181 226 277 328
#     4  11  24  41  59  80 110 149 190 233 277 330
#     4   9  18  34  55  82 115 148 182 227 278 332
#     4   8  16  34  59  85 113 143 182 230 282 333
#     4  11  22  35  56  85 115 150 187 227 275 332
#     4   8  17  36  58  78 106 144 182 226 279 330
#
# _framework density 20.039662
#
# number of rings (size 3 to 8) (size 9 to 14) (size 15 to 20)
#    0.000    2.667    0.000    3.500    2.333    1.333 
#    0.000    1.667    0.000    7.000    0.000    0.000 
#    0.000    0.000    0.000    0.000    0.000    0.000 
#
# Total GULP energy -297453.075926 kJ/mol
# GULP energy per Si atom -12393.878164 kJ/mol
# Density = 1.999405 g / cm^3
# Si number density = 20.039662 Si / 1000 Ang^3
#
#
#
# Elastic Constant Matrix: (Units=GPa)
#
#
# Indices 1 2 3 4 5 6 
#
# 1 65.1080 23.1956 54.3698 0.0000 -5.9733 0.0000
# 2 23.1956 57.2899 35.2450 0.0000 -6.7330 0.0000
# 3 54.3698 35.2450 98.9941 0.0000 -8.4062 0.0000
# 4 0.0000 0.0000 0.0000 25.3858 0.0000 -2.5365
# 5 -5.9733 -6.7330 -8.4062 0.0000 38.5591 0.0000
# 6 0.0000 0.0000 0.0000 -2.5365 0.0000 25.3986
#
#
#
# Elastic Compliance Matrix: (Units=1/GPa)
#
#
# Indices 1 2 3 4 5 6 
#
# 1 0.028662 -0.002393 -0.014823 0.000000 0.000791 0.000000
# 2 -0.002393 0.022737 -0.006597 0.000000 0.002161 0.000000
# 3 -0.014823 -0.006597 0.020682 0.000000 0.001061 0.000000
# 4 0.000000 0.000000 0.000000 0.039789 0.000000 0.003974
# 5 0.000791 0.002161 0.001061 0.000000 0.026665 0.000000
# 6 0.000000 0.000000 0.000000 0.003974 0.000000 0.039769
#
#
# Mechanical properties :
#
#
# Convention : Reuss Voigt Hill
#
# Bulk Modulus (GPa) = 40.89215 49.66808 45.28011
# Shear Modulus (GPa) = 21.36009 25.10747 23.23378
#
# Velocity S-wave (km/s) = 3.26834 3.54346 3.40868
# Velocity P-wave (km/s) = 5.89005 6.44827 6.17547
#
# Compressibility (1/GPa) = 0.02445457
#
# Stress axis : x y z
#
# Youngs Moduli (GPa) = 34.88902 43.98206 48.35212
#
# Poissons Ratio (x) = 0.10524 0.71672
# Poissons Ratio (y) = 0.08348 0.31899
# Poissons Ratio (z) = 0.51716 0.29016
#
# Static dielectric constant tensor:
#      x y z
#    x 3.639710 0.000000 0.141990 
#    y 0.000000 3.381860 0.000000 
#    z 0.141990 0.000000 4.044480 
# 
# 
# High freq. dielectric constant tensor:
#      x y z
#    x 1.777990 0.000000 -0.005020 
#    y 0.000000 1.745410 0.000000 
#    z -0.005020 0.000000 1.794720 
# 
# From -- ./inp_files/43877.got.cif
#   From: 2010.06.25/outbox.cif.g09.slc.cpg/sg11_22_cif.got.tgz:43877.got - 2010.06.27 23:14:04.
