data_PCOD8077909
_publ_section_title
;
Structure prediction by ZEFSAII (Michael W. Deem and Ramdas Pophale) SiO2 
 PCOD8077909
Probable space group: P 21/M
;
_chemical_formula_sum "Si O2"
_cell_formula_units_Z 28
_cell_length_a 4.926175
_cell_length_b 19.750211
_cell_length_c 12.762184
_cell_angle_alpha 90.000000
_cell_angle_beta 79.183907
_cell_angle_gamma 90.000000
_cell_volume 1219.612305
_symmetry_space_group_name_H-M "P 21/M"
_symmetry_group_IT_number 11
_symmetry_cell_setting 'monoclinic'
loop_
_space_group_symop_operation_xyz
x,y,z
-x,1/2+y,-z
-x,-y,-z
x,1/2-y,z
loop_
_atom_site_type_symbol
_atom_site_label
_atom_site_fract_x
_atom_site_fract_y
_atom_site_fract_z
Si Si1 0.826898 0.568634 0.510808
Si Si2 0.972073 0.169942 0.158054
Si Si3 0.503268 0.454377 0.832787
Si Si4 0.481686 0.750000 0.315810
Si Si5 0.954034 0.250000 0.821895
Si Si6 0.558405 0.897004 0.750587
Si Si7 0.627644 0.389430 0.607548
Si Si8 0.067467 0.612088 0.065778
O O1 0.710898 0.587092 0.631983
O O2 0.570206 0.562788 0.448684
O O3 0.000000 0.500000 0.500000
O O4 0.061536 0.621821 0.458292
O O5 0.958767 0.250000 0.134889
O O6 0.721845 0.145146 0.250982
O O7 0.258606 0.152868 0.192421
O O8 0.952817 0.124116 0.055750
O O9 0.485471 0.534544 0.817899
O O10 0.651382 0.420376 0.721822
O O11 0.683069 0.438973 0.923754
O O12 0.203938 0.421810 0.866739
O O13 0.182730 0.750000 0.282567
O O14 0.514537 0.815980 0.385021
O O15 0.714951 0.750000 0.209427
O O16 0.855884 0.183785 0.889308
#
# Coordination Sequence:
#
# PCOD8077909 Si02
#       8
#     4   4   4   2   2   4   4   4
#     4  12  26  46  74  97 134 189 233 283 357 417
#     4  12  28  51  73  98 142 196 236 280 342 420
#     4  12  25  42  75 110 141 175 227 302 355 412
#     4  12  24  40  66 103 148 175 224 294 360 410
#     4  12  20  40  66 101 138 193 220 272 344 438
#     4  12  28  48  73 102 139 182 243 296 340 409
#     4  12  24  43  69 106 141 180 228 288 356 422
#     4  12  24  43  73 105 140 185 231 275 353 428
#
# _framework density 22.958116
#
# number of rings (size 3 to 8) (size 9 to 14) (size 15 to 20)
#    0.000    0.000    5.000    5.143    2.000    3.429 
#    7.714    0.000    0.000    0.000    0.000    0.000 
#    0.000    0.000    0.000    0.000    0.000    0.000 
#
# Total GULP energy -347325.881015 kJ/mol
# GULP energy per Si atom -12404.495751 kJ/mol
# Density = 2.290586 g / cm^3
# Si number density = 22.958116 Si / 1000 Ang^3
#
#
#
# Elastic Constant Matrix: (Units=GPa)
#
#
# Indices 1 2 3 4 5 6 
#
# 1 99.9866 10.0103 11.2269 0.0000 -1.8230 0.0000
# 2 10.0103 89.8739 19.1066 0.0000 -10.5426 0.0000
# 3 11.2269 19.1066 85.3344 0.0000 -0.9469 0.0000
# 4 0.0000 0.0000 0.0000 27.9745 0.0000 -0.2249
# 5 -1.8230 -10.5426 -0.9469 0.0000 35.6418 0.0000
# 6 0.0000 0.0000 0.0000 -0.2249 0.0000 38.7449
#
#
#
# Elastic Compliance Matrix: (Units=1/GPa)
#
#
# Indices 1 2 3 4 5 6 
#
# 1 0.010221 -0.000867 -0.001148 0.000000 0.000236 0.000000
# 2 -0.000867 0.012180 -0.002574 0.000000 0.003490 0.000000
# 3 -0.001148 -0.002574 0.012441 0.000000 -0.000490 0.000000
# 4 0.000000 0.000000 0.000000 0.035748 0.000000 0.000208
# 5 0.000236 0.003490 -0.000490 0.000000 0.029088 0.000000
# 6 0.000000 0.000000 0.000000 0.000208 0.000000 0.025811
#
#
# Mechanical properties :
#
#
# Convention : Reuss Voigt Hill
#
# Bulk Modulus (GPa) = 38.96574 39.54248 39.25411
# Shear Modulus (GPa) = 34.91069 36.12897 35.51983
#
# Velocity S-wave (km/s) = 3.90375 3.97128 3.93766
# Velocity P-wave (km/s) = 6.10970 6.18783 6.14889
#
# Compressibility (1/GPa) = 0.02566357
#
# Stress axis : x y z
#
# Youngs Moduli (GPa) = 97.83464 82.10235 80.38186
#
# Poissons Ratio (x) = 0.07116 0.09228
# Poissons Ratio (y) = 0.08479 0.20693
# Poissons Ratio (z) = 0.11232 0.21136
#
# Static dielectric constant tensor:
#      x y z
#    x 5.046140 0.000000 -0.611180 
#    y 0.000000 4.338060 0.000000 
#    z -0.611180 0.000000 4.392070 
# 
# 
# High freq. dielectric constant tensor:
#      x y z
#    x 1.922810 0.000000 -0.007090 
#    y 0.000000 1.916900 0.000000 
#    z -0.007090 0.000000 1.902630 
# 
# From -- ./inp_files/29991.got.cif
#   From: 2010.06.25/outbox.cif.g09.slc.cpg/sg11_15_cif.got.tgz:29991.got - 2010.06.27 23:14:04.
