data_PCOD8077497
_publ_section_title
;
Structure prediction by ZEFSAII (Michael W. Deem and Ramdas Pophale) SiO2 
 PCOD8077497
Probable space group: P 21/M
;
_chemical_formula_sum "Si O2"
_cell_formula_units_Z 20
_cell_length_a 10.011355
_cell_length_b 17.684055
_cell_length_c 9.813341
_cell_angle_alpha 90.000000
_cell_angle_beta 150.959185
_cell_angle_gamma 90.000000
_cell_volume 843.374551
_symmetry_space_group_name_H-M "P 21/M"
_symmetry_group_IT_number 11
_symmetry_cell_setting 'monoclinic'
loop_
_space_group_symop_operation_xyz
x,y,z
-x,1/2+y,-z
-x,-y,-z
x,1/2-y,z
loop_
_atom_site_type_symbol
_atom_site_label
_atom_site_fract_x
_atom_site_fract_y
_atom_site_fract_z
Si Si1 0.447385 0.072913 0.044805
Si Si2 0.313252 0.664731 0.281290
Si Si3 0.012129 0.836552 0.500056
Si Si4 0.336706 0.966225 0.480666
Si Si5 0.109567 0.120553 0.311601
O O1 0.455892 0.050170 0.210632
O O2 0.674733 0.136040 0.213657
O O3 0.149623 0.109197 0.749363
O O4 0.500000 0.000000 0.000000
O O5 0.249989 0.750000 0.269131
O O6 0.200582 0.611786 0.304298
O O7 0.638459 0.652771 0.551848
O O8 0.171117 0.644354 0.011792
O O9 0.000456 0.750000 0.440261
O O10 0.875843 0.842788 0.526996
O O11 0.500000 0.000000 0.500000
O O12 0.112356 0.028731 0.326837
#
# Coordination Sequence:
#
# PCOD8077497 Si02
#       5
#     4   4   4   4   4
#     4  12  26  47  72 102 141 183 234 286 346 417
#     4  11  23  40  65  99 139 179 228 291 348 406
#     4  12  26  44  73 106 143 184 232 293 354 407
#     4  10  25  45  71 100 137 184 233 280 343 417
#     4  11  23  43  69  99 138 182 235 277 345 422
#
# _framework density 23.714255000000001
#
# number of rings (size 3 to 8) (size 9 to 14) (size 15 to 20)
#    0.000    0.800    2.000    4.800    2.800    4.800 
#    0.000    0.000    0.000    0.000    0.000    0.000 
#    0.000    0.000    0.000    0.000    0.000    0.000 
#
# Total GULP energy -248114.329050 kJ/mol
# GULP energy per Si atom -12405.716452 kJ/mol
# Density = 2.366028 g / cm^3
# Si number density = 23.714255 Si / 1000 Ang^3
#
#
#
# Elastic Constant Matrix: (Units=GPa)
#
#
# Indices 1 2 3 4 5 6 
#
# 1 66.9893 23.1829 16.6224 0.0000 -30.0052 0.0000
# 2 23.1829 182.2869 35.0037 0.0000 -27.7792 0.0000
# 3 16.6224 35.0037 97.3600 0.0000 -25.2027 0.0000
# 4 0.0000 0.0000 0.0000 44.8822 0.0000 0.8458
# 5 -30.0052 -27.7792 -25.2027 0.0000 45.5824 0.0000
# 6 0.0000 0.0000 0.0000 0.8458 0.0000 25.2308
#
#
#
# Elastic Compliance Matrix: (Units=1/GPa)
#
#
# Indices 1 2 3 4 5 6 
#
# 1 0.021236 -0.000646 0.000144 0.000000 0.013665 0.000000
# 2 -0.000646 0.006241 -0.001469 0.000000 0.002566 0.000000
# 3 0.000144 -0.001469 0.012333 0.000000 0.006018 0.000000
# 4 0.000000 0.000000 0.000000 0.022295 0.000000 -0.000747
# 5 0.013665 0.002566 0.006018 0.000000 0.035825 0.000000
# 6 0.000000 0.000000 0.000000 -0.000747 0.000000 0.039659
#
#
# Mechanical properties :
#
#
# Convention : Reuss Voigt Hill
#
# Bulk Modulus (GPa) = 27.88064 55.13934 41.50999
# Shear Modulus (GPa) = 32.57602 41.26091 36.91846
#
# Velocity S-wave (km/s) = 3.71035 4.17576 3.94992
# Velocity P-wave (km/s) = 5.48981 6.82285 6.19231
#
# Compressibility (1/GPa) = 0.03586718
#
# Stress axis : x y z
#
# Youngs Moduli (GPa) = 47.08928 160.22563 81.08511
#
# Poissons Ratio (x) = 0.10350 -0.01166
# Poissons Ratio (y) = 0.03042 0.11915
# Poissons Ratio (z) = -0.00677 0.23543
#
# Static dielectric constant tensor:
#      x y z
#    x 4.082780 0.000000 -0.222170 
#    y 0.000000 5.087760 0.000000 
#    z -0.222170 0.000000 4.199420 
# 
# 
# High freq. dielectric constant tensor:
#      x y z
#    x 1.930440 0.000000 -0.011730 
#    y 0.000000 1.957900 0.000000 
#    z -0.011730 0.000000 1.941130 
# 
# From -- ./inp_files/35746.got.cif
#   From: 2010.06.25/outbox.cif.g09.slc.cpg/sg11_18_cif.got.tgz:35746.got - 2010.06.27 23:14:04.
