data_PCOD8077704
_publ_section_title
;
Structure prediction by ZEFSAII (Michael W. Deem and Ramdas Pophale) SiO2 
 PCOD8077704
Probable space group: P 21/M
;
_chemical_formula_sum "Si O2"
_cell_formula_units_Z 32
_cell_length_a 16.575834
_cell_length_b 19.249461
_cell_length_c 9.610876
_cell_angle_alpha 90.000000
_cell_angle_beta 144.616727
_cell_angle_gamma 90.000000
_cell_volume 1775.693013
_symmetry_space_group_name_H-M "P 21/M"
_symmetry_group_IT_number 11
_symmetry_cell_setting 'monoclinic'
loop_
_space_group_symop_operation_xyz
x,y,z
-x,1/2+y,-z
-x,-y,-z
x,1/2-y,z
loop_
_atom_site_type_symbol
_atom_site_label
_atom_site_fract_x
_atom_site_fract_y
_atom_site_fract_z
Si Si1 0.861541 0.971393 0.016214
Si Si2 0.582812 0.451978 0.012887
Si Si3 0.834812 0.462720 0.552908
Si Si4 0.156606 0.396863 0.293514
Si Si5 0.571166 0.327557 0.548384
Si Si6 0.150191 0.612552 0.132052
Si Si7 0.446970 0.329311 0.677593
Si Si8 0.576671 0.541660 0.729976
O O1 0.010585 0.957003 0.297483
O O2 0.879083 0.942768 0.888055
O O3 0.734562 0.935570 0.917385
O O4 0.828423 0.052557 0.952721
O O5 0.734204 0.436442 0.289188
O O6 0.500000 0.500000 0.000000
O O7 0.512069 0.377356 0.888806
O O8 0.582775 0.492843 0.869727
O O9 0.802241 0.544837 0.534235
O O10 0.817341 0.414781 0.665687
O O11 0.280585 0.343122 0.438396
O O12 0.008158 0.357848 0.112225
O O13 0.519715 0.250000 0.436424
O O14 0.737945 0.329572 0.758331
O O15 0.522072 0.345031 0.636486
O O16 0.503372 0.385978 0.352710
O O17 0.470597 0.250000 0.755176
O O18 0.500000 0.500000 0.500000
#
# Coordination Sequence:
#
# PCOD8077704 Si02
#       8
#     4   4   4   4   4   4   4   4
#     4   9  16  31  56  85 109 139 185 234 280 327
#     4  12  22  35  57  83 114 151 191 233 281 339
#     4   9  19  32  54  85 115 140 181 236 277 333
#     4   9  16  33  56  83 111 142 182 230 284 332
#     4  11  22  35  54  84 113 144 191 237 281 333
#     4   9  17  32  56  83 115 142 175 234 284 329
#     4  11  22  36  56  83 113 148 189 235 285 337
#     4  12  20  35  60  82 109 149 193 234 281 330
#
# _framework density 18.021132999999999
#
# number of rings (size 3 to 8) (size 9 to 14) (size 15 to 20)
#    0.000    1.750    5.000    2.250    0.000    1.000 
#    0.000    2.500    0.000    1.500    0.000    0.000 
#    0.000    0.000    0.000    0.000    0.000    0.000 
#
# Total GULP energy -396527.920295 kJ/mol
# GULP energy per Si atom -12391.497509 kJ/mol
# Density = 1.798012 g / cm^3
# Si number density = 18.021133 Si / 1000 Ang^3
#
#
#
# Elastic Constant Matrix: (Units=GPa)
#
#
# Indices 1 2 3 4 5 6 
#
# 1 84.2703 24.5144 46.2231 0.0000 27.1677 0.0000
# 2 24.5144 89.5447 43.3341 0.0000 10.7078 0.0000
# 3 46.2231 43.3341 123.8994 0.0000 14.4063 0.0000
# 4 0.0000 0.0000 0.0000 19.6723 0.0000 1.5847
# 5 27.1677 10.7078 14.4063 0.0000 31.4202 0.0000
# 6 0.0000 0.0000 0.0000 1.5847 0.0000 19.7349
#
#
#
# Elastic Compliance Matrix: (Units=1/GPa)
#
#
# Indices 1 2 3 4 5 6 
#
# 1 0.019678 -0.001126 -0.005296 0.000000 -0.014203 0.000000
# 2 -0.001126 0.013705 -0.004166 0.000000 -0.001787 0.000000
# 3 -0.005296 -0.004166 0.011415 0.000000 0.000765 0.000000
# 4 0.000000 0.000000 0.000000 0.051164 0.000000 -0.004108
# 5 -0.014203 -0.001787 0.000765 0.000000 0.044365 0.000000
# 6 0.000000 0.000000 0.000000 -0.004108 0.000000 0.051001
#
#
# Mechanical properties :
#
#
# Convention : Reuss Voigt Hill
#
# Bulk Modulus (GPa) = 42.33162 58.42861 50.38012
# Shear Modulus (GPa) = 22.68829 26.40833 24.54831
#
# Velocity S-wave (km/s) = 3.55206 3.83222 3.69480
# Velocity P-wave (km/s) = 6.35326 7.21622 6.79845
#
# Compressibility (1/GPa) = 0.02362300
#
# Stress axis : x y z
#
# Youngs Moduli (GPa) = 50.81891 72.96343 87.60521
#
# Poissons Ratio (x) = 0.08214 0.46396
# Poissons Ratio (y) = 0.05721 0.36494
# Poissons Ratio (z) = 0.26914 0.30394
#
# Static dielectric constant tensor:
#      x y z
#    x 3.174830 0.000000 0.342510 
#    y 0.000000 3.142170 0.000000 
#    z 0.342510 0.000000 3.525970 
# 
# 
# High freq. dielectric constant tensor:
#      x y z
#    x 1.696670 0.000000 0.030010 
#    y 0.000000 1.672960 0.000000 
#    z 0.030010 0.000000 1.690350 
# 
# From -- ./inp_files/23095.got.cif
#   From: 2010.06.25/outbox.cif.g09.slc.cpg/sg11_12_cif.got.tgz:23095.got - 2010.06.27 23:14:04.
