data_PCOD8077082
_publ_section_title
;
Structure prediction by ZEFSAII (Michael W. Deem and Ramdas Pophale) SiO2 
 PCOD8077082
Probable space group: P 21/M
;
_chemical_formula_sum "Si O2"
_cell_formula_units_Z 24
_cell_length_a 12.604167
_cell_length_b 18.327704
_cell_length_c 4.907123
_cell_angle_alpha 90.000000
_cell_angle_beta 57.423073
_cell_angle_gamma 90.000000
_cell_volume 955.226413
_symmetry_space_group_name_H-M "P 21/M"
_symmetry_group_IT_number 11
_symmetry_cell_setting 'monoclinic'
loop_
_space_group_symop_operation_xyz
x,y,z
-x,1/2+y,-z
-x,-y,-z
x,1/2-y,z
loop_
_atom_site_type_symbol
_atom_site_label
_atom_site_fract_x
_atom_site_fract_y
_atom_site_fract_z
Si Si1 0.304204 0.105866 0.485583
Si Si2 0.569089 0.332787 0.036752
Si Si3 0.007752 0.750000 0.492636
Si Si4 0.165456 0.250000 0.765635
Si Si5 0.091735 0.899118 0.528084
Si Si6 0.263225 0.667080 0.705045
Si Si7 0.181518 0.040301 0.133559
O O1 0.452849 0.112200 0.231539
O O2 0.251571 0.179655 0.693053
O O3 0.235408 0.090448 0.297978
O O4 0.275008 0.041752 0.744127
O O5 0.527599 0.250000 0.168090
O O6 0.683614 0.358154 0.075030
O O7 0.617093 0.337254 0.662841
O O8 0.092842 0.823569 0.346458
O O9 0.888855 0.750000 0.462454
O O10 0.953557 0.750000 0.872308
O O11 0.153656 0.885836 0.739836
O O12 0.951676 0.927064 0.780754
O O13 0.169697 0.957380 0.246377
O O14 0.209380 0.750000 0.787873
#
# Coordination Sequence:
#
# PCOD8077082 Si02
#       7
#     4   4   2   2   4   4   4
#     4  12  22  44  63  98 128 168 212 267 317 383
#     4  10  22  39  64  94 125 165 214 268 311 362
#     4  12  24  40  66  98 124 168 218 258 314 380
#     4  12  22  38  64  98 124 164 218 258 314 382
#     4  11  24  46  63  98 131 170 210 265 314 393
#     4  10  22  39  63  92 125 167 212 260 312 372
#     4  11  27  40  68  94 136 167 205 263 338 367
#
# _framework density 25.124931
#
# number of rings (size 3 to 8) (size 9 to 14) (size 15 to 20)
#    0.000    1.000    5.000    1.000    0.000    8.000 
#    0.000    5.000    0.000    0.000    0.000    0.000 
#    0.000    0.000    0.000    0.000    0.000    0.000 
#
# Total GULP energy -297798.038477 kJ/mol
# GULP energy per Si atom -12408.251603 kJ/mol
# Density = 2.506775 g / cm^3
# Si number density = 25.124931 Si / 1000 Ang^3
#
#
#
# Elastic Constant Matrix: (Units=GPa)
#
#
# Indices 1 2 3 4 5 6 
#
# 1 85.6251 28.0754 18.1164 0.0000 -12.5707 0.0000
# 2 28.0754 92.8133 6.1627 0.0000 -16.6316 0.0000
# 3 18.1164 6.1627 37.2789 0.0000 8.7650 0.0000
# 4 0.0000 0.0000 0.0000 33.0634 0.0000 -4.1412
# 5 -12.5707 -16.6316 8.7650 0.0000 34.2465 0.0000
# 6 0.0000 0.0000 0.0000 -4.1412 0.0000 29.9958
#
#
#
# Elastic Compliance Matrix: (Units=1/GPa)
#
#
# Indices 1 2 3 4 5 6 
#
# 1 0.015378 -0.002943 -0.008488 0.000000 0.006388 0.000000
# 2 -0.002943 0.012813 -0.002018 0.000000 0.005659 0.000000
# 3 -0.008488 -0.002018 0.034311 0.000000 -0.012878 0.000000
# 4 0.000000 0.000000 0.000000 0.030777 0.000000 0.004249
# 5 0.006388 0.005659 -0.012878 0.000000 0.037589 0.000000
# 6 0.000000 0.000000 0.000000 0.004249 0.000000 0.033925
#
#
# Mechanical properties :
#
#
# Convention : Reuss Voigt Hill
#
# Bulk Modulus (GPa) = 28.08844 35.60292 31.84568
# Shear Modulus (GPa) = 24.56291 30.35200 27.45746
#
# Velocity S-wave (km/s) = 3.13010 3.47946 3.30939
# Velocity P-wave (km/s) = 4.92617 5.50848 5.22544
#
# Compressibility (1/GPa) = 0.03560183
#
# Stress axis : x y z
#
# Youngs Moduli (GPa) = 65.02949 78.04783 29.14493
#
# Poissons Ratio (x) = 0.22972 0.24739
# Poissons Ratio (y) = 0.19141 0.05882
# Poissons Ratio (z) = 0.55199 0.15751
#
# Static dielectric constant tensor:
#      x y z
#    x 4.374480 0.000000 0.058530 
#    y 0.000000 4.593030 0.000000 
#    z 0.058530 0.000000 4.416970 
# 
# 
# High freq. dielectric constant tensor:
#      x y z
#    x 2.000540 0.000000 0.002440 
#    y 0.000000 1.999640 0.000000 
#    z 0.002440 0.000000 2.014940 
# 
# From -- ./inp_files/4833.got.cif
#   From: 2010.06.25/outbox.cif.g09.slc.cpg/sg11_3_cif.got.tgz:4833.got - 2010.06.27 23:14:04.
