data_PCOD8077660
_publ_section_title
;
Structure prediction by ZEFSAII (Michael W. Deem and Ramdas Pophale) SiO2 
 PCOD8077660
Probable space group: P 21/M
;
_chemical_formula_sum "Si O2"
_cell_formula_units_Z 28
_cell_length_a 30.945272
_cell_length_b 8.512468
_cell_length_c 10.084682
_cell_angle_alpha 90.000000
_cell_angle_beta 147.103148
_cell_angle_gamma 90.000000
_cell_volume 1442.827634
_symmetry_space_group_name_H-M "P 21/M"
_symmetry_group_IT_number 11
_symmetry_cell_setting 'monoclinic'
loop_
_space_group_symop_operation_xyz
x,y,z
-x,1/2+y,-z
-x,-y,-z
x,1/2-y,z
loop_
_atom_site_type_symbol
_atom_site_label
_atom_site_fract_x
_atom_site_fract_y
_atom_site_fract_z
Si Si1 0.583888 0.434472 0.476350
Si Si2 0.823590 0.935475 0.928580
Si Si3 0.587212 0.066559 0.956285
Si Si4 0.318382 0.432814 0.037177
Si Si5 0.994340 0.933807 0.338942
Si Si6 0.152669 0.066653 0.716028
Si Si7 0.344861 0.063466 0.599425
O O1 0.596242 0.250000 0.529280
O O2 0.494972 0.480564 0.288143
O O3 0.644663 0.530739 0.724195
O O4 0.598012 0.482088 0.360583
O O5 0.815026 0.750000 0.917860
O O6 0.745549 0.999789 0.652830
O O7 0.827714 0.006667 0.088260
O O8 0.905040 0.979314 0.057251
O O9 0.572672 0.250000 0.943771
O O10 0.643964 0.043232 0.976646
O O11 0.628149 0.987755 0.187053
O O12 0.332378 0.250000 0.039204
O O13 0.224245 0.473247 0.799966
O O14 0.004372 0.750000 0.368723
O O15 0.067916 0.001615 0.441880
O O16 0.000000 0.000000 0.500000
O O17 0.142421 0.250000 0.706000
O O18 0.352201 0.250000 0.603731
#
# Coordination Sequence:
#
# PCOD8077660 Si02
#       7
#     4   4   4   4   4   4   4
#     4  12  24  40  61  87 113 145 189 236 285 335
#     4   8  15  30  52  79 110 144 180 223 275 326
#     4  12  26  42  57  82 115 149 189 236 287 339
#     4  11  22  40  62  84 113 151 190 233 284 339
#     4   9  16  27  46  77 112 145 179 223 275 325
#     4   9  17  32  53  80 111 144 181 225 278 331
#     4  11  21  39  62  84 113 152 191 233 282 336
#
# _framework density 19.406336
#
# number of rings (size 3 to 8) (size 9 to 14) (size 15 to 20)
#    0.000    1.714    1.429    5.571    0.000    1.143 
#    0.000    2.143    0.000    0.857    0.000    0.000 
#    0.000    0.000    0.000    0.000    0.000    0.000 
#
# Total GULP energy -347105.492764 kJ/mol
# GULP energy per Si atom -12396.624742 kJ/mol
# Density = 1.936217 g / cm^3
# Si number density = 19.406336 Si / 1000 Ang^3
#
#
#
# Elastic Constant Matrix: (Units=GPa)
#
#
# Indices 1 2 3 4 5 6 
#
# 1 95.7480 27.6319 27.0554 0.0000 40.0828 0.0000
# 2 27.6319 51.9047 28.1108 0.0000 15.2255 0.0000
# 3 27.0554 28.1108 92.0696 0.0000 -7.1206 0.0000
# 4 0.0000 0.0000 0.0000 25.2592 0.0000 2.3167
# 5 40.0828 15.2255 -7.1206 0.0000 54.0342 0.0000
# 6 0.0000 0.0000 0.0000 2.3167 0.0000 32.3317
#
#
#
# Elastic Compliance Matrix: (Units=1/GPa)
#
#
# Indices 1 2 3 4 5 6 
#
# 1 0.018625 -0.002794 -0.005685 0.000000 -0.013778 0.000000
# 2 -0.002794 0.026972 -0.007922 0.000000 -0.006571 0.000000
# 3 -0.005685 -0.007922 0.015609 0.000000 0.008507 0.000000
# 4 0.000000 0.000000 0.000000 0.039851 0.000000 -0.002855
# 5 -0.013778 -0.006571 0.008507 0.000000 0.031700 0.000000
# 6 0.000000 0.000000 0.000000 -0.002855 0.000000 0.031134
#
#
# Mechanical properties :
#
#
# Convention : Reuss Voigt Hill
#
# Bulk Modulus (GPa) = 35.20949 45.03540 40.12245
# Shear Modulus (GPa) = 24.25283 32.78662 28.51972
#
# Velocity S-wave (km/s) = 3.53900 4.11479 3.83771
# Velocity P-wave (km/s) = 5.90610 6.76995 6.35273
#
# Compressibility (1/GPa) = 0.02840143
#
# Stress axis : x y z
#
# Youngs Moduli (GPa) = 53.69188 37.07581 64.06666
#
# Poissons Ratio (x) = 0.10361 0.36425
# Poissons Ratio (y) = 0.15004 0.50754
# Poissons Ratio (z) = 0.30526 0.29372
#
# Static dielectric constant tensor:
#      x y z
#    x 3.630930 0.000000 0.520870 
#    y 0.000000 3.481610 0.000000 
#    z 0.520870 0.000000 3.804750 
# 
# 
# High freq. dielectric constant tensor:
#      x y z
#    x 1.744560 0.000000 0.036400 
#    y 0.000000 1.751340 0.000000 
#    z 0.036400 0.000000 1.749060 
# 
# From -- ./inp_files/28644.got.cif
#   From: 2010.06.25/outbox.cif.g09.slc.cpg/sg11_15_cif.got.tgz:28644.got - 2010.06.27 23:14:04.
