data_PCOD8077900
_publ_section_title
;
Structure prediction by ZEFSAII (Michael W. Deem and Ramdas Pophale) SiO2 
 PCOD8077900
Probable space group: P 21/M
;
_chemical_formula_sum "Si O2"
_cell_formula_units_Z 16
_cell_length_a 9.711002
_cell_length_b 14.508035
_cell_length_c 4.861412
_cell_angle_alpha 90.000000
_cell_angle_beta 78.473780
_cell_angle_gamma 90.000000
_cell_volume 671.100081
_symmetry_space_group_name_H-M "P 21/M"
_symmetry_group_IT_number 11
_symmetry_cell_setting 'monoclinic'
loop_
_space_group_symop_operation_xyz
x,y,z
-x,1/2+y,-z
-x,-y,-z
x,1/2-y,z
loop_
_atom_site_type_symbol
_atom_site_label
_atom_site_fract_x
_atom_site_fract_y
_atom_site_fract_z
Si Si1 0.415379 0.750000 0.316926
Si Si2 0.596503 0.575857 0.107897
Si Si3 0.209035 0.750000 0.905035
Si Si4 0.220277 0.053683 0.447888
Si Si5 0.947380 0.419249 0.826688
O O1 0.512504 0.660175 0.271076
O O2 0.308482 0.750000 0.119117
O O3 0.314975 0.750000 0.615074
O O4 0.318635 0.469706 0.671569
O O5 0.500000 0.500000 0.000000
O O6 0.700524 0.611337 0.823699
O O7 0.108891 0.838871 0.955703
O O8 0.083562 0.112817 0.594621
O O9 0.173225 0.955348 0.334347
O O10 0.000000 0.500000 0.000000
#
# Coordination Sequence:
#
# PCOD8077900 Si02
#       5
#     2   4   2   4   4
#     4  12  30  48  73 111 152 200 259 301 379 455
#     4  12  26  46  75 107 153 201 242 311 373 447
#     4  12  30  48  75 109 154 194 255 317 375 447
#     4  11  25  46  76 107 148 191 255 297 380 444
#     4  11  26  48  78 113 149 198 247 317 379 444
#
# _framework density 23.841453000000001
#
# number of rings (size 3 to 8) (size 9 to 14) (size 15 to 20)
#    0.000    0.500    2.500    3.750   10.500    2.000 
#    0.000    1.250    0.000    0.000    0.000    0.000 
#    0.000    0.000    0.000    0.000    0.000    0.000 
#
# Total GULP energy -198371.033500 kJ/mol
# GULP energy per Si atom -12398.189594 kJ/mol
# Density = 2.378719 g / cm^3
# Si number density = 23.841453 Si / 1000 Ang^3
#
#
#
# Elastic Constant Matrix: (Units=GPa)
#
#
# Indices 1 2 3 4 5 6 
#
# 1 157.8390 75.1496 79.2411 0.0000 14.8149 0.0000
# 2 75.1496 144.0452 81.5487 0.0000 -17.0727 0.0000
# 3 79.2411 81.5487 253.3463 0.0000 -28.2164 0.0000
# 4 0.0000 0.0000 0.0000 36.5639 0.0000 -2.7003
# 5 14.8149 -17.0727 -28.2164 0.0000 66.7521 0.0000
# 6 0.0000 0.0000 0.0000 -2.7003 0.0000 27.4778
#
#
#
# Elastic Compliance Matrix: (Units=1/GPa)
#
#
# Indices 1 2 3 4 5 6 
#
# 1 0.009944 -0.004479 -0.002143 0.000000 -0.004258 0.000000
# 2 -0.004479 0.010580 -0.001671 0.000000 0.002994 0.000000
# 3 -0.002143 -0.001671 0.005416 0.000000 0.002337 0.000000
# 4 0.000000 0.000000 0.000000 0.027549 0.000000 0.002707
# 5 -0.004258 0.002994 0.002337 0.000000 0.017680 0.000000
# 6 0.000000 0.000000 0.000000 0.002707 0.000000 0.036659
#
#
# Mechanical properties :
#
#
# Convention : Reuss Voigt Hill
#
# Bulk Modulus (GPa) = 106.91585 114.12324 110.51954
# Shear Modulus (GPa) = 39.20619 47.44483 43.32551
#
# Velocity S-wave (km/s) = 4.05959 4.46580 4.26753
# Velocity P-wave (km/s) = 8.18019 8.63496 8.41065
#
# Compressibility (1/GPa) = 0.00935315
#
# Stress axis : x y z
#
# Youngs Moduli (GPa) = 100.56736 94.51718 184.65441
#
# Poissons Ratio (x) = 0.42338 0.39563
# Poissons Ratio (y) = 0.45048 0.30858
# Poissons Ratio (z) = 0.21547 0.15795
#
# Static dielectric constant tensor:
#      x y z
#    x 4.760680 0.000000 -0.380700 
#    y 0.000000 4.041590 0.000000 
#    z -0.380700 0.000000 5.186400 
# 
# 
# High freq. dielectric constant tensor:
#      x y z
#    x 1.969180 0.000000 -0.007100 
#    y 0.000000 1.902990 0.000000 
#    z -0.007100 0.000000 1.984340 
# 
# From -- ./inp_files/4106.got.cif
#   From: 2010.06.25/outbox.cif.g09.slc.cpg/sg11_3_cif.got.tgz:4106.got - 2010.06.27 23:14:04.
