data_PCOD8077315
_publ_section_title
;
Structure prediction by ZEFSAII (Michael W. Deem and Ramdas Pophale) SiO2 
 PCOD8077315
Probable space group: P 21/M
;
_chemical_formula_sum "Si O2"
_cell_formula_units_Z 32
_cell_length_a 12.062000
_cell_length_b 16.821722
_cell_length_c 15.532643
_cell_angle_alpha 90.000000
_cell_angle_beta 150.778013
_cell_angle_gamma 90.000000
_cell_volume 1538.608440
_symmetry_space_group_name_H-M "P 21/M"
_symmetry_group_IT_number 11
_symmetry_cell_setting 'monoclinic'
loop_
_space_group_symop_operation_xyz
x,y,z
-x,1/2+y,-z
-x,-y,-z
x,1/2-y,z
loop_
_atom_site_type_symbol
_atom_site_label
_atom_site_fract_x
_atom_site_fract_y
_atom_site_fract_z
Si Si1 0.073245 0.840166 0.339237
Si Si2 0.073315 0.987088 0.452603
Si Si3 0.382491 0.844404 0.386690
Si Si4 0.445378 0.160832 0.067552
Si Si5 0.128013 0.924404 0.056874
Si Si6 0.262930 0.591759 0.882890
Si Si7 0.886947 0.841173 0.753417
Si Si8 0.522467 0.002993 0.827680
O O1 0.132727 0.750000 0.407084
O O2 0.104746 0.895749 0.444160
O O3 0.239619 0.868995 0.374851
O O4 0.815494 0.846780 0.134529
O O5 0.321302 0.028260 0.625882
O O6 0.000000 0.000000 0.500000
O O7 0.895908 0.027307 0.269922
O O8 0.372084 0.750000 0.367224
O O9 0.273000 0.883825 0.228826
O O10 0.639283 0.880060 0.565777
O O11 0.490789 0.250000 0.135380
O O12 0.613272 0.149851 0.099987
O O13 0.491180 0.092871 0.169895
O O14 0.256635 0.962219 0.064214
O O15 0.955840 0.861261 0.898154
O O16 0.000000 0.000000 0.000000
O O17 0.089908 0.640784 0.824902
O O18 0.468622 0.545474 0.072065
O O19 0.833719 0.750000 0.712663
#
# Coordination Sequence:
#
# PCOD8077315 Si02
#       8
#     4   4   4   4   4   4   4   4
#     4  10  23  41  64  93 127 167 207 258 317 366
#     4  12  23  39  64  91 125 163 205 256 312 373
#     4  10  22  44  67  91 129 168 210 265 314 370
#     4  11  21  39  64  88 123 166 205 253 315 374
#     4  11  24  38  63  96 125 164 211 258 310 380
#     4  11  22  42  64  91 127 162 207 262 311 379
#     4  10  23  42  65  93 126 168 211 259 318 376
#     4  11  23  39  61  93 123 161 206 255 315 365
#
# _framework density 20.798013999999998
#
# number of rings (size 3 to 8) (size 9 to 14) (size 15 to 20)
#    0.000    1.250    2.500    3.375    3.500    1.000 
#    0.000    0.625    0.000    5.250    0.000    0.000 
#    0.000    0.000    0.000    0.000    0.000    0.000 
#
# Total GULP energy -396491.937835 kJ/mol
# GULP energy per Si atom -12390.373057 kJ/mol
# Density = 2.075068 g / cm^3
# Si number density = 20.798014 Si / 1000 Ang^3
#
#
#
# Elastic Constant Matrix: (Units=GPa)
#
#
# Indices 1 2 3 4 5 6 
#
# 1 88.3252 42.5236 37.3281 0.0000 -2.1382 0.0000
# 2 42.5236 83.0407 31.8322 0.0000 -6.1378 0.0000
# 3 37.3281 31.8322 108.0147 0.0000 7.7741 0.0000
# 4 0.0000 0.0000 0.0000 28.9640 0.0000 -6.7263
# 5 -2.1382 -6.1378 7.7741 0.0000 34.4029 0.0000
# 6 0.0000 0.0000 0.0000 -6.7263 0.0000 29.3775
#
#
#
# Elastic Compliance Matrix: (Units=1/GPa)
#
#
# Indices 1 2 3 4 5 6 
#
# 1 0.016158 -0.006846 -0.003609 0.000000 0.000598 0.000000
# 2 -0.006846 0.016875 -0.002839 0.000000 0.003227 0.000000
# 3 -0.003609 -0.002839 0.011583 0.000000 -0.003348 0.000000
# 4 0.000000 0.000000 0.000000 0.036465 0.000000 0.008349
# 5 0.000598 0.003227 -0.003348 0.000000 0.030437 0.000000
# 6 0.000000 0.000000 0.000000 0.008349 0.000000 0.035951
#
#
# Mechanical properties :
#
#
# Convention : Reuss Voigt Hill
#
# Bulk Modulus (GPa) = 55.47565 55.86093 55.66829
# Shear Modulus (GPa) = 27.76741 29.72865 28.74803
#
# Velocity S-wave (km/s) = 3.65786 3.78484 3.72189
# Velocity P-wave (km/s) = 6.67618 6.78359 6.73010
#
# Compressibility (1/GPa) = 0.01802593
#
# Stress axis : x y z
#
# Youngs Moduli (GPa) = 61.88983 59.25892 86.33283
#
# Poissons Ratio (x) = 0.40570 0.31160
# Poissons Ratio (y) = 0.42372 0.24513
# Poissons Ratio (z) = 0.22338 0.16826
#
# Static dielectric constant tensor:
#      x y z
#    x 3.799340 0.000000 0.513630 
#    y 0.000000 3.782300 0.000000 
#    z 0.513630 0.000000 4.085270 
# 
# 
# High freq. dielectric constant tensor:
#      x y z
#    x 1.820970 0.000000 0.011160 
#    y 0.000000 1.810470 0.000000 
#    z 0.011160 0.000000 1.828710 
# 
# From -- ./inp_files/50695.got.cif
#   From: 2010.06.25/outbox.cif.g09.slc.cpg/sg11_26_cif.got.tgz:50695.got - 2010.06.27 23:14:04.
