data_PCOD8077249
_publ_section_title
;
Structure prediction by ZEFSAII (Michael W. Deem and Ramdas Pophale) SiO2 
 PCOD8077249
Probable space group: P 21/M
;
_chemical_formula_sum "Si O2"
_cell_formula_units_Z 28
_cell_length_a 21.364889
_cell_length_b 12.827026
_cell_length_c 9.490091
_cell_angle_alpha 90.000000
_cell_angle_beta 27.907451
_cell_angle_gamma 90.000000
_cell_volume 1217.262830
_symmetry_space_group_name_H-M "P 21/M"
_symmetry_group_IT_number 11
_symmetry_cell_setting 'monoclinic'
loop_
_space_group_symop_operation_xyz
x,y,z
-x,1/2+y,-z
-x,-y,-z
x,1/2-y,z
loop_
_atom_site_type_symbol
_atom_site_label
_atom_site_fract_x
_atom_site_fract_y
_atom_site_fract_z
Si Si1 0.384548 0.873320 0.555352
Si Si2 0.620313 0.127033 0.751870
Si Si3 0.874218 0.133629 0.758967
Si Si4 0.866702 0.569887 0.613661
Si Si5 0.384406 0.370360 0.709398
Si Si6 0.641079 0.626647 0.553904
Si Si7 0.846474 0.523752 0.343047
O O1 0.404878 0.750000 0.498816
O O2 0.393046 0.920412 0.380260
O O3 0.497005 0.921798 0.434569
O O4 0.245003 0.902637 0.903420
O O5 0.638473 0.250000 0.716766
O O6 0.756557 0.079944 0.545983
O O7 0.488254 0.092135 0.098661
O O8 0.851169 0.250000 0.743516
O O9 0.002925 0.133244 0.601859
O O10 0.886229 0.053725 0.605175
O O11 0.841929 0.587896 0.497876
O O12 0.749797 0.619802 0.936222
O O13 0.419541 0.250000 0.613966
O O14 0.370268 0.423517 0.581863
O O15 0.647846 0.750000 0.526011
O O16 0.778488 0.592141 0.355622
O O17 0.000000 0.500000 0.000000
#
# Coordination Sequence:
#
# PCOD8077249 Si02
#       7
#     4   4   4   4   4   4   4
#     4   9  19  38  66  94 123 165 212 261 314 373
#     4  10  22  43  68  96 131 173 217 266 327 390
#     4  10  23  42  65  93 127 163 214 267 315 380
#     4  11  25  41  65  95 124 174 212 261 326 380
#     4  10  22  41  68  98 128 166 215 270 320 378
#     4  10  24  44  67  95 132 172 216 271 327 384
#     4  12  27  43  64  97 136 173 218 267 324 395
#
# _framework density 23.002427000000001
#
# number of rings (size 3 to 8) (size 9 to 14) (size 15 to 20)
#    0.000    1.714    0.000    2.571    8.000    4.000 
#    0.000    0.000    0.000    0.000    0.000    0.000 
#    0.000    0.000    0.000    0.000    0.000    0.000 
#
# Total GULP energy -347316.927419 kJ/mol
# GULP energy per Si atom -12404.175979 kJ/mol
# Density = 2.295007 g / cm^3
# Si number density = 23.002427 Si / 1000 Ang^3
#
#
#
# Elastic Constant Matrix: (Units=GPa)
#
#
# Indices 1 2 3 4 5 6 
#
# 1 161.3805 8.4221 73.5958 0.0000 -6.3225 0.0000
# 2 8.4221 40.7761 8.7460 0.0000 -2.3441 0.0000
# 3 73.5958 8.7460 177.4750 0.0000 -20.2243 0.0000
# 4 0.0000 0.0000 0.0000 40.8401 0.0000 -1.2734
# 5 -6.3225 -2.3441 -20.2243 0.0000 48.4782 0.0000
# 6 0.0000 0.0000 0.0000 -1.2734 0.0000 34.8016
#
#
#
# Elastic Compliance Matrix: (Units=1/GPa)
#
#
# Indices 1 2 3 4 5 6 
#
# 1 0.007681 -0.000925 -0.003182 0.000000 -0.000370 0.000000
# 2 -0.000925 0.024922 -0.000757 0.000000 0.000769 0.000000
# 3 -0.003182 -0.000757 0.007286 0.000000 0.002588 0.000000
# 4 0.000000 0.000000 0.000000 0.024514 0.000000 0.000897
# 5 -0.000370 0.000769 0.002588 0.000000 0.021696 0.000000
# 6 0.000000 0.000000 0.000000 0.000897 0.000000 0.028767
#
#
# Mechanical properties :
#
#
# Convention : Reuss Voigt Hill
#
# Bulk Modulus (GPa) = 33.15507 62.35102 47.75305
# Shear Modulus (GPa) = 37.13360 44.08181 40.60770
#
# Velocity S-wave (km/s) = 4.02224 4.38242 4.20618
# Velocity P-wave (km/s) = 6.00135 7.26447 6.66291
#
# Compressibility (1/GPa) = 0.03016130
#
# Stress axis : x y z
#
# Youngs Moduli (GPa) = 130.18430 40.12547 137.24322
#
# Poissons Ratio (x) = 0.03713 0.43670
# Poissons Ratio (y) = 0.12047 0.10387
# Poissons Ratio (z) = 0.41424 0.03037
#
# Static dielectric constant tensor:
#      x y z
#    x 4.212210 0.000000 0.164720 
#    y 0.000000 4.133150 0.000000 
#    z 0.164720 0.000000 3.977960 
# 
# 
# High freq. dielectric constant tensor:
#      x y z
#    x 1.915760 0.000000 -0.000180 
#    y 0.000000 1.935930 0.000000 
#    z -0.000180 0.000000 1.909740 
# 
# From -- ./inp_files/26917.got.cif
#   From: 2010.06.25/outbox.cif.g09.slc.cpg/sg11_14_cif.got.tgz:26917.got - 2010.06.27 23:14:04.
