data_PCOD8077149
_publ_section_title
;
Structure prediction by ZEFSAII (Michael W. Deem and Ramdas Pophale) SiO2 
 PCOD8077149
Probable space group: P 21/M
;
_chemical_formula_sum "Si O2"
_cell_formula_units_Z 28
_cell_length_a 20.982350
_cell_length_b 8.456518
_cell_length_c 14.491561
_cell_angle_alpha 90.000000
_cell_angle_beta 29.404995
_cell_angle_gamma 90.000000
_cell_volume 1262.479728
_symmetry_space_group_name_H-M "P 21/M"
_symmetry_group_IT_number 11
_symmetry_cell_setting 'monoclinic'
loop_
_space_group_symop_operation_xyz
x,y,z
-x,1/2+y,-z
-x,-y,-z
x,1/2-y,z
loop_
_atom_site_type_symbol
_atom_site_label
_atom_site_fract_x
_atom_site_fract_y
_atom_site_fract_z
Si Si1 0.971306 0.567071 0.762114
Si Si2 0.625295 0.930341 0.939786
Si Si3 0.433210 0.071870 0.321583
Si Si4 0.396610 0.567401 0.557375
Si Si5 0.894252 0.563958 0.061796
Si Si6 0.755221 0.568114 0.593998
Si Si7 0.874373 0.065687 0.707402
O O1 0.934876 0.750000 0.795250
O O2 0.122496 0.544936 0.546812
O O3 0.884241 0.459801 0.804951
O O4 0.941059 0.506686 0.902724
O O5 0.576972 0.750000 0.010832
O O6 0.641080 0.979553 0.811403
O O7 0.765243 0.950310 0.807773
O O8 0.533256 0.045745 0.112618
O O9 0.448644 0.250000 0.339115
O O10 0.293187 0.046647 0.450172
O O11 0.453916 0.956574 0.382056
O O12 0.500000 0.500000 0.500000
O O13 0.381093 0.750000 0.598796
O O14 0.254094 0.490506 0.737464
O O15 0.894957 0.750000 0.070374
O O16 0.000000 0.500000 0.000000
O O17 0.795816 0.750000 0.562085
O O18 0.849042 0.250000 0.717311
O O19 0.000000 0.000000 0.500000
#
# Coordination Sequence:
#
# PCOD8077149 Si02
#       7
#     4   4   4   4   4   4   4
#     4  11  24  40  65  96 130 170 215 266 325 390
#     4  11  23  40  63  94 131 173 218 264 318 384
#     4  11  24  43  67  96 130 172 218 267 327 392
#     4  12  27  48  72  99 134 178 228 287 347 407
#     4  11  25  46  72 104 138 176 226 282 342 407
#     4  10  22  40  64  95 133 173 214 262 318 384
#     4  12  24  40  62  91 128 170 216 267 323 386
#
# _framework density 22.178574999999999
#
# number of rings (size 3 to 8) (size 9 to 14) (size 15 to 20)
#    0.000    0.857    1.429    5.571    2.000    6.286 
#    0.000    0.000    0.000    0.000    0.000    0.000 
#    0.000    0.000    0.000    0.000    0.000    0.000 
#
# Total GULP energy -347208.388437 kJ/mol
# GULP energy per Si atom -12400.299587 kJ/mol
# Density = 2.212810 g / cm^3
# Si number density = 22.178575 Si / 1000 Ang^3
#
#
#
# Elastic Constant Matrix: (Units=GPa)
#
#
# Indices 1 2 3 4 5 6 
#
# 1 137.3833 25.9405 27.7452 0.0000 15.1496 0.0000
# 2 25.9405 66.2806 2.5910 0.0000 10.2349 0.0000
# 3 27.7452 2.5910 80.7589 0.0000 8.8678 0.0000
# 4 0.0000 0.0000 0.0000 36.7410 0.0000 2.2061
# 5 15.1496 10.2349 8.8678 0.0000 37.5292 0.0000
# 6 0.0000 0.0000 0.0000 2.2061 0.0000 35.4264
#
#
#
# Elastic Compliance Matrix: (Units=1/GPa)
#
#
# Indices 1 2 3 4 5 6 
#
# 1 0.008592 -0.002944 -0.002633 0.000000 -0.002043 0.000000
# 2 -0.002944 0.016760 0.000868 0.000000 -0.003587 0.000000
# 3 -0.002633 0.000868 0.013519 0.000000 -0.002368 0.000000
# 4 0.000000 0.000000 0.000000 0.027320 0.000000 -0.001701
# 5 -0.002043 -0.003587 -0.002368 0.000000 0.029009 0.000000
# 6 0.000000 0.000000 0.000000 -0.001701 0.000000 0.028333
#
#
# Mechanical properties :
#
#
# Convention : Reuss Voigt Hill
#
# Bulk Modulus (GPa) = 33.95364 44.10846 39.03105
# Shear Modulus (GPa) = 35.02162 37.14905 36.08533
#
# Velocity S-wave (km/s) = 3.97807 4.09711 4.03803
# Velocity P-wave (km/s) = 6.03676 6.50483 6.27516
#
# Compressibility (1/GPa) = 0.02945192
#
# Stress axis : x y z
#
# Youngs Moduli (GPa) = 116.38902 59.66706 73.96822
#
# Poissons Ratio (x) = 0.17567 0.19476
# Poissons Ratio (y) = 0.34267 -0.06418
# Poissons Ratio (z) = 0.30645 -0.05177
#
# Static dielectric constant tensor:
#      x y z
#    x 4.732160 0.000000 -0.103350 
#    y 0.000000 4.368550 0.000000 
#    z -0.103350 0.000000 4.120490 
# 
# 
# High freq. dielectric constant tensor:
#      x y z
#    x 1.894280 0.000000 0.003610 
#    y 0.000000 1.873070 0.000000 
#    z 0.003610 0.000000 1.872870 
# 
# From -- ./inp_files/54495.got.cif
#   From: 2010.06.25/outbox.cif.g09.slc.cpg/sg11_28_cif.got.tgz:54495.got - 2010.06.27 23:14:04.
