data_PCOD8077426
_publ_section_title
;
Structure prediction by ZEFSAII (Michael W. Deem and Ramdas Pophale) SiO2 
 PCOD8077426
Probable space group: P 21/M
;
_chemical_formula_sum "Si O2"
_cell_formula_units_Z 20
_cell_length_a 9.538344
_cell_length_b 8.697829
_cell_length_c 11.852500
_cell_angle_alpha 90.000000
_cell_angle_beta 76.520688
_cell_angle_gamma 90.000000
_cell_volume 956.231274
_symmetry_space_group_name_H-M "P 21/M"
_symmetry_group_IT_number 11
_symmetry_cell_setting 'monoclinic'
loop_
_space_group_symop_operation_xyz
x,y,z
-x,1/2+y,-z
-x,-y,-z
x,1/2-y,z
loop_
_atom_site_type_symbol
_atom_site_label
_atom_site_fract_x
_atom_site_fract_y
_atom_site_fract_z
Si Si1 0.096497 0.426593 0.678719
Si Si2 0.640841 0.930270 0.531414
Si Si3 0.131887 0.930163 0.908380
Si Si4 0.770542 0.071985 0.722375
Si Si5 0.343429 0.431652 0.031024
O O1 0.114384 0.250000 0.715000
O O2 0.216099 0.472234 0.565084
O O3 0.118616 0.539543 0.778823
O O4 0.937614 0.452294 0.655580
O O5 0.617328 0.750000 0.546959
O O6 0.500000 0.000000 0.500000
O O7 0.662477 0.999064 0.651679
O O8 0.139808 0.750000 0.930272
O O9 0.274549 0.012568 0.926982
O O10 0.000000 0.000000 0.000000
O O11 0.730783 0.250000 0.741413
O O12 0.748954 0.992239 0.846640
O O13 0.348629 0.250000 0.034985
O O14 0.500000 0.500000 0.000000
#
# Coordination Sequence:
#
# PCOD8077426 Si02
#       5
#     4   4   4   4   4
#     4  10  23  43  68  95 129 172 220 268 322 387
#     4  11  25  44  66  95 131 171 218 271 328 389
#     4  12  24  41  67  99 134 172 218 268 323 387
#     4  11  23  43  69  96 129 170 219 271 326 388
#     4  12  26  44  67  97 134 175 218 268 328 390
#
# _framework density 20.915441000000001
#
# number of rings (size 3 to 8) (size 9 to 14) (size 15 to 20)
#    0.000    0.800    2.000    5.400    2.800    2.400 
#    0.000    0.000    0.000    0.000    0.000    0.000 
#    0.000    0.000    0.000    0.000    0.000    0.000 
#
# Total GULP energy -248124.845133 kJ/mol
# GULP energy per Si atom -12406.242257 kJ/mol
# Density = 2.086784 g / cm^3
# Si number density = 20.915441 Si / 1000 Ang^3
#
#
#
# Elastic Constant Matrix: (Units=GPa)
#
#
# Indices 1 2 3 4 5 6 
#
# 1 127.3072 50.5659 18.3876 0.0000 13.0274 0.0000
# 2 50.5659 156.3360 39.4081 0.0000 5.1222 0.0000
# 3 18.3876 39.4081 66.8179 0.0000 14.2527 0.0000
# 4 0.0000 0.0000 0.0000 39.4249 0.0000 4.2622
# 5 13.0274 5.1222 14.2527 0.0000 42.3291 0.0000
# 6 0.0000 0.0000 0.0000 4.2622 0.0000 38.1387
#
#
#
# Elastic Compliance Matrix: (Units=1/GPa)
#
#
# Indices 1 2 3 4 5 6 
#
# 1 0.009277 -0.002827 -0.000376 0.000000 -0.002386 0.000000
# 2 -0.002827 0.008391 -0.004460 0.000000 0.001357 0.000000
# 3 -0.000376 -0.004460 0.018919 0.000000 -0.005715 0.000000
# 4 0.000000 0.000000 0.000000 0.025675 0.000000 -0.002869
# 5 -0.002386 0.001357 -0.005715 0.000000 0.026119 0.000000
# 6 0.000000 0.000000 0.000000 -0.002869 0.000000 0.026541
#
#
# Mechanical properties :
#
#
# Convention : Reuss Voigt Hill
#
# Bulk Modulus (GPa) = 47.03901 63.02047 55.02974
# Shear Modulus (GPa) = 36.40742 40.11851 38.26296
#
# Velocity S-wave (km/s) = 4.17669 4.38440 4.28180
# Velocity P-wave (km/s) = 6.76746 7.47175 7.12831
#
# Compressibility (1/GPa) = 0.02125895
#
# Stress axis : x y z
#
# Youngs Moduli (GPa) = 107.79836 119.17817 52.85686
#
# Poissons Ratio (x) = 0.33697 0.01989
# Poissons Ratio (y) = 0.30479 0.23574
# Poissons Ratio (z) = 0.04056 0.53154
#
# Static dielectric constant tensor:
#      x y z
#    x 4.064520 0.000000 0.284570 
#    y 0.000000 3.892020 0.000000 
#    z 0.284570 0.000000 4.472880 
# 
# 
# High freq. dielectric constant tensor:
#      x y z
#    x 1.836220 0.000000 0.004450 
#    y 0.000000 1.832220 0.000000 
#    z 0.004450 0.000000 1.820190 
# 
# From -- ./inp_files/15929.got.cif
#   From: 2010.06.25/outbox.cif.g09.slc.cpg/sg11_8_cif.got.tgz:15929.got - 2010.06.27 23:14:04.
