data_PCOD8077150
_publ_section_title
;
Structure prediction by ZEFSAII (Michael W. Deem and Ramdas Pophale) SiO2 
 PCOD8077150
Probable space group: P 21/M
;
_chemical_formula_sum "Si O2"
_cell_formula_units_Z 24
_cell_length_a 18.433335
_cell_length_b 14.903805
_cell_length_c 11.123503
_cell_angle_alpha 90.000000
_cell_angle_beta 23.005528
_cell_angle_gamma 90.000000
_cell_volume 1194.316312
_symmetry_space_group_name_H-M "P 21/M"
_symmetry_group_IT_number 11
_symmetry_cell_setting 'monoclinic'
loop_
_space_group_symop_operation_xyz
x,y,z
-x,1/2+y,-z
-x,-y,-z
x,1/2-y,z
loop_
_atom_site_type_symbol
_atom_site_label
_atom_site_fract_x
_atom_site_fract_y
_atom_site_fract_z
Si Si1 0.535136 0.396386 0.809613
Si Si2 0.328406 0.750000 0.785468
Si Si3 0.201865 0.396173 0.140542
Si Si4 0.200395 0.897555 0.146057
Si Si5 0.539254 0.604455 0.801920
Si Si6 0.737566 0.750000 0.147352
Si Si7 0.236457 0.750000 0.659838
Si Si8 0.182007 0.250000 0.715670
O O1 0.591522 0.500028 0.709872
O O2 0.708783 0.338563 0.498520
O O3 0.351269 0.371985 0.014555
O O4 0.493934 0.369868 0.009377
O O5 0.536976 0.750000 0.516912
O O6 0.350903 0.750000 0.608535
O O7 0.226431 0.839137 0.987063
O O8 0.215544 0.499770 0.082258
O O9 0.999425 0.372739 0.497533
O O10 0.234698 0.339685 0.971068
O O11 0.351695 0.872598 0.016050
O O12 0.710375 0.660864 0.489495
O O13 0.867422 0.750000 0.066440
O O14 0.023052 0.750000 0.027766
#
# Coordination Sequence:
#
# PCOD8077150 Si02
#       8
#     4   2   4   4   4   2   2   2
#     4  10  22  42  64  87 119 158 200 244 291 350
#     4  12  23  40  60  88 123 158 194 246 300 350
#     4  10  22  40  65  91 116 155 201 244 293 351
#     4  10  22  40  65  91 116 155 201 244 293 351
#     4  10  22  42  64  87 119 158 200 244 291 350
#     4  12  23  40  60  88 123 158 194 246 300 350
#     4  12  27  40  58  90 123 160 198 241 300 354
#     4  12  27  40  58  90 123 160 198 241 300 354
#
# _framework density 20.095179000000002
#
# number of rings (size 3 to 8) (size 9 to 14) (size 15 to 20)
#    0.000    1.333    3.333    1.000    4.667    2.667 
#    0.000    0.000    0.000    0.000    0.000    0.000 
#    0.000    0.000    0.000    0.000    0.000    0.000 
#
# Total GULP energy -297707.129147 kJ/mol
# GULP energy per Si atom -12404.463714 kJ/mol
# Density = 2.004944 g / cm^3
# Si number density = 20.095179 Si / 1000 Ang^3
#
#
#
# Elastic Constant Matrix: (Units=GPa)
#
#
# Indices 1 2 3 4 5 6 
#
# 1 86.8140 38.7643 31.5970 0.0000 19.5379 0.0000
# 2 38.7643 112.0892 65.2389 0.0000 14.4419 0.0000
# 3 31.5970 65.2389 127.7111 0.0000 -2.6245 0.0000
# 4 0.0000 0.0000 0.0000 29.6497 0.0000 -2.2989
# 5 19.5379 14.4419 -2.6245 0.0000 39.5381 0.0000
# 6 0.0000 0.0000 0.0000 -2.2989 0.0000 16.6493
#
#
#
# Elastic Compliance Matrix: (Units=1/GPa)
#
#
# Indices 1 2 3 4 5 6 
#
# 1 0.015209 -0.003055 -0.002337 0.000000 -0.006555 0.000000
# 2 -0.003055 0.014415 -0.006694 0.000000 -0.004200 0.000000
# 3 -0.002337 -0.006694 0.011918 0.000000 0.004391 0.000000
# 4 0.000000 0.000000 0.000000 0.034092 0.000000 0.004707
# 5 -0.006555 -0.004200 0.004391 0.000000 0.030357 0.000000
# 6 0.000000 0.000000 0.000000 0.004707 0.000000 0.060713
#
#
# Mechanical properties :
#
#
# Convention : Reuss Voigt Hill
#
# Bulk Modulus (GPa) = 57.57085 66.42384 61.99735
# Shear Modulus (GPa) = 25.42378 29.90170 27.66274
#
# Velocity S-wave (km/s) = 3.56078 3.86165 3.71426
# Velocity P-wave (km/s) = 6.75402 7.28076 7.02233
#
# Compressibility (1/GPa) = 0.01736990
#
# Stress axis : x y z
#
# Youngs Moduli (GPa) = 65.75185 69.37006 83.90497
#
# Poissons Ratio (x) = 0.21193 0.19607
# Poissons Ratio (y) = 0.20088 0.56169
# Poissons Ratio (z) = 0.15365 0.46439
#
# Static dielectric constant tensor:
#      x y z
#    x 3.655920 0.000000 -0.062330 
#    y 0.000000 3.722500 0.000000 
#    z -0.062330 0.000000 3.560330 
# 
# 
# High freq. dielectric constant tensor:
#      x y z
#    x 1.789740 0.000000 0.000080 
#    y 0.000000 1.797230 0.000000 
#    z 0.000080 0.000000 1.785760 
# 
# From -- ./inp_files/24901.got.cif
#   From: 2010.06.25/outbox.cif.g09.slc.cpg/sg11_13_cif.got.tgz:24901.got - 2010.06.27 23:14:04.
