data_PCOD8077293
_publ_section_title
;
Structure prediction by ZEFSAII (Michael W. Deem and Ramdas Pophale) SiO2 
 PCOD8077293
Probable space group: P 21/M
;
_chemical_formula_sum "Si O2"
_cell_formula_units_Z 24
_cell_length_a 17.667449
_cell_length_b 10.707508
_cell_length_c 11.857306
_cell_angle_alpha 90.000000
_cell_angle_beta 147.217938
_cell_angle_gamma 90.000000
_cell_volume 1214.514339
_symmetry_space_group_name_H-M "P 21/M"
_symmetry_group_IT_number 11
_symmetry_cell_setting 'monoclinic'
loop_
_space_group_symop_operation_xyz
x,y,z
-x,1/2+y,-z
-x,-y,-z
x,1/2-y,z
loop_
_atom_site_type_symbol
_atom_site_label
_atom_site_fract_x
_atom_site_fract_y
_atom_site_fract_z
Si Si1 0.835068 0.750000 0.459565
Si Si2 0.450440 0.386382 0.267789
Si Si3 0.859616 0.250000 0.231735
Si Si4 0.246168 0.607640 0.315733
Si Si5 0.185839 0.961734 0.995654
Si Si6 0.742047 0.250000 0.333496
Si Si7 0.879646 0.015568 0.626464
Si Si8 0.437174 0.250000 0.033497
O O1 0.836353 0.624908 0.536750
O O2 0.971590 0.750000 0.550157
O O3 0.698496 0.750000 0.213006
O O4 0.452658 0.250000 0.328289
O O5 0.597644 0.452377 0.482869
O O6 0.321310 0.453855 0.162387
O O7 0.435167 0.372958 0.112090
O O8 0.793178 0.250000 0.270335
O O9 0.803061 0.369233 0.094881
O O10 0.252737 0.750000 0.370152
O O11 0.183078 0.609061 0.111651
O O12 0.147934 0.526702 0.274517
O O13 0.043166 0.040747 0.806555
O O14 0.794007 0.122369 0.455271
O O15 0.573905 0.250000 0.126264
#
# Coordination Sequence:
#
# PCOD8077293 Si02
#       8
#     2   4   2   4   4   2   4   2
#     4  10  26  42  60  92 138 160 208 268 307 364
#     4   9  21  37  63  92 122 165 210 252 313 370
#     4  10  26  40  61  97 123 168 205 261 313 367
#     4  11  20  44  66  89 128 165 208 264 310 373
#     4  11  23  40  64  92 130 161 207 259 320 364
#     4  12  24  41  70  90 126 168 218 251 309 387
#     4  11  24  43  64  97 125 168 210 258 314 372
#     4  10  22  43  63  89 131 168 203 264 317 360
#
# _framework density 19.760985000000002
#
# number of rings (size 3 to 8) (size 9 to 14) (size 15 to 20)
#    0.500    1.000    3.333    1.000    5.833    3.333 
#    1.500    0.000    0.000    0.000    0.000    0.000 
#    0.000    0.000    0.000    0.000    0.000    0.000 
#
# Total GULP energy -297528.497539 kJ/mol
# GULP energy per Si atom -12397.020731 kJ/mol
# Density = 1.971601 g / cm^3
# Si number density = 19.760985 Si / 1000 Ang^3
#
#
#
# Elastic Constant Matrix: (Units=GPa)
#
#
# Indices 1 2 3 4 5 6 
#
# 1 118.5352 39.9951 31.9118 0.0000 -7.8381 0.0000
# 2 39.9951 83.0883 18.4454 0.0000 1.0305 0.0000
# 3 31.9118 18.4454 80.9239 0.0000 -0.6853 0.0000
# 4 0.0000 0.0000 0.0000 11.9244 0.0000 -9.6558
# 5 -7.8381 1.0305 -0.6853 0.0000 31.1672 0.0000
# 6 0.0000 0.0000 0.0000 -9.6558 0.0000 8.1612
#
#
#
# Elastic Compliance Matrix: (Units=1/GPa)
#
#
# Indices 1 2 3 4 5 6 
#
# 1 0.011075 -0.004637 -0.003286 0.000000 0.002866 0.000000
# 2 -0.004637 0.014626 -0.001519 0.000000 -0.001683 0.000000
# 3 -0.003286 -0.001519 0.013996 0.000000 -0.000468 0.000000
# 4 0.000000 0.000000 0.000000 1.998375 0.000000 2.364336
# 5 0.002866 -0.001683 -0.000468 0.000000 0.032851 0.000000
# 6 0.000000 0.000000 0.000000 2.364336 0.000000 2.919847
#
#
# Mechanical properties :
#
#
# Convention : Reuss Voigt Hill
#
# Bulk Modulus (GPa) = 48.05137 51.47244 49.76191
# Shear Modulus (GPa) = 0.99669 23.06356 12.03013
#
# Velocity S-wave (km/s) = 0.71096 3.42003 2.47003
# Velocity P-wave (km/s) = 5.00430 6.45752 5.77679
#
# Compressibility (1/GPa) = 0.02081106
#
# Stress axis : x y z
#
# Youngs Moduli (GPa) = 90.29212 68.37289 71.45152
#
# Poissons Ratio (x) = 0.31705 0.23480
# Poissons Ratio (y) = 0.41870 0.10856
# Poissons Ratio (z) = 0.29672 0.10388
#
# Static dielectric constant tensor:
#      x y z
#    x 3.568860 0.000000 0.071120 
#    y 0.000000 3.441050 0.000000 
#    z 0.071120 0.000000 3.605110 
# 
# 
# High freq. dielectric constant tensor:
#      x y z
#    x 1.774890 0.000000 0.007100 
#    y 0.000000 1.754330 0.000000 
#    z 0.007100 0.000000 1.781320 
# 
# From -- ./inp_files/41398.got.cif
#   From: 2010.06.25/outbox.cif.g09.slc.cpg/sg11_21_cif.got.tgz:41398.got - 2010.06.27 23:14:04.
