data_PCOD8077193
_publ_section_title
;
Structure prediction by ZEFSAII (Michael W. Deem and Ramdas Pophale) SiO2 
 PCOD8077193
Probable space group: P 21/M
;
_chemical_formula_sum "Si O2"
_cell_formula_units_Z 28
_cell_length_a 5.288266
_cell_length_b 15.113985
_cell_length_c 17.817810
_cell_angle_alpha 90.000000
_cell_angle_beta 59.065884
_cell_angle_gamma 90.000000
_cell_volume 1221.551755
_symmetry_space_group_name_H-M "P 21/M"
_symmetry_group_IT_number 11
_symmetry_cell_setting 'monoclinic'
loop_
_space_group_symop_operation_xyz
x,y,z
-x,1/2+y,-z
-x,-y,-z
x,1/2-y,z
loop_
_atom_site_type_symbol
_atom_site_label
_atom_site_fract_x
_atom_site_fract_y
_atom_site_fract_z
Si Si1 0.319586 0.501257 0.603225
Si Si2 0.331260 0.072748 0.320929
Si Si3 0.373008 0.250000 0.228527
Si Si4 0.452749 0.095084 0.041341
Si Si5 0.458043 0.975569 0.167653
Si Si6 0.901477 0.852145 0.260364
Si Si7 0.063950 0.250000 0.113167
Si Si8 0.094250 0.345435 0.914510
O O1 0.500000 0.500000 0.500000
O O2 0.501042 0.572769 0.625353
O O3 0.994070 0.531227 0.630104
O O4 0.311424 0.406859 0.649685
O O5 0.295729 0.169833 0.294364
O O6 0.543047 0.010509 0.237068
O O7 0.182310 0.250000 0.180964
O O8 0.717724 0.250000 0.154700
O O9 0.186916 0.159668 0.054142
O O10 0.373355 0.068408 0.139428
O O11 0.750010 0.149274 0.983298
O O12 0.500000 0.000000 0.000000
O O13 0.212346 0.901173 0.211230
O O14 0.723766 0.928478 0.079175
O O15 0.927722 0.750000 0.285231
O O16 0.802652 0.850843 0.188610
O O17 0.195281 0.250000 0.931220
#
# Coordination Sequence:
#
# PCOD8077193 Si02
#       8
#     4   4   2   4   4   4   2   4
#     4  11  24  47  75 103 142 174 223 287 356 425
#     4  11  24  44  73 103 134 184 227 276 351 426
#     4  12  26  46  74 100 144 184 242 288 348 426
#     4  12  25  42  62  95 135 186 241 298 350 411
#     4  11  22  39  67  88 132 178 231 281 349 408
#     4  10  22  41  63  95 128 173 223 272 340 413
#     4  12  28  46  66 104 142 188 242 304 352 408
#     4  11  22  39  60  90 129 171 233 285 343 406
#
# _framework density 22.921666999999999
#
# number of rings (size 3 to 8) (size 9 to 14) (size 15 to 20)
#    0.000    0.857    5.000    2.143    4.000    1.143 
#    3.857    0.000    0.000    0.000    0.000    0.000 
#    0.000    0.000    0.000    0.000    0.000    0.000 
#
# Total GULP energy -346884.383426 kJ/mol
# GULP energy per Si atom -12388.727980 kJ/mol
# Density = 2.286950 g / cm^3
# Si number density = 22.921667 Si / 1000 Ang^3
#
#
#
# Elastic Constant Matrix: (Units=GPa)
#
#
# Indices 1 2 3 4 5 6 
#
# 1 54.8316 -0.8981 4.0088 0.0000 -4.4393 0.0000
# 2 -0.8981 116.1664 49.7321 0.0000 -9.4021 0.0000
# 3 4.0088 49.7321 88.9033 0.0000 -6.9586 0.0000
# 4 0.0000 0.0000 0.0000 12.6363 0.0000 16.2101
# 5 -4.4393 -9.4021 -6.9586 0.0000 29.6424 0.0000
# 6 0.0000 0.0000 0.0000 16.2101 0.0000 22.2428
#
#
#
# Elastic Compliance Matrix: (Units=1/GPa)
#
#
# Indices 1 2 3 4 5 6 
#
# 1 0.018556 0.000834 -0.001085 0.000000 0.002789 0.000000
# 2 0.000834 0.011492 -0.006286 0.000000 0.002294 0.000000
# 3 -0.001085 -0.006286 0.014919 0.000000 0.001346 0.000000
# 4 0.000000 0.000000 0.000000 1.215517 0.000000 -0.885847
# 5 0.002789 0.002294 0.001346 0.000000 0.035197 0.000000
# 6 0.000000 0.000000 0.000000 -0.885847 0.000000 0.690547
#
#
# Mechanical properties :
#
#
# Convention : Reuss Voigt Hill
#
# Bulk Modulus (GPa) = 31.35589 40.62077 35.98833
# Shear Modulus (GPa) = 2.48764 26.70820 14.59792
#
# Velocity S-wave (km/s) = 1.04290 3.41720 2.52635
# Velocity P-wave (km/s) = 3.89352 5.77319 4.92388
#
# Compressibility (1/GPa) = 0.03189193
#
# Stress axis : x y z
#
# Youngs Moduli (GPa) = 53.88977 87.01879 67.02839
#
# Poissons Ratio (x) = -0.07254 0.07271
# Poissons Ratio (y) = -0.04492 0.42137
# Poissons Ratio (z) = 0.05846 0.54704
#
# Static dielectric constant tensor:
#      x y z
#    x 4.077170 0.000000 0.178430 
#    y 0.000000 4.424090 0.000000 
#    z 0.178430 0.000000 4.089990 
# 
# 
# High freq. dielectric constant tensor:
#      x y z
#    x 1.902780 0.000000 0.014630 
#    y 0.000000 1.929730 0.000000 
#    z 0.014630 0.000000 1.896000 
# 
# From -- ./inp_files/57014.got.cif
#   From: 2010.06.25/outbox.cif.g09.slc.cpg/sg11_29_cif.got.tgz:57014.got - 2010.06.27 23:14:04.
