data_PCOD8077439
_publ_section_title
;
Structure prediction by ZEFSAII (Michael W. Deem and Ramdas Pophale) SiO2 
 PCOD8077439
Probable space group: P 21/M
;
_chemical_formula_sum "Si O2"
_cell_formula_units_Z 22
_cell_length_a 8.039703
_cell_length_b 23.136217
_cell_length_c 5.274968
_cell_angle_alpha 90.000000
_cell_angle_beta 82.258584
_cell_angle_gamma 90.000000
_cell_volume 972.245441
_symmetry_space_group_name_H-M "P 21/M"
_symmetry_group_IT_number 11
_symmetry_cell_setting 'monoclinic'
loop_
_space_group_symop_operation_xyz
x,y,z
-x,1/2+y,-z
-x,-y,-z
x,1/2-y,z
loop_
_atom_site_type_symbol
_atom_site_label
_atom_site_fract_x
_atom_site_fract_y
_atom_site_fract_z
Si Si1 0.543873 0.035185 0.241209
Si Si2 0.553881 0.347192 0.417794
Si Si3 0.922194 0.438216 0.060126
Si Si4 0.991523 0.250000 0.673130
Si Si5 0.347730 0.750000 0.947042
Si Si6 0.096823 0.871154 0.453652
Si Si7 0.639222 0.750000 0.268286
O O1 0.459814 0.099022 0.295163
O O2 0.735306 0.050014 0.180497
O O3 0.500000 0.000000 0.500000
O O4 0.500000 0.000000 0.000000
O O5 0.665883 0.308702 0.206828
O O6 0.697691 0.369529 0.584293
O O7 0.409977 0.308271 0.571624
O O8 0.992504 0.405567 0.295618
O O9 0.950454 0.400128 0.804458
O O10 0.000000 0.500000 0.000000
O O11 0.988050 0.307853 0.506327
O O12 0.159700 0.250000 0.814920
O O13 0.814018 0.250000 0.848914
O O14 0.532856 0.750000 0.034121
#
# Coordination Sequence:
#
# PCOD8077439 Si02
#       7
#     4   4   4   2   2   4   2
#     4  11  24  40  68  97 132 180 226 280 341 408
#     4  10  23  45  66  94 141 187 225 280 363 407
#     4  11  25  45  70  98 140 185 238 285 348 408
#     4  12  23  42  72 105 134 178 238 280 360 402
#     4  11  22  47  70  95 146 185 222 292 346 425
#     4  11  23  44  72  98 137 194 225 286 357 425
#     4  11  25  41  70 104 134 179 232 290 336 427
#
# _framework density 22.628029000000002
#
# number of rings (size 3 to 8) (size 9 to 14) (size 15 to 20)
#    0.000    1.091    1.818    5.455    2.545    3.636 
#   13.091    0.000    0.000    0.000    0.000    0.000 
#    0.000    0.000    0.000    0.000    0.000    0.000 
#
# Total GULP energy -272589.412493 kJ/mol
# GULP energy per Si atom -12390.427841 kJ/mol
# Density = 2.257653 g / cm^3
# Si number density = 22.628029 Si / 1000 Ang^3
#
#
#
# Elastic Constant Matrix: (Units=GPa)
#
#
# Indices 1 2 3 4 5 6 
#
# 1 58.0950 10.7077 8.1346 0.0000 11.6727 0.0000
# 2 10.7077 194.6967 74.1565 0.0000 1.2340 0.0000
# 3 8.1346 74.1565 151.9959 0.0000 12.4052 0.0000
# 4 0.0000 0.0000 0.0000 23.7354 0.0000 16.4680
# 5 11.6727 1.2340 12.4052 0.0000 16.4313 0.0000
# 6 0.0000 0.0000 0.0000 16.4680 0.0000 24.2559
#
#
#
# Elastic Compliance Matrix: (Units=1/GPa)
#
#
# Indices 1 2 3 4 5 6 
#
# 1 0.020350 -0.001319 0.000774 0.000000 -0.014942 0.000000
# 2 -0.001319 0.006455 -0.003320 0.000000 0.002959 0.000000
# 3 0.000774 -0.003320 0.008719 0.000000 -0.006883 0.000000
# 4 0.000000 0.000000 0.000000 0.079650 0.000000 -0.054077
# 5 -0.014942 0.002959 -0.006883 0.000000 0.076448 0.000000
# 6 0.000000 0.000000 0.000000 -0.054077 0.000000 0.077941
#
#
# Mechanical properties :
#
#
# Convention : Reuss Voigt Hill
#
# Bulk Modulus (GPa) = 35.97962 65.64279 50.81120
# Shear Modulus (GPa) = 17.44843 33.67045 25.55944
#
# Velocity S-wave (km/s) = 2.77988 3.86164 3.36452
# Velocity P-wave (km/s) = 5.12236 6.99682 6.13164
#
# Compressibility (1/GPa) = 0.02779351
#
# Stress axis : x y z
#
# Youngs Moduli (GPa) = 49.13963 154.93058 114.68897
#
# Poissons Ratio (x) = 0.20440 -0.08878
# Poissons Ratio (y) = 0.06483 0.38076
# Poissons Ratio (z) = -0.03804 0.51436
#
# Static dielectric constant tensor:
#      x y z
#    x 3.839740 0.000000 0.171140 
#    y 0.000000 5.171630 0.000000 
#    z 0.171140 0.000000 4.158330 
# 
# 
# High freq. dielectric constant tensor:
#      x y z
#    x 1.863860 0.000000 0.002410 
#    y 0.000000 1.926130 0.000000 
#    z 0.002410 0.000000 1.893620 
# 
# From -- ./inp_files/2379.got.cif
#   From: 2010.06.25/outbox.cif.g09.slc.cpg/sg11_2_cif.got.tgz:2379.got - 2010.06.27 23:14:04.
