data_PCOD8077651
_publ_section_title
;
Structure prediction by ZEFSAII (Michael W. Deem and Ramdas Pophale) SiO2 
 PCOD8077651
Probable space group: P 21/M
;
_chemical_formula_sum "Si O2"
_cell_formula_units_Z 32
_cell_length_a 31.412550
_cell_length_b 9.044565
_cell_length_c 12.712534
_cell_angle_alpha 90.000000
_cell_angle_beta 27.523391
_cell_angle_gamma 90.000000
_cell_volume 1669.048767
_symmetry_space_group_name_H-M "P 21/M"
_symmetry_group_IT_number 11
_symmetry_cell_setting 'monoclinic'
loop_
_space_group_symop_operation_xyz
x,y,z
-x,1/2+y,-z
-x,-y,-z
x,1/2-y,z
loop_
_atom_site_type_symbol
_atom_site_label
_atom_site_fract_x
_atom_site_fract_y
_atom_site_fract_z
Si Si1 0.852948 0.917246 0.927436
Si Si2 0.788875 0.574541 0.842223
Si Si3 0.588350 0.917987 0.347082
Si Si4 0.875827 0.074019 0.449806
Si Si5 0.216368 0.575210 0.563404
Si Si6 0.355284 0.086537 0.546427
Si Si7 0.593478 0.422760 0.764116
Si Si8 0.066358 0.574622 0.060107
O O1 0.890285 0.750000 0.857312
O O2 0.851133 0.963731 0.808491
O O3 0.917016 0.025627 0.855369
O O4 0.751037 0.929518 0.195127
O O5 0.792280 0.750000 0.814157
O O6 0.827810 0.485282 0.659339
O O7 0.684150 0.519122 0.090161
O O8 0.580096 0.750000 0.329190
O O9 0.585785 0.933750 0.477827
O O10 0.500000 0.000000 0.500000
O O11 0.884875 0.250000 0.435747
O O12 0.815921 0.022193 0.480571
O O13 0.975192 0.002364 0.216568
O O14 0.216323 0.750000 0.570498
O O15 0.320223 0.516331 0.355977
O O16 0.148457 0.517509 0.804368
O O17 0.374661 0.250000 0.455805
O O18 0.386052 0.957345 0.401788
O O19 0.580749 0.250000 0.807699
O O20 0.500000 0.500000 0.000000
O O21 0.053576 0.750000 0.085217
#
# Coordination Sequence:
#
# PCOD8077651 Si02
#       8
#     4   4   4   4   4   4   4   4
#     4   9  18  35  60  84 110 145 187 234 281 335
#     4   9  20  39  57  80 116 152 188 236 287 335
#     4   9  19  35  57  83 113 148 190 236 285 340
#     4  11  23  39  58  83 115 154 193 234 285 344
#     4   9  21  40  59  81 115 151 189 238 287 335
#     4   9  18  35  56  80 110 145 184 234 287 333
#     4  11  22  38  58  85 116 149 189 236 287 342
#     4  11  21  37  61  87 113 147 190 238 289 342
#
# _framework density 19.172597
#
# number of rings (size 3 to 8) (size 9 to 14) (size 15 to 20)
#    0.000    2.250    1.250    3.000    0.000    3.000 
#    0.000   10.625    0.000    0.000    0.000    0.000 
#    0.000    0.000    0.000    0.000    0.000    0.000 
#
# Total GULP energy -396750.702223 kJ/mol
# GULP energy per Si atom -12398.459444 kJ/mol
# Density = 1.912896 g / cm^3
# Si number density = 19.172597 Si / 1000 Ang^3
#
#
#
# Elastic Constant Matrix: (Units=GPa)
#
#
# Indices 1 2 3 4 5 6 
#
# 1 131.8826 53.6044 74.5844 0.0000 -7.4542 0.0000
# 2 53.6044 70.6389 42.6070 0.0000 -3.3896 0.0000
# 3 74.5844 42.6070 100.7095 0.0000 -5.1486 0.0000
# 4 0.0000 0.0000 0.0000 34.9583 0.0000 -0.0643
# 5 -7.4542 -3.3896 -5.1486 0.0000 34.0934 0.0000
# 6 0.0000 0.0000 0.0000 -0.0643 0.0000 33.1630
#
#
#
# Elastic Compliance Matrix: (Units=1/GPa)
#
#
# Indices 1 2 3 4 5 6 
#
# 1 0.014900 -0.006213 -0.008336 0.000000 0.001381 0.000000
# 2 -0.006213 0.021613 -0.004537 0.000000 0.000105 0.000000
# 3 -0.008336 -0.004537 0.018046 0.000000 0.000452 0.000000
# 4 0.000000 0.000000 0.000000 0.028606 0.000000 0.000055
# 5 0.001381 0.000105 0.000452 0.000000 0.029712 0.000000
# 6 0.000000 0.000000 0.000000 0.000055 0.000000 0.030154
#
#
# Mechanical properties :
#
#
# Convention : Reuss Voigt Hill
#
# Bulk Modulus (GPa) = 61.02431 71.64697 66.33564
# Shear Modulus (GPa) = 26.78618 29.27195 28.02906
#
# Velocity S-wave (km/s) = 3.74184 3.91162 3.82767
# Velocity P-wave (km/s) = 7.11102 7.60602 7.36268
#
# Compressibility (1/GPa) = 0.01638691
#
# Stress axis : x y z
#
# Youngs Moduli (GPa) = 67.11456 46.26891 55.41542
#
# Poissons Ratio (x) = 0.28746 0.46193
# Poissons Ratio (y) = 0.41696 0.25143
# Poissons Ratio (z) = 0.55945 0.20993
#
# Static dielectric constant tensor:
#      x y z
#    x 4.185520 0.000000 0.312210 
#    y 0.000000 3.290580 0.000000 
#    z 0.312210 0.000000 3.819710 
# 
# 
# High freq. dielectric constant tensor:
#      x y z
#    x 1.756150 0.000000 -0.002730 
#    y 0.000000 1.733230 0.000000 
#    z -0.002730 0.000000 1.744410 
# 
# From -- ./inp_files/45140.got.cif
#   From: 2010.06.25/outbox.cif.g09.slc.cpg/sg11_23_cif.got.tgz:45140.got - 2010.06.27 23:14:04.
