data_PCOD8077113
_publ_section_title
;
Structure prediction by ZEFSAII (Michael W. Deem and Ramdas Pophale) SiO2 
 PCOD8077113
Probable space group: P 21/M
;
_chemical_formula_sum "Si O2"
_cell_formula_units_Z 24
_cell_length_a 9.726432
_cell_length_b 8.978406
_cell_length_c 14.124384
_cell_angle_alpha 90.000000
_cell_angle_beta 80.243641
_cell_angle_gamma 90.000000
_cell_volume 1215.613063
_symmetry_space_group_name_H-M "P 21/M"
_symmetry_group_IT_number 11
_symmetry_cell_setting 'monoclinic'
loop_
_space_group_symop_operation_xyz
x,y,z
-x,1/2+y,-z
-x,-y,-z
x,1/2-y,z
loop_
_atom_site_type_symbol
_atom_site_label
_atom_site_fract_x
_atom_site_fract_y
_atom_site_fract_z
Si Si1 0.435200 0.422393 0.782002
Si Si2 0.202330 0.575330 0.926967
Si Si3 0.907754 0.575326 0.880079
Si Si4 0.148277 0.575702 0.484375
Si Si5 0.622420 0.925468 0.427476
Si Si6 0.754183 0.078821 0.736107
O O1 0.404483 0.250000 0.806008
O O2 0.343562 0.521245 0.862300
O O3 0.396720 0.463385 0.679720
O O4 0.596320 0.461576 0.782774
O O5 0.210837 0.750000 0.941735
O O6 0.069057 0.530382 0.878260
O O7 0.190920 0.501187 0.030989
O O8 0.886232 0.750000 0.890602
O O9 0.862768 0.521092 0.781641
O O10 0.134001 0.750000 0.508191
O O11 0.231800 0.496678 0.558700
O O12 0.227898 0.546660 0.376882
O O13 0.000000 0.500000 0.500000
O O14 0.620722 0.750000 0.447081
O O15 0.500000 0.000000 0.500000
O O16 0.788047 0.250000 0.754727
#
# Coordination Sequence:
#
# PCOD8077113 Si02
#       6
#     4   4   4   4   4   4
#     4  10  22  40  61  87 119 158 200 241 295 355
#     4  10  22  40  62  90 118 152 196 243 297 355
#     4  10  22  40  62  89 119 153 195 244 296 354
#     4  11  24  42  61  89 124 162 206 252 302 359
#     4  11  22  40  63  89 122 164 204 249 301 355
#     4  10  22  41  61  85 120 159 197 243 297 353
#
# _framework density 19.743123000000001
#
# number of rings (size 3 to 8) (size 9 to 14) (size 15 to 20)
#    0.000    1.667    1.667    2.000    2.333    6.000 
#    0.000    0.000    0.000    0.000    0.000    0.000 
#    0.000    0.000    0.000    0.000    0.000    0.000 
#
# Total GULP energy -297738.217717 kJ/mol
# GULP energy per Si atom -12405.759072 kJ/mol
# Density = 1.969819 g / cm^3
# Si number density = 19.743123 Si / 1000 Ang^3
#
#
#
# Elastic Constant Matrix: (Units=GPa)
#
#
# Indices 1 2 3 4 5 6 
#
# 1 73.8793 19.5050 5.7638 0.0000 -2.5475 0.0000
# 2 19.5050 72.2075 23.0479 0.0000 -2.1746 0.0000
# 3 5.7638 23.0479 41.0909 0.0000 -3.0903 0.0000
# 4 0.0000 0.0000 0.0000 37.7584 0.0000 -0.0767
# 5 -2.5475 -2.1746 -3.0903 0.0000 40.6288 0.0000
# 6 0.0000 0.0000 0.0000 -0.0767 0.0000 39.7654
#
#
#
# Elastic Compliance Matrix: (Units=1/GPa)
#
#
# Indices 1 2 3 4 5 6 
#
# 1 0.014597 -0.004002 0.000251 0.000000 0.000720 0.000000
# 2 -0.004002 0.017967 -0.009518 0.000000 -0.000013 0.000000
# 3 0.000251 -0.009518 0.029773 0.000000 0.001771 0.000000
# 4 0.000000 0.000000 0.000000 0.026484 0.000000 0.000051
# 5 0.000720 -0.000013 0.001771 0.000000 0.024792 0.000000
# 6 0.000000 0.000000 0.000000 0.000051 0.000000 0.025148
#
#
# Mechanical properties :
#
#
# Convention : Reuss Voigt Hill
#
# Bulk Modulus (GPa) = 27.93199 31.53454 29.73327
# Shear Modulus (GPa) = 28.21171 32.88794 30.54983
#
# Velocity S-wave (km/s) = 3.78423 4.08584 3.93792
# Velocity P-wave (km/s) = 5.76821 6.18594 5.98073
#
# Compressibility (1/GPa) = 0.03580125
#
# Stress axis : x y z
#
# Youngs Moduli (GPa) = 68.50594 55.65628 33.58783
#
# Poissons Ratio (x) = 0.22271 -0.00843
# Poissons Ratio (y) = 0.27413 0.31968
# Poissons Ratio (z) = -0.01720 0.52972
#
# Static dielectric constant tensor:
#      x y z
#    x 3.741680 0.000000 0.219150 
#    y 0.000000 3.561120 0.000000 
#    z 0.219150 0.000000 3.932800 
# 
# 
# High freq. dielectric constant tensor:
#      x y z
#    x 1.779500 0.000000 0.001790 
#    y 0.000000 1.776420 0.000000 
#    z 0.001790 0.000000 1.770360 
# 
# From -- ./inp_files/46474.got.cif
#   From: 2010.06.25/outbox.cif.g09.slc.cpg/sg11_24_cif.got.tgz:46474.got - 2010.06.27 23:14:04.
