data_PCOD8077362
_publ_section_title
;
Structure prediction by ZEFSAII (Michael W. Deem and Ramdas Pophale) SiO2 
 PCOD8077362
Probable space group: P 21/M
;
_chemical_formula_sum "Si O2"
_cell_formula_units_Z 28
_cell_length_a 21.593843
_cell_length_b 8.607014
_cell_length_c 9.702308
_cell_angle_alpha 90.000000
_cell_angle_beta 132.285883
_cell_angle_gamma 90.000000
_cell_volume 1334.043558
_symmetry_space_group_name_H-M "P 21/M"
_symmetry_group_IT_number 11
_symmetry_cell_setting 'monoclinic'
loop_
_space_group_symop_operation_xyz
x,y,z
-x,1/2+y,-z
-x,-y,-z
x,1/2-y,z
loop_
_atom_site_type_symbol
_atom_site_label
_atom_site_fract_x
_atom_site_fract_y
_atom_site_fract_z
Si Si1 0.331626 0.070476 0.785085
Si Si2 0.130688 0.068325 0.828544
Si Si3 0.443692 0.569608 0.176964
Si Si4 0.620640 0.427353 0.421067
Si Si5 0.300323 0.927888 0.171368
Si Si6 0.154074 0.931736 0.578947
Si Si7 0.005640 0.567630 0.160288
O O1 0.347243 0.250000 0.840839
O O2 0.342866 0.039183 0.640717
O O3 0.239130 0.027088 0.694730
O O4 0.400851 0.969578 0.967487
O O5 0.115660 0.250000 0.779944
O O6 0.069261 0.003635 0.855671
O O7 0.109946 0.976542 0.656785
O O8 0.225524 0.040211 0.017287
O O9 0.467736 0.750000 0.215277
O O10 0.526684 0.469803 0.322446
O O11 0.381900 0.522888 0.207720
O O12 0.623063 0.250000 0.373190
O O13 0.681425 0.450381 0.641181
O O14 0.275886 0.750000 0.099730
O O15 0.174965 0.750000 0.608071
O O16 0.093727 0.978139 0.362275
O O17 0.996852 0.750000 0.133804
O O18 0.000000 0.500000 0.000000
#
# Coordination Sequence:
#
# PCOD8077362 Si02
#       7
#     4   4   4   4   4   4   4
#     4  12  25  41  63  93 126 167 214 264 317 371
#     4  11  23  41  66  97 128 164 213 260 308 371
#     4  11  22  41  65  92 125 165 214 264 317 377
#     4  11  24  41  62  91 128 169 213 263 320 376
#     4  10  23  41  64  92 126 169 212 256 315 375
#     4  11  23  43  67  93 127 168 212 257 312 376
#     4  10  25  44  66  98 132 166 206 256 312 372
#
# _framework density 20.988821000000002
#
# number of rings (size 3 to 8) (size 9 to 14) (size 15 to 20)
#    0.000    1.143    1.429    4.286    2.000    4.000 
#    0.000    0.000    0.000    0.000    0.000    0.000 
#    0.000    0.000    0.000    0.000    0.000    0.000 
#
# Total GULP energy -347395.718848 kJ/mol
# GULP energy per Si atom -12406.989959 kJ/mol
# Density = 2.094105 g / cm^3
# Si number density = 20.988821 Si / 1000 Ang^3
#
#
#
# Elastic Constant Matrix: (Units=GPa)
#
#
# Indices 1 2 3 4 5 6 
#
# 1 79.4370 16.1973 11.9247 0.0000 -7.2886 0.0000
# 2 16.1973 45.0944 18.4081 0.0000 1.0026 0.0000
# 3 11.9247 18.4081 92.0492 0.0000 -5.4904 0.0000
# 4 0.0000 0.0000 0.0000 28.1765 0.0000 -1.9047
# 5 -7.2886 1.0026 -5.4904 0.0000 30.6382 0.0000
# 6 0.0000 0.0000 0.0000 -1.9047 0.0000 36.3756
#
#
#
# Elastic Compliance Matrix: (Units=1/GPa)
#
#
# Indices 1 2 3 4 5 6 
#
# 1 0.013980 -0.004834 -0.000644 0.000000 0.003369 0.000000
# 2 -0.004834 0.025903 -0.004724 0.000000 -0.002844 0.000000
# 3 -0.000644 -0.004724 0.012020 0.000000 0.002156 0.000000
# 4 0.000000 0.000000 0.000000 0.035617 0.000000 0.001865
# 5 0.003369 -0.002844 0.002156 0.000000 0.033920 0.000000
# 6 0.000000 0.000000 0.000000 0.001865 0.000000 0.027589
#
#
# Mechanical properties :
#
#
# Convention : Reuss Voigt Hill
#
# Bulk Modulus (GPa) = 31.74394 34.40454 33.07424
# Shear Modulus (GPa) = 27.78850 30.37475 29.08162
#
# Velocity S-wave (km/s) = 3.64258 3.80832 3.72637
# Velocity P-wave (km/s) = 5.73134 5.98040 5.85719
#
# Compressibility (1/GPa) = 0.03150207
#
# Stress axis : x y z
#
# Youngs Moduli (GPa) = 71.53160 38.60508 83.19245
#
# Poissons Ratio (x) = 0.18660 0.05354
# Poissons Ratio (y) = 0.34575 0.39297
# Poissons Ratio (z) = 0.04603 0.18236
#
# Static dielectric constant tensor:
#      x y z
#    x 4.044550 0.000000 -0.190720 
#    y 0.000000 3.719000 0.000000 
#    z -0.190720 0.000000 3.921980 
# 
# 
# High freq. dielectric constant tensor:
#      x y z
#    x 1.832580 0.000000 -0.004180 
#    y 0.000000 1.821660 0.000000 
#    z -0.004180 0.000000 1.832180 
# 
# From -- ./inp_files/26171.got.cif
#   From: 2010.06.25/outbox.cif.g09.slc.cpg/sg11_14_cif.got.tgz:26171.got - 2010.06.27 23:14:04.
