data_PCOD8077798
_publ_section_title
;
Structure prediction by ZEFSAII (Michael W. Deem and Ramdas Pophale) SiO2 
 PCOD8077798
Probable space group: P 21/M
;
_chemical_formula_sum "Si O2"
_cell_formula_units_Z 24
_cell_length_a 13.173634
_cell_length_b 13.888400
_cell_length_c 10.916677
_cell_angle_alpha 90.000000
_cell_angle_beta 145.965640
_cell_angle_gamma 90.000000
_cell_volume 1117.881571
_symmetry_space_group_name_H-M "P 21/M"
_symmetry_group_IT_number 11
_symmetry_cell_setting 'monoclinic'
loop_
_space_group_symop_operation_xyz
x,y,z
-x,1/2+y,-z
-x,-y,-z
x,1/2-y,z
loop_
_atom_site_type_symbol
_atom_site_label
_atom_site_fract_x
_atom_site_fract_y
_atom_site_fract_z
Si Si1 0.618898 0.137013 0.571307
Si Si2 0.582898 0.433916 0.979358
Si Si3 0.907633 0.044570 0.691421
Si Si4 0.215215 0.357501 0.537455
Si Si5 0.929103 0.358688 0.455947
Si Si6 0.300994 0.481944 0.153596
O O1 0.614865 0.250000 0.594529
O O2 0.760451 0.113932 0.605063
O O3 0.419441 0.103013 0.330976
O O4 0.675604 0.082360 0.751479
O O5 0.428716 0.361054 0.778599
O O6 0.645680 0.503579 0.933409
O O7 0.500000 0.500000 0.000000
O O8 0.750496 0.372535 0.195713
O O9 0.934813 0.071975 0.577474
O O10 0.835720 0.934001 0.619839
O O11 0.092615 0.051812 0.952998
O O12 0.166094 0.250000 0.441593
O O13 0.105337 0.382075 0.551304
O O14 0.933863 0.250000 0.509296
#
# Coordination Sequence:
#
# PCOD8077798 Si02
#       6
#     4   4   4   4   4   4
#     4  11  26  47  68  96 129 173 226 274 327 390
#     4  12  21  40  67  93 134 174 212 267 329 395
#     4  12  22  44  68  95 134 173 219 273 332 389
#     4  11  23  37  61  97 131 171 220 265 324 391
#     4  11  23  38  63  97 133 174 217 268 330 397
#     4  11  25  44  70  97 131 174 218 274 331 387
#
# _framework density 21.469179
#
# number of rings (size 3 to 8) (size 9 to 14) (size 15 to 20)
#    0.000    0.667    5.000    3.000    0.000    3.333 
#    0.000    2.500    0.000    0.000    0.000    0.000 
#    0.000    0.000    0.000    0.000    0.000    0.000 
#
# Total GULP energy -297742.957921 kJ/mol
# GULP energy per Si atom -12405.956580 kJ/mol
# Density = 2.142031 g / cm^3
# Si number density = 21.469179 Si / 1000 Ang^3
#
#
#
# Elastic Constant Matrix: (Units=GPa)
#
#
# Indices 1 2 3 4 5 6 
#
# 1 47.6126 13.1061 11.1683 0.0000 5.7450 0.0000
# 2 13.1061 116.1221 26.0173 0.0000 6.3825 0.0000
# 3 11.1683 26.0173 143.8005 0.0000 23.6975 0.0000
# 4 0.0000 0.0000 0.0000 21.5165 0.0000 1.7011
# 5 5.7450 6.3825 23.6975 0.0000 33.8591 0.0000
# 6 0.0000 0.0000 0.0000 1.7011 0.0000 30.0208
#
#
#
# Elastic Compliance Matrix: (Units=1/GPa)
#
#
# Indices 1 2 3 4 5 6 
#
# 1 0.022131 -0.002151 -0.000879 0.000000 -0.002734 0.000000
# 2 -0.002151 0.009196 -0.001437 0.000000 -0.000363 0.000000
# 3 -0.000879 -0.001437 0.008154 0.000000 -0.005286 0.000000
# 4 0.000000 0.000000 0.000000 0.046685 0.000000 -0.002645
# 5 -0.002734 -0.000363 -0.005286 0.000000 0.033766 0.000000
# 6 0.000000 0.000000 0.000000 -0.002645 0.000000 0.033460
#
#
# Mechanical properties :
#
#
# Convention : Reuss Voigt Hill
#
# Bulk Modulus (GPa) = 32.73602 45.34652 39.04127
# Shear Modulus (GPa) = 28.98410 34.22883 31.60647
#
# Velocity S-wave (km/s) = 3.67827 3.99723 3.84106
# Velocity P-wave (km/s) = 5.77239 6.51700 6.15597
#
# Compressibility (1/GPa) = 0.03054739
#
# Stress axis : x y z
#
# Youngs Moduli (GPa) = 45.18556 108.73982 122.64623
#
# Poissons Ratio (x) = 0.23385 0.10782
# Poissons Ratio (y) = 0.09717 0.17625
# Poissons Ratio (z) = 0.03972 0.15626
#
# Static dielectric constant tensor:
#      x y z
#    x 3.917810 0.000000 0.239530 
#    y 0.000000 3.794670 0.000000 
#    z 0.239530 0.000000 4.097390 
# 
# 
# High freq. dielectric constant tensor:
#      x y z
#    x 1.848790 0.000000 0.013340 
#    y 0.000000 1.840060 0.000000 
#    z 0.013340 0.000000 1.850820 
# 
# From -- ./inp_files/39733.got.cif
#   From: 2010.06.25/outbox.cif.g09.slc.cpg/sg11_20_cif.got.tgz:39733.got - 2010.06.27 23:14:04.
