data_PCOD8077999
_publ_section_title
;
Structure prediction by ZEFSAII (Michael W. Deem and Ramdas Pophale) SiO2 
 PCOD8077999
Probable space group: P 21/M
;
_chemical_formula_sum "Si O2"
_cell_formula_units_Z 28
_cell_length_a 30.000000
_cell_length_b 9.000000
_cell_length_c 30.000000
_cell_angle_alpha 90.000000
_cell_angle_beta 170.000000
_cell_angle_gamma 90.000000
_cell_volume 1406.550239
_symmetry_space_group_name_H-M "P 21/M"
_symmetry_group_IT_number 11
_symmetry_cell_setting 'monoclinic'
loop_
_space_group_symop_operation_xyz
x,y,z
-x,1/2+y,-z
-x,-y,-z
x,1/2-y,z
loop_
_atom_site_type_symbol
_atom_site_label
_atom_site_fract_x
_atom_site_fract_y
_atom_site_fract_z
Si Si1 0.619485 0.417636 0.380517
Si Si2 0.664967 0.925554 0.334821
Si Si3 0.045566 0.572732 0.954443
Si Si4 0.524202 0.430034 0.475807
Si Si5 0.239953 0.926138 0.760049
Si Si6 0.188305 0.924910 0.811481
Si Si7 0.909277 0.581045 0.090729
O O1 0.629003 0.250000 0.371019
O O2 0.639268 0.534840 0.360786
O O3 0.854735 0.448284 0.644575
O O4 0.355411 0.448276 0.145247
O O5 0.667805 0.750000 0.331958
O O6 0.926202 0.995597 0.572370
O O7 0.427295 0.995597 0.073498
O O8 0.040418 0.750000 0.959590
O O9 0.071874 0.544511 0.928131
O O10 0.787000 0.492011 0.714827
O O11 0.285188 0.492012 0.213014
O O12 0.500000 0.500000 0.500000
O O13 0.523863 0.250000 0.476144
O O14 0.244359 0.750000 0.755625
O O15 0.214141 0.967625 0.785914
O O16 0.000000 0.000000 0.500000
O O17 0.500000 0.000000 0.000000
O O18 0.184591 0.750000 0.815143
O O19 0.918978 0.750000 0.081042
#
# Coordination Sequence:
#
# PCOD8077999 Si02
#       7
#     4   4   4   4   4   4   4
#     4  10  21  36  55  81 114 149 188 237 294 348
#     4  10  19  34  56  79 104 142 190 232 282 347
#     4  12  25  42  65  96 127 159 206 259 304 352
#     4  12  25  44  67  93 127 167 207 250 305 365
#     4  11  22  39  61  86 118 155 198 245 298 356
#     4   9  19  35  55  78 108 147 186 231 288 351
#     4  10  21  38  58  81 114 157 195 232 292 361
#
# _framework density 19.906860999999999
#
# number of rings (size 3 to 8) (size 9 to 14) (size 15 to 20)
#    0.000    1.429    0.000    6.000    0.000    4.571 
#    0.000    4.286    0.000    0.000    0.000    0.000 
#    0.000    0.000    0.000    0.000    0.000    0.000 
#
# Total GULP energy -347234.334200 kJ/mol
# GULP energy per Si atom -12401.226221 kJ/mol
# Density = 1.986155 g / cm^3
# Si number density = 19.906861 Si / 1000 Ang^3
#
#
#
# Elastic Constant Matrix: (Units=GPa)
#
#
# Indices 1 2 3 4 5 6 
#
# 1 120.9389 47.7005 86.2019 0.0000 -0.0781 0.0000
# 2 47.7005 115.3878 58.6121 0.0000 0.9606 0.0000
# 3 86.2019 58.6121 219.6008 0.0000 8.7952 0.0000
# 4 0.0000 0.0000 0.0000 28.6938 0.0000 -0.7782
# 5 -0.0781 0.9606 8.7952 0.0000 17.6574 0.0000
# 6 0.0000 0.0000 0.0000 -0.7782 0.0000 37.5150
#
#
#
# Elastic Compliance Matrix: (Units=1/GPa)
#
#
# Indices 1 2 3 4 5 6 
#
# 1 0.012438 -0.003047 -0.004161 0.000000 0.002293 0.000000
# 2 -0.003047 0.010783 -0.001692 0.000000 0.000243 0.000000
# 3 -0.004161 -0.001692 0.006771 0.000000 -0.003299 0.000000
# 4 0.000000 0.000000 0.000000 0.034870 0.000000 0.000723
# 5 0.002293 0.000243 -0.003299 0.000000 0.058274 0.000000
# 6 0.000000 0.000000 0.000000 0.000723 0.000000 0.026671
#
#
# Mechanical properties :
#
#
# Convention : Reuss Voigt Hill
#
# Bulk Modulus (GPa) = 82.01899 93.43962 87.72930
# Shear Modulus (GPa) = 29.12558 34.33411 31.72985
#
# Velocity S-wave (km/s) = 3.82919 4.15750 3.99672
# Velocity P-wave (km/s) = 7.80007 8.37178 8.09098
#
# Compressibility (1/GPa) = 0.01219230
#
# Stress axis : x y z
#
# Youngs Moduli (GPa) = 80.40057 92.73500 147.69649
#
# Poissons Ratio (x) = 0.28258 0.61454
# Poissons Ratio (y) = 0.24500 0.24986
# Poissons Ratio (z) = 0.33453 0.15688
#
# Static dielectric constant tensor:
#      x y z
#    x 3.656420 0.000000 0.040340 
#    y 0.000000 3.673150 0.000000 
#    z 0.040340 0.000000 4.113580 
# 
# 
# High freq. dielectric constant tensor:
#      x y z
#    x 1.781280 0.000000 0.002430 
#    y 0.000000 1.771250 0.000000 
#    z 0.002430 0.000000 1.808870 
# 
# From -- ./inp_files/73875.got.cif
#   From: 2010.06.25/outbox.ucp.g09.slc.cvg/sg11_37_cif.got.tgz:73875.got - 2010.06.28 13:43:20.
