data_PCOD8077397
_publ_section_title
;
Structure prediction by ZEFSAII (Michael W. Deem and Ramdas Pophale) SiO2 
 PCOD8077397
Probable space group: P 21/M
;
_chemical_formula_sum "Si O2"
_cell_formula_units_Z 20
_cell_length_a 8.387087
_cell_length_b 16.542921
_cell_length_c 7.702383
_cell_angle_alpha 90.000000
_cell_angle_beta 55.214417
_cell_angle_gamma 90.000000
_cell_volume 877.700738
_symmetry_space_group_name_H-M "P 21/M"
_symmetry_group_IT_number 11
_symmetry_cell_setting 'monoclinic'
loop_
_space_group_symop_operation_xyz
x,y,z
-x,1/2+y,-z
-x,-y,-z
x,1/2-y,z
loop_
_atom_site_type_symbol
_atom_site_label
_atom_site_fract_x
_atom_site_fract_y
_atom_site_fract_z
Si Si1 0.676398 0.554122 0.457912
Si Si2 0.921211 0.401731 0.366046
Si Si3 0.010747 0.591885 0.048177
Si Si4 0.669709 0.844470 0.782693
Si Si5 0.730314 0.340575 0.817631
O O1 0.500000 0.500000 0.500000
O O2 0.844536 0.493836 0.425247
O O3 0.593323 0.616033 0.651242
O O4 0.787144 0.610980 0.245703
O O5 0.791819 0.350271 0.579535
O O6 0.146102 0.397287 0.278062
O O7 0.913026 0.363052 0.174566
O O8 0.154396 0.603003 0.120776
O O9 0.000000 0.500000 0.000000
O O10 0.723065 0.750000 0.724370
O O11 0.499988 0.857067 0.029035
O O12 0.777850 0.250000 0.848817
#
# Coordination Sequence:
#
# PCOD8077397 Si02
#       5
#     4   4   4   4   4
#     4  11  24  44  71 104 136 184 231 283 342 412
#     4  11  24  43  71 100 135 177 232 281 346 411
#     4  10  23  42  68  98 133 176 224 281 340 406
#     4  11  24  43  68 100 138 180 227 287 350 406
#     4  11  25  45  68  98 138 183 227 284 349 409
#
# _framework density 22.786812000000001
#
# number of rings (size 3 to 8) (size 9 to 14) (size 15 to 20)
#    0.000    1.200    2.000    3.600    5.600    2.400 
#    0.000    2.000    0.000    0.000    0.000    0.000 
#    0.000    0.000    0.000    0.000    0.000    0.000 
#
# Total GULP energy -247799.811702 kJ/mol
# GULP energy per Si atom -12389.990585 kJ/mol
# Density = 2.273495 g / cm^3
# Si number density = 22.786812 Si / 1000 Ang^3
#
#
#
# Elastic Constant Matrix: (Units=GPa)
#
#
# Indices 1 2 3 4 5 6 
#
# 1 99.0520 49.9555 66.0347 0.0000 -9.5319 0.0000
# 2 49.9555 71.6207 35.5805 0.0000 -7.6979 0.0000
# 3 66.0347 35.5805 207.6679 0.0000 -4.4013 0.0000
# 4 0.0000 0.0000 0.0000 33.1697 0.0000 -5.6439
# 5 -9.5319 -7.6979 -4.4013 0.0000 40.0312 0.0000
# 6 0.0000 0.0000 0.0000 -5.6439 0.0000 17.3152
#
#
#
# Elastic Compliance Matrix: (Units=1/GPa)
#
#
# Indices 1 2 3 4 5 6 
#
# 1 0.018231 -0.010553 -0.003949 0.000000 0.001878 0.000000
# 2 -0.010553 0.021656 -0.000321 0.000000 0.001616 0.000000
# 3 -0.003949 -0.000321 0.006119 0.000000 -0.000329 0.000000
# 4 0.000000 0.000000 0.000000 0.031918 0.000000 0.010404
# 5 0.001878 0.001616 -0.000329 0.000000 0.025702 0.000000
# 6 0.000000 0.000000 0.000000 0.010404 0.000000 0.061144
#
#
# Mechanical properties :
#
#
# Convention : Reuss Voigt Hill
#
# Bulk Modulus (GPa) = 61.12008 75.72024 68.42016
# Shear Modulus (GPa) = 25.01631 33.22122 29.11877
#
# Velocity S-wave (km/s) = 3.31696 3.82241 3.57862
# Velocity P-wave (km/s) = 6.44596 7.26519 6.86781
#
# Compressibility (1/GPa) = 0.01636124
#
# Stress axis : x y z
#
# Youngs Moduli (GPa) = 54.85041 46.17689 163.42036
#
# Poissons Ratio (x) = 0.48728 0.64542
# Poissons Ratio (y) = 0.57881 0.05239
# Poissons Ratio (z) = 0.21663 0.01480
#
# Static dielectric constant tensor:
#      x y z
#    x 4.032810 0.000000 0.421060 
#    y 0.000000 3.901040 0.000000 
#    z 0.421060 0.000000 5.803950 
# 
# 
# High freq. dielectric constant tensor:
#      x y z
#    x 1.882340 0.000000 -0.005060 
#    y 0.000000 1.875520 0.000000 
#    z -0.005060 0.000000 1.937770 
# 
# From -- ./inp_files/13421.got.cif
#   From: 2010.06.25/outbox.cif.g09.slc.cpg/sg11_7_cif.got.tgz:13421.got - 2010.06.27 23:14:04.
