data_PCOD8077323
_publ_section_title
;
Structure prediction by ZEFSAII (Michael W. Deem and Ramdas Pophale) SiO2 
 PCOD8077323
Probable space group: P 21/M
;
_chemical_formula_sum "Si O2"
_cell_formula_units_Z 24
_cell_length_a 9.390972
_cell_length_b 14.487973
_cell_length_c 9.211058
_cell_angle_alpha 90.000000
_cell_angle_beta 67.418135
_cell_angle_gamma 90.000000
_cell_volume 1157.138881
_symmetry_space_group_name_H-M "P 21/M"
_symmetry_group_IT_number 11
_symmetry_cell_setting 'monoclinic'
loop_
_space_group_symop_operation_xyz
x,y,z
-x,1/2+y,-z
-x,-y,-z
x,1/2-y,z
loop_
_atom_site_type_symbol
_atom_site_label
_atom_site_fract_x
_atom_site_fract_y
_atom_site_fract_z
Si Si1 0.001394 0.250000 0.705563
Si Si2 0.304470 0.750000 0.978446
Si Si3 0.866284 0.593399 0.887118
Si Si4 0.669921 0.750000 0.314204
Si Si5 0.188202 0.930100 0.894798
Si Si6 0.099792 0.087507 0.459774
Si Si7 0.377290 0.250000 0.974304
Si Si8 0.656163 0.949232 0.418193
O O1 0.140445 0.250000 0.770252
O O2 0.019392 0.162684 0.593565
O O3 0.835081 0.250000 0.849352
O O4 0.297707 0.842220 0.882018
O O5 0.475496 0.750000 0.979460
O O6 0.884177 0.618503 0.711559
O O7 0.725775 0.658436 0.983272
O O8 0.024776 0.614372 0.911092
O O9 0.824706 0.487579 0.948432
O O10 0.617460 0.842171 0.413348
O O11 0.565792 0.750000 0.211713
O O12 0.247212 0.000851 0.747891
O O13 0.259751 0.050377 0.460700
O O14 0.000000 0.000000 0.500000
O O15 0.500000 0.000000 0.500000
#
# Coordination Sequence:
#
# PCOD8077323 Si02
#       8
#     2   2   4   2   4   4   2   4
#     4  10  23  43  66  95 134 174 225 276 340 398
#     4  12  28  40  65 102 141 174 222 290 338 406
#     4  11  23  43  73  96 131 177 236 276 327 419
#     4  10  22  47  68  93 129 183 221 266 336 405
#     4  11  24  45  69  98 132 184 225 276 342 403
#     4  11  22  42  68  99 128 176 225 277 331 398
#     4  12  25  42  67 100 134 175 226 278 342 387
#     4  11  25  43  69 101 139 177 221 281 346 397
#
# _framework density 20.740812999999999
#
# number of rings (size 3 to 8) (size 9 to 14) (size 15 to 20)
#    0.000    1.000    3.333    3.000    7.000    4.000 
#    0.000    0.000    0.000    0.000    0.000    0.000 
#    0.000    0.000    0.000    0.000    0.000    0.000 
#
# Total GULP energy -297317.795069 kJ/mol
# GULP energy per Si atom -12388.241461 kJ/mol
# Density = 2.069361 g / cm^3
# Si number density = 20.740813 Si / 1000 Ang^3
#
#
#
# Elastic Constant Matrix: (Units=GPa)
#
#
# Indices 1 2 3 4 5 6 
#
# 1 142.3153 77.3171 28.8247 0.0000 13.4246 0.0000
# 2 77.3171 144.7526 26.8346 0.0000 12.0614 0.0000
# 3 28.8247 26.8346 74.0467 0.0000 14.5949 0.0000
# 4 0.0000 0.0000 0.0000 22.0912 0.0000 3.8770
# 5 13.4246 12.0614 14.5949 0.0000 37.1545 0.0000
# 6 0.0000 0.0000 0.0000 3.8770 0.0000 28.9708
#
#
#
# Elastic Compliance Matrix: (Units=1/GPa)
#
#
# Indices 1 2 3 4 5 6 
#
# 1 0.010266 -0.005017 -0.001916 0.000000 -0.001328 0.000000
# 2 -0.005017 0.009932 -0.001483 0.000000 -0.000829 0.000000
# 3 -0.001916 -0.001483 0.015779 0.000000 -0.005024 0.000000
# 4 0.000000 0.000000 0.000000 0.046356 0.000000 -0.006204
# 5 -0.001328 -0.000829 -0.005024 0.000000 0.029637 0.000000
# 6 0.000000 0.000000 0.000000 -0.006204 0.000000 0.035348
#
#
# Mechanical properties :
#
#
# Convention : Reuss Voigt Hill
#
# Bulk Modulus (GPa) = 52.23673 69.67415 60.95544
# Shear Modulus (GPa) = 29.32002 32.85250 31.08626
#
# Velocity S-wave (km/s) = 3.76392 3.98421 3.87563
# Velocity P-wave (km/s) = 6.64301 7.40479 7.03422
#
# Compressibility (1/GPa) = 0.01914362
#
# Stress axis : x y z
#
# Youngs Moduli (GPa) = 97.40966 100.68140 63.37669
#
# Poissons Ratio (x) = 0.50517 0.12145
# Poissons Ratio (y) = 0.48875 0.09398
# Poissons Ratio (z) = 0.18666 0.14930
#
# Static dielectric constant tensor:
#      x y z
#    x 3.708380 0.000000 0.219680 
#    y 0.000000 3.460350 0.000000 
#    z 0.219680 0.000000 3.619410 
# 
# 
# High freq. dielectric constant tensor:
#      x y z
#    x 1.808770 0.000000 0.015150 
#    y 0.000000 1.833210 0.000000 
#    z 0.015150 0.000000 1.810690 
# 
# From -- ./inp_files/12497.got.cif
#   From: 2010.06.25/outbox.cif.g09.slc.cpg/sg11_7_cif.got.tgz:12497.got - 2010.06.27 23:14:04.
