data_PCOD8077314
_publ_section_title
;
Structure prediction by ZEFSAII (Michael W. Deem and Ramdas Pophale) SiO2 
 PCOD8077314
Probable space group: P 21/M
;
_chemical_formula_sum "Si O2"
_cell_formula_units_Z 24
_cell_length_a 12.982379
_cell_length_b 10.661221
_cell_length_c 19.113250
_cell_angle_alpha 90.000000
_cell_angle_beta 152.329702
_cell_angle_gamma 90.000000
_cell_volume 1228.491286
_symmetry_space_group_name_H-M "P 21/M"
_symmetry_group_IT_number 11
_symmetry_cell_setting 'monoclinic'
loop_
_space_group_symop_operation_xyz
x,y,z
-x,1/2+y,-z
-x,-y,-z
x,1/2-y,z
loop_
_atom_site_type_symbol
_atom_site_label
_atom_site_fract_x
_atom_site_fract_y
_atom_site_fract_z
Si Si1 0.943281 0.885689 0.377223
Si Si2 0.548049 0.750000 0.369278
Si Si3 0.767546 0.968782 0.981033
Si Si4 0.339159 0.458180 0.670875
Si Si5 0.964422 0.250000 0.927085
Si Si6 0.925915 0.250000 0.061827
Si Si7 0.754511 0.501603 0.130987
Si Si8 0.973099 0.750000 0.723762
O O1 0.054606 0.750000 0.449887
O O2 0.725359 0.889211 0.295543
O O3 0.118968 0.985722 0.506796
O O4 0.878590 0.906881 0.258390
O O5 0.567901 0.870175 0.333124
O O6 0.297519 0.750000 0.247784
O O7 0.733496 0.750000 0.541982
O O8 0.525691 0.938274 0.802795
O O9 0.945449 0.879441 0.051337
O O10 0.788638 0.119742 0.981758
O O11 0.776903 0.937098 0.068321
O O12 0.040479 0.250000 0.054511
O O13 0.081563 0.250000 0.225060
O O14 0.874713 0.366943 0.206717
O O15 0.500000 0.500000 0.000000
#
# Coordination Sequence:
#
# PCOD8077314 Si02
#       8
#     4   2   4   4   2   2   4   2
#     4  11  24  38  61  99 132 171 203 263 326 392
#     4  12  22  44  67  89 127 180 213 269 313 389
#     4  11  24  42  65  99 122 169 218 272 319 383
#     4  11  22  41  64  92 132 168 217 254 326 394
#     4  12  26  41  69  95 126 161 234 277 317 359
#     4  10  22  44  66  84 122 167 219 264 317 383
#     4  11  23  40  65  94 132 167 203 262 323 395
#     4  10  24  43  64  90 123 172 224 244 325 401
#
# _framework density 19.536158
#
# number of rings (size 3 to 8) (size 9 to 14) (size 15 to 20)
#    0.000    1.000    5.833    0.500    3.500    0.000 
#    0.000    5.000    0.000    0.000    0.000    0.000 
#    0.000    0.000    0.000    0.000    0.000    0.000 
#
# Total GULP energy -297412.142553 kJ/mol
# GULP energy per Si atom -12392.172606 kJ/mol
# Density = 1.949169 g / cm^3
# Si number density = 19.536158 Si / 1000 Ang^3
#
#
#
# Elastic Constant Matrix: (Units=GPa)
#
#
# Indices 1 2 3 4 5 6 
#
# 1 140.1403 41.6773 67.2581 0.0000 -12.0653 0.0000
# 2 41.6773 79.5191 31.7892 0.0000 7.5251 0.0000
# 3 67.2581 31.7892 139.5314 0.0000 -6.9583 0.0000
# 4 0.0000 0.0000 0.0000 28.0261 0.0000 -0.5522
# 5 -12.0653 7.5251 -6.9583 0.0000 38.4306 0.0000
# 6 0.0000 0.0000 0.0000 -0.5522 0.0000 38.5179
#
#
#
# Elastic Compliance Matrix: (Units=1/GPa)
#
#
# Indices 1 2 3 4 5 6 
#
# 1 0.010617 -0.004307 -0.003964 0.000000 0.003459 0.000000
# 2 -0.004307 0.016013 -0.001812 0.000000 -0.004816 0.000000
# 3 -0.003964 -0.001812 0.009532 0.000000 0.000836 0.000000
# 4 0.000000 0.000000 0.000000 0.035691 0.000000 0.000512
# 5 0.003459 -0.004816 0.000836 0.000000 0.028201 0.000000
# 6 0.000000 0.000000 0.000000 0.000512 0.000000 0.025969
#
#
# Mechanical properties :
#
#
# Convention : Reuss Voigt Hill
#
# Bulk Modulus (GPa) = 62.51679 71.18221 66.84950
# Shear Modulus (GPa) = 32.99843 35.55931 34.27887
#
# Velocity S-wave (km/s) = 4.11432 4.27098 4.19338
# Velocity P-wave (km/s) = 7.39190 7.79981 7.59859
#
# Compressibility (1/GPa) = 0.01599570
#
# Stress axis : x y z
#
# Youngs Moduli (GPa) = 94.19035 62.44817 104.90848
#
# Poissons Ratio (x) = 0.26897 0.41584
# Poissons Ratio (y) = 0.40569 0.19012
# Poissons Ratio (z) = 0.37335 0.11317
#
# Static dielectric constant tensor:
#      x y z
#    x 3.773790 0.000000 -0.254780 
#    y 0.000000 4.095300 0.000000 
#    z -0.254780 0.000000 3.680520 
# 
# 
# High freq. dielectric constant tensor:
#      x y z
#    x 1.764350 0.000000 -0.016610 
#    y 0.000000 1.759030 0.000000 
#    z -0.016610 0.000000 1.768160 
# 
# From -- ./inp_files/34697.got.cif
#   From: 2010.06.25/outbox.cif.g09.slc.cpg/sg11_18_cif.got.tgz:34697.got - 2010.06.27 23:14:04.
