data_PCOD8077837
_publ_section_title
;
Structure prediction by ZEFSAII (Michael W. Deem and Ramdas Pophale) SiO2 
 PCOD8077837
Probable space group: P 21/M
;
_chemical_formula_sum "Si O2"
_cell_formula_units_Z 28
_cell_length_a 27.180275
_cell_length_b 8.860970
_cell_length_c 9.710374
_cell_angle_alpha 90.000000
_cell_angle_beta 142.151591
_cell_angle_gamma 90.000000
_cell_volume 1434.955144
_symmetry_space_group_name_H-M "P 21/M"
_symmetry_group_IT_number 11
_symmetry_cell_setting 'monoclinic'
loop_
_space_group_symop_operation_xyz
x,y,z
-x,1/2+y,-z
-x,-y,-z
x,1/2-y,z
loop_
_atom_site_type_symbol
_atom_site_label
_atom_site_fract_x
_atom_site_fract_y
_atom_site_fract_z
Si Si1 0.059678 0.426151 0.239229
Si Si2 0.768703 0.924596 0.508774
Si Si3 0.347400 0.575984 0.955310
Si Si4 0.186675 0.573442 0.119026
Si Si5 0.520970 0.922948 0.405004
Si Si6 0.019035 0.070972 0.687348
Si Si7 0.675145 0.074710 0.780452
O O1 0.039502 0.250000 0.208037
O O2 0.149789 0.455902 0.392533
O O3 0.048794 0.508470 0.360699
O O4 0.000000 0.500000 0.000000
O O5 0.760117 0.750000 0.530724
O O6 0.696011 0.970993 0.250228
O O7 0.765351 0.025022 0.638729
O O8 0.321223 0.750000 0.878497
O O9 0.442841 0.556790 0.135342
O O10 0.324014 0.520902 0.058400
O O11 0.165221 0.750000 0.078494
O O12 0.240271 0.536143 0.103573
O O13 0.106212 0.476354 0.933640
O O14 0.538873 0.750000 0.472556
O O15 0.500000 0.000000 0.500000
O O16 0.603708 0.996439 0.533480
O O17 0.013617 0.250000 0.667672
O O18 0.000000 0.000000 0.500000
O O19 0.655968 0.250000 0.731956
#
# Coordination Sequence:
#
# PCOD8077837 Si02
#       7
#     4   4   4   4   4   4   4
#     4  11  23  41  63  88 117 156 200 242 293 349
#     4  11  24  39  58  87 118 153 198 242 289 348
#     4   9  19  36  58  86 117 150 192 239 288 344
#     4  11  23  41  62  86 119 157 194 240 299 352
#     4   9  17  32  56  85 116 152 191 235 288 344
#     4  12  26  43  63  89 120 155 198 246 296 351
#     4   9  20  37  59  88 117 150 192 239 294 349
#
# _framework density 19.512805
#
# number of rings (size 3 to 8) (size 9 to 14) (size 15 to 20)
#    0.000    1.714    1.429    3.857    2.000    5.714 
#    0.000    0.714    0.000    0.000    0.000    0.000 
#    0.000    0.000    0.000    0.000    0.000    0.000 
#
# Total GULP energy -347214.076858 kJ/mol
# GULP energy per Si atom -12400.502745 kJ/mol
# Density = 1.946839 g / cm^3
# Si number density = 19.512805 Si / 1000 Ang^3
#
#
#
# Elastic Constant Matrix: (Units=GPa)
#
#
# Indices 1 2 3 4 5 6 
#
# 1 46.5508 22.1108 11.9583 0.0000 -11.9000 0.0000
# 2 22.1108 96.5113 30.4879 0.0000 -0.7637 0.0000
# 3 11.9583 30.4879 88.9389 0.0000 -5.9463 0.0000
# 4 0.0000 0.0000 0.0000 39.0454 0.0000 2.0891
# 5 -11.9000 -0.7637 -5.9463 0.0000 30.0736 0.0000
# 6 0.0000 0.0000 0.0000 2.0891 0.0000 30.6174
#
#
#
# Elastic Compliance Matrix: (Units=1/GPa)
#
#
# Indices 1 2 3 4 5 6 
#
# 1 0.027162 -0.005839 -0.000954 0.000000 0.010411 0.000000
# 2 -0.005839 0.012882 -0.003814 0.000000 -0.002737 0.000000
# 3 -0.000954 -0.003814 0.012817 0.000000 0.002060 0.000000
# 4 0.000000 0.000000 0.000000 0.025705 0.000000 -0.001754
# 5 0.010411 -0.002737 0.002060 0.000000 0.037709 0.000000
# 6 0.000000 0.000000 0.000000 -0.001754 0.000000 0.032781
#
#
# Mechanical properties :
#
#
# Convention : Reuss Voigt Hill
#
# Bulk Modulus (GPa) = 31.59888 40.12389 35.86138
# Shear Modulus (GPa) = 27.65184 31.11022 29.38103
#
# Velocity S-wave (km/s) = 3.76854 3.99726 3.88458
# Velocity P-wave (km/s) = 5.93000 6.47392 6.20792
#
# Compressibility (1/GPa) = 0.03164670
#
# Stress axis : x y z
#
# Youngs Moduli (GPa) = 36.81634 77.62550 78.02056
#
# Poissons Ratio (x) = 0.45325 0.07446
# Poissons Ratio (y) = 0.21497 0.29757
# Poissons Ratio (z) = 0.03514 0.29606
#
# Static dielectric constant tensor:
#      x y z
#    x 7.451710 0.000000 2.747760 
#    y 0.000000 3.738070 0.000000 
#    z 2.747760 0.000000 5.533880 
# 
# 
# High freq. dielectric constant tensor:
#      x y z
#    x 1.754340 0.000000 0.010670 
#    y 0.000000 1.770230 0.000000 
#    z 0.010670 0.000000 1.759640 
# 
# From -- ./inp_files/28549.got.cif
#   From: 2010.06.25/outbox.cif.g09.slc.cpg/sg11_15_cif.got.tgz:28549.got - 2010.06.27 23:14:04.
