data_PCOD8077083
_publ_section_title
;
Structure prediction by ZEFSAII (Michael W. Deem and Ramdas Pophale) SiO2 
 PCOD8077083
Probable space group: P 21/M
;
_chemical_formula_sum "Si O2"
_cell_formula_units_Z 32
_cell_length_a 12.364769
_cell_length_b 14.110033
_cell_length_c 9.116934
_cell_angle_alpha 90.000000
_cell_angle_beta 95.321386
_cell_angle_gamma 90.000000
_cell_volume 1583.751571
_symmetry_space_group_name_H-M "P 21/M"
_symmetry_group_IT_number 11
_symmetry_cell_setting 'monoclinic'
loop_
_space_group_symop_operation_xyz
x,y,z
-x,1/2+y,-z
-x,-y,-z
x,1/2-y,z
loop_
_atom_site_type_symbol
_atom_site_label
_atom_site_fract_x
_atom_site_fract_y
_atom_site_fract_z
Si Si1 0.386457 0.006025 0.404591
Si Si2 0.769550 0.854908 0.458088
Si Si3 0.778777 0.358644 0.939046
Si Si4 0.767831 0.641293 0.130292
Si Si5 0.992138 0.362372 0.420805
Si Si6 0.067646 0.521343 0.865514
Si Si7 0.390804 0.487030 0.073056
Si Si8 0.797926 0.359242 0.614236
O O1 0.307951 0.087074 0.449209
O O2 0.415324 0.036916 0.243775
O O3 0.500000 0.000000 0.500000
O O4 0.317955 0.910068 0.422584
O O5 0.763598 0.750000 0.520946
O O6 0.720094 0.859579 0.288180
O O7 0.896081 0.886540 0.480777
O O8 0.753680 0.250000 0.962556
O O9 0.664503 0.410805 0.933460
O O10 0.837016 0.377156 0.787797
O O11 0.848379 0.396346 0.082430
O O12 0.794879 0.750000 0.085312
O O13 0.876786 0.579457 0.159300
O O14 0.683506 0.595495 0.006131
O O15 0.984021 0.250000 0.379089
O O16 0.995054 0.432036 0.279710
O O17 0.892212 0.393176 0.514555
O O18 0.000000 0.500000 0.000000
O O19 0.500000 0.500000 0.000000
O O20 0.772814 0.250000 0.583800
#
# Coordination Sequence:
#
# PCOD8077083 Si02
#       8
#     4   4   4   4   4   4   4   4
#     4  11  23  39  62  90 123 161 201 258 306 364
#     4  10  23  41  63  91 123 162 205 256 314 364
#     4   9  20  39  60  85 118 154 199 249 300 361
#     4  10  23  41  59  85 121 162 206 252 302 364
#     4  10  22  39  63  93 125 159 204 257 307 365
#     4  11  24  36  56  88 121 164 199 243 299 359
#     4  10  22  40  62  89 120 158 206 248 308 367
#     4   9  20  39  63  89 117 157 203 250 303 360
#
# _framework density 20.205189000000001
#
# number of rings (size 3 to 8) (size 9 to 14) (size 15 to 20)
#    0.000    2.000    0.000    1.875    7.000    4.500 
#    0.000    2.500    0.000    0.000    0.000    0.000 
#    0.000    0.000    0.000    0.000    0.000    0.000 
#
# Total GULP energy -396608.564639 kJ/mol
# GULP energy per Si atom -12394.017645 kJ/mol
# Density = 2.015920 g / cm^3
# Si number density = 20.205189 Si / 1000 Ang^3
#
#
#
# Elastic Constant Matrix: (Units=GPa)
#
#
# Indices 1 2 3 4 5 6 
#
# 1 105.5280 41.8993 54.4228 0.0000 -6.6934 0.0000
# 2 41.8993 124.3215 56.2132 0.0000 -1.8225 0.0000
# 3 54.4228 56.2132 122.0542 0.0000 -1.7827 0.0000
# 4 0.0000 0.0000 0.0000 1.9874 0.0000 19.8724
# 5 -6.6934 -1.8225 -1.7827 0.0000 43.0113 0.0000
# 6 0.0000 0.0000 0.0000 19.8724 0.0000 5.9255
#
#
#
# Elastic Compliance Matrix: (Units=1/GPa)
#
#
# Indices 1 2 3 4 5 6 
#
# 1 0.012883 -0.002186 -0.004713 0.000000 0.001717 0.000000
# 2 -0.002186 0.010533 -0.003877 0.000000 -0.000055 0.000000
# 3 -0.004713 -0.003877 0.012074 0.000000 -0.000397 0.000000
# 4 0.000000 0.000000 0.000000 -0.015466 0.000000 0.051868
# 5 0.001717 -0.000055 -0.000397 0.000000 0.023498 0.000000
# 6 0.000000 0.000000 0.000000 0.051868 0.000000 -0.005187
#
#
# Mechanical properties :
#
#
# Convention : Reuss Voigt Hill
#
# Bulk Modulus (GPa) = 71.74177 72.99715 72.36946
# Shear Modulus (GPa) = 77.47929 23.47606 50.47768
#
# Velocity S-wave (km/s) = 6.19915 3.41234 5.00368
# Velocity P-wave (km/s) = 9.31789 7.19248 8.32330
#
# Compressibility (1/GPa) = 0.01393888
#
# Stress axis : x y z
#
# Youngs Moduli (GPa) = 77.61901 94.94346 82.82089
#
# Poissons Ratio (x) = 0.20754 0.39032
# Poissons Ratio (y) = 0.16967 0.32110
# Poissons Ratio (z) = 0.36580 0.36809
#
# Static dielectric constant tensor:
#      x y z
#    x 3.630080 0.000000 -0.068810 
#    y 0.000000 3.804130 0.000000 
#    z -0.068810 0.000000 3.877360 
# 
# 
# High freq. dielectric constant tensor:
#      x y z
#    x 1.777220 0.000000 -0.000400 
#    y 0.000000 1.802480 0.000000 
#    z -0.000400 0.000000 1.799500 
# 
# From -- ./inp_files/18067.got.cif
#   From: 2010.06.25/outbox.cif.g09.slc.cpg/sg11_10_cif.got.tgz:18067.got - 2010.06.27 23:14:04.
