data_PCOD8077152
_publ_section_title
;
Structure prediction by ZEFSAII (Michael W. Deem and Ramdas Pophale) SiO2 
 PCOD8077152
Probable space group: P 21/M
;
_chemical_formula_sum "Si O2"
_cell_formula_units_Z 24
_cell_length_a 14.666766
_cell_length_b 8.512433
_cell_length_c 14.862865
_cell_angle_alpha 90.000000
_cell_angle_beta 40.502802
_cell_angle_gamma 90.000000
_cell_volume 1205.202115
_symmetry_space_group_name_H-M "P 21/M"
_symmetry_group_IT_number 11
_symmetry_cell_setting 'monoclinic'
loop_
_space_group_symop_operation_xyz
x,y,z
-x,1/2+y,-z
-x,-y,-z
x,1/2-y,z
loop_
_atom_site_type_symbol
_atom_site_label
_atom_site_fract_x
_atom_site_fract_y
_atom_site_fract_z
Si Si1 0.149489 0.567141 0.915220
Si Si2 0.847626 0.568284 0.594987
Si Si3 0.848117 0.568135 0.894665
Si Si4 0.655286 0.065118 0.887342
Si Si5 0.136939 0.431121 0.622363
Si Si6 0.654819 0.565564 0.379873
O O1 0.149881 0.750000 0.894575
O O2 0.178781 0.535782 0.997358
O O3 0.272208 0.488247 0.766254
O O4 0.000000 0.500000 0.000000
O O5 0.844177 0.750000 0.627373
O O6 0.732613 0.470594 0.735722
O O7 0.807853 0.549119 0.520312
O O8 0.000000 0.500000 0.500000
O O9 0.836666 0.750000 0.929272
O O10 0.730756 0.524382 0.911242
O O11 0.999681 0.535589 0.738533
O O12 0.656521 0.250000 0.904789
O O13 0.500000 0.000000 0.000000
O O14 0.097343 0.250000 0.672480
O O15 0.256969 0.493083 0.599740
O O16 0.500000 0.500000 0.500000
O O17 0.645112 0.750000 0.388174
#
# Coordination Sequence:
#
# PCOD8077152 Si02
#       6
#     4   4   4   4   4   4
#     4  12  24  41  66  97 131 171 219 269 323 385
#     4  11  22  39  65  97 129 168 218 266 320 382
#     4  12  24  40  67  98 128 168 219 269 324 389
#     4  12  26  45  66  94 134 174 217 271 328 385
#     4  10  22  40  65  93 128 170 214 264 321 383
#     4  11  24  43  65  94 133 173 217 268 327 384
#
# _framework density 19.913671999999998
#
# number of rings (size 3 to 8) (size 9 to 14) (size 15 to 20)
#    0.000    0.667    3.333    5.500    0.000    2.667 
#    0.000    5.000    0.000    0.000    0.000    0.000 
#    0.000    0.000    0.000    0.000    0.000    0.000 
#
# Total GULP energy -297772.965099 kJ/mol
# GULP energy per Si atom -12407.206879 kJ/mol
# Density = 1.986835 g / cm^3
# Si number density = 19.913672 Si / 1000 Ang^3
#
#
#
# Elastic Constant Matrix: (Units=GPa)
#
#
# Indices 1 2 3 4 5 6 
#
# 1 131.0417 16.1135 53.4072 0.0000 -10.1803 0.0000
# 2 16.1135 53.2173 3.3489 0.0000 -15.2381 0.0000
# 3 53.4072 3.3489 127.2938 0.0000 -16.3478 0.0000
# 4 0.0000 0.0000 0.0000 39.6250 0.0000 -0.6847
# 5 -10.1803 -15.2381 -16.3478 0.0000 42.3038 0.0000
# 6 0.0000 0.0000 0.0000 -0.6847 0.0000 33.2004
#
#
#
# Elastic Compliance Matrix: (Units=1/GPa)
#
#
# Indices 1 2 3 4 5 6 
#
# 1 0.009565 -0.002706 -0.003968 0.000000 -0.000206 0.000000
# 2 -0.002706 0.021741 0.001563 0.000000 0.007784 0.000000
# 3 -0.003968 0.001563 0.009922 0.000000 0.003442 0.000000
# 4 0.000000 0.000000 0.000000 0.025246 0.000000 0.000521
# 5 -0.000206 0.007784 0.003442 0.000000 0.027723 0.000000
# 6 0.000000 0.000000 0.000000 0.000521 0.000000 0.030131
#
#
# Mechanical properties :
#
#
# Convention : Reuss Voigt Hill
#
# Bulk Modulus (GPa) = 32.25268 50.81022 41.53145
# Shear Modulus (GPa) = 34.51027 38.93804 36.72416
#
# Velocity S-wave (km/s) = 4.16744 4.42672 4.29904
# Velocity P-wave (km/s) = 6.27600 7.19016 6.74858
#
# Compressibility (1/GPa) = 0.03100517
#
# Stress axis : x y z
#
# Youngs Moduli (GPa) = 104.54555 45.99695 100.78830
#
# Poissons Ratio (x) = 0.12445 0.39998
# Poissons Ratio (y) = 0.28285 -0.15751
# Poissons Ratio (z) = 0.41489 -0.07189
#
# Static dielectric constant tensor:
#      x y z
#    x 3.986470 0.000000 0.181090 
#    y 0.000000 3.897100 0.000000 
#    z 0.181090 0.000000 3.961550 
# 
# 
# High freq. dielectric constant tensor:
#      x y z
#    x 1.787600 0.000000 0.008870 
#    y 0.000000 1.791600 0.000000 
#    z 0.008870 0.000000 1.782650 
# 
# From -- ./inp_files/51483.got.cif
#   From: 2010.06.25/outbox.cif.g09.slc.cpg/sg11_26_cif.got.tgz:51483.got - 2010.06.27 23:14:04.
