data_PCOD8077115
_publ_section_title
;
Structure prediction by ZEFSAII (Michael W. Deem and Ramdas Pophale) SiO2 
 PCOD8077115
Probable space group: P 21/M
;
_chemical_formula_sum "Si O2"
_cell_formula_units_Z 28
_cell_length_a 14.467870
_cell_length_b 8.930079
_cell_length_c 20.982468
_cell_angle_alpha 90.000000
_cell_angle_beta 150.854234
_cell_angle_gamma 90.000000
_cell_volume 1320.307240
_symmetry_space_group_name_H-M "P 21/M"
_symmetry_group_IT_number 11
_symmetry_cell_setting 'monoclinic'
loop_
_space_group_symop_operation_xyz
x,y,z
-x,1/2+y,-z
-x,-y,-z
x,1/2-y,z
loop_
_atom_site_type_symbol
_atom_site_label
_atom_site_fract_x
_atom_site_fract_y
_atom_site_fract_z
Si Si1 0.665136 0.418190 0.410945
Si Si2 0.701238 0.076635 0.113766
Si Si3 0.073188 0.927177 0.109845
Si Si4 0.761746 0.923387 0.027220
Si Si5 0.425824 0.081119 0.762344
Si Si6 0.558443 0.925763 0.602334
Si Si7 0.103214 0.417107 0.660604
O O1 0.597766 0.250000 0.354235
O O2 0.549363 0.530048 0.295818
O O3 0.621062 0.451383 0.458519
O O4 0.881054 0.441603 0.521399
O O5 0.668076 0.250000 0.082873
O O6 0.823362 0.047095 0.249684
O O7 0.500000 0.000000 0.000000
O O8 0.820923 0.010322 0.126736
O O9 0.106482 0.750000 0.120131
O O10 0.262053 0.000682 0.253619
O O11 0.908336 0.961578 0.060416
O O12 0.000000 0.000000 0.000000
O O13 0.755864 0.750000 0.040012
O O14 0.551663 0.976305 0.882607
O O15 0.501719 0.250000 0.812932
O O16 0.207825 0.066857 0.655241
O O17 0.598405 0.750000 0.614892
O O18 0.500000 0.000000 0.500000
O O19 0.145442 0.250000 0.713638
#
# Coordination Sequence:
#
# PCOD8077115 Si02
#       7
#     4   4   4   4   4   4   4
#     4  10  23  42  64  88 124 168 208 254 315 378
#     4  12  24  39  61  91 125 165 209 257 312 373
#     4  11  25  45  70  99 131 172 220 277 337 394
#     4  11  24  41  64  91 126 168 209 258 320 380
#     4  11  22  37  62  95 128 163 206 255 308 372
#     4  11  25  45  68  96 130 173 221 276 336 393
#     4  10  22  40  61  89 126 166 207 253 307 372
#
# _framework density 21.207186
#
# number of rings (size 3 to 8) (size 9 to 14) (size 15 to 20)
#    0.000    1.143    1.429    4.286    2.000    8.000 
#    0.000    0.000    0.000    0.000    0.000    0.000 
#    0.000    0.000    0.000    0.000    0.000    0.000 
#
# Total GULP energy -347168.185002 kJ/mol
# GULP energy per Si atom -12398.863750 kJ/mol
# Density = 2.115892 g / cm^3
# Si number density = 21.207186 Si / 1000 Ang^3
#
#
#
# Elastic Constant Matrix: (Units=GPa)
#
#
# Indices 1 2 3 4 5 6 
#
# 1 120.5826 68.1638 38.2896 0.0000 -16.5967 0.0000
# 2 68.1638 133.2592 46.1710 0.0000 -10.4849 0.0000
# 3 38.2896 46.1710 85.2589 0.0000 -13.5737 0.0000
# 4 0.0000 0.0000 0.0000 38.7012 0.0000 -6.2318
# 5 -16.5967 -10.4849 -13.5737 0.0000 40.1023 0.0000
# 6 0.0000 0.0000 0.0000 -6.2318 0.0000 36.1349
#
#
#
# Elastic Compliance Matrix: (Units=1/GPa)
#
#
# Indices 1 2 3 4 5 6 
#
# 1 0.012437 -0.005362 -0.002204 0.000000 0.002999 0.000000
# 2 -0.005362 0.011571 -0.003942 0.000000 -0.000528 0.000000
# 3 -0.002204 -0.003942 0.015373 0.000000 0.003260 0.000000
# 4 0.000000 0.000000 0.000000 0.026577 0.000000 0.004583
# 5 0.002999 -0.000528 0.003260 0.000000 0.027143 0.000000
# 6 0.000000 0.000000 0.000000 0.004583 0.000000 0.028465
#
#
# Mechanical properties :
#
#
# Convention : Reuss Voigt Hill
#
# Bulk Modulus (GPa) = 61.10951 71.59436 66.35194
# Shear Modulus (GPa) = 33.32514 35.41943 34.37229
#
# Velocity S-wave (km/s) = 3.96840 4.09120 4.03026
# Velocity P-wave (km/s) = 7.06227 7.49333 7.28099
#
# Compressibility (1/GPa) = 0.01636407
#
# Stress axis : x y z
#
# Youngs Moduli (GPa) = 80.40662 86.42126 65.04965
#
# Poissons Ratio (x) = 0.46338 0.14338
# Poissons Ratio (y) = 0.43113 0.25645
# Poissons Ratio (z) = 0.17723 0.34070
#
# Static dielectric constant tensor:
#      x y z
#    x 4.235400 0.000000 -0.629850 
#    y 0.000000 3.998330 0.000000 
#    z -0.629850 0.000000 7.545960 
# 
# 
# High freq. dielectric constant tensor:
#      x y z
#    x 1.850180 0.000000 -0.002480 
#    y 0.000000 1.840830 0.000000 
#    z -0.002480 0.000000 1.821540 
# 
# From -- ./inp_files/65433.got.cif
#   From: 2010.06.25/outbox.cif.g09.slc.cpg/sg11_33_cif.got.tgz:65433.got - 2010.06.27 23:14:04.
