data_PCOD8077196
_publ_section_title
;
Structure prediction by ZEFSAII (Michael W. Deem and Ramdas Pophale) SiO2 
 PCOD8077196
Probable space group: P 21/M
;
_chemical_formula_sum "Si O2"
_cell_formula_units_Z 32
_cell_length_a 15.251166
_cell_length_b 8.844154
_cell_length_c 12.028437
_cell_angle_alpha 90.000000
_cell_angle_beta 89.407272
_cell_angle_gamma 90.000000
_cell_volume 1622.352800
_symmetry_space_group_name_H-M "P 21/M"
_symmetry_group_IT_number 11
_symmetry_cell_setting 'monoclinic'
loop_
_space_group_symop_operation_xyz
x,y,z
-x,1/2+y,-z
-x,-y,-z
x,1/2-y,z
loop_
_atom_site_type_symbol
_atom_site_label
_atom_site_fract_x
_atom_site_fract_y
_atom_site_fract_z
Si Si1 0.147656 0.920690 0.759962
Si Si2 0.249289 0.429540 0.395503
Si Si3 0.650154 0.081404 0.250297
Si Si4 0.912703 0.929479 0.456453
Si Si5 0.595804 0.071096 0.006804
Si Si6 0.410889 0.072809 0.536959
Si Si7 0.253608 0.071449 0.141824
Si Si8 0.095326 0.428363 0.985002
O O1 0.110101 0.750000 0.771339
O O2 0.247973 0.917341 0.723368
O O3 0.095328 0.012345 0.668560
O O4 0.139520 0.007619 0.874834
O O5 0.249374 0.250000 0.397397
O O6 0.165035 0.489980 0.463435
O O7 0.334755 0.492777 0.458089
O O8 0.247441 0.487826 0.268691
O O9 0.610760 0.250000 0.267106
O O10 0.604385 0.966111 0.334269
O O11 0.634184 0.024943 0.125779
O O12 0.917218 0.750000 0.455649
O O13 0.000000 0.000000 0.500000
O O14 0.589441 0.250000 0.991078
O O15 0.662053 0.006918 0.913958
O O16 0.500000 0.000000 0.000000
O O17 0.417484 0.250000 0.523745
O O18 0.500000 0.000000 0.500000
O O19 0.269509 0.250000 0.135561
O O20 0.161388 0.027740 0.084504
O O21 0.084017 0.250000 0.976105
O O22 0.000000 0.500000 0.000000
#
# Coordination Sequence:
#
# PCOD8077196 Si02
#       8
#     4   4   4   4   4   4   4   4
#     4  11  22  41  66  90 123 163 208 262 314 368
#     4   9  21  41  62  85 122 164 200 246 306 365
#     4  10  22  41  64  88 121 161 206 258 310 363
#     4  11  23  41  64  94 126 164 210 256 311 372
#     4  11  24  42  63  92 124 161 205 257 311 369
#     4  11  23  40  63  91 124 161 204 253 306 367
#     4  10  22  42  64  88 122 166 206 249 308 371
#     4  11  24  40  64  94 126 164 209 257 310 374
#
# _framework density 19.724437999999999
#
# number of rings (size 3 to 8) (size 9 to 14) (size 15 to 20)
#    0.000    1.500    2.500    1.875    3.500    2.000 
#    0.000    1.875    0.000    0.000    0.000    0.000 
#    0.000    0.000    0.000    0.000    0.000    0.000 
#
# Total GULP energy -396875.410275 kJ/mol
# GULP energy per Si atom -12402.356571 kJ/mol
# Density = 1.967954 g / cm^3
# Si number density = 19.724438 Si / 1000 Ang^3
#
#
#
# Elastic Constant Matrix: (Units=GPa)
#
#
# Indices 1 2 3 4 5 6 
#
# 1 129.2793 44.4306 42.8465 0.0000 2.0996 0.0000
# 2 44.4306 75.9630 38.9399 0.0000 1.7410 0.0000
# 3 42.8465 38.9399 132.1213 0.0000 4.2157 0.0000
# 4 0.0000 0.0000 0.0000 33.3606 0.0000 -3.1119
# 5 2.0996 1.7410 4.2157 0.0000 33.3244 0.0000
# 6 0.0000 0.0000 0.0000 -3.1119 0.0000 36.4341
#
#
#
# Elastic Compliance Matrix: (Units=1/GPa)
#
#
# Indices 1 2 3 4 5 6 
#
# 1 0.010031 -0.004946 -0.001791 0.000000 -0.000147 0.000000
# 2 -0.004946 0.017947 -0.003681 0.000000 -0.000160 0.000000
# 3 -0.001791 -0.003681 0.009262 0.000000 -0.000867 0.000000
# 4 0.000000 0.000000 0.000000 0.030216 0.000000 0.002581
# 5 -0.000147 -0.000160 -0.000867 0.000000 0.030135 0.000000
# 6 0.000000 0.000000 0.000000 0.002581 0.000000 0.027667
#
#
# Mechanical properties :
#
#
# Convention : Reuss Voigt Hill
#
# Bulk Modulus (GPa) = 60.95235 65.53308 63.24272
# Shear Modulus (GPa) = 32.98986 34.70024 33.84505
#
# Velocity S-wave (km/s) = 4.09410 4.19889 4.14683
# Velocity P-wave (km/s) = 7.30191 7.53685 7.42031
#
# Compressibility (1/GPa) = 0.01640626
#
# Stress axis : x y z
#
# Youngs Moduli (GPa) = 99.69324 55.71810 107.96885
#
# Poissons Ratio (x) = 0.27557 0.19333
# Poissons Ratio (y) = 0.49305 0.39739
# Poissons Ratio (z) = 0.17851 0.20508
#
# Static dielectric constant tensor:
#      x y z
#    x 3.757260 0.000000 0.158600 
#    y 0.000000 3.491550 0.000000 
#    z 0.158600 0.000000 3.909740 
# 
# 
# High freq. dielectric constant tensor:
#      x y z
#    x 1.779370 0.000000 0.002800 
#    y 0.000000 1.763440 0.000000 
#    z 0.002800 0.000000 1.782400 
# 
# From -- ./inp_files/38074.got.cif
#   From: 2010.06.25/outbox.cif.g09.slc.cpg/sg11_20_cif.got.tgz:38074.got - 2010.06.27 23:14:04.
