data_PCOD8077623
_publ_section_title
;
Structure prediction by ZEFSAII (Michael W. Deem and Ramdas Pophale) SiO2 
 PCOD8077623
Probable space group: P 21/M
;
_chemical_formula_sum "Si O2"
_cell_formula_units_Z 24
_cell_length_a 15.024789
_cell_length_b 9.108459
_cell_length_c 16.379840
_cell_angle_alpha 90.000000
_cell_angle_beta 142.205377
_cell_angle_gamma 90.000000
_cell_volume 1373.741491
_symmetry_space_group_name_H-M "P 21/M"
_symmetry_group_IT_number 11
_symmetry_cell_setting 'monoclinic'
loop_
_space_group_symop_operation_xyz
x,y,z
-x,1/2+y,-z
-x,-y,-z
x,1/2-y,z
loop_
_atom_site_type_symbol
_atom_site_label
_atom_site_fract_x
_atom_site_fract_y
_atom_site_fract_z
Si Si1 0.107228 0.576854 0.639849
Si Si2 0.413336 0.421939 0.865450
Si Si3 0.915667 0.084411 0.823035
Si Si4 0.780975 0.915495 0.863245
Si Si5 0.346496 0.582381 0.088964
Si Si6 0.942762 0.081073 0.211241
O O1 0.122135 0.750000 0.632854
O O2 0.261773 0.500869 0.742281
O O3 0.042533 0.548460 0.682620
O O4 0.000000 0.500000 0.500000
O O5 0.393219 0.250000 0.872109
O O6 0.500444 0.441652 0.844186
O O7 0.500000 0.500000 0.000000
O O8 0.862770 0.250000 0.772179
O O9 0.792604 0.000529 0.785779
O O10 0.935548 0.011337 0.748685
O O11 0.066898 0.075826 0.980021
O O12 0.734593 0.750000 0.810443
O O13 0.658185 0.986926 0.831879
O O14 0.323998 0.750000 0.099367
O O15 0.219361 0.535342 0.933978
O O16 0.972152 0.250000 0.211965
#
# Coordination Sequence:
#
# PCOD8077623 Si02
#       6
#     4   4   4   4   4   4
#     4  11  23  39  55  77 106 141 180 223 268 314
#     4  11  21  35  55  79 106 140 178 220 266 316
#     4   9  16  25  40  64  94 129 166 204 251 304
#     4   9  16  25  39  64  96 130 164 203 252 302
#     4   9  17  30  47  70 100 133 168 209 257 305
#     4   9  17  31  48  68  98 133 170 211 257 306
#
# _framework density 17.470535000000002
#
# number of rings (size 3 to 8) (size 9 to 14) (size 15 to 20)
#    0.000    2.333    1.667    2.000    0.000    6.667 
#    0.000    0.000    0.000    0.000    0.000    1.167 
#    0.000    0.000    0.000    0.000    0.000    0.000 
#
# Total GULP energy -297599.868735 kJ/mol
# GULP energy per Si atom -12399.994531 kJ/mol
# Density = 1.743077 g / cm^3
# Si number density = 17.470535 Si / 1000 Ang^3
#
#
#
# Elastic Constant Matrix: (Units=GPa)
#
#
# Indices 1 2 3 4 5 6 
#
# 1 132.6492 91.1588 48.6223 0.0000 -17.4266 0.0000
# 2 91.1588 146.9754 50.3536 0.0000 -10.5708 0.0000
# 3 48.6223 50.3536 73.5284 0.0000 -0.7285 0.0000
# 4 0.0000 0.0000 0.0000 22.2190 0.0000 -3.7981
# 5 -17.4266 -10.5708 -0.7285 0.0000 17.0162 0.0000
# 6 0.0000 0.0000 0.0000 -3.7981 0.0000 39.3307
#
#
#
# Elastic Compliance Matrix: (Units=1/GPa)
#
#
# Indices 1 2 3 4 5 6 
#
# 1 0.016092 -0.007225 -0.005577 0.000000 0.011753 0.000000
# 2 -0.007225 0.012631 -0.003870 0.000000 0.000282 0.000000
# 3 -0.005577 -0.003870 0.019866 0.000000 -0.007265 0.000000
# 4 0.000000 0.000000 0.000000 0.045762 0.000000 0.004419
# 5 0.011753 0.000282 -0.007265 0.000000 0.070668 0.000000
# 6 0.000000 0.000000 0.000000 0.004419 0.000000 0.025852
#
#
# Mechanical properties :
#
#
# Convention : Reuss Voigt Hill
#
# Bulk Modulus (GPa) = 65.59004 81.49137 73.54071
# Shear Modulus (GPa) = 21.80587 26.58107 24.19347
#
# Velocity S-wave (km/s) = 3.53675 3.90485 3.72535
# Velocity P-wave (km/s) = 7.36905 8.19004 7.79037
#
# Compressibility (1/GPa) = 0.01524622
#
# Stress axis : x y z
#
# Youngs Moduli (GPa) = 62.14295 79.17137 50.33702
#
# Poissons Ratio (x) = 0.57199 0.28073
# Poissons Ratio (y) = 0.44896 0.19478
# Poissons Ratio (z) = 0.34658 0.30636
#
# Static dielectric constant tensor:
#      x y z
#    x 3.414750 0.000000 -0.154510 
#    y 0.000000 3.430200 0.000000 
#    z -0.154510 0.000000 2.687650 
# 
# 
# High freq. dielectric constant tensor:
#      x y z
#    x 1.688960 0.000000 -0.016750 
#    y 0.000000 1.689980 0.000000 
#    z -0.016750 0.000000 1.611860 
# 
# From -- ./inp_files/20354.got.cif
#   From: 2010.06.25/outbox.cif.g09.slc.cpg/sg11_11_cif.got.tgz:20354.got - 2010.06.27 23:14:04.
