data_PCOD8077139
_publ_section_title
;
Structure prediction by ZEFSAII (Michael W. Deem and Ramdas Pophale) SiO2 
 PCOD8077139
Probable space group: P 21/M
;
_chemical_formula_sum "Si O2"
_cell_formula_units_Z 16
_cell_length_a 4.721811
_cell_length_b 18.941247
_cell_length_c 6.700094
_cell_angle_alpha 90.000000
_cell_angle_beta 77.719570
_cell_angle_gamma 90.000000
_cell_volume 585.524674
_symmetry_space_group_name_H-M "P 21/M"
_symmetry_group_IT_number 11
_symmetry_cell_setting 'monoclinic'
loop_
_space_group_symop_operation_xyz
x,y,z
-x,1/2+y,-z
-x,-y,-z
x,1/2-y,z
loop_
_atom_site_type_symbol
_atom_site_label
_atom_site_fract_x
_atom_site_fract_y
_atom_site_fract_z
Si Si1 0.529269 0.100283 0.917159
Si Si2 0.878782 0.954865 0.309853
Si Si3 0.761678 0.250000 0.274890
Si Si4 0.360128 0.899439 0.632305
Si Si5 0.653082 0.750000 0.004176
O O1 0.255381 0.050596 0.896643
O O2 0.798160 0.076374 0.737243
O O3 0.581555 0.093627 0.141584
O O4 0.456525 0.180661 0.864498
O O5 0.663178 0.906741 0.473598
O O6 0.868821 0.036935 0.387967
O O7 0.783384 0.323058 0.397785
O O8 0.451373 0.250000 0.210939
O O9 0.998666 0.250000 0.061627
#
# Coordination Sequence:
#
# PCOD8077139 Si02
#       5
#     4   4   2   4   2
#     4  11  23  42  65  92 130 168 207 263 316 365
#     4  11  25  40  67  97 124 168 215 258 314 378
#     4  10  22  40  64  88 127 170 201 260 322 366
#     4  10  24  43  64  95 131 165 213 261 313 379
#     4  10  22  40  64  94 125 166 215 254 310 382
#
# _framework density 27.32592
#
# number of rings (size 3 to 8) (size 9 to 14) (size 15 to 20)
#    0.000    1.500    0.000    4.500    0.000   16.000 
#    0.000    0.000    0.000    0.000    0.000    0.000 
#    0.000    0.000    0.000    0.000    0.000    0.000 
#
# Total GULP energy -198432.552722 kJ/mol
# GULP energy per Si atom -12402.034545 kJ/mol
# Density = 2.726373 g / cm^3
# Si number density = 27.325920 Si / 1000 Ang^3
#
#
#
# Elastic Constant Matrix: (Units=GPa)
#
#
# Indices 1 2 3 4 5 6 
#
# 1 85.9611 41.1351 -7.1994 0.0000 -32.9903 0.0000
# 2 41.1351 245.5032 17.6261 0.0000 -12.9175 0.0000
# 3 -7.1994 17.6261 61.5477 0.0000 -0.6601 0.0000
# 4 0.0000 0.0000 0.0000 43.2247 0.0000 -7.9429
# 5 -32.9903 -12.9175 -0.6601 0.0000 16.9389 0.0000
# 6 0.0000 0.0000 0.0000 -7.9429 0.0000 17.8156
#
#
#
# Elastic Compliance Matrix: (Units=1/GPa)
#
#
# Indices 1 2 3 4 5 6 
#
# 1 0.052405 -0.004162 0.008386 0.000000 0.099217 0.000000
# 2 -0.004162 0.004662 -0.001872 0.000000 -0.004624 0.000000
# 3 0.008386 -0.001872 0.017932 0.000000 0.015604 0.000000
# 4 0.000000 0.000000 0.000000 0.025199 0.000000 0.011235
# 5 0.099217 -0.004624 0.015604 0.000000 0.249354 0.000000
# 6 0.000000 0.000000 0.000000 0.011235 0.000000 0.061139
#
#
# Mechanical properties :
#
#
# Convention : Reuss Voigt Hill
#
# Bulk Modulus (GPa) = 12.54657 55.12618 33.83638
# Shear Modulus (GPa) = 11.55924 38.35919 24.95921
#
# Velocity S-wave (km/s) = 2.05896 3.75075 3.02551
# Velocity P-wave (km/s) = 3.20216 6.24299 4.96129
#
# Compressibility (1/GPa) = 0.07970307
#
# Stress axis : x y z
#
# Youngs Moduli (GPa) = 19.08210 214.51296 55.76685
#
# Poissons Ratio (x) = 0.89287 -0.46766
# Poissons Ratio (y) = 0.07943 0.10437
# Poissons Ratio (z) = -0.16002 0.40146
#
# Static dielectric constant tensor:
#      x y z
#    x 4.928180 0.000000 0.227330 
#    y 0.000000 5.793020 0.000000 
#    z 0.227330 0.000000 4.849230 
# 
# 
# High freq. dielectric constant tensor:
#      x y z
#    x 2.102950 0.000000 0.007790 
#    y 0.000000 2.118340 0.000000 
#    z 0.007790 0.000000 2.105160 
# 
# From -- ./inp_files/9975.got.cif
#   From: 2010.06.25/outbox.cif.g09.slc.cpg/sg11_5_cif.got.tgz:9975.got - 2010.06.27 23:14:04.
