data_PCOD8077239
_publ_section_title
;
Structure prediction by ZEFSAII (Michael W. Deem and Ramdas Pophale) SiO2 
 PCOD8077239
Probable space group: P 21/M
;
_chemical_formula_sum "Si O2"
_cell_formula_units_Z 20
_cell_length_a 16.278118
_cell_length_b 13.208521
_cell_length_c 8.861265
_cell_angle_alpha 90.000000
_cell_angle_beta 150.593031
_cell_angle_gamma 90.000000
_cell_volume 935.500869
_symmetry_space_group_name_H-M "P 21/M"
_symmetry_group_IT_number 11
_symmetry_cell_setting 'monoclinic'
loop_
_space_group_symop_operation_xyz
x,y,z
-x,1/2+y,-z
-x,-y,-z
x,1/2-y,z
loop_
_atom_site_type_symbol
_atom_site_label
_atom_site_fract_x
_atom_site_fract_y
_atom_site_fract_z
Si Si1 0.731475 0.867239 0.236515
Si Si2 0.581577 0.365902 0.759233
Si Si3 0.066375 0.977062 0.270619
Si Si4 0.601580 0.368469 0.141169
Si Si5 0.740055 0.936599 0.911355
O O1 0.747791 0.750000 0.301324
O O2 0.888127 0.920850 0.566633
O O3 0.561065 0.915475 0.034736
O O4 0.731900 0.883714 0.059446
O O5 0.638473 0.250000 0.819820
O O6 0.389051 0.379681 0.404594
O O7 0.697988 0.443076 0.851298
O O8 0.600030 0.396067 0.962809
O O9 0.227936 0.906602 0.511144
O O10 0.000000 0.000000 0.000000
O O11 0.923709 0.919865 0.137651
O O12 0.593013 0.250000 0.154663
#
# Coordination Sequence:
#
# PCOD8077239 Si02
#       5
#     4   4   4   4   4
#     4  11  24  43  67  95 129 170 216 263 319 384
#     4  10  22  41  67  93 126 167 213 261 320 390
#     4  12  26  42  64  95 133 170 212 269 319 380
#     4  10  23  43  67  91 124 171 214 258 320 386
#     4  11  24  41  65  99 127 167 210 266 330 370
#
# _framework density 21.378920999999998
#
# number of rings (size 3 to 8) (size 9 to 14) (size 15 to 20)
#    0.000    1.200    2.000    3.000    5.600    3.200 
#    0.000    0.000    0.000    0.000    0.000    0.000 
#    0.000    0.000    0.000    0.000    0.000    0.000 
#
# Total GULP energy -248118.305884 kJ/mol
# GULP energy per Si atom -12405.915294 kJ/mol
# Density = 2.133026 g / cm^3
# Si number density = 21.378921 Si / 1000 Ang^3
#
#
#
# Elastic Constant Matrix: (Units=GPa)
#
#
# Indices 1 2 3 4 5 6 
#
# 1 81.6159 -6.8789 32.4236 0.0000 1.8330 0.0000
# 2 -6.8789 34.1919 1.1454 0.0000 -6.4711 0.0000
# 3 32.4236 1.1454 140.2751 0.0000 -14.6907 0.0000
# 4 0.0000 0.0000 0.0000 29.0017 0.0000 -3.6435
# 5 1.8330 -6.4711 -14.6907 0.0000 39.1748 0.0000
# 6 0.0000 0.0000 0.0000 -3.6435 0.0000 28.5342
#
#
#
# Elastic Compliance Matrix: (Units=1/GPa)
#
#
# Indices 1 2 3 4 5 6 
#
# 1 0.013848 0.002619 -0.003378 0.000000 -0.001482 0.000000
# 2 0.002619 0.030697 -0.000352 0.000000 0.004816 0.000000
# 3 -0.003378 -0.000352 0.008247 0.000000 0.003193 0.000000
# 4 0.000000 0.000000 0.000000 0.035043 0.000000 0.004475
# 5 -0.001482 0.004816 0.003193 0.000000 0.027589 0.000000
# 6 0.000000 0.000000 0.000000 0.004475 0.000000 0.035617
#
#
# Mechanical properties :
#
#
# Convention : Reuss Voigt Hill
#
# Bulk Modulus (GPa) = 19.77409 34.38480 27.07945
# Shear Modulus (GPa) = 29.39131 34.63499 32.01315
#
# Velocity S-wave (km/s) = 3.71182 4.02935 3.87384
# Velocity P-wave (km/s) = 5.25734 6.14541 5.71864
#
# Compressibility (1/GPa) = 0.05057122
#
# Stress axis : x y z
#
# Youngs Moduli (GPa) = 72.21096 32.57665 121.25976
#
# Poissons Ratio (x) = -0.08531 0.40956
# Poissons Ratio (y) = -0.18910 0.04263
# Poissons Ratio (z) = 0.24389 0.01145
#
# Static dielectric constant tensor:
#      x y z
#    x 3.880610 0.000000 0.113060 
#    y 0.000000 4.048280 0.000000 
#    z 0.113060 0.000000 4.004680 
# 
# 
# High freq. dielectric constant tensor:
#      x y z
#    x 1.838640 0.000000 -0.003280 
#    y 0.000000 1.851910 0.000000 
#    z -0.003280 0.000000 1.846810 
# 
# From -- ./inp_files/24855.got.cif
#   From: 2010.06.25/outbox.cif.g09.slc.cpg/sg11_13_cif.got.tgz:24855.got - 2010.06.27 23:14:04.
