data_PCOD8077402
_publ_section_title
;
Structure prediction by ZEFSAII (Michael W. Deem and Ramdas Pophale) SiO2 
 PCOD8077402
Probable space group: P 21/M
;
_chemical_formula_sum "Si O2"
_cell_formula_units_Z 20
_cell_length_a 8.147106
_cell_length_b 17.961614
_cell_length_c 7.776830
_cell_angle_alpha 90.000000
_cell_angle_beta 55.193224
_cell_angle_gamma 90.000000
_cell_volume 934.410498
_symmetry_space_group_name_H-M "P 21/M"
_symmetry_group_IT_number 11
_symmetry_cell_setting 'monoclinic'
loop_
_space_group_symop_operation_xyz
x,y,z
-x,1/2+y,-z
-x,-y,-z
x,1/2-y,z
loop_
_atom_site_type_symbol
_atom_site_label
_atom_site_fract_x
_atom_site_fract_y
_atom_site_fract_z
Si Si1 0.237376 0.667181 0.702123
Si Si2 0.114989 0.060526 0.035919
Si Si3 0.776005 0.523103 0.676831
Si Si4 0.480598 0.613967 0.247036
Si Si5 0.533188 0.836221 0.828978
O O1 0.154063 0.750000 0.771470
O O2 0.379624 0.665511 0.450307
O O3 0.351163 0.644608 0.809348
O O4 0.045030 0.616188 0.786099
O O5 0.241290 0.017644 0.106890
O O6 0.287488 0.104872 0.829509
O O7 0.000000 0.000000 0.000000
O O8 0.623423 0.466747 0.680272
O O9 0.716298 0.608766 0.665148
O O10 0.000000 0.500000 0.500000
O O11 0.462445 0.650284 0.068204
O O12 0.601289 0.750000 0.766244
#
# Coordination Sequence:
#
# PCOD8077402 Si02
#       5
#     4   4   4   4   4
#     4  11  24  42  65  95 128 168 213 264 322 379
#     4  11  23  39  66  95 125 163 213 266 312 380
#     4  11  22  40  64  93 126 167 213 259 315 380
#     4  11  23  43  66  92 129 169 211 261 322 376
#     4  10  23  43  63  91 131 168 213 267 319 379
#
# _framework density 21.403867999999999
#
# number of rings (size 3 to 8) (size 9 to 14) (size 15 to 20)
#    0.000    1.200    2.000    5.400    2.800    5.600 
#    0.000    0.000    0.000    0.000    0.000    0.000 
#    0.000    0.000    0.000    0.000    0.000    0.000 
#
# Total GULP energy -247905.432900 kJ/mol
# GULP energy per Si atom -12395.271645 kJ/mol
# Density = 2.135515 g / cm^3
# Si number density = 21.403868 Si / 1000 Ang^3
#
#
#
# Elastic Constant Matrix: (Units=GPa)
#
#
# Indices 1 2 3 4 5 6 
#
# 1 93.9601 31.5654 29.6797 0.0000 -0.5771 0.0000
# 2 31.5654 105.8039 24.8171 0.0000 -4.9829 0.0000
# 3 29.6797 24.8171 96.0625 0.0000 -17.3051 0.0000
# 4 0.0000 0.0000 0.0000 28.7637 0.0000 -0.1420
# 5 -0.5771 -4.9829 -17.3051 0.0000 39.1321 0.0000
# 6 0.0000 0.0000 0.0000 -0.1420 0.0000 30.2537
#
#
#
# Elastic Compliance Matrix: (Units=1/GPa)
#
#
# Indices 1 2 3 4 5 6 
#
# 1 0.012758 -0.003077 -0.003459 0.000000 -0.001733 0.000000
# 2 -0.003077 0.010804 -0.001739 0.000000 0.000561 0.000000
# 3 -0.003459 -0.001739 0.012907 0.000000 0.005435 0.000000
# 4 0.000000 0.000000 0.000000 0.034767 0.000000 0.000163
# 5 -0.001733 0.000561 0.005435 0.000000 0.028004 0.000000
# 6 0.000000 0.000000 0.000000 0.000163 0.000000 0.033055
#
#
# Mechanical properties :
#
#
# Convention : Reuss Voigt Hill
#
# Bulk Modulus (GPa) = 50.20407 51.99454 51.09930
# Shear Modulus (GPa) = 32.15745 33.61420 32.88582
#
# Velocity S-wave (km/s) = 3.88030 3.96722 3.92400
# Velocity P-wave (km/s) = 6.60168 6.73275 6.66754
#
# Compressibility (1/GPa) = 0.01991870
#
# Stress axis : x y z
#
# Youngs Moduli (GPa) = 78.37954 92.56058 77.47610
#
# Poissons Ratio (x) = 0.28477 0.26801
# Poissons Ratio (y) = 0.24114 0.13477
# Poissons Ratio (z) = 0.27114 0.16100
#
# Static dielectric constant tensor:
#      x y z
#    x 5.692300 0.000000 -0.033010 
#    y 0.000000 4.534510 0.000000 
#    z -0.033010 0.000000 4.008170 
# 
# 
# High freq. dielectric constant tensor:
#      x y z
#    x 1.849340 0.000000 -0.002080 
#    y 0.000000 1.844470 0.000000 
#    z -0.002080 0.000000 1.831860 
# 
# From -- ./inp_files/13322.got.cif
#   From: 2010.06.25/outbox.cif.g09.slc.cpg/sg11_7_cif.got.tgz:13322.got - 2010.06.27 23:14:04.
