data_PCOD8077180
_publ_section_title
;
Structure prediction by ZEFSAII (Michael W. Deem and Ramdas Pophale) SiO2 
 PCOD8077180
Probable space group: P 21/M
;
_chemical_formula_sum "Si O2"
_cell_formula_units_Z 28
_cell_length_a 11.733215
_cell_length_b 8.804926
_cell_length_c 15.649469
_cell_angle_alpha 90.000000
_cell_angle_beta 56.707720
_cell_angle_gamma 90.000000
_cell_volume 1351.409507
_symmetry_space_group_name_H-M "P 21/M"
_symmetry_group_IT_number 11
_symmetry_cell_setting 'monoclinic'
loop_
_space_group_symop_operation_xyz
x,y,z
-x,1/2+y,-z
-x,-y,-z
x,1/2-y,z
loop_
_atom_site_type_symbol
_atom_site_label
_atom_site_fract_x
_atom_site_fract_y
_atom_site_fract_z
Si Si1 0.862083 0.575101 0.861188
Si Si2 0.130946 0.570348 0.490390
Si Si3 0.856363 0.428318 0.036779
Si Si4 0.875596 0.925838 0.324720
Si Si5 0.583272 0.923242 0.890543
Si Si6 0.594330 0.075450 0.708659
Si Si7 0.687679 0.577480 0.248341
O O1 0.906366 0.750000 0.855528
O O2 0.745331 0.560053 0.838043
O O3 0.991331 0.475839 0.781835
O O4 0.800634 0.508175 0.974107
O O5 0.120822 0.750000 0.488340
O O6 0.139943 0.525664 0.585066
O O7 0.265930 0.507689 0.387290
O O8 0.000000 0.500000 0.500000
O O9 0.871204 0.250000 0.015645
O O10 0.752739 0.459502 0.155866
O O11 0.000000 0.500000 0.000000
O O12 0.890658 0.750000 0.343899
O O13 0.742536 0.954990 0.320994
O O14 0.536802 0.750000 0.908145
O O15 0.547641 0.992848 0.813851
O O16 0.500000 0.000000 0.000000
O O17 0.616547 0.250000 0.723387
O O18 0.475609 0.054874 0.686625
O O19 0.726807 0.750000 0.205274
#
# Coordination Sequence:
#
# PCOD8077180 Si02
#       7
#     4   4   4   4   4   4   4
#     4  11  23  39  60  88 124 162 207 259 310 364
#     4  11  24  43  67  93 123 160 205 257 312 368
#     4  12  23  36  58  89 125 165 207 251 304 365
#     4  11  23  39  63  92 122 159 204 254 309 367
#     4  11  24  40  61  90 123 161 203 253 306 365
#     4  10  23  43  65  89 123 165 205 254 311 365
#     4  10  22  41  62  89 125 163 207 255 307 367
#
# _framework density 20.719107000000001
#
# number of rings (size 3 to 8) (size 9 to 14) (size 15 to 20)
#    0.000    1.143    1.429    4.714    0.000   10.857 
#    0.000    0.000    0.000    0.000    0.000    0.000 
#    0.000    0.000    0.000    0.000    0.000    0.000 
#
# Total GULP energy -347348.314720 kJ/mol
# GULP energy per Si atom -12405.296954 kJ/mol
# Density = 2.067195 g / cm^3
# Si number density = 20.719107 Si / 1000 Ang^3
#
#
#
# Elastic Constant Matrix: (Units=GPa)
#
#
# Indices 1 2 3 4 5 6 
#
# 1 131.5209 44.7394 52.9772 0.0000 1.7763 0.0000
# 2 44.7394 88.1751 30.8249 0.0000 0.4150 0.0000
# 3 52.9772 30.8249 112.0371 0.0000 3.9977 0.0000
# 4 0.0000 0.0000 0.0000 36.2607 0.0000 3.6793
# 5 1.7763 0.4150 3.9977 0.0000 37.2910 0.0000
# 6 0.0000 0.0000 0.0000 3.6793 0.0000 30.8473
#
#
#
# Elastic Compliance Matrix: (Units=1/GPa)
#
#
# Indices 1 2 3 4 5 6 
#
# 1 0.010520 -0.003982 -0.003878 0.000000 -0.000041 0.000000
# 2 -0.003982 0.014057 -0.001993 0.000000 0.000247 0.000000
# 3 -0.003878 -0.001993 0.011344 0.000000 -0.001009 0.000000
# 4 0.000000 0.000000 0.000000 0.027916 0.000000 -0.003330
# 5 -0.000041 0.000247 -0.001009 0.000000 0.026923 0.000000
# 6 0.000000 0.000000 0.000000 -0.003330 0.000000 0.032815
#
#
# Mechanical properties :
#
#
# Convention : Reuss Voigt Hill
#
# Bulk Modulus (GPa) = 61.67133 65.42401 63.54767
# Shear Modulus (GPa) = 33.62767 34.42590 34.02678
#
# Velocity S-wave (km/s) = 4.03305 4.08064 4.05691
# Velocity P-wave (km/s) = 7.17756 7.33807 7.25826
#
# Compressibility (1/GPa) = 0.01621499
#
# Stress axis : x y z
#
# Youngs Moduli (GPa) = 95.05307 71.13716 88.15569
#
# Poissons Ratio (x) = 0.28329 0.34182
# Poissons Ratio (y) = 0.37853 0.17573
# Poissons Ratio (z) = 0.36857 0.14180
#
# Static dielectric constant tensor:
#      x y z
#    x 3.967220 0.000000 -0.035130 
#    y 0.000000 3.811960 0.000000 
#    z -0.035130 0.000000 3.762520 
# 
# 
# High freq. dielectric constant tensor:
#      x y z
#    x 1.828340 0.000000 0.003340 
#    y 0.000000 1.817100 0.000000 
#    z 0.003340 0.000000 1.803230 
# 
# From -- ./inp_files/49147.got.cif
#   From: 2010.06.25/outbox.cif.g09.slc.cpg/sg11_25_cif.got.tgz:49147.got - 2010.06.27 23:14:04.
