data_PCOD8077812
_publ_section_title
;
Structure prediction by ZEFSAII (Michael W. Deem and Ramdas Pophale) SiO2 
 PCOD8077812
Probable space group: P 21/M
;
_chemical_formula_sum "Si O2"
_cell_formula_units_Z 28
_cell_length_a 7.557891
_cell_length_b 8.932899
_cell_length_c 19.918714
_cell_angle_alpha 90.000000
_cell_angle_beta 88.585051
_cell_angle_gamma 90.000000
_cell_volume 1344.379554
_symmetry_space_group_name_H-M "P 21/M"
_symmetry_group_IT_number 11
_symmetry_cell_setting 'monoclinic'
loop_
_space_group_symop_operation_xyz
x,y,z
-x,1/2+y,-z
-x,-y,-z
x,1/2-y,z
loop_
_atom_site_type_symbol
_atom_site_label
_atom_site_fract_x
_atom_site_fract_y
_atom_site_fract_z
Si Si1 0.155434 0.427749 0.350029
Si Si2 0.670690 0.414113 0.924609
Si Si3 0.781202 0.927614 0.331786
Si Si4 0.545281 0.427452 0.569908
Si Si5 0.265771 0.414746 0.953218
Si Si6 0.176905 0.415576 0.813241
Si Si7 0.770103 0.417364 0.783292
O O1 0.151576 0.250000 0.357373
O O2 0.270893 0.499729 0.408205
O O3 0.251385 0.472964 0.279464
O O4 0.956053 0.490256 0.357931
O O5 0.757146 0.250000 0.915097
O O6 0.475856 0.401500 0.955013
O O7 0.668669 0.486004 0.849459
O O8 0.793687 0.498982 0.978352
O O9 0.821621 0.750000 0.330294
O O10 0.613981 0.969299 0.378324
O O11 0.736652 0.984514 0.255678
O O12 0.500000 0.500000 0.500000
O O13 0.568736 0.250000 0.562917
O O14 0.177904 0.250000 0.956856
O O15 0.213523 0.500844 0.883772
O O16 0.259947 0.250000 0.822908
O O17 0.971642 0.407988 0.802243
O O18 0.700329 0.250000 0.764299
#
# Coordination Sequence:
#
# PCOD8077812 Si02
#       7
#     4   4   4   4   4   4   4
#     4  11  23  39  61  91 127 159 193 245 302 353
#     4   9  18  30  46  68  99 139 183 231 284 342
#     4   9  20  40  65  89 117 158 204 245 290 348
#     4  11  24  42  67  95 124 159 200 241 288 350
#     4   9  17  29  46  68  99 136 178 230 287 343
#     4   8  15  30  52  76  99 133 184 234 279 335
#     4   9  18  34  54  75 103 143 193 238 282 344
#
# _framework density 20.827452000000001
#
# number of rings (size 3 to 8) (size 9 to 14) (size 15 to 20)
#    0.000    2.571    0.000    2.571    2.000    2.857 
#    0.000    2.857    0.000    0.000    0.000    0.000 
#    0.000    0.000    0.000    0.000    0.000    0.000 
#
# Total GULP energy -346937.170280 kJ/mol
# GULP energy per Si atom -12390.613224 kJ/mol
# Density = 2.078005 g / cm^3
# Si number density = 20.827452 Si / 1000 Ang^3
#
#
#
# Elastic Constant Matrix: (Units=GPa)
#
#
# Indices 1 2 3 4 5 6 
#
# 1 28.0574 22.8122 14.4469 0.0000 10.3574 0.0000
# 2 22.8122 83.4078 38.6487 0.0000 9.5866 0.0000
# 3 14.4469 38.6487 103.4931 0.0000 22.2005 0.0000
# 4 0.0000 0.0000 0.0000 33.6967 0.0000 1.6362
# 5 10.3574 9.5866 22.2005 0.0000 36.6525 0.0000
# 6 0.0000 0.0000 0.0000 1.6362 0.0000 17.2397
#
#
#
# Elastic Compliance Matrix: (Units=1/GPa)
#
#
# Indices 1 2 3 4 5 6 
#
# 1 0.049665 -0.012338 -0.000008 0.000000 -0.010803 0.000000
# 2 -0.012338 0.017574 -0.005290 0.000000 0.002094 0.000000
# 3 -0.000008 -0.005290 0.013035 0.000000 -0.006510 0.000000
# 4 0.000000 0.000000 0.000000 0.029814 0.000000 -0.002830
# 5 -0.010803 0.002094 -0.006510 0.000000 0.033731 0.000000
# 6 0.000000 0.000000 0.000000 -0.002830 0.000000 0.058274
#
#
# Mechanical properties :
#
#
# Convention : Reuss Voigt Hill
#
# Bulk Modulus (GPa) = 22.22100 40.75267 31.48683
# Shear Modulus (GPa) = 19.81246 26.78780 23.30013
#
# Velocity S-wave (km/s) = 3.08761 3.59022 3.34836
# Velocity P-wave (km/s) = 4.83770 6.06593 5.48630
#
# Compressibility (1/GPa) = 0.04500248
#
# Stress axis : x y z
#
# Youngs Moduli (GPa) = 20.13507 56.90133 76.71366
#
# Poissons Ratio (x) = 0.70205 0.00061
# Poissons Ratio (y) = 0.24843 0.40581
# Poissons Ratio (z) = 0.00016 0.30100
#
# Static dielectric constant tensor:
#      x y z
#    x 3.593120 0.000000 -0.047200 
#    y 0.000000 3.714740 0.000000 
#    z -0.047200 0.000000 4.346000 
# 
# 
# High freq. dielectric constant tensor:
#      x y z
#    x 1.808450 0.000000 0.002780 
#    y 0.000000 1.775680 0.000000 
#    z 0.002780 0.000000 1.833170 
# 
# From -- ./inp_files/63065.got.cif
#   From: 2010.06.25/outbox.cif.g09.slc.cpg/sg11_32_cif.got.tgz:63065.got - 2010.06.27 23:14:04.
