data_PCOD8077148
_publ_section_title
;
Structure prediction by ZEFSAII (Michael W. Deem and Ramdas Pophale) SiO2 
 PCOD8077148
Probable space group: P 21/M
;
_chemical_formula_sum "Si O2"
_cell_formula_units_Z 28
_cell_length_a 9.753957
_cell_length_b 14.094841
_cell_length_c 11.460789
_cell_angle_alpha 90.000000
_cell_angle_beta 122.952935
_cell_angle_gamma 90.000000
_cell_volume 1322.142917
_symmetry_space_group_name_H-M "P 21/M"
_symmetry_group_IT_number 11
_symmetry_cell_setting 'monoclinic'
loop_
_space_group_symop_operation_xyz
x,y,z
-x,1/2+y,-z
-x,-y,-z
x,1/2-y,z
loop_
_atom_site_type_symbol
_atom_site_label
_atom_site_fract_x
_atom_site_fract_y
_atom_site_fract_z
Si Si1 0.371648 0.464246 0.791617
Si Si2 0.546887 0.860098 0.950247
Si Si3 0.537470 0.859876 0.395754
Si Si4 0.119785 0.140487 0.023475
Si Si5 0.007400 0.008523 0.640563
Si Si6 0.833164 0.138216 0.728378
Si Si7 0.174068 0.140107 0.305281
O O1 0.434449 0.573151 0.817217
O O2 0.380371 0.422480 0.666488
O O3 0.190020 0.463102 0.758781
O O4 0.475347 0.396732 0.926922
O O5 0.492428 0.750000 0.914345
O O6 0.732453 0.875382 0.996584
O O7 0.544772 0.750000 0.361537
O O8 0.351343 0.892278 0.328547
O O9 0.641755 0.877474 0.561818
O O10 0.092357 0.250000 0.035764
O O11 0.159200 0.094605 0.168438
O O12 0.952926 0.100721 0.887667
O O13 0.883740 0.088858 0.630662
O O14 0.960825 0.908132 0.675560
O O15 0.000000 0.000000 0.500000
O O16 0.850556 0.250000 0.717541
O O17 0.130692 0.250000 0.287164
#
# Coordination Sequence:
#
# PCOD8077148 Si02
#       7
#     4   4   4   4   4   4   4
#     4  11  23  40  65  98 129 170 217 266 323 387
#     4  10  22  40  64  95 132 171 213 267 328 387
#     4  10  22  42  67  95 128 172 220 267 322 387
#     4   9  19  39  65  93 123 165 215 265 324 382
#     4  12  25  41  63  97 130 169 217 266 325 387
#     4  10  23  42  68  96 126 170 221 270 323 389
#     4  10  23  41  64  93 132 172 213 270 330 384
#
# _framework density 21.177743
#
# number of rings (size 3 to 8) (size 9 to 14) (size 15 to 20)
#    0.000    1.714    2.857    0.429    2.000    6.286 
#    0.000    2.857    0.000    0.000    0.000    0.000 
#    0.000    0.000    0.000    0.000    0.000    0.000 
#
# Total GULP energy -347190.499871 kJ/mol
# GULP energy per Si atom -12399.660710 kJ/mol
# Density = 2.112954 g / cm^3
# Si number density = 21.177743 Si / 1000 Ang^3
#
#
#
# Elastic Constant Matrix: (Units=GPa)
#
#
# Indices 1 2 3 4 5 6 
#
# 1 115.8029 49.6704 50.4765 0.0000 6.4273 0.0000
# 2 49.6704 105.1937 42.3598 0.0000 -2.3653 0.0000
# 3 50.4765 42.3598 113.5796 0.0000 -20.7998 0.0000
# 4 0.0000 0.0000 0.0000 24.2009 0.0000 -2.5265
# 5 6.4273 -2.3653 -20.7998 0.0000 34.5990 0.0000
# 6 0.0000 0.0000 0.0000 -2.5265 0.0000 38.5652
#
#
#
# Elastic Compliance Matrix: (Units=1/GPa)
#
#
# Indices 1 2 3 4 5 6 
#
# 1 0.013078 -0.004155 -0.005348 0.000000 -0.005928 0.000000
# 2 -0.004155 0.012626 -0.002880 0.000000 -0.000096 0.000000
# 3 -0.005348 -0.002880 0.013935 0.000000 0.009174 0.000000
# 4 0.000000 0.000000 0.000000 0.041605 0.000000 0.002726
# 5 -0.005928 -0.000096 0.009174 0.000000 0.035512 0.000000
# 6 0.000000 0.000000 0.000000 0.002726 0.000000 0.026109
#
#
# Mechanical properties :
#
#
# Convention : Reuss Voigt Hill
#
# Bulk Modulus (GPa) = 67.23605 68.84331 68.03968
# Shear Modulus (GPa) = 28.97074 32.27766 30.62420
#
# Velocity S-wave (km/s) = 3.70263 3.90825 3.80683
# Velocity P-wave (km/s) = 7.07790 7.27625 7.17776
#
# Compressibility (1/GPa) = 0.01487297
#
# Stress axis : x y z
#
# Youngs Moduli (GPa) = 76.46690 79.20413 71.76036
#
# Poissons Ratio (x) = 0.32907 0.38378
# Poissons Ratio (y) = 0.31770 0.20667
# Poissons Ratio (z) = 0.40895 0.22811
#
# Static dielectric constant tensor:
#      x y z
#    x 3.767740 0.000000 0.098030 
#    y 0.000000 3.790000 0.000000 
#    z 0.098030 0.000000 4.027120 
# 
# 
# High freq. dielectric constant tensor:
#      x y z
#    x 1.824500 0.000000 0.000360 
#    y 0.000000 1.833660 0.000000 
#    z 0.000360 0.000000 1.836300 
# 
# From -- ./inp_files/31801.got.cif
#   From: 2010.06.25/outbox.cif.g09.slc.cpg/sg11_16_cif.got.tgz:31801.got - 2010.06.27 23:14:04.
