data_PCOD8077682
_publ_section_title
;
Structure prediction by ZEFSAII (Michael W. Deem and Ramdas Pophale) SiO2 
 PCOD8077682
Probable space group: P 21/M
;
_chemical_formula_sum "Si O2"
_cell_formula_units_Z 28
_cell_length_a 29.588793
_cell_length_b 9.142346
_cell_length_c 13.881205
_cell_angle_alpha 90.000000
_cell_angle_beta 27.402816
_cell_angle_gamma 90.000000
_cell_volume 1728.222513
_symmetry_space_group_name_H-M "P 21/M"
_symmetry_group_IT_number 11
_symmetry_cell_setting 'monoclinic'
loop_
_space_group_symop_operation_xyz
x,y,z
-x,1/2+y,-z
-x,-y,-z
x,1/2-y,z
loop_
_atom_site_type_symbol
_atom_site_label
_atom_site_fract_x
_atom_site_fract_y
_atom_site_fract_z
Si Si1 0.729650 0.415171 0.014224
Si Si2 0.655672 0.420006 0.369555
Si Si3 0.172190 0.580512 0.826705
Si Si4 0.906762 0.420723 0.220277
Si Si5 0.918096 0.578153 0.592550
Si Si6 0.481683 0.581414 0.633285
Si Si7 0.960719 0.922347 0.293830
O O1 0.771288 0.250000 0.927027
O O2 0.810614 0.530037 0.828689
O O3 0.700521 0.447398 0.179303
O O4 0.634607 0.433705 0.123925
O O5 0.633329 0.250000 0.429708
O O6 0.732370 0.487809 0.302037
O O7 0.552473 0.506484 0.578756
O O8 0.172378 0.750000 0.853705
O O9 0.179021 0.556531 0.697710
O O10 0.070609 0.517582 0.063403
O O11 0.928382 0.250000 0.194480
O O12 0.884052 0.496422 0.366178
O O13 0.000000 0.500000 0.000000
O O14 0.929501 0.750000 0.585560
O O15 0.932322 0.533026 0.454949
O O16 0.000000 0.500000 0.500000
O O17 0.500000 0.500000 0.500000
O O18 0.511277 0.750000 0.565693
O O19 0.952424 0.750000 0.290925
#
# Coordination Sequence:
#
# PCOD8077682 Si02
#       7
#     4   4   4   4   4   4   4
#     4   9  18  31  45  62  89 122 151 179 217 262
#     4   9  16  28  46  66  90 119 145 177 221 266
#     4   8  14  26  44  64  88 115 141 172 217 264
#     4   9  16  27  44  65  88 116 148 181 218 263
#     4  11  22  33  47  66  90 120 154 188 221 260
#     4   9  17  29  44  63  87 115 146 182 221 262
#     4   9  18  32  45  60  87 121 152 183 218 259
#
# _framework density 16.201618
#
# number of rings (size 3 to 8) (size 9 to 14) (size 15 to 20)
#    0.000    2.857    0.000    3.857    0.000    6.286 
#    0.000    3.571    0.000    0.000    0.000    1.000 
#    0.000    0.000    0.000    0.000    0.000    0.000 
#
# Total GULP energy -346966.875834 kJ/mol
# GULP energy per Si atom -12391.674137 kJ/mol
# Density = 1.616474 g / cm^3
# Si number density = 16.201618 Si / 1000 Ang^3
#
#
#
# Elastic Constant Matrix: (Units=GPa)
#
#
# Indices 1 2 3 4 5 6 
#
# 1 131.8412 52.5754 47.8728 0.0000 -14.1220 0.0000
# 2 52.5754 71.1729 34.2504 0.0000 -3.3988 0.0000
# 3 47.8728 34.2504 58.6274 0.0000 -11.8271 0.0000
# 4 0.0000 0.0000 0.0000 24.9618 0.0000 -2.5751
# 5 -14.1220 -3.3988 -11.8271 0.0000 25.5190 0.0000
# 6 0.0000 0.0000 0.0000 -2.5751 0.0000 27.4607
#
#
#
# Elastic Compliance Matrix: (Units=1/GPa)
#
#
# Indices 1 2 3 4 5 6 
#
# 1 0.012617 -0.006301 -0.005937 0.000000 0.003391 0.000000
# 2 -0.006301 0.022897 -0.009178 0.000000 -0.004691 0.000000
# 3 -0.005937 -0.009178 0.029076 0.000000 0.008968 0.000000
# 4 0.000000 0.000000 0.000000 0.040453 0.000000 0.003793
# 5 0.003391 -0.004691 0.008968 0.000000 0.044594 0.000000
# 6 0.000000 0.000000 0.000000 0.003793 0.000000 0.036771
#
#
# Mechanical properties :
#
#
# Convention : Reuss Voigt Hill
#
# Bulk Modulus (GPa) = 45.96062 59.00431 52.48246
# Shear Modulus (GPa) = 21.14228 24.05114 22.59671
#
# Velocity S-wave (km/s) = 3.61633 3.85709 3.73865
# Velocity P-wave (km/s) = 6.77249 7.50560 7.14845
#
# Compressibility (1/GPa) = 0.02175776
#
# Stress axis : x y z
#
# Youngs Moduli (GPa) = 79.26079 43.67299 34.39284
#
# Poissons Ratio (x) = 0.27518 0.20420
# Poissons Ratio (y) = 0.49941 0.31566
# Poissons Ratio (z) = 0.47058 0.40083
#
# Static dielectric constant tensor:
#      x y z
#    x 3.672320 0.000000 -0.287280 
#    y 0.000000 3.145600 0.000000 
#    z -0.287280 0.000000 2.994220 
# 
# 
# High freq. dielectric constant tensor:
#      x y z
#    x 1.627130 0.000000 -0.018750 
#    y 0.000000 1.620460 0.000000 
#    z -0.018750 0.000000 1.582000 
# 
# From -- ./inp_files/56400.got.cif
#   From: 2010.06.25/outbox.cif.g09.slc.cpg/sg11_29_cif.got.tgz:56400.got - 2010.06.27 23:14:04.
