data_PCOD8077649
_publ_section_title
;
Structure prediction by ZEFSAII (Michael W. Deem and Ramdas Pophale) SiO2 
 PCOD8077649
Probable space group: P 21/M
;
_chemical_formula_sum "Si O2"
_cell_formula_units_Z 32
_cell_length_a 21.361193
_cell_length_b 8.928357
_cell_length_c 26.706223
_cell_angle_alpha 90.000000
_cell_angle_beta 20.042391
_cell_angle_gamma 90.000000
_cell_volume 1745.593060
_symmetry_space_group_name_H-M "P 21/M"
_symmetry_group_IT_number 11
_symmetry_cell_setting 'monoclinic'
loop_
_space_group_symop_operation_xyz
x,y,z
-x,1/2+y,-z
-x,-y,-z
x,1/2-y,z
loop_
_atom_site_type_symbol
_atom_site_label
_atom_site_fract_x
_atom_site_fract_y
_atom_site_fract_z
Si Si1 0.219412 0.418211 0.205551
Si Si2 0.426772 0.918231 0.129522
Si Si3 0.341951 0.926807 0.850834
Si Si4 0.647838 0.427539 0.044486
Si Si5 0.972263 0.927865 0.074343
Si Si6 0.604491 0.572114 0.567942
Si Si7 0.400190 0.928858 0.621482
Si Si8 0.012898 0.573055 0.276965
O O1 0.155255 0.250000 0.265270
O O2 0.256791 0.500524 0.230195
O O3 0.059866 0.502240 0.295421
O O4 0.401549 0.419659 0.036082
O O5 0.367218 0.750000 0.187538
O O6 0.477925 0.003728 0.142018
O O7 0.361889 0.750000 0.838095
O O8 0.363043 0.991973 0.890983
O O9 0.497738 0.992623 0.696764
O O10 0.143903 0.970994 0.979425
O O11 0.629186 0.250000 0.056680
O O12 0.841542 0.477233 0.874650
O O13 0.947147 0.750000 0.088185
O O14 0.800955 0.003585 0.229342
O O15 0.000000 0.000000 0.000000
O O16 0.599463 0.750000 0.572959
O O17 0.502794 0.516030 0.594538
O O18 0.813147 0.514383 0.410743
O O19 0.394145 0.750000 0.622278
O O20 0.500000 0.000000 0.500000
O O21 0.015264 0.750000 0.282284
#
# Coordination Sequence:
#
# PCOD8077649 Si02
#       8
#     4   4   4   4   4   4   4   4
#     4   9  16  27  45  70 101 133 164 204 254 304
#     4   9  16  27  45  70 102 132 163 205 254 303
#     4   9  18  33  54  77 102 138 178 216 260 317
#     4   9  17  29  49  75  99 129 172 213 254 305
#     4  11  21  37  60  83 110 144 186 230 274 327
#     4   9  18  34  54  75 103 139 177 215 260 320
#     4  11  23  39  58  83 112 144 184 230 280 330
#     4   9  17  29  49  74  99 131 172 212 254 307
#
# _framework density 18.331879000000001
#
# number of rings (size 3 to 8) (size 9 to 14) (size 15 to 20)
#    0.000    2.500    1.250    1.500    1.750    3.000 
#    0.000    2.500    0.000    0.750    0.000    0.000 
#    0.000    0.000    0.000    0.000    0.000    0.000 
#
# Total GULP energy -396758.236410 kJ/mol
# GULP energy per Si atom -12398.694888 kJ/mol
# Density = 1.829015 g / cm^3
# Si number density = 18.331879 Si / 1000 Ang^3
#
#
#
# Elastic Constant Matrix: (Units=GPa)
#
#
# Indices 1 2 3 4 5 6 
#
# 1 163.0763 37.0682 53.8966 0.0000 5.6754 0.0000
# 2 37.0682 56.7474 21.3548 0.0000 1.9471 0.0000
# 3 53.8966 21.3548 81.3149 0.0000 10.3370 0.0000
# 4 0.0000 0.0000 0.0000 20.9033 0.0000 -3.3786
# 5 5.6754 1.9471 10.3370 0.0000 24.6197 0.0000
# 6 0.0000 0.0000 0.0000 -3.3786 0.0000 29.7431
#
#
#
# Elastic Compliance Matrix: (Units=1/GPa)
#
#
# Indices 1 2 3 4 5 6 
#
# 1 0.008543 -0.003823 -0.004697 0.000000 0.000305 0.000000
# 2 -0.003823 0.021275 -0.003118 0.000000 0.000508 0.000000
# 3 -0.004697 -0.003118 0.016967 0.000000 -0.005794 0.000000
# 4 0.000000 0.000000 0.000000 0.048734 0.000000 0.005536
# 5 0.000305 0.000508 -0.005794 0.000000 0.042940 0.000000
# 6 0.000000 0.000000 0.000000 0.005536 0.000000 0.034250
#
#
# Mechanical properties :
#
#
# Convention : Reuss Voigt Hill
#
# Bulk Modulus (GPa) = 42.53778 58.41975 50.47877
# Shear Modulus (GPa) = 24.53129 27.64115 26.08622
#
# Velocity S-wave (km/s) = 3.66208 3.88728 3.77636
# Velocity P-wave (km/s) = 6.41371 7.21699 6.82718
#
# Compressibility (1/GPa) = 0.02350851
#
# Stress axis : x y z
#
# Youngs Moduli (GPa) = 117.05609 47.00313 58.93960
#
# Poissons Ratio (x) = 0.17970 0.27685
# Poissons Ratio (y) = 0.44753 0.18376
# Poissons Ratio (z) = 0.54982 0.14654
#
# Static dielectric constant tensor:
#      x y z
#    x 3.538520 0.000000 -0.014190 
#    y 0.000000 3.231990 0.000000 
#    z -0.014190 0.000000 3.262800 
# 
# 
# High freq. dielectric constant tensor:
#      x y z
#    x 1.721300 0.000000 -0.010700 
#    y 0.000000 1.691730 0.000000 
#    z -0.010700 0.000000 1.689220 
# 
# From -- ./inp_files/72035.got.cif
#   From: 2010.06.25/outbox.cif.g09.slc.cpg/sg11_37_cif.got.tgz:72035.got - 2010.06.27 23:14:04.
