data_PCOD8077919
_publ_section_title
;
Structure prediction by ZEFSAII (Michael W. Deem and Ramdas Pophale) SiO2 
 PCOD8077919
Probable space group: P 21/M
;
_chemical_formula_sum "Si O2"
_cell_formula_units_Z 20
_cell_length_a 8.643103
_cell_length_b 21.387225
_cell_length_c 9.012600
_cell_angle_alpha 90.000000
_cell_angle_beta 147.882962
_cell_angle_gamma 90.000000
_cell_volume 885.728095
_symmetry_space_group_name_H-M "P 21/M"
_symmetry_group_IT_number 11
_symmetry_cell_setting 'monoclinic'
loop_
_space_group_symop_operation_xyz
x,y,z
-x,1/2+y,-z
-x,-y,-z
x,1/2-y,z
loop_
_atom_site_type_symbol
_atom_site_label
_atom_site_fract_x
_atom_site_fract_y
_atom_site_fract_z
Si Si1 0.517961 0.448709 0.892700
Si Si2 0.227892 0.042680 0.101036
Si Si3 0.242225 0.624963 0.432193
Si Si4 0.953485 0.750000 0.721879
Si Si5 0.958349 0.368617 0.403726
Si Si6 0.683375 0.250000 0.690060
O O1 0.253537 0.402133 0.684847
O O2 0.500000 0.500000 0.000000
O O3 0.544501 0.489779 0.767343
O O4 0.805682 0.409014 0.153265
O O5 0.037927 0.081601 0.828144
O O6 0.448031 0.091824 0.360900
O O7 0.000000 0.000000 0.000000
O O8 0.210456 0.688491 0.311780
O O9 0.235436 0.640006 0.603894
O O10 0.968734 0.805277 0.617743
O O11 0.663157 0.750000 0.583539
O O12 0.206708 0.750000 0.050597
#
# Coordination Sequence:
#
# PCOD8077919 Si02
#       6
#     4   4   4   2   4   2
#     4  12  23  44  72 106 140 177 228 289 340 418
#     4  12  27  42  71 107 145 180 228 282 356 415
#     4  12  25  49  70 102 141 190 228 283 348 422
#     4  12  29  48  71 106 132 187 239 298 343 401
#     4  12  25  46  75 100 140 183 238 283 346 412
#     4  12  29  48  71 100 144 181 237 292 351 407
#
# _framework density 22.580293000000001
#
# number of rings (size 3 to 8) (size 9 to 14) (size 15 to 20)
#    0.000    0.000    4.000    5.400    8.400    0.000 
#    0.000    6.000    0.000    0.000    0.000    0.000 
#    0.000    0.000    0.000    0.000    0.000    0.000 
#
# Total GULP energy -247818.998038 kJ/mol
# GULP energy per Si atom -12390.949902 kJ/mol
# Density = 2.252890 g / cm^3
# Si number density = 22.580293 Si / 1000 Ang^3
#
#
#
# Elastic Constant Matrix: (Units=GPa)
#
#
# Indices 1 2 3 4 5 6 
#
# 1 92.2325 60.9810 10.7452 0.0000 2.4054 0.0000
# 2 60.9810 171.9369 49.5601 0.0000 -4.3883 0.0000
# 3 10.7452 49.5601 115.3888 0.0000 10.8464 0.0000
# 4 0.0000 0.0000 0.0000 39.2930 0.0000 -2.5694
# 5 2.4054 -4.3883 10.8464 0.0000 40.7808 0.0000
# 6 0.0000 0.0000 0.0000 -2.5694 0.0000 42.5384
#
#
#
# Elastic Compliance Matrix: (Units=1/GPa)
#
#
# Indices 1 2 3 4 5 6 
#
# 1 0.014376 -0.005484 0.001181 0.000000 -0.001752 0.000000
# 2 -0.005484 0.008822 -0.003485 0.000000 0.002200 0.000000
# 3 0.001181 -0.003485 0.010354 0.000000 -0.003199 0.000000
# 4 0.000000 0.000000 0.000000 0.025551 0.000000 0.001543
# 5 -0.001752 0.002200 -0.003199 0.000000 0.025712 0.000000
# 6 0.000000 0.000000 0.000000 0.001543 0.000000 0.023601
#
#
# Mechanical properties :
#
#
# Convention : Reuss Voigt Hill
#
# Bulk Modulus (GPa) = 55.62878 69.12567 62.37722
# Shear Modulus (GPa) = 38.46639 41.74056 40.10347
#
# Velocity S-wave (km/s) = 4.13187 4.30413 4.21888
# Velocity P-wave (km/s) = 6.88859 7.44180 7.17053
#
# Compressibility (1/GPa) = 0.01797631
#
# Stress axis : x y z
#
# Youngs Moduli (GPa) = 69.55996 113.35519 96.58230
#
# Poissons Ratio (x) = 0.62164 -0.11410
# Poissons Ratio (y) = 0.38147 0.33660
# Poissons Ratio (z) = -0.08218 0.39505
#
# Static dielectric constant tensor:
#      x y z
#    x 3.820750 0.000000 0.044070 
#    y 0.000000 4.067100 0.000000 
#    z 0.044070 0.000000 4.187480 
# 
# 
# High freq. dielectric constant tensor:
#      x y z
#    x 1.892110 0.000000 0.007130 
#    y 0.000000 1.911850 0.000000 
#    z 0.007130 0.000000 1.900820 
# 
# From -- ./inp_files/10292.got.cif
#   From: 2010.06.25/outbox.cif.g09.slc.cpg/sg11_6_cif.got.tgz:10292.got - 2010.06.27 23:14:04.
