data_PCOD8077872
_publ_section_title
;
Structure prediction by ZEFSAII (Michael W. Deem and Ramdas Pophale) SiO2 
 PCOD8077872
Probable space group: P 21/M
;
_chemical_formula_sum "Si O2"
_cell_formula_units_Z 28
_cell_length_a 5.224445
_cell_length_b 18.019516
_cell_length_c 14.312605
_cell_angle_alpha 90.000000
_cell_angle_beta 113.358378
_cell_angle_gamma 90.000000
_cell_volume 1236.986442
_symmetry_space_group_name_H-M "P 21/M"
_symmetry_group_IT_number 11
_symmetry_cell_setting 'monoclinic'
loop_
_space_group_symop_operation_xyz
x,y,z
-x,1/2+y,-z
-x,-y,-z
x,1/2-y,z
loop_
_atom_site_type_symbol
_atom_site_label
_atom_site_fract_x
_atom_site_fract_y
_atom_site_fract_z
Si Si1 0.278721 0.336130 0.993718
Si Si2 0.438796 0.167585 0.462311
Si Si3 0.526999 0.947885 0.827803
Si Si4 0.881328 0.563326 0.695929
Si Si5 0.334022 0.166884 0.664851
Si Si6 0.648958 0.386149 0.880408
Si Si7 0.877890 0.055736 0.557357
O O1 0.289457 0.250000 0.023168
O O2 0.422200 0.347261 0.914175
O O3 0.961299 0.363461 0.950531
O O4 0.453872 0.382687 0.094043
O O5 0.512275 0.250000 0.437436
O O6 0.160153 0.139384 0.369628
O O7 0.424332 0.165294 0.571040
O O8 0.677151 0.109220 0.468722
O O9 0.735797 0.928711 0.774196
O O10 0.208676 0.952574 0.749065
O O11 0.620090 0.025448 0.886713
O O12 0.736797 0.494797 0.617892
O O13 0.231628 0.250000 0.676423
O O14 0.591670 0.142261 0.766986
O O15 0.092532 0.107451 0.644687
O O16 0.000000 0.000000 0.500000
#
# Coordination Sequence:
#
# PCOD8077872 Si02
#       7
#     4   4   4   4   4   4   4
#     4  12  27  48  73 102 141 180 231 295 358 420
#     4  11  26  43  66 102 146 189 235 292 351 420
#     4  12  26  47  74 105 136 185 239 289 354 419
#     4  12  25  44  73 105 140 188 237 291 344 418
#     4  11  24  41  67 101 141 184 229 288 358 421
#     4  12  25  47  72 105 138 182 230 291 353 428
#     4  12  23  43  67  99 143 191 240 289 346 415
#
# _framework density 22.635655
#
# number of rings (size 3 to 8) (size 9 to 14) (size 15 to 20)
#    0.000    0.286    2.857    6.429    2.000    1.143 
#    0.000    0.000    0.000    0.000    0.000    0.000 
#    0.000    0.000    0.000    0.000    0.000    0.000 
#
# Total GULP energy -347276.480422 kJ/mol
# GULP energy per Si atom -12402.731444 kJ/mol
# Density = 2.258414 g / cm^3
# Si number density = 22.635655 Si / 1000 Ang^3
#
#
#
# Elastic Constant Matrix: (Units=GPa)
#
#
# Indices 1 2 3 4 5 6 
#
# 1 97.9881 40.4458 18.4031 0.0000 -0.8914 0.0000
# 2 40.4458 200.4240 59.2469 0.0000 10.0693 0.0000
# 3 18.4031 59.2469 73.4038 0.0000 -1.6065 0.0000
# 4 0.0000 0.0000 0.0000 22.2688 0.0000 5.6850
# 5 -0.8914 10.0693 -1.6065 0.0000 31.9572 0.0000
# 6 0.0000 0.0000 0.0000 5.6850 0.0000 26.1918
#
#
#
# Elastic Compliance Matrix: (Units=1/GPa)
#
#
# Indices 1 2 3 4 5 6 
#
# 1 0.011249 -0.001951 -0.001226 0.000000 0.000867 0.000000
# 2 -0.001951 0.007070 -0.005273 0.000000 -0.002547 0.000000
# 3 -0.001226 -0.005273 0.018242 0.000000 0.002544 0.000000
# 4 0.000000 0.000000 0.000000 0.047540 0.000000 -0.010319
# 5 0.000867 -0.002547 0.002544 0.000000 0.032246 0.000000
# 6 0.000000 0.000000 0.000000 -0.010319 0.000000 0.040420
#
#
# Mechanical properties :
#
#
# Convention : Reuss Voigt Hill
#
# Bulk Modulus (GPa) = 50.86410 67.55640 59.21025
# Shear Modulus (GPa) = 27.74365 32.99824 30.37095
#
# Velocity S-wave (km/s) = 3.50474 3.82226 3.66694
# Velocity P-wave (km/s) = 6.23676 7.02776 6.64404
#
# Compressibility (1/GPa) = 0.01966023
#
# Stress axis : x y z
#
# Youngs Moduli (GPa) = 88.89787 141.44619 54.81733
#
# Poissons Ratio (x) = 0.27597 0.06723
# Poissons Ratio (y) = 0.17344 0.28905
# Poissons Ratio (z) = 0.10903 0.74583
#
# Static dielectric constant tensor:
#      x y z
#    x 3.945470 0.000000 0.103940 
#    y 0.000000 4.573100 0.000000 
#    z 0.103940 0.000000 4.308760 
# 
# 
# High freq. dielectric constant tensor:
#      x y z
#    x 1.886510 0.000000 0.002780 
#    y 0.000000 1.913990 0.000000 
#    z 0.002780 0.000000 1.898380 
# 
# From -- ./inp_files/6774.got.cif
#   From: 2010.06.25/outbox.cif.g09.slc.cpg/sg11_4_cif.got.tgz:6774.got - 2010.06.27 23:14:04.
