data_PCOD8077645
_publ_section_title
;
Structure prediction by ZEFSAII (Michael W. Deem and Ramdas Pophale) SiO2 
 PCOD8077645
Probable space group: P 21/M
;
_chemical_formula_sum "Si O2"
_cell_formula_units_Z 28
_cell_length_a 19.753148
_cell_length_b 8.780228
_cell_length_c 16.782727
_cell_angle_alpha 90.000000
_cell_angle_beta 149.170917
_cell_angle_gamma 90.000000
_cell_volume 1491.696763
_symmetry_space_group_name_H-M "P 21/M"
_symmetry_group_IT_number 11
_symmetry_cell_setting 'monoclinic'
loop_
_space_group_symop_operation_xyz
x,y,z
-x,1/2+y,-z
-x,-y,-z
x,1/2-y,z
loop_
_atom_site_type_symbol
_atom_site_label
_atom_site_fract_x
_atom_site_fract_y
_atom_site_fract_z
Si Si1 0.014977 0.429905 0.101180
Si Si2 0.840365 0.929663 0.500033
Si Si3 0.858310 0.073878 0.361534
Si Si4 0.224322 0.429253 0.051286
Si Si5 0.147086 0.573974 0.819096
Si Si6 0.473834 0.931426 0.387412
Si Si7 0.276451 0.428886 0.455994
O O1 0.987399 0.250000 0.072500
O O2 0.161903 0.469679 0.278003
O O3 0.916598 0.511664 0.062024
O O4 0.000000 0.500000 0.000000
O O5 0.827595 0.750000 0.481084
O O6 0.756736 0.996905 0.490000
O O7 0.993558 0.976497 0.665905
O O8 0.780389 0.999255 0.357296
O O9 0.876151 0.250000 0.397704
O O10 0.790463 0.048482 0.206325
O O11 0.000000 0.000000 0.500000
O O12 0.238825 0.250000 0.078150
O O13 0.334611 0.512755 0.214325
O O14 0.233418 0.472827 0.967106
O O15 0.158767 0.750000 0.856645
O O16 0.475839 0.750000 0.395978
O O17 0.586458 0.992917 0.440452
O O18 0.500000 0.000000 0.500000
O O19 0.286662 0.250000 0.476576
#
# Coordination Sequence:
#
# PCOD8077645 Si02
#       7
#     4   4   4   4   4   4   4
#     4  11  21  37  58  83 112 140 179 231 287 338
#     4   9  16  31  53  79 110 142 178 223 279 336
#     4   9  17  28  46  76 112 146 178 219 272 328
#     4  12  24  37  55  82 114 149 190 231 275 330
#     4   9  17  32  53  77 110 147 182 225 277 326
#     4  11  23  41  62  82 109 147 189 234 285 341
#     4   9  19  36  58  80 107 143 182 227 281 338
#
# _framework density 18.770568999999998
#
# number of rings (size 3 to 8) (size 9 to 14) (size 15 to 20)
#    0.000    2.000    1.429    4.286    0.000    4.000 
#    0.000    3.571    0.000    0.857    0.000    0.000 
#    0.000    0.000    0.000    0.000    0.000    0.000 
#
# Total GULP energy -347106.777536 kJ/mol
# GULP energy per Si atom -12396.670626 kJ/mol
# Density = 1.872785 g / cm^3
# Si number density = 18.770569 Si / 1000 Ang^3
#
#
#
# Elastic Constant Matrix: (Units=GPa)
#
#
# Indices 1 2 3 4 5 6 
#
# 1 114.9749 37.2326 26.0184 0.0000 -24.0497 0.0000
# 2 37.2326 71.2902 24.1573 0.0000 -12.0347 0.0000
# 3 26.0184 24.1573 53.9595 0.0000 -12.6948 0.0000
# 4 0.0000 0.0000 0.0000 24.0509 0.0000 -9.1246
# 5 -24.0497 -12.0347 -12.6948 0.0000 33.5594 0.0000
# 6 0.0000 0.0000 0.0000 -9.1246 0.0000 32.1364
#
#
#
# Elastic Compliance Matrix: (Units=1/GPa)
#
#
# Indices 1 2 3 4 5 6 
#
# 1 0.011928 -0.004408 -0.002348 0.000000 0.006079 0.000000
# 2 -0.004408 0.018533 -0.005874 0.000000 0.001265 0.000000
# 3 -0.002348 -0.005874 0.023494 0.000000 0.005098 0.000000
# 4 0.000000 0.000000 0.000000 0.046598 0.000000 0.013231
# 5 0.006079 0.001265 0.005098 0.000000 0.036537 0.000000
# 6 0.000000 0.000000 0.000000 0.013231 0.000000 0.034874
#
#
# Mechanical properties :
#
#
# Convention : Reuss Voigt Hill
#
# Bulk Modulus (GPa) = 34.84894 46.11567 40.48231
# Shear Modulus (GPa) = 24.17931 28.13710 26.15820
#
# Velocity S-wave (km/s) = 3.59297 3.87589 3.73711
# Velocity P-wave (km/s) = 5.98487 6.68218 6.34311
#
# Compressibility (1/GPa) = 0.02869528
#
# Stress axis : x y z
#
# Youngs Moduli (GPa) = 83.83777 53.95686 42.56448
#
# Poissons Ratio (x) = 0.23782 0.09994
# Poissons Ratio (y) = 0.36953 0.25003
# Poissons Ratio (z) = 0.19684 0.31695
#
# Static dielectric constant tensor:
#      x y z
#    x 4.118550 0.000000 -0.244430 
#    y 0.000000 3.367140 0.000000 
#    z -0.244430 0.000000 3.354010 
# 
# 
# High freq. dielectric constant tensor:
#      x y z
#    x 1.741790 0.000000 -0.027170 
#    y 0.000000 1.720600 0.000000 
#    z -0.027170 0.000000 1.702400 
# 
# From -- ./inp_files/61281.got.cif
#   From: 2010.06.25/outbox.cif.g09.slc.cpg/sg11_31_cif.got.tgz:61281.got - 2010.06.27 23:14:04.
