data_PCOD8077447
_publ_section_title
;
Structure prediction by ZEFSAII (Michael W. Deem and Ramdas Pophale) SiO2 
 PCOD8077447
Probable space group: P 21/M
;
_chemical_formula_sum "Si O2"
_cell_formula_units_Z 32
_cell_length_a 14.755921
_cell_length_b 22.411286
_cell_length_c 8.090600
_cell_angle_alpha 90.000000
_cell_angle_beta 145.758932
_cell_angle_gamma 90.000000
_cell_volume 1505.470564
_symmetry_space_group_name_H-M "P 21/M"
_symmetry_group_IT_number 11
_symmetry_cell_setting 'monoclinic'
loop_
_space_group_symop_operation_xyz
x,y,z
-x,1/2+y,-z
-x,-y,-z
x,1/2-y,z
loop_
_atom_site_type_symbol
_atom_site_label
_atom_site_fract_x
_atom_site_fract_y
_atom_site_fract_z
Si Si1 0.744410 0.092746 0.764640
Si Si2 0.319389 0.319275 0.618829
Si Si3 0.780662 0.593428 0.275505
Si Si4 0.602526 0.387044 0.888606
Si Si5 0.984403 0.990701 0.781832
Si Si6 0.051785 0.617136 0.440153
Si Si7 0.018269 0.818733 0.061137
Si Si8 0.478223 0.483894 0.277159
O O1 0.630901 0.121074 0.734522
O O2 0.843188 0.142226 0.815317
O O3 0.637517 0.055006 0.469275
O O4 0.858583 0.046699 0.037508
O O5 0.336151 0.250000 0.683424
O O6 0.324242 0.354110 0.800279
O O7 0.468471 0.338750 0.730998
O O8 0.152929 0.334627 0.276025
O O9 0.829955 0.548004 0.496770
O O10 0.934680 0.624072 0.420676
O O11 0.676762 0.557588 0.984696
O O12 0.538499 0.453306 0.844500
O O13 0.764834 0.372735 0.231701
O O14 0.980414 0.052328 0.681944
O O15 0.000000 0.000000 0.000000
O O16 0.008416 0.667189 0.240323
O O17 0.063487 0.750000 0.102825
O O18 0.500000 0.500000 0.500000
#
# Coordination Sequence:
#
# PCOD8077447 Si02
#       8
#     4   4   4   4   4   4   4   4
#     4  11  23  44  67 102 133 179 216 276 339 406
#     4  11  27  47  66  94 132 181 235 284 331 391
#     4  12  24  44  70  99 137 180 221 276 340 404
#     4  11  24  42  67  99 137 170 217 272 341 398
#     4  12  22  39  70 103 137 170 218 271 343 405
#     4  12  23  41  69 101 132 173 218 274 334 413
#     4  11  26  46  67  94 129 178 236 281 330 394
#     4  10  24  39  66 105 141 167 212 273 344 414
#
# _framework density 21.255813
#
# number of rings (size 3 to 8) (size 9 to 14) (size 15 to 20)
#    0.000    0.750    5.000    1.875    8.750    2.000 
#    0.000    0.000    0.000    0.000    0.000    0.000 
#    0.000    0.000    0.000    0.000    0.000    0.000 
#
# Total GULP energy -396851.323364 kJ/mol
# GULP energy per Si atom -12401.603855 kJ/mol
# Density = 2.120743 g / cm^3
# Si number density = 21.255813 Si / 1000 Ang^3
#
#
#
# Elastic Constant Matrix: (Units=GPa)
#
#
# Indices 1 2 3 4 5 6 
#
# 1 105.6440 39.9148 31.9002 0.0000 1.9626 0.0000
# 2 39.9148 96.3044 53.0311 0.0000 5.7164 0.0000
# 3 31.9002 53.0311 115.9429 0.0000 5.5049 0.0000
# 4 0.0000 0.0000 0.0000 37.4337 0.0000 4.9791
# 5 1.9626 5.7164 5.5049 0.0000 31.9168 0.0000
# 6 0.0000 0.0000 0.0000 4.9791 0.0000 24.4341
#
#
#
# Elastic Compliance Matrix: (Units=1/GPa)
#
#
# Indices 1 2 3 4 5 6 
#
# 1 0.011370 -0.004007 -0.001307 0.000000 0.000244 0.000000
# 2 -0.004007 0.015354 -0.005849 0.000000 -0.001495 0.000000
# 3 -0.001307 -0.005849 0.011702 0.000000 -0.000890 0.000000
# 4 0.000000 0.000000 0.000000 0.027458 0.000000 -0.005595
# 5 0.000244 -0.001495 -0.000890 0.000000 0.031738 0.000000
# 6 0.000000 0.000000 0.000000 -0.005595 0.000000 0.042067
#
#
# Mechanical properties :
#
#
# Convention : Reuss Voigt Hill
#
# Bulk Modulus (GPa) = 62.11461 63.06484 62.58972
# Shear Modulus (GPa) = 29.87164 31.62659 30.74912
#
# Velocity S-wave (km/s) = 3.75285 3.86152 3.80757
# Velocity P-wave (km/s) = 6.93285 7.04384 6.98856
#
# Compressibility (1/GPa) = 0.01609927
#
# Stress axis : x y z
#
# Youngs Moduli (GPa) = 87.95156 65.12807 85.45333
#
# Poissons Ratio (x) = 0.26098 0.11169
# Poissons Ratio (y) = 0.35244 0.49985
# Poissons Ratio (z) = 0.11495 0.38096
#
# Static dielectric constant tensor:
#      x y z
#    x 3.022510 0.000000 0.593500 
#    y 0.000000 3.876720 0.000000 
#    z 0.593500 0.000000 3.844910 
# 
# 
# High freq. dielectric constant tensor:
#      x y z
#    x 1.829100 0.000000 0.003040 
#    y 0.000000 1.823960 0.000000 
#    z 0.003040 0.000000 1.848620 
# 
# From -- ./inp_files/23380.got.cif
#   From: 2010.06.25/outbox.cif.g09.slc.cpg/sg11_12_cif.got.tgz:23380.got - 2010.06.27 23:14:04.
