data_PCOD8077443
_publ_section_title
;
Structure prediction by ZEFSAII (Michael W. Deem and Ramdas Pophale) SiO2 
 PCOD8077443
Probable space group: P 21/M
;
_chemical_formula_sum "Si O2"
_cell_formula_units_Z 32
_cell_length_a 12.275763
_cell_length_b 17.386681
_cell_length_c 16.619009
_cell_angle_alpha 90.000000
_cell_angle_beta 154.693636
_cell_angle_gamma 90.000000
_cell_volume 1516.226343
_symmetry_space_group_name_H-M "P 21/M"
_symmetry_group_IT_number 11
_symmetry_cell_setting 'monoclinic'
loop_
_space_group_symop_operation_xyz
x,y,z
-x,1/2+y,-z
-x,-y,-z
x,1/2-y,z
loop_
_atom_site_type_symbol
_atom_site_label
_atom_site_fract_x
_atom_site_fract_y
_atom_site_fract_z
Si Si1 0.888725 0.089385 0.059047
Si Si2 0.609429 0.338713 0.190651
Si Si3 0.125726 0.575835 0.192686
Si Si4 0.026790 0.339968 0.760635
Si Si5 0.044962 0.661232 0.729587
Si Si6 0.227823 0.338635 0.163857
Si Si7 0.278261 0.914403 0.569347
Si Si8 0.556854 0.921603 0.357330
O O1 0.862869 0.107215 0.135759
O O2 0.111619 0.144275 0.173955
O O3 0.623056 0.105956 0.835991
O O4 0.960736 0.001211 0.090819
O O5 0.646558 0.250000 0.240270
O O6 0.706702 0.392118 0.327455
O O7 0.770505 0.360074 0.220230
O O8 0.315707 0.356958 0.977833
O O9 0.395375 0.558028 0.330142
O O10 0.162196 0.616454 0.303200
O O11 0.974876 0.636351 0.037920
O O12 0.963186 0.250000 0.716963
O O13 0.975754 0.376754 0.638747
O O14 0.074120 0.750000 0.773875
O O15 0.752718 0.646194 0.509573
O O16 0.289287 0.250000 0.193646
O O17 0.486810 0.383854 0.325613
O O18 0.274067 0.006141 0.557956
#
# Coordination Sequence:
#
# PCOD8077443 Si02
#       8
#     4   4   4   4   4   4   4   4
#     4  11  22  43  64  92 130 175 212 255 321 391
#     4  10  23  46  64  88 132 171 216 274 321 369
#     4  11  21  41  63  94 137 170 204 259 329 382
#     4  11  23  37  64  97 124 167 219 266 320 381
#     4  11  27  45  66  93 127 174 221 267 320 384
#     4  11  20  35  64  95 129 165 207 263 316 374
#     4  12  22  40  66  98 126 166 214 266 323 383
#     4  11  24  42  66  96 134 170 210 263 328 388
#
# _framework density 21.105028999999998
#
# number of rings (size 3 to 8) (size 9 to 14) (size 15 to 20)
#    0.000    1.000    3.750    3.375    1.750    5.500 
#    0.000    6.875    0.000    0.000    0.000    0.000 
#    0.000    0.000    0.000    0.000    0.000    0.000 
#
# Total GULP energy -396957.647840 kJ/mol
# GULP energy per Si atom -12404.926495 kJ/mol
# Density = 2.105699 g / cm^3
# Si number density = 21.105029 Si / 1000 Ang^3
#
#
#
# Elastic Constant Matrix: (Units=GPa)
#
#
# Indices 1 2 3 4 5 6 
#
# 1 119.2285 26.3636 47.7985 0.0000 -14.2536 0.0000
# 2 26.3636 53.7484 15.2886 0.0000 -3.3485 0.0000
# 3 47.7985 15.2886 66.2080 0.0000 -22.9288 0.0000
# 4 0.0000 0.0000 0.0000 30.8123 0.0000 1.7131
# 5 -14.2536 -3.3485 -22.9288 0.0000 23.1548 0.0000
# 6 0.0000 0.0000 0.0000 1.7131 0.0000 27.9641
#
#
#
# Elastic Compliance Matrix: (Units=1/GPa)
#
#
# Indices 1 2 3 4 5 6 
#
# 1 0.012523 -0.003767 -0.008660 0.000000 -0.001411 0.000000
# 2 -0.003767 0.021146 -0.002903 0.000000 -0.002135 0.000000
# 3 -0.008660 -0.002903 0.030491 0.000000 0.024443 0.000000
# 4 0.000000 0.000000 0.000000 0.032565 0.000000 -0.001995
# 5 -0.001411 -0.002135 0.024443 0.000000 0.066214 0.000000
# 6 0.000000 0.000000 0.000000 -0.001995 0.000000 0.035882
#
#
# Mechanical properties :
#
#
# Convention : Reuss Voigt Hill
#
# Bulk Modulus (GPa) = 29.85047 46.45405 38.15226
# Shear Modulus (GPa) = 20.77718 26.36852 23.57285
#
# Velocity S-wave (km/s) = 3.14102 3.53851 3.34568
# Velocity P-wave (km/s) = 5.22773 6.22523 5.74816
#
# Compressibility (1/GPa) = 0.03350032
#
# Stress axis : x y z
#
# Youngs Moduli (GPa) = 79.85097 47.29095 32.79652
#
# Poissons Ratio (x) = 0.17816 0.28401
# Poissons Ratio (y) = 0.30082 0.09520
# Poissons Ratio (z) = 0.69150 0.13727
#
# Static dielectric constant tensor:
#      x y z
#    x 3.873300 0.000000 -0.047540 
#    y 0.000000 3.773360 0.000000 
#    z -0.047540 0.000000 3.804790 
# 
# 
# High freq. dielectric constant tensor:
#      x y z
#    x 1.822660 0.000000 -0.009550 
#    y 0.000000 1.830570 0.000000 
#    z -0.009550 0.000000 1.828770 
# 
# From -- ./inp_files/50712.got.cif
#   From: 2010.06.25/outbox.cif.g09.slc.cpg/sg11_26_cif.got.tgz:50712.got - 2010.06.27 23:14:04.
