data_PCOD8077104
_publ_section_title
;
Structure prediction by ZEFSAII (Michael W. Deem and Ramdas Pophale) SiO2 
 PCOD8077104
Probable space group: P 21/M
;
_chemical_formula_sum "Si O2"
_cell_formula_units_Z 28
_cell_length_a 9.384370
_cell_length_b 27.791082
_cell_length_c 5.434822
_cell_angle_alpha 90.000000
_cell_angle_beta 67.069391
_cell_angle_gamma 90.000000
_cell_volume 1305.403801
_symmetry_space_group_name_H-M "P 21/M"
_symmetry_group_IT_number 11
_symmetry_cell_setting 'monoclinic'
loop_
_space_group_symop_operation_xyz
x,y,z
-x,1/2+y,-z
-x,-y,-z
x,1/2-y,z
loop_
_atom_site_type_symbol
_atom_site_label
_atom_site_fract_x
_atom_site_fract_y
_atom_site_fract_z
Si Si1 0.987086 0.880668 0.025296
Si Si2 0.266843 0.305624 0.736911
Si Si3 0.141973 0.035620 0.632654
Si Si4 0.551408 0.693926 0.883818
Si Si5 0.316921 0.610874 0.041890
Si Si6 0.873973 0.066155 0.463580
Si Si7 0.525948 0.529464 0.733102
O O1 0.897227 0.831950 0.139360
O O2 0.870781 0.926512 0.136264
O O3 0.140700 0.880041 0.084177
O O4 0.045182 0.886826 0.707246
O O5 0.226119 0.250000 0.750089
O O6 0.357549 0.320841 0.427076
O O7 0.355696 0.317986 0.929433
O O8 0.296783 0.048028 0.374899
O O9 0.983812 0.043999 0.594583
O O10 0.153228 0.978992 0.708863
O O11 0.504694 0.750000 0.905116
O O12 0.396567 0.662667 0.008146
O O13 0.293682 0.583122 0.318869
O O14 0.414246 0.576119 0.797762
O O15 0.500000 0.500000 0.500000
O O16 0.500000 0.500000 0.000000
#
# Coordination Sequence:
#
# PCOD8077104 Si02
#       7
#     4   4   4   4   4   4   4
#     4  11  24  39  66  94 131 178 220 269 330 393
#     4  10  24  46  72  97 129 171 222 272 333 407
#     4  10  22  40  61  88 131 181 218 270 314 392
#     4  10  24  47  72 100 131 171 219 278 338 398
#     4  11  25  40  65 101 133 175 220 283 331 394
#     4  10  22  40  60  92 133 173 224 261 326 387
#     4  12  26  41  63  94 131 174 224 273 324 387
#
# _framework density 21.449300999999998
#
# number of rings (size 3 to 8) (size 9 to 14) (size 15 to 20)
#    0.000    1.429    1.429    2.143   10.000    0.571 
#    0.000    0.714    0.000    0.000    0.000    0.000 
#    0.000    0.000    0.000    0.000    0.000    0.000 
#
# Total GULP energy -346912.888774 kJ/mol
# GULP energy per Si atom -12389.746028 kJ/mol
# Density = 2.140048 g / cm^3
# Si number density = 21.449301 Si / 1000 Ang^3
#
#
#
# Elastic Constant Matrix: (Units=GPa)
#
#
# Indices 1 2 3 4 5 6 
#
# 1 78.7637 62.8006 51.4404 0.0000 -21.0930 0.0000
# 2 62.8006 113.4726 59.4393 0.0000 -20.8567 0.0000
# 3 51.4404 59.4393 137.1208 0.0000 -10.3622 0.0000
# 4 0.0000 0.0000 0.0000 35.7846 0.0000 -16.9160
# 5 -21.0930 -20.8567 -10.3622 0.0000 44.4743 0.0000
# 6 0.0000 0.0000 0.0000 -16.9160 0.0000 38.5113
#
#
#
# Elastic Compliance Matrix: (Units=1/GPa)
#
#
# Indices 1 2 3 4 5 6 
#
# 1 0.025993 -0.010852 -0.004581 0.000000 0.006171 0.000000
# 2 -0.010852 0.016789 -0.003054 0.000000 0.002015 0.000000
# 3 -0.004581 -0.003054 0.010243 0.000000 -0.001218 0.000000
# 4 0.000000 0.000000 0.000000 0.035268 0.000000 0.015491
# 5 0.006171 0.002015 -0.001218 0.000000 0.026073 0.000000
# 6 0.000000 0.000000 0.000000 0.015491 0.000000 0.032771
#
#
# Mechanical properties :
#
#
# Convention : Reuss Voigt Hill
#
# Bulk Modulus (GPa) = 62.30041 75.19085 68.74563
# Shear Modulus (GPa) = 26.39057 34.13249 30.26153
#
# Velocity S-wave (km/s) = 3.51147 3.99345 3.76019
# Velocity P-wave (km/s) = 6.74900 7.50965 7.13946
#
# Compressibility (1/GPa) = 0.01605126
#
# Stress axis : x y z
#
# Youngs Moduli (GPa) = 38.47170 59.56337 97.62528
#
# Poissons Ratio (x) = 0.64637 0.44720
# Poissons Ratio (y) = 0.41749 0.29818
# Poissons Ratio (z) = 0.17623 0.18193
#
# Static dielectric constant tensor:
#      x y z
#    x 3.803960 0.000000 -0.073330 
#    y 0.000000 4.008110 0.000000 
#    z -0.073330 0.000000 4.290830 
# 
# 
# High freq. dielectric constant tensor:
#      x y z
#    x 1.834170 0.000000 -0.011070 
#    y 0.000000 1.837600 0.000000 
#    z -0.011070 0.000000 1.855520 
# 
# From -- ./inp_files/3343.got.cif
#   From: 2010.06.25/outbox.cif.g09.slc.cpg/sg11_2_cif.got.tgz:3343.got - 2010.06.27 23:14:04.
