data_PCOD8077826
_publ_section_title
;
Structure prediction by ZEFSAII (Michael W. Deem and Ramdas Pophale) SiO2 
 PCOD8077826
Probable space group: P 21/M
;
_chemical_formula_sum "Si O2"
_cell_formula_units_Z 24
_cell_length_a 16.081216
_cell_length_b 14.102685
_cell_length_c 12.038836
_cell_angle_alpha 90.000000
_cell_angle_beta 26.438927
_cell_angle_gamma 90.000000
_cell_volume 1215.634175
_symmetry_space_group_name_H-M "P 21/M"
_symmetry_group_IT_number 11
_symmetry_cell_setting 'monoclinic'
loop_
_space_group_symop_operation_xyz
x,y,z
-x,1/2+y,-z
-x,-y,-z
x,1/2-y,z
loop_
_atom_site_type_symbol
_atom_site_label
_atom_site_fract_x
_atom_site_fract_y
_atom_site_fract_z
Si Si1 0.373598 0.137296 0.879155
Si Si2 0.294014 0.141152 0.522052
Si Si3 0.980076 0.982027 0.653049
Si Si4 0.495366 0.861329 0.513610
Si Si5 0.109827 0.858851 0.074066
Si Si6 0.386866 0.517990 0.246253
O O1 0.372104 0.250000 0.883535
O O2 0.439665 0.094677 0.681140
O O3 0.517354 0.102143 0.800247
O O4 0.165030 0.102086 0.152505
O O5 0.353944 0.250000 0.428901
O O6 0.363823 0.105123 0.558296
O O7 0.070791 0.129376 0.787918
O O8 0.391566 0.079697 0.309738
O O9 0.907343 0.079739 0.793963
O O10 0.000000 0.000000 0.500000
O O11 0.176188 0.950224 0.471495
O O12 0.502468 0.750000 0.492281
O O13 0.285659 0.894905 0.792185
O O14 0.136573 0.750000 0.080524
O O15 0.500000 0.500000 0.000000
#
# Coordination Sequence:
#
# PCOD8077826 Si02
#       6
#     4   4   4   4   4   4
#     4  11  25  43  62  88 125 164 199 248 305 359
#     4   9  19  36  60  89 120 156 198 252 308 356
#     4  11  23  40  61  88 125 159 205 254 296 362
#     4   9  19  37  61  88 119 157 204 247 298 367
#     4   9  19  36  60  89 120 156 198 252 308 356
#     4  11  23  40  61  88 125 159 205 254 296 362
#
# _framework density 19.742781000000001
#
# number of rings (size 3 to 8) (size 9 to 14) (size 15 to 20)
#    0.000    2.000    1.667    1.000    0.000    6.000 
#    0.000    6.667    0.000    0.000    0.000    0.000 
#    0.000    0.000    0.000    0.000    0.000    0.000 
#
# Total GULP energy -297645.476034 kJ/mol
# GULP energy per Si atom -12401.894835 kJ/mol
# Density = 1.969785 g / cm^3
# Si number density = 19.742781 Si / 1000 Ang^3
#
#
#
# Elastic Constant Matrix: (Units=GPa)
#
#
# Indices 1 2 3 4 5 6 
#
# 1 161.0726 57.9220 94.6775 0.0000 8.5090 0.0000
# 2 57.9220 94.2657 58.2297 0.0000 -1.5611 0.0000
# 3 94.6775 58.2297 158.9492 0.0000 7.2732 0.0000
# 4 0.0000 0.0000 0.0000 31.5792 0.0000 -0.4625
# 5 8.5090 -1.5611 7.2732 0.0000 41.2127 0.0000
# 6 0.0000 0.0000 0.0000 -0.4625 0.0000 31.5057
#
#
#
# Elastic Compliance Matrix: (Units=1/GPa)
#
#
# Indices 1 2 3 4 5 6 
#
# 1 0.010360 -0.003382 -0.004867 0.000000 -0.001408 0.000000
# 2 -0.003382 0.014898 -0.003529 0.000000 0.001886 0.000000
# 3 -0.004867 -0.003529 0.010529 0.000000 -0.000987 0.000000
# 4 0.000000 0.000000 0.000000 0.031673 0.000000 0.000465
# 5 -0.001408 0.001886 -0.000987 0.000000 0.024801 0.000000
# 6 0.000000 0.000000 0.000000 0.000465 0.000000 0.031747
#
#
# Mechanical properties :
#
#
# Convention : Reuss Voigt Hill
#
# Bulk Modulus (GPa) = 81.77626 92.88287 87.32956
# Shear Modulus (GPa) = 32.97231 34.42339 33.69785
#
# Velocity S-wave (km/s) = 4.09111 4.18017 4.13588
# Velocity P-wave (km/s) = 7.98918 8.39327 8.19372
#
# Compressibility (1/GPa) = 0.01222849
#
# Stress axis : x y z
#
# Youngs Moduli (GPa) = 96.52370 67.12298 94.97889
#
# Poissons Ratio (x) = 0.22704 0.46230
# Poissons Ratio (y) = 0.32649 0.33521
# Poissons Ratio (z) = 0.46982 0.23690
#
# Static dielectric constant tensor:
#      x y z
#    x 3.923960 0.000000 -0.182430 
#    y 0.000000 3.489230 0.000000 
#    z -0.182430 0.000000 3.948860 
# 
# 
# High freq. dielectric constant tensor:
#      x y z
#    x 1.778580 0.000000 -0.006610 
#    y 0.000000 1.766430 0.000000 
#    z -0.006610 0.000000 1.779520 
# 
# From -- ./inp_files/39412.got.cif
#   From: 2010.06.25/outbox.cif.g09.slc.cpg/sg11_20_cif.got.tgz:39412.got - 2010.06.27 23:14:04.
