data_PCOD8077535
_publ_section_title
;
Structure prediction by ZEFSAII (Michael W. Deem and Ramdas Pophale) SiO2 
 PCOD8077535
Probable space group: P 21/M
;
_chemical_formula_sum "Si O2"
_cell_formula_units_Z 28
_cell_length_a 22.136461
_cell_length_b 8.872417
_cell_length_c 17.896046
_cell_angle_alpha 90.000000
_cell_angle_beta 152.811725
_cell_angle_gamma 90.000000
_cell_volume 1605.992458
_symmetry_space_group_name_H-M "P 21/M"
_symmetry_group_IT_number 11
_symmetry_cell_setting 'monoclinic'
loop_
_space_group_symop_operation_xyz
x,y,z
-x,1/2+y,-z
-x,-y,-z
x,1/2-y,z
loop_
_atom_site_type_symbol
_atom_site_label
_atom_site_fract_x
_atom_site_fract_y
_atom_site_fract_z
Si Si1 0.383517 0.581778 0.540054
Si Si2 0.859352 0.925763 0.334286
Si Si3 0.368888 0.570614 0.820912
Si Si4 0.307161 0.083072 0.155844
Si Si5 0.640996 0.425810 0.646900
Si Si6 0.703943 0.924599 0.017616
Si Si7 0.573043 0.573279 0.265410
O O1 0.342760 0.750000 0.520619
O O2 0.536967 0.577612 0.687523
O O3 0.303523 0.535772 0.375787
O O4 0.355966 0.468123 0.577870
O O5 0.861478 0.750000 0.358786
O O6 0.820838 0.947192 0.205155
O O7 0.757333 0.014101 0.273321
O O8 0.000000 0.000000 0.500000
O O9 0.379078 0.750000 0.835896
O O10 0.351786 0.516114 0.717051
O O11 0.500000 0.500000 0.000000
O O12 0.258733 0.250000 0.122615
O O13 0.265755 0.982566 0.182254
O O14 0.241332 0.028642 0.004840
O O15 0.500000 0.500000 0.500000
O O16 0.621389 0.250000 0.633888
O O17 0.655395 0.750000 0.962046
O O18 0.580476 0.027235 0.904836
O O19 0.585247 0.750000 0.264653
#
# Coordination Sequence:
#
# PCOD8077535 Si02
#       7
#     4   4   4   4   4   4   4
#     4   8  15  26  37  54  87 125 158 195 244 294
#     4  11  23  39  57  77 104 137 172 214 262 309
#     4  12  23  37  56  78 103 133 172 214 258 308
#     4   8  14  24  38  57  82 118 159 197 239 289
#     4   9  15  22  33  52  81 119 156 193 239 289
#     4   9  18  32  48  66  95 131 165 205 253 301
#     4  11  20  29  47  73  97 126 167 209 252 297
#
# _framework density 17.434702000000001
#
# number of rings (size 3 to 8) (size 9 to 14) (size 15 to 20)
#    0.000    2.286    1.429    5.143    0.000    6.286 
#    0.000    0.000    0.000    0.000    0.000    0.000 
#    0.000    1.143    0.000    3.429    0.000    7.286 
#
# Total GULP energy -346969.699033 kJ/mol
# GULP energy per Si atom -12391.774965 kJ/mol
# Density = 1.739502 g / cm^3
# Si number density = 17.434702 Si / 1000 Ang^3
#
#
#
# Elastic Constant Matrix: (Units=GPa)
#
#
# Indices 1 2 3 4 5 6 
#
# 1 115.1881 64.4666 64.1033 0.0000 -35.5851 0.0000
# 2 64.4666 127.0849 43.1933 0.0000 -15.9686 0.0000
# 3 64.1033 43.1933 66.9947 0.0000 -17.1722 0.0000
# 4 0.0000 0.0000 0.0000 21.1412 0.0000 -7.0660
# 5 -35.5851 -15.9686 -17.1722 0.0000 32.6500 0.0000
# 6 0.0000 0.0000 0.0000 -7.0660 0.0000 31.1278
#
#
#
# Elastic Compliance Matrix: (Units=1/GPa)
#
#
# Indices 1 2 3 4 5 6 
#
# 1 0.027121 -0.005462 -0.017957 0.000000 0.017442 0.000000
# 2 -0.005462 0.011264 -0.002484 0.000000 -0.001751 0.000000
# 3 -0.017957 -0.002484 0.032805 0.000000 -0.003533 0.000000
# 4 0.000000 0.000000 0.000000 0.051184 0.000000 0.011619
# 5 0.017442 -0.001751 -0.003533 0.000000 0.046924 0.000000
# 6 0.000000 0.000000 0.000000 0.011619 0.000000 0.034763
#
#
# Mechanical properties :
#
#
# Convention : Reuss Voigt Hill
#
# Bulk Modulus (GPa) = 51.59644 72.53268 62.06456
# Shear Modulus (GPa) = 19.05999 26.15075 22.60537
#
# Velocity S-wave (km/s) = 3.30998 3.87709 3.60470
# Velocity P-wave (km/s) = 6.65329 7.85718 7.28016
#
# Compressibility (1/GPa) = 0.01938118
#
# Stress axis : x y z
#
# Youngs Moduli (GPa) = 36.87242 88.77792 30.48307
#
# Poissons Ratio (x) = 0.48495 0.54740
# Poissons Ratio (y) = 0.20141 0.07573
# Poissons Ratio (z) = 0.66213 0.22056
#
# Static dielectric constant tensor:
#      x y z
#    x 3.612880 0.000000 -0.573270 
#    y 0.000000 3.263220 0.000000 
#    z -0.573270 0.000000 3.083540 
# 
# 
# High freq. dielectric constant tensor:
#      x y z
#    x 1.672880 0.000000 -0.055290 
#    y 0.000000 1.681310 0.000000 
#    z -0.055290 0.000000 1.620960 
# 
# From -- ./inp_files/61238.got.cif
#   From: 2010.06.25/outbox.cif.g09.slc.cpg/sg11_31_cif.got.tgz:61238.got - 2010.06.27 23:14:04.
