data_PCOD8077455
_publ_section_title
;
Structure prediction by ZEFSAII (Michael W. Deem and Ramdas Pophale) SiO2 
 PCOD8077455
Probable space group: P 21/M
;
_chemical_formula_sum "Si O2"
_cell_formula_units_Z 24
_cell_length_a 10.147684
_cell_length_b 18.757441
_cell_length_c 5.494908
_cell_angle_alpha 90.000000
_cell_angle_beta 102.055040
_cell_angle_gamma 90.000000
_cell_volume 1022.860614
_symmetry_space_group_name_H-M "P 21/M"
_symmetry_group_IT_number 11
_symmetry_cell_setting 'monoclinic'
loop_
_space_group_symop_operation_xyz
x,y,z
-x,1/2+y,-z
-x,-y,-z
x,1/2-y,z
loop_
_atom_site_type_symbol
_atom_site_label
_atom_site_fract_x
_atom_site_fract_y
_atom_site_fract_z
Si Si1 0.379191 0.549513 0.567098
Si Si2 0.743361 0.332908 0.744188
Si Si3 0.756622 0.832908 0.255783
Si Si4 0.520647 0.090463 0.894161
Si Si5 0.879194 0.950479 0.567105
Si Si6 0.979356 0.909526 0.105848
O O1 0.318741 0.630230 0.522126
O O2 0.480832 0.542857 0.362807
O O3 0.249990 0.500003 0.499952
O O4 0.449323 0.541232 0.858382
O O5 0.763764 0.250000 0.703923
O O6 0.638152 0.349993 0.920674
O O7 0.882021 0.369025 0.878259
O O8 0.736189 0.750000 0.296029
O O9 0.617979 0.869041 0.121694
O O10 0.818721 0.869767 0.522104
O O11 0.861847 0.849984 0.079320
O O12 0.949351 0.958751 0.858379
O O13 0.980821 0.957139 0.362795
#
# Coordination Sequence:
#
# PCOD8077455 Si02
#       6
#     4   4   4   4   4   4
#     4  10  24  44  67  96 129 168 214 264 318 378
#     4  10  24  42  64  94 130 170 214 264 318 378
#     4  10  24  42  64  94 130 170 214 264 318 378
#     4  10  24  41  65  93 124 168 213 260 320 376
#     4  10  24  44  67  96 129 168 214 264 318 378
#     4  10  24  41  65  93 124 168 213 260 320 376
#
# _framework density 23.463607
#
# number of rings (size 3 to 8) (size 9 to 14) (size 15 to 20)
#    2.000    0.000    0.000    2.000    4.667    5.333 
#    0.000    0.000    0.000    0.000    0.000    0.000 
#    0.000    0.000    0.000    0.000    0.000    0.000 
#
# Total GULP energy -297447.106492 kJ/mol
# GULP energy per Si atom -12393.629437 kJ/mol
# Density = 2.341020 g / cm^3
# Si number density = 23.463607 Si / 1000 Ang^3
#
#
#
# Elastic Constant Matrix: (Units=GPa)
#
#
# Indices 1 2 3 4 5 6 
#
# 1 144.2297 30.5921 57.4306 0.0000 14.9320 0.0000
# 2 30.5921 129.3844 95.8701 0.0000 12.4454 0.0000
# 3 57.4306 95.8701 185.4197 0.0000 26.4452 0.0000
# 4 0.0000 0.0000 0.0000 31.1450 0.0000 -0.2590
# 5 14.9320 12.4454 26.4452 0.0000 20.0915 0.0000
# 6 0.0000 0.0000 0.0000 -0.2590 0.0000 35.6380
#
#
#
# Elastic Compliance Matrix: (Units=1/GPa)
#
#
# Indices 1 2 3 4 5 6 
#
# 1 0.008089 -0.000143 -0.001954 0.000000 -0.003352 0.000000
# 2 -0.000143 0.012546 -0.006586 0.000000 0.001003 0.000000
# 3 -0.001954 -0.006586 0.010605 0.000000 -0.008428 0.000000
# 4 0.000000 0.000000 0.000000 0.032110 0.000000 0.000233
# 5 -0.003352 0.001003 -0.008428 0.000000 0.062735 0.000000
# 6 0.000000 0.000000 0.000000 0.000233 0.000000 0.028062
#
#
# Mechanical properties :
#
#
# Convention : Reuss Voigt Hill
#
# Bulk Modulus (GPa) = 72.06557 91.86883 81.96720
# Shear Modulus (GPa) = 28.38728 35.71764 32.05246
#
# Velocity S-wave (km/s) = 3.48205 3.90584 3.70002
# Velocity P-wave (km/s) = 6.85177 7.71878 7.29816
#
# Compressibility (1/GPa) = 0.01387625
#
# Stress axis : x y z
#
# Youngs Moduli (GPa) = 123.63230 79.70697 94.29219
#
# Poissons Ratio (x) = 0.01136 0.18420
# Poissons Ratio (y) = 0.01762 0.62098
# Poissons Ratio (z) = 0.24152 0.52492
#
# Static dielectric constant tensor:
#      x y z
#    x 4.402900 0.000000 -0.113930 
#    y 0.000000 4.385270 0.000000 
#    z -0.113930 0.000000 4.190940 
# 
# 
# High freq. dielectric constant tensor:
#      x y z
#    x 1.955720 0.000000 0.000850 
#    y 0.000000 1.946090 0.000000 
#    z 0.000850 0.000000 1.926600 
# 
# From -- ./inp_files/4796.got.cif
#   From: 2010.06.25/outbox.cif.g09.slc.cpg/sg11_3_cif.got.tgz:4796.got - 2010.06.27 23:14:04.
