data_PCOD8077075
_publ_section_title
;
Structure prediction by ZEFSAII (Michael W. Deem and Ramdas Pophale) SiO2 
 PCOD8077075
Probable space group: P 21/M
;
_chemical_formula_sum "Si O2"
_cell_formula_units_Z 24
_cell_length_a 13.491445
_cell_length_b 14.576022
_cell_length_c 11.387627
_cell_angle_alpha 90.000000
_cell_angle_beta 148.193995
_cell_angle_gamma 90.000000
_cell_volume 1180.261672
_symmetry_space_group_name_H-M "P 21/M"
_symmetry_group_IT_number 11
_symmetry_cell_setting 'monoclinic'
loop_
_space_group_symop_operation_xyz
x,y,z
-x,1/2+y,-z
-x,-y,-z
x,1/2-y,z
loop_
_atom_site_type_symbol
_atom_site_label
_atom_site_fract_x
_atom_site_fract_y
_atom_site_fract_z
Si Si1 0.271850 0.750000 0.200119
Si Si2 0.997700 0.606781 0.026391
Si Si3 0.985276 0.851684 0.279626
Si Si4 0.326322 0.111760 0.869701
Si Si5 0.744083 0.094518 0.254407
Si Si6 0.252760 0.750000 0.914837
Si Si7 0.692657 0.750000 0.342806
Si Si8 0.724572 0.750000 0.640939
O O1 0.499120 0.750000 0.435250
O O2 0.189143 0.658457 0.178979
O O3 0.185377 0.750000 0.981430
O O4 0.983453 0.604358 0.151377
O O5 0.815061 0.658876 0.789814
O O6 0.000000 0.500000 0.000000
O O7 0.071999 0.750000 0.360755
O O8 0.773387 0.846613 0.116394
O O9 0.109872 0.912893 0.492543
O O10 0.248434 0.159623 0.671996
O O11 0.284587 0.004620 0.828503
O O12 0.546955 0.133278 0.105283
O O13 0.822798 0.160567 0.230592
O O14 0.473938 0.750000 0.144549
O O15 0.785463 0.750000 0.564833
#
# Coordination Sequence:
#
# PCOD8077075 Si02
#       8
#     2   4   4   4   4   2   2   2
#     4  10  23  45  67  90 125 171 217 260 310 376
#     4  11  27  45  62  94 128 166 222 264 310 375
#     4  12  23  40  60  90 123 164 206 246 316 366
#     4  10  22  39  62  93 125 156 198 253 308 371
#     4  10  22  39  62  93 125 156 198 253 308 371
#     4   9  19  37  62  91 119 158 204 244 305 369
#     4   9  19  37  62  91 119 158 204 244 305 369
#     4  10  23  45  67  90 125 171 217 260 310 376
#
# _framework density 20.334474
#
# number of rings (size 3 to 8) (size 9 to 14) (size 15 to 20)
#    0.000    1.667    3.333    0.500    4.667    4.667 
#    0.000    0.000    0.000    0.000    0.000    0.000 
#    0.000    0.000    0.000    0.000    0.000    0.000 
#
# Total GULP energy -297532.161031 kJ/mol
# GULP energy per Si atom -12397.173376 kJ/mol
# Density = 2.028819 g / cm^3
# Si number density = 20.334474 Si / 1000 Ang^3
#
#
#
# Elastic Constant Matrix: (Units=GPa)
#
#
# Indices 1 2 3 4 5 6 
#
# 1 123.4487 28.1630 49.5985 0.0000 -17.1931 0.0000
# 2 28.1630 123.9915 19.7005 0.0000 -0.3138 0.0000
# 3 49.5985 19.7005 98.1175 0.0000 -2.3942 0.0000
# 4 0.0000 0.0000 0.0000 6.6913 0.0000 -0.6725
# 5 -17.1931 -0.3138 -2.3942 0.0000 42.5234 0.0000
# 6 0.0000 0.0000 0.0000 -0.6725 0.0000 22.6393
#
#
#
# Elastic Compliance Matrix: (Units=1/GPa)
#
#
# Indices 1 2 3 4 5 6 
#
# 1 0.011163 -0.001699 -0.005199 0.000000 0.004208 0.000000
# 2 -0.001699 0.008589 -0.000882 0.000000 -0.000673 0.000000
# 3 -0.005199 -0.000882 0.012964 0.000000 -0.001379 0.000000
# 4 0.000000 0.000000 0.000000 0.149895 0.000000 0.004453
# 5 0.004208 -0.000673 -0.001379 0.000000 0.025135 0.000000
# 6 0.000000 0.000000 0.000000 0.004453 0.000000 0.044303
#
#
# Mechanical properties :
#
#
# Convention : Reuss Voigt Hill
#
# Bulk Modulus (GPa) = 58.29040 60.05352 59.17196
# Shear Modulus (GPa) = 18.29302 30.91053 24.60178
#
# Velocity S-wave (km/s) = 3.00260 3.90308 3.48207
# Velocity P-wave (km/s) = 6.38348 7.06463 6.73268
#
# Compressibility (1/GPa) = 0.01715548
#
# Stress axis : x y z
#
# Youngs Moduli (GPa) = 89.58118 116.42243 77.13937
#
# Poissons Ratio (x) = 0.19778 0.40106
# Poissons Ratio (y) = 0.15218 0.06806
# Poissons Ratio (z) = 0.46575 0.10272
#
# Static dielectric constant tensor:
#      x y z
#    x 3.942780 0.000000 0.007980 
#    y 0.000000 3.792340 0.000000 
#    z 0.007980 0.000000 3.691000 
# 
# 
# High freq. dielectric constant tensor:
#      x y z
#    x 1.803150 0.000000 0.005200 
#    y 0.000000 1.799560 0.000000 
#    z 0.005200 0.000000 1.789660 
# 
# From -- ./inp_files/39763.got.cif
#   From: 2010.06.25/outbox.cif.g09.slc.cpg/sg11_20_cif.got.tgz:39763.got - 2010.06.27 23:14:04.
