data_PCOD8077271
_publ_section_title
;
Structure prediction by ZEFSAII (Michael W. Deem and Ramdas Pophale) SiO2 
 PCOD8077271
Probable space group: P 21/M
;
_chemical_formula_sum "Si O2"
_cell_formula_units_Z 24
_cell_length_a 14.697902
_cell_length_b 8.431518
_cell_length_c 9.511611
_cell_angle_alpha 90.000000
_cell_angle_beta 80.901314
_cell_angle_gamma 90.000000
_cell_volume 1163.900863
_symmetry_space_group_name_H-M "P 21/M"
_symmetry_group_IT_number 11
_symmetry_cell_setting 'monoclinic'
loop_
_space_group_symop_operation_xyz
x,y,z
-x,1/2+y,-z
-x,-y,-z
x,1/2-y,z
loop_
_atom_site_type_symbol
_atom_site_label
_atom_site_fract_x
_atom_site_fract_y
_atom_site_fract_z
Si Si1 0.750183 0.065318 0.966073
Si Si2 0.437653 0.433474 0.895353
Si Si3 0.455281 0.432230 0.374277
Si Si4 0.915221 0.936432 0.430936
Si Si5 0.254316 0.438562 0.336856
Si Si6 0.086382 0.439303 0.892734
O O1 0.724066 0.250000 0.978082
O O2 0.778124 0.018776 0.800636
O O3 0.667096 0.955714 0.036560
O O4 0.829313 0.028618 0.056979
O O5 0.457962 0.250000 0.860458
O O6 0.464592 0.537406 0.756079
O O7 0.500000 0.500000 0.000000
O O8 0.500000 0.500000 0.500000
O O9 0.436092 0.250000 0.402433
O O10 0.355590 0.506044 0.355757
O O11 0.922788 0.750000 0.430651
O O12 0.818654 0.989942 0.525368
O O13 0.919714 0.996086 0.268447
O O14 0.000000 0.000000 0.500000
O O15 0.256154 0.250000 0.314201
O O16 0.096695 0.250000 0.901628
O O17 0.000000 0.500000 0.000000
#
# Coordination Sequence:
#
# PCOD8077271 Si02
#       6
#     4   4   4   4   4   4
#     4  12  25  41  65  97 129 168 216 265 321 384
#     4  12  24  42  66  94 129 171 218 268 322 383
#     4  11  24  41  64  94 130 172 217 267 323 383
#     4  10  23  42  65  93 124 164 207 255 315 377
#     4  10  22  42  65  90 125 169 213 261 322 383
#     4  11  24  43  67  96 130 167 210 264 320 383
#
# _framework density 20.620314
#
# number of rings (size 3 to 8) (size 9 to 14) (size 15 to 20)
#    0.000    1.000    1.667    5.000    2.333    5.333 
#    0.000    0.000    0.000    0.000    0.000    0.000 
#    0.000    0.000    0.000    0.000    0.000    0.000 
#
# Total GULP energy -297607.944195 kJ/mol
# GULP energy per Si atom -12400.331008 kJ/mol
# Density = 2.057338 g / cm^3
# Si number density = 20.620314 Si / 1000 Ang^3
#
#
#
# Elastic Constant Matrix: (Units=GPa)
#
#
# Indices 1 2 3 4 5 6 
#
# 1 128.5947 22.8750 70.2898 0.0000 4.2626 0.0000
# 2 22.8750 59.1091 24.1375 0.0000 6.2691 0.0000
# 3 70.2898 24.1375 185.5267 0.0000 7.5024 0.0000
# 4 0.0000 0.0000 0.0000 36.2356 0.0000 2.0916
# 5 4.2626 6.2691 7.5024 0.0000 45.2532 0.0000
# 6 0.0000 0.0000 0.0000 2.0916 0.0000 36.0787
#
#
#
# Elastic Compliance Matrix: (Units=1/GPa)
#
#
# Indices 1 2 3 4 5 6 
#
# 1 0.010142 -0.002485 -0.003518 0.000000 -0.000028 0.000000
# 2 -0.002485 0.018677 -0.001403 0.000000 -0.002121 0.000000
# 3 -0.003518 -0.001403 0.006931 0.000000 -0.000623 0.000000
# 4 0.000000 0.000000 0.000000 0.027690 0.000000 -0.001605
# 5 -0.000028 -0.002121 -0.000623 0.000000 0.022498 0.000000
# 6 0.000000 0.000000 0.000000 -0.001605 0.000000 0.027810
#
#
# Mechanical properties :
#
#
# Convention : Reuss Voigt Hill
#
# Bulk Modulus (GPa) = 47.75973 67.53723 57.64848
# Shear Modulus (GPa) = 36.88950 40.57538 38.73244
#
# Velocity S-wave (km/s) = 4.23423 4.44073 4.33871
# Velocity P-wave (km/s) = 6.86416 7.68878 7.28814
#
# Compressibility (1/GPa) = 0.02093814
#
# Stress axis : x y z
#
# Youngs Moduli (GPa) = 98.59563 53.54063 144.28672
#
# Poissons Ratio (x) = 0.13307 0.50762
# Poissons Ratio (y) = 0.24506 0.20237
# Poissons Ratio (z) = 0.34687 0.07509
#
# Static dielectric constant tensor:
#      x y z
#    x 3.810650 0.000000 0.557830 
#    y 0.000000 3.727890 0.000000 
#    z 0.557830 0.000000 4.629880 
# 
# 
# High freq. dielectric constant tensor:
#      x y z
#    x 1.820310 0.000000 -0.000140 
#    y 0.000000 1.805330 0.000000 
#    z -0.000140 0.000000 1.824010 
# 
# From -- ./inp_files/20374.got.cif
#   From: 2010.06.25/outbox.cif.g09.slc.cpg/sg11_11_cif.got.tgz:20374.got - 2010.06.27 23:14:04.
