data_PCOD8077240
_publ_section_title
;
Structure prediction by ZEFSAII (Michael W. Deem and Ramdas Pophale) SiO2 
 PCOD8077240
Probable space group: P 21/M
;
_chemical_formula_sum "Si O2"
_cell_formula_units_Z 8
_cell_length_a 6.982334
_cell_length_b 7.934545
_cell_length_c 8.856567
_cell_angle_alpha 90.000000
_cell_angle_beta 146.625313
_cell_angle_gamma 90.000000
_cell_volume 269.922485
_symmetry_space_group_name_H-M "P 21/M"
_symmetry_group_IT_number 11
_symmetry_cell_setting 'monoclinic'
loop_
_space_group_symop_operation_xyz
x,y,z
-x,1/2+y,-z
-x,-y,-z
x,1/2-y,z
loop_
_atom_site_type_symbol
_atom_site_label
_atom_site_fract_x
_atom_site_fract_y
_atom_site_fract_z
Si Si1 0.595872 0.562260 0.726533
Si Si2 0.028566 0.750000 0.510239
Si Si3 0.234488 0.750000 0.976813
O O1 0.500000 0.500000 0.500000
O O2 0.776294 0.750000 0.830887
O O3 0.236955 0.584755 0.585947
O O4 0.834681 0.425956 0.974600
O O5 0.637246 0.750000 0.188946
O O6 0.997432 0.750000 0.671794
#
# Coordination Sequence:
#
# PCOD8077240 Si02
#       3
#     4   2   2
#     4  10  22  41  67  94 132 170 209 263 321 377
#     4  10  25  40  73  90 130 168 212 266 315 370
#     4  12  21  48  63 100 124 166 220 262 311 380
#
# _framework density 29.638138000000001
#
# number of rings (size 3 to 8) (size 9 to 14) (size 15 to 20)
#    1.500    0.000    2.500    3.000    0.000    0.000 
#    0.000   15.000    0.000    0.000    0.000    0.000 
#    0.000    0.000    0.000    0.000    0.000    0.000 
#
# Total GULP energy -99299.523978 kJ/mol
# GULP energy per Si atom -12412.440497 kJ/mol
# Density = 2.957068 g / cm^3
# Si number density = 29.638138 Si / 1000 Ang^3
#
#
#
# Elastic Constant Matrix: (Units=GPa)
#
#
# Indices 1 2 3 4 5 6 
#
# 1 187.0271 101.9093 50.1992 0.0000 -11.9504 0.0000
# 2 101.9093 163.9831 5.3858 0.0000 7.0686 0.0000
# 3 50.1992 5.3858 89.0021 0.0000 -13.2364 0.0000
# 4 0.0000 0.0000 0.0000 48.6568 0.0000 -3.0176
# 5 -11.9504 7.0686 -13.2364 0.0000 67.5729 0.0000
# 6 0.0000 0.0000 0.0000 -3.0176 0.0000 83.8617
#
#
#
# Elastic Compliance Matrix: (Units=1/GPa)
#
#
# Indices 1 2 3 4 5 6 
#
# 1 0.010238 -0.006255 -0.005180 0.000000 0.001450 0.000000
# 2 -0.006255 0.009967 0.002683 0.000000 -0.001623 0.000000
# 3 -0.005180 0.002683 0.014232 0.000000 0.001591 0.000000
# 4 0.000000 0.000000 0.000000 0.020598 0.000000 0.000741
# 5 0.001450 -0.001623 0.001591 0.000000 0.015537 0.000000
# 6 0.000000 0.000000 0.000000 0.000741 0.000000 0.011951
#
#
# Mechanical properties :
#
#
# Convention : Reuss Voigt Hill
#
# Bulk Modulus (GPa) = 59.05536 83.88898 71.47217
# Shear Modulus (GPa) = 47.31634 58.85282 53.08458
#
# Velocity S-wave (km/s) = 3.99992 4.46097 4.23672
# Velocity P-wave (km/s) = 6.42660 7.40942 6.93544
#
# Compressibility (1/GPa) = 0.01693326
#
# Stress axis : x y z
#
# Youngs Moduli (GPa) = 97.67281 100.32801 70.26522
#
# Poissons Ratio (x) = 0.62756 0.36400
# Poissons Ratio (y) = 0.61095 -0.18855
# Poissons Ratio (z) = 0.50599 -0.26922
#
# Static dielectric constant tensor:
#      x y z
#    x 6.304110 0.000000 0.547630 
#    y 0.000000 6.564470 0.000000 
#    z 0.547630 0.000000 4.755180 
# 
# 
# High freq. dielectric constant tensor:
#      x y z
#    x 2.300130 0.000000 0.049030 
#    y 0.000000 2.256650 0.000000 
#    z 0.049030 0.000000 2.193310 
# 
# From -- ./inp_files/76.got.cif
#   From: 2010.06.25/outbox.cif.g09.slc.cpg/sg11_1_cif.got.tgz:76.got - 2010.06.27 23:14:04.
