data_PCOD8077162
_publ_section_title
;
Structure prediction by ZEFSAII (Michael W. Deem and Ramdas Pophale) SiO2 
 PCOD8077162
Probable space group: P 21/M
;
_chemical_formula_sum "Si O2"
_cell_formula_units_Z 24
_cell_length_a 5.317453
_cell_length_b 23.411130
_cell_length_c 9.539145
_cell_angle_alpha 90.000000
_cell_angle_beta 106.095210
_cell_angle_gamma 90.000000
_cell_volume 1140.957681
_symmetry_space_group_name_H-M "P 21/M"
_symmetry_group_IT_number 11
_symmetry_cell_setting 'monoclinic'
loop_
_space_group_symop_operation_xyz
x,y,z
-x,1/2+y,-z
-x,-y,-z
x,1/2-y,z
loop_
_atom_site_type_symbol
_atom_site_label
_atom_site_fract_x
_atom_site_fract_y
_atom_site_fract_z
Si Si1 0.002710 0.436515 0.444115
Si Si2 0.050698 0.372088 0.727305
Si Si3 0.998878 0.250000 0.789086
Si Si4 0.594254 0.250000 0.972226
Si Si5 0.579871 0.936805 0.738026
Si Si6 0.506342 0.629737 0.983335
Si Si7 0.792542 0.457740 0.899135
O O1 0.709112 0.419251 0.356008
O O2 0.000000 0.500000 0.500000
O O3 0.101365 0.393204 0.578381
O O4 0.205798 0.430867 0.349268
O O5 0.917097 0.308858 0.697514
O O6 0.880563 0.418314 0.784263
O O7 0.322524 0.365604 0.850329
O O8 0.844030 0.250000 0.910414
O O9 0.311400 0.250000 0.855214
O O10 0.618065 0.192036 0.068334
O O11 0.666502 0.891847 0.872711
O O12 0.568314 0.001462 0.798039
O O13 0.292767 0.581265 0.983813
O O14 0.000000 0.500000 0.000000
#
# Coordination Sequence:
#
# PCOD8077162 Si02
#       7
#     4   4   2   2   4   4   4
#     4  12  26  42  61  94 135 170 209 260 327 390
#     4  11  24  41  69  92 130 171 222 268 321 386
#     4  10  22  42  64  98 122 168 223 273 316 374
#     4  10  22  40  68  94 126 164 219 277 316 378
#     4  12  26  41  62  97 135 168 207 262 331 392
#     4  11  24  42  67  96 129 169 224 268 328 385
#     4  12  22  38  67 100 132 167 214 275 328 390
#
# _framework density 21.034960000000002
#
# number of rings (size 3 to 8) (size 9 to 14) (size 15 to 20)
#    0.000    0.667    5.000    3.000    2.333    0.000 
#    0.000    1.667    0.000    0.000    0.000    0.000 
#    0.000    0.000    0.000    0.000    0.000    0.000 
#
# Total GULP energy -297497.057386 kJ/mol
# GULP energy per Si atom -12395.710724 kJ/mol
# Density = 2.098708 g / cm^3
# Si number density = 21.034960 Si / 1000 Ang^3
#
#
#
# Elastic Constant Matrix: (Units=GPa)
#
#
# Indices 1 2 3 4 5 6 
#
# 1 103.5571 42.2983 50.1376 0.0000 -16.5956 0.0000
# 2 42.2983 202.1546 71.0502 0.0000 -26.5085 0.0000
# 3 50.1376 71.0502 100.5575 0.0000 -21.7634 0.0000
# 4 0.0000 0.0000 0.0000 19.0771 0.0000 -10.3839
# 5 -16.5956 -26.5085 -21.7634 0.0000 40.5438 0.0000
# 6 0.0000 0.0000 0.0000 -10.3839 0.0000 29.6763
#
#
#
# Elastic Compliance Matrix: (Units=1/GPa)
#
#
# Indices 1 2 3 4 5 6 
#
# 1 0.012909 -0.000442 -0.005706 0.000000 0.001932 0.000000
# 2 -0.000442 0.006749 -0.004110 0.000000 0.002026 0.000000
# 3 -0.005706 -0.004110 0.016526 0.000000 0.003848 0.000000
# 4 0.000000 0.000000 0.000000 0.064751 0.000000 0.022657
# 5 0.001932 0.002026 0.003848 0.000000 0.028846 0.000000
# 6 0.000000 0.000000 0.000000 0.022657 0.000000 0.041625
#
#
# Mechanical properties :
#
#
# Convention : Reuss Voigt Hill
#
# Bulk Modulus (GPa) = 63.82106 81.47125 72.64615
# Shear Modulus (GPa) = 25.36197 34.04498 29.70347
#
# Velocity S-wave (km/s) = 3.47609 4.02742 3.76187
# Velocity P-wave (km/s) = 6.82036 7.77446 7.31299
#
# Compressibility (1/GPa) = 0.01566881
#
# Stress axis : x y z
#
# Youngs Moduli (GPa) = 77.46344 148.16185 60.50982
#
# Poissons Ratio (x) = 0.06554 0.34526
# Poissons Ratio (y) = 0.03427 0.24869
# Poissons Ratio (z) = 0.44199 0.60893
#
# Static dielectric constant tensor:
#      x y z
#    x 3.771190 0.000000 -0.078320 
#    y 0.000000 4.539550 0.000000 
#    z -0.078320 0.000000 3.875510 
# 
# 
# High freq. dielectric constant tensor:
#      x y z
#    x 1.827280 0.000000 -0.009870 
#    y 0.000000 1.841290 0.000000 
#    z -0.009870 0.000000 1.802100 
# 
# From -- ./inp_files/5339.got.cif
#   From: 2010.06.25/outbox.cif.g09.slc.cpg/sg11_3_cif.got.tgz:5339.got - 2010.06.27 23:14:04.
