data_PCOD8077551
_publ_section_title
;
Structure prediction by ZEFSAII (Michael W. Deem and Ramdas Pophale) SiO2 
 PCOD8077551
Probable space group: P 21/M
;
_chemical_formula_sum "Si O2"
_cell_formula_units_Z 32
_cell_length_a 8.612995
_cell_length_b 19.587607
_cell_length_c 13.506728
_cell_angle_alpha 90.000000
_cell_angle_beta 129.619184
_cell_angle_gamma 90.000000
_cell_volume 1755.276352
_symmetry_space_group_name_H-M "P 21/M"
_symmetry_group_IT_number 11
_symmetry_cell_setting 'monoclinic'
loop_
_space_group_symop_operation_xyz
x,y,z
-x,1/2+y,-z
-x,-y,-z
x,1/2-y,z
loop_
_atom_site_type_symbol
_atom_site_label
_atom_site_fract_x
_atom_site_fract_y
_atom_site_fract_z
Si Si1 0.918298 0.175951 0.484670
Si Si2 0.692930 0.533722 0.126446
Si Si3 0.448958 0.675951 0.515330
Si Si4 0.441391 0.036665 0.375568
Si Si5 0.190254 0.963335 0.624432
Si Si6 0.838196 0.324976 0.772723
Si Si7 0.792750 0.824976 0.227277
Si Si8 0.940037 0.033722 0.873554
O O1 0.926796 0.250000 0.433749
O O2 0.746346 0.176691 0.496346
O O3 0.871512 0.116365 0.387359
O O4 0.128090 0.162775 0.628460
O O5 0.760831 0.490952 0.248329
O O6 0.644237 0.612449 0.138291
O O7 0.869422 0.531764 0.119422
O O8 0.500000 0.500000 0.000000
O O9 0.559299 0.750000 0.566251
O O10 0.596794 0.616365 0.612641
O O11 0.371170 0.662775 0.371540
O O12 0.618419 0.027002 0.368419
O O13 0.500000 0.000000 0.500000
O O14 0.235826 0.009048 0.248329
O O15 0.000000 0.000000 0.500000
O O16 0.832193 0.250000 0.823430
O O17 0.867654 0.387551 0.861709
O O18 0.020066 0.326160 0.770066
O O19 0.685332 0.750000 0.176570
O O20 0.000000 0.000000 0.000000
#
# Coordination Sequence:
#
# PCOD8077551 Si02
#       8
#     4   4   4   4   4   4   4   4
#     4   8  14  27  50  79 105 132 174 222 259 301
#     4  11  22  37  55  79 109 143 179 222 269 318
#     4   8  14  27  50  79 105 132 174 222 259 301
#     4  11  20  33  55  82 109 139 174 218 266 316
#     4  11  20  33  55  82 109 139 174 218 266 316
#     4   8  14  28  52  78 101 131 177 223 257 302
#     4   8  14  28  52  78 101 131 177 223 257 302
#     4  11  22  37  55  79 109 143 179 222 269 318
#
# _framework density 18.230747999999998
#
# number of rings (size 3 to 8) (size 9 to 14) (size 15 to 20)
#    0.000    2.500    2.500    3.000    0.000    0.000 
#    0.000    1.250    0.000   15.000    0.000    0.000 
#    0.000    0.000    0.000    0.000    0.000    0.000 
#
# Total GULP energy -396471.125472 kJ/mol
# GULP energy per Si atom -12389.722671 kJ/mol
# Density = 1.818925 g / cm^3
# Si number density = 18.230748 Si / 1000 Ang^3
#
#
#
# Elastic Constant Matrix: (Units=GPa)
#
#
# Indices 1 2 3 4 5 6 
#
# 1 42.8433 35.2075 25.6381 0.0000 2.6385 0.0000
# 2 35.2075 205.2701 90.0551 0.0000 3.5314 0.0000
# 3 25.6381 90.0551 123.6652 0.0000 2.5653 0.0000
# 4 0.0000 0.0000 0.0000 27.4240 0.0000 0.3391
# 5 2.6385 3.5314 2.5653 0.0000 29.0878 0.0000
# 6 0.0000 0.0000 0.0000 0.3391 0.0000 22.1576
#
#
#
# Elastic Compliance Matrix: (Units=1/GPa)
#
#
# Indices 1 2 3 4 5 6 
#
# 1 0.028213 -0.003318 -0.003394 0.000000 -0.001857 0.000000
# 2 -0.003318 0.007554 -0.004809 0.000000 -0.000192 0.000000
# 3 -0.003394 -0.004809 0.012296 0.000000 -0.000193 0.000000
# 4 0.000000 0.000000 0.000000 0.036471 0.000000 -0.000558
# 5 -0.001857 -0.000192 -0.000193 0.000000 0.034587 0.000000
# 6 0.000000 0.000000 0.000000 -0.000558 0.000000 0.045140
#
#
# Mechanical properties :
#
#
# Convention : Reuss Voigt Hill
#
# Bulk Modulus (GPa) = 39.96748 74.84222 57.40485
# Shear Modulus (GPa) = 25.55663 30.45909 28.00786
#
# Velocity S-wave (km/s) = 3.74818 4.09192 3.92382
# Velocity P-wave (km/s) = 6.37985 7.96661 7.21698
#
# Compressibility (1/GPa) = 0.02502034
#
# Stress axis : x y z
#
# Youngs Moduli (GPa) = 35.44455 132.38427 81.32715
#
# Poissons Ratio (x) = 0.43924 0.27606
# Poissons Ratio (y) = 0.11760 0.39110
# Poissons Ratio (z) = 0.12031 0.63663
#
# Static dielectric constant tensor:
#      x y z
#    x 3.059580 0.000000 0.048900 
#    y 0.000000 1.820210 0.000000 
#    z 0.048900 0.000000 3.819050 
# 
# 
# High freq. dielectric constant tensor:
#      x y z
#    x 1.670930 0.000000 0.000360 
#    y 0.000000 1.734960 0.000000 
#    z 0.000360 0.000000 1.676490 
# 
# From -- ./inp_files/32841.got.cif
#   From: 2010.06.25/outbox.cif.g09.slc.cpg/sg11_17_cif.got.tgz:32841.got - 2010.06.27 23:14:04.
