data_PCOD8077431
_publ_section_title
;
Structure prediction by ZEFSAII (Michael W. Deem and Ramdas Pophale) SiO2 
 PCOD8077431
Probable space group: P 21/M
;
_chemical_formula_sum "Si O2"
_cell_formula_units_Z 26
_cell_length_a 11.227307
_cell_length_b 20.218140
_cell_length_c 8.503012
_cell_angle_alpha 90.000000
_cell_angle_beta 140.043144
_cell_angle_gamma 90.000000
_cell_volume 1239.558575
_symmetry_space_group_name_H-M "P 21/M"
_symmetry_group_IT_number 11
_symmetry_cell_setting 'monoclinic'
loop_
_space_group_symop_operation_xyz
x,y,z
-x,1/2+y,-z
-x,-y,-z
x,1/2-y,z
loop_
_atom_site_type_symbol
_atom_site_label
_atom_site_fract_x
_atom_site_fract_y
_atom_site_fract_z
Si Si1 0.582732 0.870866 0.883200
Si Si2 0.050049 0.476361 0.254656
Si Si3 0.592544 0.750000 0.672773
Si Si4 0.148890 0.873497 0.434194
Si Si5 0.875874 0.750000 0.678746
Si Si6 0.698277 0.978766 0.765304
Si Si7 0.877095 0.867322 0.436308
Si Si8 0.835300 0.250000 0.768469
O O1 0.642837 0.811881 0.831005
O O2 0.365324 0.875449 0.694005
O O3 0.664433 0.934308 0.881421
O O4 0.678723 0.865287 0.149723
O O5 0.082783 0.555346 0.304583
O O6 0.193698 0.445770 0.272486
O O7 0.084442 0.440029 0.453544
O O8 0.838944 0.464557 0.975838
O O9 0.705216 0.750000 0.626027
O O10 0.379845 0.750000 0.408826
O O11 0.106665 0.816453 0.264931
O O12 0.041797 0.851862 0.482419
O O13 0.870525 0.814762 0.567664
O O14 0.067343 0.750000 0.965579
O O15 0.500000 0.000000 0.500000
#
# Coordination Sequence:
#
# PCOD8077431 Si02
#       8
#     4   4   2   4   2   4   4   2
#     4  11  23  42  67  93 128 171 211 262 324 378
#     4  11  25  40  66  96 132 164 216 265 313 385
#     4  10  23  43  69  93 121 164 226 267 306 381
#     4  11  23  44  66  94 129 170 212 261 321 382
#     4  12  26  42  68  92 126 172 214 265 322 379
#     4  11  23  41  65  91 126 166 216 261 316 366
#     4  12  26  41  62  97 134 167 208 262 326 386
#     4  10  25  43  69  91 123 168 220 266 316 372
#
# _framework density 20.975210000000001
#
# number of rings (size 3 to 8) (size 9 to 14) (size 15 to 20)
#    0.000    0.923    3.077    3.231    4.308    3.077 
#    0.000    0.000    0.000    0.000    0.000    0.000 
#    0.000    0.000    0.000    0.000    0.000    0.000 
#
# Total GULP energy -322360.300837 kJ/mol
# GULP energy per Si atom -12398.473109 kJ/mol
# Density = 2.092747 g / cm^3
# Si number density = 20.975210 Si / 1000 Ang^3
#
#
#
# Elastic Constant Matrix: (Units=GPa)
#
#
# Indices 1 2 3 4 5 6 
#
# 1 81.1118 22.1448 73.4496 0.0000 4.0528 0.0000
# 2 22.1448 99.2256 57.4775 0.0000 -9.8833 0.0000
# 3 73.4496 57.4775 191.5354 0.0000 -1.1587 0.0000
# 4 0.0000 0.0000 0.0000 34.7561 0.0000 -11.1507
# 5 4.0528 -9.8833 -1.1587 0.0000 40.6071 0.0000
# 6 0.0000 0.0000 0.0000 -11.1507 0.0000 32.4470
#
#
#
# Elastic Compliance Matrix: (Units=1/GPa)
#
#
# Indices 1 2 3 4 5 6 
#
# 1 0.019073 -0.000277 -0.007244 0.000000 -0.002178 0.000000
# 2 -0.000277 0.012545 -0.003640 0.000000 0.002977 0.000000
# 3 -0.007244 -0.003640 0.009092 0.000000 0.000096 0.000000
# 4 0.000000 0.000000 0.000000 0.032337 0.000000 0.011113
# 5 -0.002178 0.002977 0.000096 0.000000 0.025571 0.000000
# 6 0.000000 0.000000 0.000000 0.011113 0.000000 0.034639
#
#
# Mechanical properties :
#
#
# Convention : Reuss Voigt Hill
#
# Bulk Modulus (GPa) = 54.38732 75.33518 64.86125
# Shear Modulus (GPa) = 30.91979 36.14878 33.53428
#
# Velocity S-wave (km/s) = 3.84358 4.15590 4.00278
# Velocity P-wave (km/s) = 6.75893 7.68264 7.23554
#
# Compressibility (1/GPa) = 0.01838664
#
# Stress axis : x y z
#
# Youngs Moduli (GPa) = 52.43046 79.71206 109.98867
#
# Poissons Ratio (x) = 0.02211 0.79675
# Poissons Ratio (y) = 0.01454 0.40039
# Poissons Ratio (z) = 0.37980 0.29017
#
# Static dielectric constant tensor:
#      x y z
#    x 4.236190 0.000000 0.608810 
#    y 0.000000 3.753360 0.000000 
#    z 0.608810 0.000000 4.827950 
# 
# 
# High freq. dielectric constant tensor:
#      x y z
#    x 1.834450 0.000000 0.004800 
#    y 0.000000 1.816070 0.000000 
#    z 0.004800 0.000000 1.840690 
# 
# From -- ./inp_files/19482.got.cif
#   From: 2010.06.25/outbox.cif.g09.slc.cpg/sg11_10_cif.got.tgz:19482.got - 2010.06.27 23:14:04.
