data_PCOD8077414
_publ_section_title
;
Structure prediction by ZEFSAII (Michael W. Deem and Ramdas Pophale) SiO2 
 PCOD8077414
Probable space group: P 21/M
;
_chemical_formula_sum "Si O2"
_cell_formula_units_Z 20
_cell_length_a 5.238033
_cell_length_b 14.008459
_cell_length_c 10.961867
_cell_angle_alpha 90.000000
_cell_angle_beta 91.678735
_cell_angle_gamma 90.000000
_cell_volume 804.001175
_symmetry_space_group_name_H-M "P 21/M"
_symmetry_group_IT_number 11
_symmetry_cell_setting 'monoclinic'
loop_
_space_group_symop_operation_xyz
x,y,z
-x,1/2+y,-z
-x,-y,-z
x,1/2-y,z
loop_
_atom_site_type_symbol
_atom_site_label
_atom_site_fract_x
_atom_site_fract_y
_atom_site_fract_z
Si Si1 0.289560 0.640629 0.970893
Si Si2 0.605291 0.854599 0.345247
Si Si3 0.930165 0.853159 0.739060
Si Si4 0.609239 0.004651 0.831622
Si Si5 0.897743 0.104914 0.509870
O O1 0.370338 0.750000 0.000515
O O2 0.525714 0.579830 0.921419
O O3 0.065460 0.637308 0.871035
O O4 0.215008 0.583233 0.094320
O O5 0.537109 0.750000 0.290390
O O6 0.881332 0.842271 0.410684
O O7 0.381781 0.884168 0.436662
O O8 0.614831 0.934254 0.237823
O O9 0.783965 0.750000 0.736224
O O10 0.755148 0.947640 0.725795
O O11 0.124604 0.852703 0.627737
O O12 0.000000 0.000000 0.500000
#
# Coordination Sequence:
#
# PCOD8077414 Si02
#       5
#     4   4   4   4   4
#     4  10  23  43  65  95 128 172 228 282 341 407
#     4  12  26  45  70 105 143 184 230 281 344 410
#     4  11  23  40  65  95 130 174 224 280 339 408
#     4  11  23  41  68  93 133 174 225 281 344 403
#     4  12  25  46  70 102 141 186 229 285 341 411
#
# _framework density 24.875586999999999
#
# number of rings (size 3 to 8) (size 9 to 14) (size 15 to 20)
#    0.000    0.800    2.000    5.400    2.800    0.000 
#    0.000    0.000    0.000    0.000    0.000    0.000 
#    0.000    0.000    0.000    0.000    0.000    0.000 
#
# Total GULP energy -247771.627580 kJ/mol
# GULP energy per Si atom -12388.581379 kJ/mol
# Density = 2.481897 g / cm^3
# Si number density = 24.875587 Si / 1000 Ang^3
#
#
#
# Elastic Constant Matrix: (Units=GPa)
#
#
# Indices 1 2 3 4 5 6 
#
# 1 48.1028 -2.2869 6.2776 0.0000 2.1361 0.0000
# 2 -2.2869 196.6906 33.7876 0.0000 -5.9044 0.0000
# 3 6.2776 33.7876 91.6109 0.0000 0.8683 0.0000
# 4 0.0000 0.0000 0.0000 17.9978 0.0000 18.6213
# 5 2.1361 -5.9044 0.8683 0.0000 24.8403 0.0000
# 6 0.0000 0.0000 0.0000 18.6213 0.0000 14.6228
#
#
#
# Elastic Compliance Matrix: (Units=1/GPa)
#
#
# Indices 1 2 3 4 5 6 
#
# 1 0.021094 0.000471 -0.001604 0.000000 -0.001646 0.000000
# 2 0.000471 0.005485 -0.002068 0.000000 0.001335 0.000000
# 3 -0.001604 -0.002068 0.011796 0.000000 -0.000766 0.000000
# 4 0.000000 0.000000 0.000000 -0.174967 0.000000 0.222810
# 5 -0.001646 0.001335 -0.000766 0.000000 0.040743 0.000000
# 6 0.000000 0.000000 0.000000 0.222810 0.000000 -0.215349
#
#
# Mechanical properties :
#
#
# Convention : Reuss Voigt Hill
#
# Bulk Modulus (GPa) = 31.27580 45.77345 38.52463
# Shear Modulus (GPa) = -16.99867 31.40060 7.20097
#
# Velocity S-wave (km/s) = -2.61693 3.55675 1.70325
# Velocity P-wave (km/s) = 1.86255 5.94207 4.40325
#
# Compressibility (1/GPa) = 0.03197360
#
# Stress axis : x y z
#
# Youngs Moduli (GPa) = 47.40775 182.31817 84.77777
#
# Poissons Ratio (x) = -0.08593 0.13596
# Poissons Ratio (y) = -0.02234 0.17531
# Poissons Ratio (z) = 0.07603 0.37701
#
# Static dielectric constant tensor:
#      x y z
#    x 4.267510 0.000000 0.177200 
#    y 0.000000 5.170080 0.000000 
#    z 0.177200 0.000000 4.966870 
# 
# 
# High freq. dielectric constant tensor:
#      x y z
#    x 1.943640 0.000000 0.000430 
#    y 0.000000 2.031590 0.000000 
#    z 0.000430 0.000000 1.997040 
# 
# From -- ./inp_files/4247.got.cif
#   From: 2010.06.25/outbox.cif.g09.slc.cpg/sg11_3_cif.got.tgz:4247.got - 2010.06.27 23:14:04.
