data_PCOD8077359
_publ_section_title
;
Structure prediction by ZEFSAII (Michael W. Deem and Ramdas Pophale) SiO2 
 PCOD8077359
Probable space group: P 21/M
;
_chemical_formula_sum "Si O2"
_cell_formula_units_Z 28
_cell_length_a 27.692452
_cell_length_b 8.560425
_cell_length_c 10.114437
_cell_angle_alpha 90.000000
_cell_angle_beta 34.701863
_cell_angle_gamma 90.000000
_cell_volume 1365.036951
_symmetry_space_group_name_H-M "P 21/M"
_symmetry_group_IT_number 11
_symmetry_cell_setting 'monoclinic'
loop_
_space_group_symop_operation_xyz
x,y,z
-x,1/2+y,-z
-x,-y,-z
x,1/2-y,z
loop_
_atom_site_type_symbol
_atom_site_label
_atom_site_fract_x
_atom_site_fract_y
_atom_site_fract_z
Si Si1 0.328310 0.571697 0.620423
Si Si2 0.228538 0.067238 0.606782
Si Si3 0.317176 0.567781 0.162606
Si Si4 0.942836 0.932160 0.514813
Si Si5 0.513930 0.929846 0.112079
Si Si6 0.248161 0.067099 0.054833
Si Si7 0.955109 0.066308 0.973614
O O1 0.301955 0.750000 0.708736
O O2 0.292038 0.523153 0.560089
O O3 0.429458 0.553654 0.389316
O O4 0.292005 0.461002 0.815557
O O5 0.239047 0.250000 0.606532
O O6 0.252114 0.024855 0.403347
O O7 0.133051 0.019248 0.853596
O O8 0.303262 0.750000 0.217790
O O9 0.298902 0.525137 0.052605
O O10 0.413851 0.524295 0.974785
O O11 0.939030 0.750000 0.546457
O O12 0.847618 0.999665 0.735438
O O13 0.000000 0.000000 0.500000
O O14 0.982808 0.976688 0.285167
O O15 0.541725 0.750000 0.034495
O O16 0.500000 0.000000 0.000000
O O17 0.249826 0.250000 0.084683
O O18 0.939141 0.250000 0.023274
O O19 0.000000 0.000000 0.000000
#
# Coordination Sequence:
#
# PCOD8077359 Si02
#       7
#     4   4   4   4   4   4   4
#     4  11  24  42  65  95 128 165 211 261 316 381
#     4  12  24  40  64  93 126 166 214 265 320 381
#     4  12  25  42  66  95 129 169 213 265 325 384
#     4  10  23  41  63  90 123 164 209 258 311 374
#     4  11  23  41  67  96 129 166 212 263 318 381
#     4  11  24  43  65  94 130 169 214 262 320 384
#     4  11  23  40  62  91 126 163 210 265 321 381
#
# _framework density 20.512267000000001
#
# number of rings (size 3 to 8) (size 9 to 14) (size 15 to 20)
#    0.000    0.857    1.429    6.000    0.000    8.000 
#    0.000    0.000    0.000    0.000    0.000    0.000 
#    0.000    0.000    0.000    0.000    0.000    0.000 
#
# Total GULP energy -347424.532998 kJ/mol
# GULP energy per Si atom -12408.019036 kJ/mol
# Density = 2.046558 g / cm^3
# Si number density = 20.512267 Si / 1000 Ang^3
#
#
#
# Elastic Constant Matrix: (Units=GPa)
#
#
# Indices 1 2 3 4 5 6 
#
# 1 123.6178 37.0769 35.0221 0.0000 -0.9716 0.0000
# 2 37.0769 79.7504 40.8055 0.0000 -9.4363 0.0000
# 3 35.0221 40.8055 104.8005 0.0000 -4.5757 0.0000
# 4 0.0000 0.0000 0.0000 35.3970 0.0000 2.3205
# 5 -0.9716 -9.4363 -4.5757 0.0000 36.7849 0.0000
# 6 0.0000 0.0000 0.0000 2.3205 0.0000 38.0610
#
#
#
# Elastic Compliance Matrix: (Units=1/GPa)
#
#
# Indices 1 2 3 4 5 6 
#
# 1 0.009709 -0.003674 -0.001854 0.000000 -0.000917 0.000000
# 2 -0.003674 0.017452 -0.005405 0.000000 0.003707 0.000000
# 3 -0.001854 -0.005405 0.012270 0.000000 0.000091 0.000000
# 4 0.000000 0.000000 0.000000 0.028364 0.000000 -0.001729
# 5 -0.000917 0.003707 0.000091 0.000000 0.028123 0.000000
# 6 0.000000 0.000000 0.000000 -0.001729 0.000000 0.026379
#
#
# Mechanical properties :
#
#
# Convention : Reuss Voigt Hill
#
# Bulk Modulus (GPa) = 56.93365 59.33085 58.13225
# Shear Modulus (GPa) = 33.32901 35.06619 34.19760
#
# Velocity S-wave (km/s) = 4.03529 4.13912 4.08754
# Velocity P-wave (km/s) = 7.03759 7.19934 7.11892
#
# Compressibility (1/GPa) = 0.01756431
#
# Stress axis : x y z
#
# Youngs Moduli (GPa) = 102.99248 57.30161 81.49789
#
# Poissons Ratio (x) = 0.21051 0.15112
# Poissons Ratio (y) = 0.37836 0.44053
# Poissons Ratio (z) = 0.19098 0.30974
#
# Static dielectric constant tensor:
#      x y z
#    x 3.757590 0.000000 -0.198870 
#    y 0.000000 3.819170 0.000000 
#    z -0.198870 0.000000 3.815680 
# 
# 
# High freq. dielectric constant tensor:
#      x y z
#    x 1.812570 0.000000 -0.005220 
#    y 0.000000 1.812730 0.000000 
#    z -0.005220 0.000000 1.815390 
# 
# From -- ./inp_files/28452.got.cif
#   From: 2010.06.25/outbox.cif.g09.slc.cpg/sg11_15_cif.got.tgz:28452.got - 2010.06.27 23:14:04.
