data_PCOD8077168
_publ_section_title
;
Structure prediction by ZEFSAII (Michael W. Deem and Ramdas Pophale) SiO2 
 PCOD8077168
Probable space group: P 21/M
;
_chemical_formula_sum "Si O2"
_cell_formula_units_Z 28
_cell_length_a 15.319525
_cell_length_b 8.914035
_cell_length_c 12.703874
_cell_angle_alpha 90.000000
_cell_angle_beta 122.845532
_cell_angle_gamma 90.000000
_cell_volume 1457.489150
_symmetry_space_group_name_H-M "P 21/M"
_symmetry_group_IT_number 11
_symmetry_cell_setting 'monoclinic'
loop_
_space_group_symop_operation_xyz
x,y,z
-x,1/2+y,-z
-x,-y,-z
x,1/2-y,z
loop_
_atom_site_type_symbol
_atom_site_label
_atom_site_fract_x
_atom_site_fract_y
_atom_site_fract_z
Si Si1 0.426929 0.070194 0.042243
Si Si2 0.203620 0.570648 0.893649
Si Si3 0.119196 0.416050 0.300158
Si Si4 0.354234 0.425761 0.433704
Si Si5 0.953270 0.575718 0.070148
Si Si6 0.028418 0.912258 0.619549
Si Si7 0.483036 0.073289 0.317168
O O1 0.428499 0.250000 0.034344
O O2 0.459546 0.017299 0.182335
O O3 0.500000 0.000000 0.000000
O O4 0.312878 0.007499 0.943471
O O5 0.214946 0.750000 0.908626
O O6 0.154727 0.506942 0.970196
O O7 0.122673 0.518085 0.750123
O O8 0.107115 0.250000 0.236327
O O9 0.235401 0.475164 0.364650
O O10 0.043873 0.547383 0.212516
O O11 0.082587 0.396489 0.395405
O O12 0.369684 0.250000 0.459589
O O13 0.410770 0.504478 0.568837
O O14 0.394284 0.475796 0.343748
O O15 0.929337 0.750000 0.039253
O O16 0.000000 0.500000 0.000000
O O17 0.069275 0.750000 0.611531
O O18 0.000000 0.000000 0.500000
O O19 0.495304 0.250000 0.322778
#
# Coordination Sequence:
#
# PCOD8077168 Si02
#       7
#     4   4   4   4   4   4   4
#     4  11  24  41  61  87 118 159 205 251 300 355
#     4  10  22  41  60  85 118 152 193 244 293 346
#     4   9  19  35  54  80 112 144 186 237 287 342
#     4   9  18  35  59  84 112 148 188 242 303 355
#     4  11  22  36  56  85 117 152 190 231 285 350
#     4   9  19  35  55  80 112 148 187 234 287 344
#     4   9  20  37  56  82 114 148 192 244 298 353
#
# _framework density 19.211120999999999
#
# number of rings (size 3 to 8) (size 9 to 14) (size 15 to 20)
#    0.000    2.286    0.000    3.000    2.000    5.714 
#    0.000    2.857    0.000    0.000    0.000    0.000 
#    0.000    0.000    0.000    0.000    0.000    0.000 
#
# Total GULP energy -346902.658656 kJ/mol
# GULP energy per Si atom -12389.380666 kJ/mol
# Density = 1.916740 g / cm^3
# Si number density = 19.211121 Si / 1000 Ang^3
#
#
#
# Elastic Constant Matrix: (Units=GPa)
#
#
# Indices 1 2 3 4 5 6 
#
# 1 157.4593 47.2446 68.9961 0.0000 10.5633 0.0000
# 2 47.2446 75.6060 39.2948 0.0000 -5.2185 0.0000
# 3 68.9961 39.2948 104.7164 0.0000 -12.5240 0.0000
# 4 0.0000 0.0000 0.0000 33.9893 0.0000 1.0907
# 5 10.5633 -5.2185 -12.5240 0.0000 29.6004 0.0000
# 6 0.0000 0.0000 0.0000 1.0907 0.0000 34.0213
#
#
#
# Elastic Compliance Matrix: (Units=1/GPa)
#
#
# Indices 1 2 3 4 5 6 
#
# 1 0.010910 -0.003891 -0.006610 0.000000 -0.007376 0.000000
# 2 -0.003891 0.017821 -0.003773 0.000000 0.002934 0.000000
# 3 -0.006610 -0.003773 0.016351 0.000000 0.008612 0.000000
# 4 0.000000 0.000000 0.000000 0.029451 0.000000 -0.000944
# 5 -0.007376 0.002934 0.008612 0.000000 0.040577 0.000000
# 6 0.000000 0.000000 0.000000 -0.000944 0.000000 0.029424
#
#
# Mechanical properties :
#
#
# Convention : Reuss Voigt Hill
#
# Bulk Modulus (GPa) = 60.48307 72.09475 66.28891
# Shear Modulus (GPa) = 27.99671 31.67193 29.83432
#
# Velocity S-wave (km/s) = 3.82162 4.06473 3.94505
# Velocity P-wave (km/s) = 7.14316 7.72259 7.43852
#
# Compressibility (1/GPa) = 0.01653355
#
# Stress axis : x y z
#
# Youngs Moduli (GPa) = 91.66231 56.11328 61.15879
#
# Poissons Ratio (x) = 0.21832 0.40428
# Poissons Ratio (y) = 0.35663 0.23075
# Poissons Ratio (z) = 0.60592 0.21171
#
# Static dielectric constant tensor:
#      x y z
#    x 3.489470 0.000000 -0.045220 
#    y 0.000000 3.520320 0.000000 
#    z -0.045220 0.000000 3.443560 
# 
# 
# High freq. dielectric constant tensor:
#      x y z
#    x 1.755560 0.000000 -0.001770 
#    y 0.000000 1.746170 0.000000 
#    z -0.001770 0.000000 1.739350 
# 
# From -- ./inp_files/38422.got.cif
#   From: 2010.06.25/outbox.cif.g09.slc.cpg/sg11_20_cif.got.tgz:38422.got - 2010.06.27 23:14:04.
