data_PCOD8077274
_publ_section_title
;
Structure prediction by ZEFSAII (Michael W. Deem and Ramdas Pophale) SiO2 
 PCOD8077274
Probable space group: P 21/M
;
_chemical_formula_sum "Si O2"
_cell_formula_units_Z 24
_cell_length_a 16.964848
_cell_length_b 8.481752
_cell_length_c 13.717449
_cell_angle_alpha 90.000000
_cell_angle_beta 36.173286
_cell_angle_gamma 90.000000
_cell_volume 1165.010142
_symmetry_space_group_name_H-M "P 21/M"
_symmetry_group_IT_number 11
_symmetry_cell_setting 'monoclinic'
loop_
_space_group_symop_operation_xyz
x,y,z
-x,1/2+y,-z
-x,-y,-z
x,1/2-y,z
loop_
_atom_site_type_symbol
_atom_site_label
_atom_site_fract_x
_atom_site_fract_y
_atom_site_fract_z
Si Si1 0.213732 0.065500 0.869237
Si Si2 0.097383 0.435594 0.320989
Si Si3 0.536099 0.937039 0.256386
Si Si4 0.599971 0.935025 0.979560
Si Si5 0.745258 0.065393 0.381535
Si Si6 0.995554 0.933358 0.221983
O O1 0.190581 0.250000 0.912171
O O2 0.349240 0.003855 0.784676
O O3 0.220983 0.033587 0.747877
O O4 0.089816 0.969948 0.036269
O O5 0.078695 0.250000 0.327461
O O6 0.248508 0.479656 0.200317
O O7 0.068131 0.516748 0.247961
O O8 0.000000 0.500000 0.500000
O O9 0.536460 0.750000 0.251202
O O10 0.394368 0.998541 0.436690
O O11 0.563856 0.007927 0.121338
O O12 0.581652 0.750000 0.002499
O O13 0.500000 0.000000 0.000000
O O14 0.738871 0.250000 0.363204
O O15 0.858240 0.030665 0.349045
O O16 0.960910 0.750000 0.259347
#
# Coordination Sequence:
#
# PCOD8077274 Si02
#       6
#     4   4   4   4   4   4
#     4  11  21  41  66  90 124 165 208 259 313 368
#     4  11  24  44  68  94 127 163 205 256 311 368
#     4   9  20  40  64  89 124 164 204 252 312 370
#     4  10  22  42  65  93 124 162 203 251 308 367
#     4  11  23  39  62  94 127 165 208 256 310 370
#     4  12  25  42  63  92 126 165 212 257 307 368
#
# _framework density 20.600681000000002
#
# number of rings (size 3 to 8) (size 9 to 14) (size 15 to 20)
#    0.000    1.333    1.667    4.000    2.333    1.333 
#    0.000    3.333    0.000    0.000    0.000    0.000 
#    0.000    0.000    0.000    0.000    0.000    0.000 
#
# Total GULP energy -297733.420417 kJ/mol
# GULP energy per Si atom -12405.559184 kJ/mol
# Density = 2.055379 g / cm^3
# Si number density = 20.600681 Si / 1000 Ang^3
#
#
#
# Elastic Constant Matrix: (Units=GPa)
#
#
# Indices 1 2 3 4 5 6 
#
# 1 111.8534 23.2012 36.1183 0.0000 -10.1787 0.0000
# 2 23.2012 51.2984 33.1223 0.0000 -2.4470 0.0000
# 3 36.1183 33.1223 136.5879 0.0000 -6.0023 0.0000
# 4 0.0000 0.0000 0.0000 26.6282 0.0000 4.5652
# 5 -10.1787 -2.4470 -6.0023 0.0000 42.8474 0.0000
# 6 0.0000 0.0000 0.0000 4.5652 0.0000 33.5756
#
#
#
# Elastic Compliance Matrix: (Units=1/GPa)
#
#
# Indices 1 2 3 4 5 6 
#
# 1 0.010430 -0.003435 -0.001836 0.000000 0.002024 0.000000
# 2 -0.003435 0.024256 -0.004979 0.000000 -0.000128 0.000000
# 3 -0.001836 -0.004979 0.009038 0.000000 0.000546 0.000000
# 4 0.000000 0.000000 0.000000 0.038450 0.000000 -0.005228
# 5 0.002024 -0.000128 0.000546 0.000000 0.023889 0.000000
# 6 0.000000 0.000000 0.000000 -0.005228 0.000000 0.030494
#
#
# Mechanical properties :
#
#
# Convention : Reuss Voigt Hill
#
# Bulk Modulus (GPa) = 43.06006 53.84703 48.45354
# Shear Modulus (GPa) = 30.33975 34.43011 32.38493
#
# Velocity S-wave (km/s) = 3.84181 4.09260 3.96919
# Velocity P-wave (km/s) = 6.37393 6.96618 6.67663
#
# Compressibility (1/GPa) = 0.02322338
#
# Stress axis : x y z
#
# Youngs Moduli (GPa) = 95.87828 41.22620 110.64075
#
# Poissons Ratio (x) = 0.14162 0.20314
# Poissons Ratio (y) = 0.32936 0.55092
# Poissons Ratio (z) = 0.17603 0.20528
#
# Static dielectric constant tensor:
#      x y z
#    x 3.481160 0.000000 -0.308270 
#    y 0.000000 3.659570 0.000000 
#    z -0.308270 0.000000 3.859020 
# 
# 
# High freq. dielectric constant tensor:
#      x y z
#    x 1.818300 0.000000 -0.005860 
#    y 0.000000 1.792600 0.000000 
#    z -0.005860 0.000000 1.820150 
# 
# From -- ./inp_files/53160.got.cif
#   From: 2010.06.25/outbox.cif.g09.slc.cpg/sg11_27_cif.got.tgz:53160.got - 2010.06.27 23:14:04.
