data_PCOD8077802
_publ_section_title
;
Structure prediction by ZEFSAII (Michael W. Deem and Ramdas Pophale) SiO2 
 PCOD8077802
Probable space group: P 21/M
;
_chemical_formula_sum "Si O2"
_cell_formula_units_Z 32
_cell_length_a 11.467762
_cell_length_b 8.979157
_cell_length_c 28.743718
_cell_angle_alpha 90.000000
_cell_angle_beta 34.597286
_cell_angle_gamma 90.000000
_cell_volume 1680.568442
_symmetry_space_group_name_H-M "P 21/M"
_symmetry_group_IT_number 11
_symmetry_cell_setting 'monoclinic'
loop_
_space_group_symop_operation_xyz
x,y,z
-x,1/2+y,-z
-x,-y,-z
x,1/2-y,z
loop_
_atom_site_type_symbol
_atom_site_label
_atom_site_fract_x
_atom_site_fract_y
_atom_site_fract_z
Si Si1 0.305893 0.928184 0.589206
Si Si2 0.400471 0.080155 0.260420
Si Si3 0.681696 0.425264 0.880919
Si Si4 0.203494 0.925506 0.820780
Si Si5 0.207558 0.417358 0.424070
Si Si6 0.881898 0.426349 0.719344
Si Si7 0.615132 0.427093 0.333222
Si Si8 0.236737 0.424278 0.051187
O O1 0.314419 0.750000 0.581367
O O2 0.308289 0.984335 0.641985
O O3 0.500000 0.000000 0.500000
O O4 0.094092 0.990080 0.636976
O O5 0.405818 0.250000 0.239558
O O6 0.631632 0.016247 0.195256
O O7 0.271783 0.072508 0.349652
O O8 0.295801 0.971790 0.257934
O O9 0.697370 0.250000 0.881495
O O10 0.803201 0.479591 0.795727
O O11 0.782536 0.498802 0.892582
O O12 0.440670 0.474376 0.956456
O O13 0.242355 0.750000 0.805895
O O14 0.243929 0.988963 0.755267
O O15 0.967911 0.966623 0.911478
O O16 0.167228 0.250000 0.452764
O O17 0.383949 0.485695 0.399474
O O18 0.000000 0.500000 0.500000
O O19 0.916840 0.250000 0.705351
O O20 0.615751 0.250000 0.332695
O O21 0.239802 0.250000 0.060513
#
# Coordination Sequence:
#
# PCOD8077802 Si02
#       8
#     4   4   4   4   4   4   4   4
#     4  11  23  38  56  79 105 136 175 218 264 318
#     4   9  19  35  53  75 101 134 178 223 261 311
#     4   9  19  33  50  79 113 142 174 218 268 316
#     4   8  14  29  54  79 101 129 171 219 264 308
#     4   9  18  32  51  74  97 124 162 211 262 308
#     4  11  23  38  53  72 108 149 179 214 264 318
#     4   8  16  31  50  73 100 127 160 205 256 310
#     4   9  16  30  56  83 106 136 177 221 268 322
#
# _framework density 19.041176
#
# number of rings (size 3 to 8) (size 9 to 14) (size 15 to 20)
#    0.000    2.750    0.000    3.000    1.750    2.500 
#    0.000    1.875    0.000    2.250    0.000    0.000 
#    0.000    0.000    0.000    0.000    0.000    0.000 
#
# Total GULP energy -396589.988247 kJ/mol
# GULP energy per Si atom -12393.437133 kJ/mol
# Density = 1.899784 g / cm^3
# Si number density = 19.041176 Si / 1000 Ang^3
#
#
#
# Elastic Constant Matrix: (Units=GPa)
#
#
# Indices 1 2 3 4 5 6 
#
# 1 95.7690 26.2048 44.1196 0.0000 -18.7495 0.0000
# 2 26.2048 44.2466 30.3583 0.0000 -3.6734 0.0000
# 3 44.1196 30.3583 101.1476 0.0000 -27.9607 0.0000
# 4 0.0000 0.0000 0.0000 22.6877 0.0000 -1.4223
# 5 -18.7495 -3.6734 -27.9607 0.0000 30.1628 0.0000
# 6 0.0000 0.0000 0.0000 -1.4223 0.0000 25.6476
#
#
#
# Elastic Compliance Matrix: (Units=1/GPa)
#
#
# Indices 1 2 3 4 5 6 
#
# 1 0.014580 -0.006124 -0.002988 0.000000 0.005547 0.000000
# 2 -0.006124 0.031862 -0.009239 0.000000 -0.008491 0.000000
# 3 -0.002988 -0.009239 0.017665 0.000000 0.013393 0.000000
# 4 0.000000 0.000000 0.000000 0.044230 0.000000 0.002453
# 5 0.005547 -0.008491 0.013393 0.000000 0.047983 0.000000
# 6 0.000000 0.000000 0.000000 0.002453 0.000000 0.039126
#
#
# Mechanical properties :
#
#
# Convention : Reuss Voigt Hill
#
# Bulk Modulus (GPa) = 36.49018 49.16985 42.83002
# Shear Modulus (GPa) = 20.72254 25.06499 22.89376
#
# Velocity S-wave (km/s) = 3.30252 3.63210 3.47122
# Velocity P-wave (km/s) = 5.80927 6.59306 6.21354
#
# Compressibility (1/GPa) = 0.02740463
#
# Stress axis : x y z
#
# Youngs Moduli (GPa) = 68.58619 31.38574 56.60888
#
# Poissons Ratio (x) = 0.19221 0.16915
# Poissons Ratio (y) = 0.42004 0.52299
# Poissons Ratio (z) = 0.20494 0.28996
#
# Static dielectric constant tensor:
#      x y z
#    x 3.638740 0.000000 -0.193990 
#    y 0.000000 3.256340 0.000000 
#    z -0.193990 0.000000 3.613470 
# 
# 
# High freq. dielectric constant tensor:
#      x y z
#    x 1.739890 0.000000 -0.020820 
#    y 0.000000 1.710540 0.000000 
#    z -0.020820 0.000000 1.742640 
# 
# From -- ./inp_files/73041.got.cif
#   From: 2010.06.25/outbox.cif.g09.slc.cpg/sg11_37_cif.got.tgz:73041.got - 2010.06.27 23:14:04.
