data_PCOD8077813
_publ_section_title
;
Structure prediction by ZEFSAII (Michael W. Deem and Ramdas Pophale) SiO2 
 PCOD8077813
Probable space group: P 21/M
;
_chemical_formula_sum "Si O2"
_cell_formula_units_Z 32
_cell_length_a 14.686638
_cell_length_b 8.661056
_cell_length_c 11.792161
_cell_angle_alpha 90.000000
_cell_angle_beta 86.920246
_cell_angle_gamma 90.000000
_cell_volume 1497.817635
_symmetry_space_group_name_H-M "P 21/M"
_symmetry_group_IT_number 11
_symmetry_cell_setting 'monoclinic'
loop_
_space_group_symop_operation_xyz
x,y,z
-x,1/2+y,-z
-x,-y,-z
x,1/2-y,z
loop_
_atom_site_type_symbol
_atom_site_label
_atom_site_fract_x
_atom_site_fract_y
_atom_site_fract_z
Si Si1 0.213022 0.571452 0.977124
Si Si2 0.521585 0.930226 0.300448
Si Si3 0.837966 0.572595 0.791758
Si Si4 0.325606 0.571324 0.580722
Si Si5 0.990255 0.430267 0.625237
Si Si6 0.329603 0.426059 0.350970
Si Si7 0.175533 0.071432 0.744199
Si Si8 0.420214 0.930444 0.929509
O O1 0.194270 0.750000 0.952646
O O2 0.172828 0.472673 0.876230
O O3 0.320820 0.541108 0.990678
O O4 0.156742 0.522285 0.091990
O O5 0.500075 0.750000 0.301601
O O6 0.581051 0.975725 0.406002
O O7 0.427661 0.020884 0.302230
O O8 0.581642 0.980100 0.188988
O O9 0.861278 0.750000 0.815738
O O10 0.906727 0.509187 0.693998
O O11 0.736593 0.552732 0.750497
O O12 0.349866 0.750000 0.587160
O O13 0.291657 0.528228 0.457532
O O14 0.249597 0.533561 0.677687
O O15 0.970780 0.250000 0.614313
O O16 0.000000 0.500000 0.500000
O O17 0.079055 0.464046 0.693900
O O18 0.332609 0.250000 0.392111
O O19 0.202910 0.250000 0.728371
O O20 0.439168 0.750000 0.908961
O O21 0.500000 0.000000 0.000000
#
# Coordination Sequence:
#
# PCOD8077813 Si02
#       8
#     4   4   4   4   4   4   4   4
#     4  11  24  42  66  95 130 171 218 268 323 385
#     4  12  24  39  61  90 126 169 216 268 325 385
#     4  11  25  44  68  96 130 171 215 265 323 385
#     4  12  24  40  63  93 129 169 215 267 326 388
#     4  11  25  45  71 102 134 169 213 266 324 391
#     4  11  24  42  63  91 128 169 217 269 324 388
#     4  11  24  43  68  97 130 171 218 267 326 389
#     4  11  23  39  61  91 127 171 222 270 323 384
#
# _framework density 21.364417
#
# number of rings (size 3 to 8) (size 9 to 14) (size 15 to 20)
#    0.000    0.750    1.250    6.375    0.000   11.000 
#    0.000    0.000    0.000    0.000    0.000    0.000 
#    0.000    0.000    0.000    0.000    0.000    0.000 
#
# Total GULP energy -397034.748672 kJ/mol
# GULP energy per Si atom -12407.335896 kJ/mol
# Density = 2.131579 g / cm^3
# Si number density = 21.364417 Si / 1000 Ang^3
#
#
#
# Elastic Constant Matrix: (Units=GPa)
#
#
# Indices 1 2 3 4 5 6 
#
# 1 81.4572 40.5157 24.6032 0.0000 -2.9594 0.0000
# 2 40.5157 72.9471 36.1548 0.0000 13.6886 0.0000
# 3 24.6032 36.1548 112.6511 0.0000 -9.4427 0.0000
# 4 0.0000 0.0000 0.0000 40.9975 0.0000 -3.7423
# 5 -2.9594 13.6886 -9.4427 0.0000 37.0964 0.0000
# 6 0.0000 0.0000 0.0000 -3.7423 0.0000 28.7495
#
#
#
# Elastic Compliance Matrix: (Units=1/GPa)
#
#
# Indices 1 2 3 4 5 6 
#
# 1 0.017947 -0.011051 0.000091 0.000000 0.005533 0.000000
# 2 -0.011051 0.025446 -0.006759 0.000000 -0.011992 0.000000
# 3 0.000091 -0.006759 0.011481 0.000000 0.005424 0.000000
# 4 0.000000 0.000000 0.000000 0.024685 0.000000 0.003213
# 5 0.005533 -0.011992 0.005424 0.000000 0.033204 0.000000
# 6 0.000000 0.000000 0.000000 0.003213 0.000000 0.035202
#
#
# Mechanical properties :
#
#
# Convention : Reuss Voigt Hill
#
# Bulk Modulus (GPa) = 51.44917 52.17808 51.81363
# Shear Modulus (GPa) = 26.33241 32.42078 29.37660
#
# Velocity S-wave (km/s) = 3.51456 3.89975 3.71216
# Velocity P-wave (km/s) = 6.37209 6.68979 6.53287
#
# Compressibility (1/GPa) = 0.01943666
#
# Stress axis : x y z
#
# Youngs Moduli (GPa) = 55.72099 39.29823 87.10173
#
# Poissons Ratio (x) = 0.43429 -0.00792
# Poissons Ratio (y) = 0.61578 0.58868
# Poissons Ratio (z) = -0.00507 0.26560
#
# Static dielectric constant tensor:
#      x y z
#    x 3.822460 0.000000 0.055620 
#    y 0.000000 3.953960 0.000000 
#    z 0.055620 0.000000 3.918280 
# 
# 
# High freq. dielectric constant tensor:
#      x y z
#    x 1.840060 0.000000 0.001990 
#    y 0.000000 1.851890 0.000000 
#    z 0.001990 0.000000 1.850560 
# 
# From -- ./inp_files/38298.got.cif
#   From: 2010.06.25/outbox.cif.g09.slc.cpg/sg11_20_cif.got.tgz:38298.got - 2010.06.27 23:14:04.
