data_PCOD8077825
_publ_section_title
;
Structure prediction by ZEFSAII (Michael W. Deem and Ramdas Pophale) SiO2 
 PCOD8077825
Probable space group: P 21/M
;
_chemical_formula_sum "Si O2"
_cell_formula_units_Z 28
_cell_length_a 26.619691
_cell_length_b 8.903197
_cell_length_c 9.614451
_cell_angle_alpha 90.000000
_cell_angle_beta 38.925220
_cell_angle_gamma 90.000000
_cell_volume 1431.674813
_symmetry_space_group_name_H-M "P 21/M"
_symmetry_group_IT_number 11
_symmetry_cell_setting 'monoclinic'
loop_
_space_group_symop_operation_xyz
x,y,z
-x,1/2+y,-z
-x,-y,-z
x,1/2-y,z
loop_
_atom_site_type_symbol
_atom_site_label
_atom_site_fract_x
_atom_site_fract_y
_atom_site_fract_z
Si Si1 0.469923 0.921814 0.202749
Si Si2 0.987550 0.422829 0.881000
Si Si3 0.433375 0.078206 0.735423
Si Si4 0.694137 0.572276 0.372618
Si Si5 0.186099 0.576780 0.688319
Si Si6 0.724915 0.072446 0.021069
Si Si7 0.863588 0.425162 0.512964
O O1 0.445397 0.750000 0.224567
O O2 0.542215 0.928662 0.156202
O O3 0.395072 0.009250 0.427298
O O4 0.500000 0.000000 0.000000
O O5 0.009244 0.250000 0.848987
O O6 0.050890 0.496122 0.637252
O O7 0.000000 0.500000 0.000000
O O8 0.893955 0.444249 0.043989
O O9 0.422945 0.250000 0.707642
O O10 0.500000 0.000000 0.500000
O O11 0.351045 0.990205 0.897265
O O12 0.690560 0.750000 0.369006
O O13 0.743873 0.525641 0.401324
O O14 0.736062 0.503596 0.146517
O O15 0.213803 0.750000 0.631393
O O16 0.171034 0.523457 0.562300
O O17 0.714850 0.250000 0.061505
O O18 0.802654 0.029522 0.764791
O O19 0.880531 0.250000 0.472626
#
# Coordination Sequence:
#
# PCOD8077825 Si02
#       7
#     4   4   4   4   4   4   4
#     4  11  25  43  63  88 119 153 193 241 292 345
#     4   9  17  32  57  86 117 152 190 235 288 342
#     4  11  23  40  63  88 115 154 198 238 288 346
#     4  12  25  40  59  86 118 156 197 240 293 348
#     4   9  19  37  59  86 118 153 191 238 293 345
#     4  11  23  40  61  86 118 157 196 241 293 346
#     4   9  20  37  60  89 117 150 193 239 290 344
#
# _framework density 19.557514999999999
#
# number of rings (size 3 to 8) (size 9 to 14) (size 15 to 20)
#    0.000    1.714    1.429    3.857    2.000    5.714 
#    0.000    0.714    0.000    0.000    0.000    0.000 
#    0.000    0.000    0.000    0.000    0.000    0.000 
#
# Total GULP energy -347220.150950 kJ/mol
# GULP energy per Si atom -12400.719677 kJ/mol
# Density = 1.951300 g / cm^3
# Si number density = 19.557515 Si / 1000 Ang^3
#
#
#
# Elastic Constant Matrix: (Units=GPa)
#
#
# Indices 1 2 3 4 5 6 
#
# 1 43.7673 17.6964 6.7625 0.0000 7.3712 0.0000
# 2 17.6964 108.0436 43.3545 0.0000 2.3374 0.0000
# 3 6.7625 43.3545 100.1364 0.0000 9.4522 0.0000
# 4 0.0000 0.0000 0.0000 36.5436 0.0000 -3.8398
# 5 7.3712 2.3374 9.4522 0.0000 26.3996 0.0000
# 6 0.0000 0.0000 0.0000 -3.8398 0.0000 32.4860
#
#
#
# Elastic Compliance Matrix: (Units=1/GPa)
#
#
# Indices 1 2 3 4 5 6 
#
# 1 0.025686 -0.004389 0.000834 0.000000 -0.007082 0.000000
# 2 -0.004389 0.011967 -0.005072 0.000000 0.001982 0.000000
# 3 0.000834 -0.005072 0.012529 0.000000 -0.004270 0.000000
# 4 0.000000 0.000000 0.000000 0.027709 0.000000 0.003275
# 5 -0.007082 0.001982 -0.004270 0.000000 0.041210 0.000000
# 6 0.000000 0.000000 0.000000 0.003275 0.000000 0.031170
#
#
# Mechanical properties :
#
#
# Convention : Reuss Voigt Hill
#
# Bulk Modulus (GPa) = 30.36821 43.06379 36.71600
# Shear Modulus (GPa) = 28.01130 31.36142 29.68636
#
# Velocity S-wave (km/s) = 3.78862 4.00878 3.90025
# Velocity P-wave (km/s) = 5.89063 6.59499 6.25274
#
# Compressibility (1/GPa) = 0.03292917
#
# Stress axis : x y z
#
# Youngs Moduli (GPa) = 38.93107 83.56630 79.81553
#
# Poissons Ratio (x) = 0.36674 -0.06656
# Poissons Ratio (y) = 0.17085 0.40480
# Poissons Ratio (z) = -0.03246 0.42382
#
# Static dielectric constant tensor:
#      x y z
#    x 3.548240 0.000000 -0.201070 
#    y 0.000000 3.734760 0.000000 
#    z -0.201070 0.000000 4.030450 
# 
# 
# High freq. dielectric constant tensor:
#      x y z
#    x 1.750040 0.000000 -0.010200 
#    y 0.000000 1.772410 0.000000 
#    z -0.010200 0.000000 1.766740 
# 
# From -- ./inp_files/28402.got.cif
#   From: 2010.06.25/outbox.cif.g09.slc.cpg/sg11_15_cif.got.tgz:28402.got - 2010.06.27 23:14:04.
