data_PCOD8077712
_publ_section_title
;
Structure prediction by ZEFSAII (Michael W. Deem and Ramdas Pophale) SiO2 
 PCOD8077712
Probable space group: P 21/M
;
_chemical_formula_sum "Si O2"
_cell_formula_units_Z 32
_cell_length_a 21.565320
_cell_length_b 8.853081
_cell_length_c 11.875816
_cell_angle_alpha 90.000000
_cell_angle_beta 46.676625
_cell_angle_gamma 90.000000
_cell_volume 1649.462954
_symmetry_space_group_name_H-M "P 21/M"
_symmetry_group_IT_number 11
_symmetry_cell_setting 'monoclinic'
loop_
_space_group_symop_operation_xyz
x,y,z
-x,1/2+y,-z
-x,-y,-z
x,1/2-y,z
loop_
_atom_site_type_symbol
_atom_site_label
_atom_site_fract_x
_atom_site_fract_y
_atom_site_fract_z
Si Si1 0.879161 0.575889 0.893965
Si Si2 0.759849 0.070989 0.431170
Si Si3 0.598940 0.071905 0.490146
Si Si4 0.426982 0.572677 0.730373
Si Si5 0.908366 0.924214 0.112408
Si Si6 0.777813 0.924810 0.638864
Si Si7 0.734384 0.071630 0.925567
Si Si8 0.976915 0.924914 0.411804
O O1 0.875214 0.750000 0.860299
O O2 0.808765 0.483059 0.914840
O O3 0.971987 0.508588 0.750662
O O4 0.864461 0.557993 0.045155
O O5 0.768297 0.250000 0.420234
O O6 0.683671 0.013193 0.446113
O O7 0.848517 0.001737 0.278804
O O8 0.738108 0.013071 0.582995
O O9 0.592774 0.250000 0.506795
O O10 0.602651 0.016206 0.356227
O O11 0.515718 0.004217 0.654990
O O12 0.441377 0.750000 0.711211
O O13 0.355645 0.524698 0.908550
O O14 0.919470 0.750000 0.132073
O O15 0.000000 0.000000 0.000000
O O16 0.752853 0.750000 0.662425
O O17 0.878416 0.949125 0.510967
O O18 0.738085 0.992618 0.800954
O O19 0.743682 0.250000 0.899284
O O20 0.002661 0.750000 0.383265
O O21 0.000000 0.000000 0.500000
#
# Coordination Sequence:
#
# PCOD8077712 Si02
#       8
#     4   4   4   4   4   4   4   4
#     4  11  23  37  56  84 116 150 193 240 290 347
#     4  11  23  40  62  86 117 156 198 239 288 349
#     4   9  19  37  61  89 118 150 187 231 286 347
#     4   9  19  36  60  90 119 146 183 234 290 346
#     4  11  24  40  59  85 118 155 196 241 290 342
#     4  11  24  40  58  83 116 154 198 243 289 346
#     4  11  22  37  59  86 116 150 190 239 293 345
#     4  11  22  36  56  80 111 150 194 242 289 341
#
# _framework density 19.400252999999999
#
# number of rings (size 3 to 8) (size 9 to 14) (size 15 to 20)
#    0.000    1.500    1.250    3.750    0.000    8.500 
#    0.000    3.125    0.000    0.000    0.000    0.000 
#    0.000    0.000    0.000    0.000    0.000    0.000 
#
# Total GULP energy -396971.272532 kJ/mol
# GULP energy per Si atom -12405.352267 kJ/mol
# Density = 1.935610 g / cm^3
# Si number density = 19.400253 Si / 1000 Ang^3
#
#
#
# Elastic Constant Matrix: (Units=GPa)
#
#
# Indices 1 2 3 4 5 6 
#
# 1 103.4452 43.3862 51.3006 0.0000 -3.6259 0.0000
# 2 43.3862 82.4761 47.7457 0.0000 -2.4260 0.0000
# 3 51.3006 47.7457 122.4173 0.0000 -6.8355 0.0000
# 4 0.0000 0.0000 0.0000 36.6829 0.0000 -0.6733
# 5 -3.6259 -2.4260 -6.8355 0.0000 30.5841 0.0000
# 6 0.0000 0.0000 0.0000 -0.6733 0.0000 31.9869
#
#
#
# Elastic Compliance Matrix: (Units=1/GPa)
#
#
# Indices 1 2 3 4 5 6 
#
# 1 0.013631 -0.004992 -0.003744 0.000000 0.000383 0.000000
# 2 -0.004992 0.017489 -0.004744 0.000000 -0.000265 0.000000
# 3 -0.003744 -0.004744 0.011688 0.000000 0.001792 0.000000
# 4 0.000000 0.000000 0.000000 0.027271 0.000000 0.000574
# 5 0.000383 -0.000265 0.001792 0.000000 0.033122 0.000000
# 6 0.000000 0.000000 0.000000 0.000574 0.000000 0.031275
#
#
# Mechanical properties :
#
#
# Convention : Reuss Voigt Hill
#
# Bulk Modulus (GPa) = 63.09734 65.91153 64.50443
# Shear Modulus (GPa) = 29.99076 30.91116 30.45096
#
# Velocity S-wave (km/s) = 3.93605 3.99599 3.96614
# Velocity P-wave (km/s) = 7.29735 7.43902 7.36852
#
# Compressibility (1/GPa) = 0.01584853
#
# Stress axis : x y z
#
# Youngs Moduli (GPa) = 73.36419 57.17797 85.55738
#
# Poissons Ratio (x) = 0.28542 0.32031
# Poissons Ratio (y) = 0.36622 0.40590
# Poissons Ratio (z) = 0.27466 0.27126
#
# Static dielectric constant tensor:
#      x y z
#    x 3.519810 0.000000 0.094940 
#    y 0.000000 3.194760 0.000000 
#    z 0.094940 0.000000 3.645180 
# 
# 
# High freq. dielectric constant tensor:
#      x y z
#    x 1.751870 0.000000 0.004010 
#    y 0.000000 1.765360 0.000000 
#    z 0.004010 0.000000 1.760520 
# 
# From -- ./inp_files/42817.got.cif
#   From: 2010.06.25/outbox.cif.g09.slc.cpg/sg11_22_cif.got.tgz:42817.got - 2010.06.27 23:14:04.
