data_PCOD8077313
_publ_section_title
;
Structure prediction by ZEFSAII (Michael W. Deem and Ramdas Pophale) SiO2 
 PCOD8077313
Probable space group: P 21/M
;
_chemical_formula_sum "Si O2"
_cell_formula_units_Z 20
_cell_length_a 19.007387
_cell_length_b 9.733215
_cell_length_c 13.119001
_cell_angle_alpha 90.000000
_cell_angle_beta 162.000184
_cell_angle_gamma 90.000000
_cell_volume 749.993623
_symmetry_space_group_name_H-M "P 21/M"
_symmetry_group_IT_number 11
_symmetry_cell_setting 'monoclinic'
loop_
_space_group_symop_operation_xyz
x,y,z
-x,1/2+y,-z
-x,-y,-z
x,1/2-y,z
loop_
_atom_site_type_symbol
_atom_site_label
_atom_site_fract_x
_atom_site_fract_y
_atom_site_fract_z
Si Si1 0.107659 0.538670 0.878623
Si Si2 0.451420 0.750000 0.439337
Si Si3 0.339004 0.750000 0.513667
Si Si4 0.199384 0.250000 0.241931
Si Si5 0.129078 0.250000 0.585392
Si Si6 0.075601 0.250000 0.752260
Si Si7 0.678267 0.963427 0.428035
Si Si8 0.453085 0.750000 0.980602
O O1 0.006506 0.616359 0.640876
O O2 0.184811 0.386704 0.951942
O O3 0.923656 0.534688 0.714561
O O4 0.324550 0.614628 0.224007
O O5 0.471833 0.750000 0.589710
O O6 0.707008 0.750000 0.744383
O O7 0.415649 0.615981 0.682432
O O8 0.070470 0.750000 0.126880
O O9 0.295476 0.385401 0.429155
O O10 0.386222 0.250000 0.896719
O O11 0.133154 0.250000 0.712390
O O12 0.808065 0.250000 0.412319
O O13 0.495651 0.886993 0.105345
#
# Coordination Sequence:
#
# PCOD8077313 Si02
#       8
#     4   2   2   2   2   2   4   2
#     4  10  22  44  66 100 138 178 220 283 331 396
#     4  11  25  45  68  97 143 174 228 276 333 405
#     4  12  23  46  70 101 137 176 223 277 345 402
#     4  11  23  43  71  93 129 190 214 271 347 392
#     4   9  21  41  61  93 133 175 219 279 330 380
#     4  12  23  42  72  98 136 184 225 269 345 395
#     4  10  22  44  70  98 137 177 218 283 340 392
#     4   9  23  45  66  98 136 181 225 272 334 408
#
# _framework density 26.666893999999999
#
# number of rings (size 3 to 8) (size 9 to 14) (size 15 to 20)
#    0.000    1.600    2.000    3.000    5.600    4.000 
#    3.600    3.000    0.000    0.000    0.000    0.000 
#    0.000    0.000    0.000    0.000    0.000    0.000 
#
# Total GULP energy -248149.610121 kJ/mol
# GULP energy per Si atom -12407.480506 kJ/mol
# Density = 2.660620 g / cm^3
# Si number density = 26.666894 Si / 1000 Ang^3
#
#
#
# Elastic Constant Matrix: (Units=GPa)
#
#
# Indices 1 2 3 4 5 6 
#
# 1 127.0974 51.6504 7.6085 0.0000 8.6031 0.0000
# 2 51.6504 225.3453 27.4801 0.0000 -14.1319 0.0000
# 3 7.6085 27.4801 55.6472 0.0000 11.7384 0.0000
# 4 0.0000 0.0000 0.0000 32.1247 0.0000 -3.0938
# 5 8.6031 -14.1319 11.7384 0.0000 44.7804 0.0000
# 6 0.0000 0.0000 0.0000 -3.0938 0.0000 36.3852
#
#
#
# Elastic Compliance Matrix: (Units=1/GPa)
#
#
# Indices 1 2 3 4 5 6 
#
# 1 0.008932 -0.002259 0.000431 0.000000 -0.002542 0.000000
# 2 -0.002259 0.005512 -0.003040 0.000000 0.002971 0.000000
# 3 0.000431 -0.003040 0.020782 0.000000 -0.006490 0.000000
# 4 0.000000 0.000000 0.000000 0.031386 0.000000 0.002669
# 5 -0.002542 0.002971 -0.006490 0.000000 0.025458 0.000000
# 6 0.000000 0.000000 0.000000 0.002669 0.000000 0.027711
#
#
# Mechanical properties :
#
#
# Convention : Reuss Voigt Hill
#
# Bulk Modulus (GPa) = 39.23219 64.61864 51.92542
# Shear Modulus (GPa) = 36.22803 44.08143 40.15473
#
# Velocity S-wave (km/s) = 3.68984 4.07017 3.88466
# Velocity P-wave (km/s) = 5.73560 6.80976 6.29563
#
# Compressibility (1/GPa) = 0.02548927
#
# Stress axis : x y z
#
# Youngs Moduli (GPa) = 111.95200 181.40693 48.11945
#
# Poissons Ratio (x) = 0.40985 -0.02072
# Poissons Ratio (y) = 0.25293 0.14628
# Poissons Ratio (z) = -0.04820 0.55146
#
# Static dielectric constant tensor:
#      x y z
#    x 4.881370 0.000000 0.063040 
#    y 0.000000 6.054940 0.000000 
#    z 0.063040 0.000000 4.639910 
# 
# 
# High freq. dielectric constant tensor:
#      x y z
#    x 2.084650 0.000000 0.000220 
#    y 0.000000 2.088880 0.000000 
#    z 0.000220 0.000000 2.077890 
# 
# From -- ./inp_files/54439.got.cif
#   From: 2010.06.25/outbox.cif.g09.slc.cpg/sg11_28_cif.got.tgz:54439.got - 2010.06.27 23:14:04.
