data_PCOD8077190
_publ_section_title
;
Structure prediction by ZEFSAII (Michael W. Deem and Ramdas Pophale) SiO2 
 PCOD8077190
Probable space group: P 21/M
;
_chemical_formula_sum "Si O2"
_cell_formula_units_Z 32
_cell_length_a 25.856094
_cell_length_b 8.649290
_cell_length_c 14.024408
_cell_angle_alpha 90.000000
_cell_angle_beta 30.134626
_cell_angle_gamma 90.000000
_cell_volume 1574.565035
_symmetry_space_group_name_H-M "P 21/M"
_symmetry_group_IT_number 11
_symmetry_cell_setting 'monoclinic'
loop_
_space_group_symop_operation_xyz
x,y,z
-x,1/2+y,-z
-x,-y,-z
x,1/2-y,z
loop_
_atom_site_type_symbol
_atom_site_label
_atom_site_fract_x
_atom_site_fract_y
_atom_site_fract_z
Si Si1 0.891120 0.931612 0.645928
Si Si2 0.442219 0.068208 0.002129
Si Si3 0.084606 0.427773 0.735751
Si Si4 0.783659 0.431343 0.635592
Si Si5 0.873937 0.571419 0.109387
Si Si6 0.678013 0.432089 0.324607
Si Si7 0.279753 0.570801 0.958460
Si Si8 0.489998 0.570493 0.730950
O O1 0.899454 0.750000 0.614899
O O2 0.855688 0.013636 0.606047
O O3 0.812863 0.965743 0.856567
O O4 0.000000 0.000000 0.500000
O O5 0.445620 0.250000 0.004530
O O6 0.325144 0.014473 0.185133
O O7 0.500000 0.000000 0.000000
O O8 0.502365 0.016228 0.811459
O O9 0.090369 0.250000 0.694032
O O10 0.161956 0.529704 0.550509
O O11 0.118817 0.450226 0.789429
O O12 0.968339 0.487033 0.906167
O O13 0.764192 0.250000 0.675074
O O14 0.875440 0.750000 0.077262
O O15 0.768985 0.492751 0.245541
O O16 0.668347 0.250000 0.351104
O O17 0.571816 0.508564 0.525204
O O18 0.697086 0.481731 0.185648
O O19 0.247218 0.750000 0.014977
O O20 0.377647 0.538274 0.868224
O O21 0.509928 0.750000 0.716965
#
# Coordination Sequence:
#
# PCOD8077190 Si02
#       8
#     4   4   4   4   4   4   4   4
#     4  12  26  44  69  98 133 175 221 271 328 392
#     4  12  26  45  69  99 133 174 221 270 330 393
#     4  10  22  41  65  91 126 169 215 263 321 384
#     4  12  25  44  69  99 134 173 219 271 329 392
#     4  10  22  41  63  92 128 167 214 266 321 382
#     4  11  24  40  64  95 129 168 215 266 321 384
#     4  10  23  44  67  93 129 170 214 265 323 385
#     4  11  23  43  68  94 129 169 215 268 323 385
#
# _framework density 20.323073000000001
#
# number of rings (size 3 to 8) (size 9 to 14) (size 15 to 20)
#    0.000    1.000    1.250    5.250    3.500    3.000 
#    0.000    0.000    0.000    0.000    0.000    0.000 
#    0.000    0.000    0.000    0.000    0.000    0.000 
#
# Total GULP energy -397053.330704 kJ/mol
# GULP energy per Si atom -12407.916585 kJ/mol
# Density = 2.027682 g / cm^3
# Si number density = 20.323073 Si / 1000 Ang^3
#
#
#
# Elastic Constant Matrix: (Units=GPa)
#
#
# Indices 1 2 3 4 5 6 
#
# 1 91.7916 48.7801 31.1342 0.0000 4.1920 0.0000
# 2 48.7801 138.0161 49.8826 0.0000 1.6161 0.0000
# 3 31.1342 49.8826 88.0680 0.0000 17.0309 0.0000
# 4 0.0000 0.0000 0.0000 43.4716 0.0000 0.4284
# 5 4.1920 1.6161 17.0309 0.0000 27.4971 0.0000
# 6 0.0000 0.0000 0.0000 0.4284 0.0000 31.2777
#
#
#
# Elastic Compliance Matrix: (Units=1/GPa)
#
#
# Indices 1 2 3 4 5 6 
#
# 1 0.013901 -0.003964 -0.002618 0.000000 -0.000265 0.000000
# 2 -0.003964 0.010468 -0.005141 0.000000 0.003173 0.000000
# 3 -0.002618 -0.005141 0.017106 0.000000 -0.009893 0.000000
# 4 0.000000 0.000000 0.000000 0.023007 0.000000 -0.000315
# 5 -0.000265 0.003173 -0.009893 0.000000 0.042349 0.000000
# 6 0.000000 0.000000 0.000000 -0.000315 0.000000 0.031976
#
#
# Mechanical properties :
#
#
# Convention : Reuss Voigt Hill
#
# Bulk Modulus (GPa) = 55.46948 64.16327 59.81638
# Shear Modulus (GPa) = 29.71576 32.98788 31.35182
#
# Velocity S-wave (km/s) = 3.82798 4.03323 3.93195
# Velocity P-wave (km/s) = 6.84770 7.30270 7.07886
#
# Compressibility (1/GPa) = 0.01802793
#
# Stress axis : x y z
#
# Youngs Moduli (GPa) = 71.93873 95.53369 58.46002
#
# Poissons Ratio (x) = 0.37867 0.15304
# Poissons Ratio (y) = 0.28515 0.30056
# Poissons Ratio (z) = 0.18833 0.49117
#
# Static dielectric constant tensor:
#      x y z
#    x 3.776590 0.000000 0.081210 
#    y 0.000000 3.839600 0.000000 
#    z 0.081210 0.000000 3.841880 
# 
# 
# High freq. dielectric constant tensor:
#      x y z
#    x 1.804690 0.000000 0.002020 
#    y 0.000000 1.809000 0.000000 
#    z 0.002020 0.000000 1.808420 
# 
# From -- ./inp_files/56166.got.cif
#   From: 2010.06.25/outbox.cif.g09.slc.cpg/sg11_29_cif.got.tgz:56166.got - 2010.06.27 23:14:04.
