data_PCOD8077316
_publ_section_title
;
Structure prediction by ZEFSAII (Michael W. Deem and Ramdas Pophale) SiO2 
 PCOD8077316
Probable space group: P 21/M
;
_chemical_formula_sum "Si O2"
_cell_formula_units_Z 32
_cell_length_a 11.985934
_cell_length_b 16.478317
_cell_length_c 14.283571
_cell_angle_alpha 90.000000
_cell_angle_beta 32.192826
_cell_angle_gamma 90.000000
_cell_volume 1503.008913
_symmetry_space_group_name_H-M "P 21/M"
_symmetry_group_IT_number 11
_symmetry_cell_setting 'monoclinic'
loop_
_space_group_symop_operation_xyz
x,y,z
-x,1/2+y,-z
-x,-y,-z
x,1/2-y,z
loop_
_atom_site_type_symbol
_atom_site_label
_atom_site_fract_x
_atom_site_fract_y
_atom_site_fract_z
Si Si1 0.736203 0.157562 0.260456
Si Si2 0.657618 0.652765 0.957328
Si Si3 0.475594 0.916029 0.274607
Si Si4 0.954124 0.653064 0.250665
Si Si5 0.871891 0.344248 0.361644
Si Si6 0.108826 0.085979 0.901583
Si Si7 0.420101 0.657858 0.945554
Si Si8 0.606555 0.597542 0.629466
O O1 0.653698 0.250000 0.322700
O O2 0.772478 0.118274 0.337303
O O3 0.565032 0.102971 0.330616
O O4 0.955714 0.155887 0.049213
O O5 0.646934 0.750000 0.975166
O O6 0.538837 0.610124 0.126488
O O7 0.548420 0.619120 0.940447
O O8 0.896712 0.620457 0.783977
O O9 0.282440 0.859728 0.442702
O O10 0.668545 0.905942 0.207558
O O11 0.386199 0.006593 0.337586
O O12 0.941780 0.750000 0.243325
O O13 0.856107 0.604132 0.232865
O O14 0.829042 0.627135 0.432383
O O15 0.190177 0.619090 0.095951
O O16 0.897681 0.250000 0.324567
O O17 0.000000 0.000000 0.000000
O O18 0.382109 0.750000 0.999982
O O19 0.548736 0.653920 0.758012
#
# Coordination Sequence:
#
# PCOD8077316 Si02
#       8
#     4   4   4   4   4   4   4   4
#     4  11  21  38  64  91 124 164 207 254 307 370
#     4  10  23  44  68  90 121 164 214 267 317 375
#     4  12  25  39  64  93 131 168 205 256 320 387
#     4  11  24  41  66  95 127 168 215 260 313 379
#     4  10  23  40  63  93 125 163 209 260 314 380
#     4  12  23  39  65  95 130 169 205 255 318 378
#     4  10  22  44  68  90 120 164 216 268 315 368
#     4  12  25  40  63  94 130 167 206 262 317 379
#
# _framework density 21.290624000000001
#
# number of rings (size 3 to 8) (size 9 to 14) (size 15 to 20)
#    0.000    1.000    3.750    2.625    1.750    6.000 
#    0.000    5.000    0.000    0.000    0.000    0.000 
#    0.000    0.000    0.000    0.000    0.000    0.000 
#
# Total GULP energy -396885.796743 kJ/mol
# GULP energy per Si atom -12402.681148 kJ/mol
# Density = 2.124217 g / cm^3
# Si number density = 21.290624 Si / 1000 Ang^3
#
#
#
# Elastic Constant Matrix: (Units=GPa)
#
#
# Indices 1 2 3 4 5 6 
#
# 1 151.3318 21.8822 62.5394 0.0000 9.0351 0.0000
# 2 21.8822 50.7577 14.7202 0.0000 -0.1261 0.0000
# 3 62.5394 14.7202 155.2227 0.0000 22.0905 0.0000
# 4 0.0000 0.0000 0.0000 31.3101 0.0000 2.2605
# 5 9.0351 -0.1261 22.0905 0.0000 16.2178 0.0000
# 6 0.0000 0.0000 0.0000 2.2605 0.0000 18.7549
#
#
#
# Elastic Compliance Matrix: (Units=1/GPa)
#
#
# Indices 1 2 3 4 5 6 
#
# 1 0.008270 -0.002697 -0.002999 0.000000 -0.000543 0.000000
# 2 -0.002697 0.021294 -0.001452 0.000000 0.003645 0.000000
# 3 -0.002999 -0.001452 0.009368 0.000000 -0.011101 0.000000
# 4 0.000000 0.000000 0.000000 0.032219 0.000000 -0.003883
# 5 -0.000543 0.003645 -0.011101 0.000000 0.077113 0.000000
# 6 0.000000 0.000000 0.000000 -0.003883 0.000000 0.053787
#
#
# Mechanical properties :
#
#
# Convention : Reuss Voigt Hill
#
# Bulk Modulus (GPa) = 40.58863 61.73287 51.16075
# Shear Modulus (GPa) = 22.26600 30.46791 26.36696
#
# Velocity S-wave (km/s) = 3.23741 3.78702 3.52295
# Velocity P-wave (km/s) = 5.75151 6.94121 6.37418
#
# Compressibility (1/GPa) = 0.02463744
#
# Stress axis : x y z
#
# Youngs Moduli (GPa) = 120.92378 46.96134 106.74570
#
# Poissons Ratio (x) = 0.12665 0.32011
# Poissons Ratio (y) = 0.32611 0.15495
# Poissons Ratio (z) = 0.36262 0.06817
#
# Static dielectric constant tensor:
#      x y z
#    x 3.992380 0.000000 -0.074730 
#    y 0.000000 3.699540 0.000000 
#    z -0.074730 0.000000 3.942000 
# 
# 
# High freq. dielectric constant tensor:
#      x y z
#    x 1.833520 0.000000 0.001640 
#    y 0.000000 1.823860 0.000000 
#    z 0.001640 0.000000 1.845790 
# 
# From -- ./inp_files/50678.got.cif
#   From: 2010.06.25/outbox.cif.g09.slc.cpg/sg11_26_cif.got.tgz:50678.got - 2010.06.27 23:14:04.
