data_PCOD8077674
_publ_section_title
;
Structure prediction by ZEFSAII (Michael W. Deem and Ramdas Pophale) SiO2 
 PCOD8077674
Probable space group: P 21/M
;
_chemical_formula_sum "Si O2"
_cell_formula_units_Z 24
_cell_length_a 15.200782
_cell_length_b 11.377115
_cell_length_c 15.200746
_cell_angle_alpha 90.000000
_cell_angle_beta 152.146003
_cell_angle_gamma 90.000000
_cell_volume 1228.243529
_symmetry_space_group_name_H-M "P 21/M"
_symmetry_group_IT_number 11
_symmetry_cell_setting 'monoclinic'
loop_
_space_group_symop_operation_xyz
x,y,z
-x,1/2+y,-z
-x,-y,-z
x,1/2-y,z
loop_
_atom_site_type_symbol
_atom_site_label
_atom_site_fract_x
_atom_site_fract_y
_atom_site_fract_z
Si Si1 0.364667 0.250000 0.551085
Si Si2 0.510722 0.994667 0.405611
Si Si3 0.051082 0.750000 0.864664
Si Si4 0.237635 0.750000 0.858425
Si Si5 0.864177 0.112006 0.635816
Si Si6 0.641573 0.750000 0.262360
Si Si7 0.951675 0.557855 0.548322
Si Si8 0.094387 0.994668 0.989275
O O1 0.431808 0.361362 0.557539
O O2 0.137903 0.250000 0.362100
O O3 0.452896 0.250000 0.725267
O O4 0.500000 0.000000 0.500000
O O5 0.657646 0.083234 0.490628
O O6 0.312906 0.026786 0.187091
O O7 0.225265 0.750000 0.952896
O O8 0.057536 0.861362 0.931805
O O9 0.136316 0.633521 0.733743
O O10 0.463372 0.750000 0.036622
O O11 0.876984 0.250000 0.623011
O O12 0.910429 0.035796 0.589566
O O13 0.009367 0.083234 0.842349
O O14 0.766254 0.633521 0.363679
O O15 0.000000 0.500000 0.500000
O O16 0.000000 0.000000 0.000000
#
# Coordination Sequence:
#
# PCOD8077674 Si02
#       8
#     2   4   2   2   4   2   4   4
#     4  12  20  41  69  96 128 171 221 278 326 384
#     4  12  24  41  64  96 132 176 221 270 326 393
#     4  12  20  41  69  96 128 171 221 278 326 384
#     4  11  21  42  73 103 127 165 230 283 328 395
#     4  12  27  45  62  97 139 177 221 274 338 397
#     4  11  21  42  73 103 127 165 230 283 328 395
#     4  11  25  46  72  99 133 178 222 279 341 397
#     4  12  24  41  64  96 132 176 221 270 326 393
#
# _framework density 19.540099999999999
#
# number of rings (size 3 to 8) (size 9 to 14) (size 15 to 20)
#    0.000    0.333    8.333    1.500    4.667    1.333 
#    0.000    0.000    0.000    0.000    0.000    0.000 
#    0.000    0.000    0.000    0.000    0.000    0.000 
#
# Total GULP energy -297556.947975 kJ/mol
# GULP energy per Si atom -12398.206166 kJ/mol
# Density = 1.949563 g / cm^3
# Si number density = 19.540100 Si / 1000 Ang^3
#
#
#
# Elastic Constant Matrix: (Units=GPa)
#
#
# Indices 1 2 3 4 5 6 
#
# 1 131.2892 60.6356 53.2021 0.0000 -13.0922 0.0000
# 2 60.6356 151.4653 57.8323 0.0000 -0.8093 0.0000
# 3 53.2021 57.8323 170.7422 0.0000 24.4831 0.0000
# 4 0.0000 0.0000 0.0000 19.6493 0.0000 1.5652
# 5 -13.0922 -0.8093 24.4831 0.0000 27.2150 0.0000
# 6 0.0000 0.0000 0.0000 1.5652 0.0000 14.2542
#
#
#
# Elastic Compliance Matrix: (Units=1/GPa)
#
#
# Indices 1 2 3 4 5 6 
#
# 1 0.011462 -0.003094 -0.003790 0.000000 0.008831 0.000000
# 2 -0.003094 0.008625 -0.002044 0.000000 0.000607 0.000000
# 3 -0.003790 -0.002044 0.009185 0.000000 -0.010147 0.000000
# 4 0.000000 0.000000 0.000000 0.051342 0.000000 -0.005638
# 5 0.008831 0.000607 -0.010147 0.000000 0.050139 0.000000
# 6 0.000000 0.000000 0.000000 -0.005638 0.000000 0.070774
#
#
# Mechanical properties :
#
#
# Convention : Reuss Voigt Hill
#
# Bulk Modulus (GPa) = 87.60152 88.53740 88.06946
# Shear Modulus (GPa) = 22.40259 31.01215 26.70737
#
# Velocity S-wave (km/s) = 3.38966 3.98817 3.70103
# Velocity P-wave (km/s) = 7.76201 8.16188 7.96445
#
# Compressibility (1/GPa) = 0.01141533
#
# Stress axis : x y z
#
# Youngs Moduli (GPa) = 87.24199 115.94638 108.87318
#
# Poissons Ratio (x) = 0.35879 0.41261
# Poissons Ratio (y) = 0.26997 0.22254
# Poissons Ratio (z) = 0.33063 0.23700
#
# Static dielectric constant tensor:
#      x y z
#    x 3.569900 0.000000 0.114700 
#    y 0.000000 3.384520 0.000000 
#    z 0.114700 0.000000 3.967120 
# 
# 
# High freq. dielectric constant tensor:
#      x y z
#    x 1.763580 0.000000 0.004120 
#    y 0.000000 1.764280 0.000000 
#    z 0.004120 0.000000 1.777850 
# 
# From -- ./inp_files/52382.got.cif
#   From: 2010.06.25/outbox.cif.g09.slc.cpg/sg11_27_cif.got.tgz:52382.got - 2010.06.27 23:14:04.
