data_PCOD8077990
_publ_section_title
;
Structure prediction by ZEFSAII (Michael W. Deem and Ramdas Pophale) SiO2 
 PCOD8077990
Probable space group: P 21/M
;
_chemical_formula_sum "Si O2"
_cell_formula_units_Z 32
_cell_length_a 27.000000
_cell_length_b 9.000000
_cell_length_c 21.000000
_cell_angle_alpha 90.000000
_cell_angle_beta 160.000000
_cell_angle_gamma 90.000000
_cell_volume 1745.328791
_symmetry_space_group_name_H-M "P 21/M"
_symmetry_group_IT_number 11
_symmetry_cell_setting 'monoclinic'
loop_
_space_group_symop_operation_xyz
x,y,z
-x,1/2+y,-z
-x,-y,-z
x,1/2-y,z
loop_
_atom_site_type_symbol
_atom_site_label
_atom_site_fract_x
_atom_site_fract_y
_atom_site_fract_z
Si Si1 0.414318 0.076958 0.340404
Si Si2 0.320319 0.577982 0.417532
Si Si3 0.148562 0.075161 0.316714
Si Si4 0.830108 0.075814 0.894458
Si Si5 0.499941 0.073353 0.931103
Si Si6 0.814815 0.574481 0.496354
Si Si7 0.991113 0.922773 0.588299
Si Si8 0.222698 0.422787 0.786549
O O1 0.400290 0.250000 0.338092
O O2 0.507512 0.051064 0.388184
O O3 0.500000 0.000000 0.500000
O O4 0.254683 0.003765 0.149018
O O5 0.287364 0.750000 0.389446
O O6 0.277131 0.491658 0.429227
O O7 0.227652 0.522108 0.244296
O O8 0.173098 0.250000 0.348198
O O9 0.149434 0.011497 0.389983
O O10 0.997285 0.030714 0.101449
O O11 0.805082 0.250000 0.873131
O O12 0.517396 0.250000 0.959031
O O13 0.348651 0.027199 0.716450
O O14 0.500000 0.000000 0.000000
O O15 0.626436 0.009688 0.038840
O O16 0.829443 0.750000 0.512634
O O17 0.928390 0.514726 0.579944
O O18 0.033824 0.750000 0.644425
O O19 0.865949 0.947347 0.385247
O O20 0.134084 0.013421 0.740141
O O21 0.254428 0.250000 0.837317
#
# Coordination Sequence:
#
# PCOD8077990 Si02
#       8
#     4   4   4   4   4   4   4   4
#     4   9  17  30  50  75 102 132 166 210 258 301
#     4   9  18  32  49  74 107 135 165 211 260 301
#     4  10  20  34  53  75 100 136 177 213 251 306
#     4   9  18  32  51  77 104 132 171 215 256 302
#     4  11  20  34  55  79 104 134 169 211 259 306
#     4   9  19  36  54  74 103 135 172 215 259 303
#     4   9  17  33  53  74 103 135 163 206 257 300
#     4  10  19  32  52  81 106 130 167 209 252 303
#
# _framework density 18.334654
#
# number of rings (size 3 to 8) (size 9 to 14) (size 15 to 20)
#    0.000    2.500    1.250    2.250    0.000    3.500 
#    0.000    3.125    0.000    6.000    0.000    0.000 
#    0.000    0.000    0.000    0.000    0.000    0.000 
#
# Total GULP energy -396681.785153 kJ/mol
# GULP energy per Si atom -12396.305786 kJ/mol
# Density = 1.829292 g / cm^3
# Si number density = 18.334654 Si / 1000 Ang^3
#
#
#
# Elastic Constant Matrix: (Units=GPa)
#
#
# Indices 1 2 3 4 5 6 
#
# 1 165.7018 45.4879 50.3157 0.0000 23.8107 0.0000
# 2 45.4879 65.1189 27.5107 0.0000 14.5422 0.0000
# 3 50.3157 27.5107 51.6421 0.0000 16.2690 0.0000
# 4 0.0000 0.0000 0.0000 23.1040 0.0000 10.3024
# 5 23.8107 14.5422 16.2690 0.0000 35.4711 0.0000
# 6 0.0000 0.0000 0.0000 10.3024 0.0000 35.1833
#
#
#
# Elastic Compliance Matrix: (Units=1/GPa)
#
#
# Indices 1 2 3 4 5 6 
#
# 1 0.009205 -0.003199 -0.006699 0.000000 -0.001795 0.000000
# 2 -0.003199 0.021385 -0.007235 0.000000 -0.003301 0.000000
# 3 -0.006699 -0.007235 0.032021 0.000000 -0.007223 0.000000
# 4 0.000000 0.000000 0.000000 0.049783 0.000000 -0.014577
# 5 -0.001795 -0.003301 -0.007223 0.000000 0.034064 0.000000
# 6 0.000000 0.000000 0.000000 -0.014577 0.000000 0.032691
#
#
# Mechanical properties :
#
#
# Convention : Reuss Voigt Hill
#
# Bulk Modulus (GPa) = 35.28017 58.78794 47.03406
# Shear Modulus (GPa) = 22.43517 29.36156 25.89837
#
# Velocity S-wave (km/s) = 3.50186 4.00612 3.76245
# Velocity P-wave (km/s) = 5.96949 7.31657 6.67709
#
# Compressibility (1/GPa) = 0.02834453
#
# Stress axis : x y z
#
# Youngs Moduli (GPa) = 108.63283 46.76130 31.22946
#
# Poissons Ratio (x) = 0.14960 0.20921
# Poissons Ratio (y) = 0.34754 0.22595
# Poissons Ratio (z) = 0.72774 0.33833
#
# Static dielectric constant tensor:
#      x y z
#    x 3.671330 0.000000 0.270270 
#    y 0.000000 3.345240 0.000000 
#    z 0.270270 0.000000 3.407250 
# 
# 
# High freq. dielectric constant tensor:
#      x y z
#    x 1.721110 0.000000 0.029350 
#    y 0.000000 1.701170 0.000000 
#    z 0.029350 0.000000 1.693640 
# 
# From -- ./inp_files/67189.got.cif
#   From: 2010.06.25/outbox.ucp.g09.slc.cvg/sg11_34_cif.got.tgz:67189.got - 2010.06.28 13:43:20.
