data_PCOD8077739
_publ_section_title
;
Structure prediction by ZEFSAII (Michael W. Deem and Ramdas Pophale) SiO2 
 PCOD8077739
Probable space group: P 21/M
;
_chemical_formula_sum "Si O2"
_cell_formula_units_Z 32
_cell_length_a 26.184511
_cell_length_b 8.678569
_cell_length_c 20.899033
_cell_angle_alpha 90.000000
_cell_angle_beta 20.830017
_cell_angle_gamma 90.000000
_cell_volume 1688.793151
_symmetry_space_group_name_H-M "P 21/M"
_symmetry_group_IT_number 11
_symmetry_cell_setting 'monoclinic'
loop_
_space_group_symop_operation_xyz
x,y,z
-x,1/2+y,-z
-x,-y,-z
x,1/2-y,z
loop_
_atom_site_type_symbol
_atom_site_label
_atom_site_fract_x
_atom_site_fract_y
_atom_site_fract_z
Si Si1 0.739719 0.432309 0.972537
Si Si2 0.139795 0.569159 0.304651
Si Si3 0.149410 0.931153 0.804643
Si Si4 0.562504 0.432036 0.990432
Si Si5 0.342887 0.068191 0.684066
Si Si6 0.858467 0.568315 0.962877
Si Si7 0.848211 0.567847 0.334912
Si Si8 0.554459 0.568293 0.741976
O O1 0.750682 0.250000 0.973339
O O2 0.835630 0.479200 0.798305
O O3 0.795354 0.526374 0.968035
O O4 0.574487 0.485679 0.154133
O O5 0.125298 0.750000 0.324250
O O6 0.000000 0.500000 0.500000
O O7 0.273724 0.513828 0.190886
O O8 0.149867 0.750000 0.815550
O O9 0.272928 0.008453 0.701182
O O10 0.172927 0.969890 0.703776
O O11 0.000000 0.000000 0.000000
O O12 0.553048 0.250000 0.997989
O O13 0.469430 0.497363 0.158790
O O14 0.500000 0.500000 0.000000
O O15 0.352674 0.250000 0.670580
O O16 0.500000 0.000000 0.500000
O O17 0.252164 0.014086 0.852287
O O18 0.887269 0.750000 0.933863
O O19 0.007472 0.478245 0.797338
O O20 0.849146 0.750000 0.319277
O O21 0.711515 0.515853 0.536555
O O22 0.541372 0.750000 0.760485
#
# Coordination Sequence:
#
# PCOD8077739 Si02
#       8
#     4   4   4   4   4   4   4   4
#     4   9  19  38  60  81 110 151 192 235 285 340
#     4   9  19  35  56  82 113 149 190 233 283 339
#     4  12  24  41  63  88 119 154 193 241 293 347
#     4   9  18  35  56  81 114 147 185 232 278 332
#     4  11  25  43  62  87 119 154 195 242 294 349
#     4  11  24  40  57  84 119 151 187 237 290 342
#     4  11  22  38  62  88 113 151 195 237 288 345
#     4   8  18  37  59  83 110 145 190 233 278 336
#
# _framework density 18.948443000000001
#
# number of rings (size 3 to 8) (size 9 to 14) (size 15 to 20)
#    0.000    2.000    1.250    3.750    1.750    3.500 
#    0.000    7.500    0.000    0.000    0.000    0.000 
#    0.000    0.000    0.000    0.000    0.000    0.000 
#
# Total GULP energy -396757.299604 kJ/mol
# GULP energy per Si atom -12398.665613 kJ/mol
# Density = 1.890532 g / cm^3
# Si number density = 18.948443 Si / 1000 Ang^3
#
#
#
# Elastic Constant Matrix: (Units=GPa)
#
#
# Indices 1 2 3 4 5 6 
#
# 1 146.5120 18.3855 70.2490 0.0000 -7.4296 0.0000
# 2 18.3855 39.6204 36.5200 0.0000 -1.1453 0.0000
# 3 70.2490 36.5200 170.9188 0.0000 -8.7997 0.0000
# 4 0.0000 0.0000 0.0000 29.4756 0.0000 -0.4506
# 5 -7.4296 -1.1453 -8.7997 0.0000 27.0961 0.0000
# 6 0.0000 0.0000 0.0000 -0.4506 0.0000 36.6938
#
#
#
# Elastic Compliance Matrix: (Units=1/GPa)
#
#
# Indices 1 2 3 4 5 6 
#
# 1 0.008568 -0.000938 -0.003257 0.000000 0.001252 0.000000
# 2 -0.000938 0.031552 -0.006408 0.000000 -0.001005 0.000000
# 3 -0.003257 -0.006408 0.008643 0.000000 0.001643 0.000000
# 4 0.000000 0.000000 0.000000 0.033933 0.000000 0.000417
# 5 0.001252 -0.001005 0.001643 0.000000 0.037740 0.000000
# 6 0.000000 0.000000 0.000000 0.000417 0.000000 0.027258
#
#
# Mechanical properties :
#
#
# Convention : Reuss Voigt Hill
#
# Bulk Modulus (GPa) = 36.28682 67.48446 51.88564
# Shear Modulus (GPa) = 28.07648 34.11288 31.09468
#
# Velocity S-wave (km/s) = 3.85350 4.24760 4.05534
# Velocity P-wave (km/s) = 6.24429 7.72970 7.02636
#
# Compressibility (1/GPa) = 0.02755821
#
# Stress axis : x y z
#
# Youngs Moduli (GPa) = 116.71247 31.69352 115.70031
#
# Poissons Ratio (x) = 0.02973 0.37680
# Poissons Ratio (y) = 0.10947 0.74140
# Poissons Ratio (z) = 0.38009 0.20309
#
# Static dielectric constant tensor:
#      x y z
#    x 6.100130 0.000000 -1.388350 
#    y 0.000000 3.201140 0.000000 
#    z -1.388350 0.000000 4.148220 
# 
# 
# High freq. dielectric constant tensor:
#      x y z
#    x 1.746830 0.000000 -0.001100 
#    y 0.000000 1.727130 0.000000 
#    z -0.001100 0.000000 1.747490 
# 
# From -- ./inp_files/66950.got.cif
#   From: 2010.06.25/outbox.cif.g09.slc.cpg/sg11_34_cif.got.tgz:66950.got - 2010.06.27 23:14:04.
