data_PCOD8077880
_publ_section_title
;
Structure prediction by ZEFSAII (Michael W. Deem and Ramdas Pophale) SiO2 
 PCOD8077880
Probable space group: P 21/M
;
_chemical_formula_sum "Si O2"
_cell_formula_units_Z 18
_cell_length_a 7.340215
_cell_length_b 14.243236
_cell_length_c 8.713383
_cell_angle_alpha 90.000000
_cell_angle_beta 85.412610
_cell_angle_gamma 90.000000
_cell_volume 908.052089
_symmetry_space_group_name_H-M "P 21/M"
_symmetry_group_IT_number 11
_symmetry_cell_setting 'monoclinic'
loop_
_space_group_symop_operation_xyz
x,y,z
-x,1/2+y,-z
-x,-y,-z
x,1/2-y,z
loop_
_atom_site_type_symbol
_atom_site_label
_atom_site_fract_x
_atom_site_fract_y
_atom_site_fract_z
Si Si1 0.493017 0.250000 0.129858
Si Si2 0.905155 0.250000 0.065032
Si Si3 0.371598 0.430058 0.310792
Si Si4 0.758636 0.750000 0.145517
Si Si5 0.698951 0.565985 0.339773
Si Si6 0.006155 0.049185 0.163887
O O1 0.691496 0.250000 0.035778
O O2 0.476921 0.340417 0.238494
O O3 0.336500 0.250000 0.013501
O O4 0.954742 0.158667 0.161499
O O5 0.022668 0.250000 0.899498
O O6 0.509908 0.516288 0.311161
O O7 0.290040 0.406001 0.482963
O O8 0.211292 0.462610 0.209301
O O9 0.700737 0.659300 0.240917
O O10 0.869819 0.500067 0.291080
O O11 0.000000 0.000000 0.000000
#
# Coordination Sequence:
#
# PCOD8077880 Si02
#       6
#     2   2   4   2   4   4
#     4  12  23  41  67  91 129 163 213 264 316 375
#     4  12  24  39  64  97 122 165 213 261 317 367
#     4  11  24  43  65  95 129 170 207 263 320 378
#     4  12  25  42  65  94 125 168 212 267 313 376
#     4  11  25  42  65  94 130 168 213 257 322 381
#     4  12  23  42  67  94 130 167 214 260 313 377
#
# _framework density 19.822648999999998
#
# number of rings (size 3 to 8) (size 9 to 14) (size 15 to 20)
#    0.000    0.444    6.667    1.333    3.111    1.778 
#    0.000    0.000    0.000    0.000    0.000    0.000 
#    0.000    0.000    0.000    0.000    0.000    0.000 
#
# Total GULP energy -223323.372526 kJ/mol
# GULP energy per Si atom -12406.854029 kJ/mol
# Density = 1.977753 g / cm^3
# Si number density = 19.822649 Si / 1000 Ang^3
#
#
#
# Elastic Constant Matrix: (Units=GPa)
#
#
# Indices 1 2 3 4 5 6 
#
# 1 120.9441 29.3077 47.8950 0.0000 -3.5307 0.0000
# 2 29.3077 136.2693 58.4456 0.0000 -5.1496 0.0000
# 3 47.8950 58.4456 129.5036 0.0000 -10.3526 0.0000
# 4 0.0000 0.0000 0.0000 24.9321 0.0000 -1.2292
# 5 -3.5307 -5.1496 -10.3526 0.0000 38.0476 0.0000
# 6 0.0000 0.0000 0.0000 -1.2292 0.0000 27.6745
#
#
#
# Elastic Compliance Matrix: (Units=1/GPa)
#
#
# Indices 1 2 3 4 5 6 
#
# 1 0.009738 -0.000682 -0.003301 0.000000 -0.000087 0.000000
# 2 -0.000682 0.009148 -0.003867 0.000000 0.000123 0.000000
# 3 -0.003301 -0.003867 0.010857 0.000000 0.002125 0.000000
# 4 0.000000 0.000000 0.000000 0.040197 0.000000 0.001785
# 5 -0.000087 0.000123 0.002125 0.000000 0.026870 0.000000
# 6 0.000000 0.000000 0.000000 0.001785 0.000000 0.036214
#
#
# Mechanical properties :
#
#
# Convention : Reuss Voigt Hill
#
# Bulk Modulus (GPa) = 71.19905 73.11263 72.15584
# Shear Modulus (GPa) = 32.59373 34.86875 33.73124
#
# Velocity S-wave (km/s) = 4.05936 4.19864 4.12958
# Velocity P-wave (km/s) = 7.61362 7.77613 7.69530
#
# Compressibility (1/GPa) = 0.01404513
#
# Stress axis : x y z
#
# Youngs Moduli (GPa) = 102.68945 109.31255 92.10396
#
# Poissons Ratio (x) = 0.07456 0.30400
# Poissons Ratio (y) = 0.07004 0.35612
# Poissons Ratio (z) = 0.33894 0.42266
#
# Static dielectric constant tensor:
#      x y z
#    x 3.736730 0.000000 -0.176390 
#    y 0.000000 3.784500 0.000000 
#    z -0.176390 0.000000 3.699700 
# 
# 
# High freq. dielectric constant tensor:
#      x y z
#    x 1.786040 0.000000 -0.012700 
#    y 0.000000 1.789620 0.000000 
#    z -0.012700 0.000000 1.774830 
# 
# From -- ./inp_files/11763.got.cif
#   From: 2010.06.25/outbox.cif.g09.slc.cpg/sg11_6_cif.got.tgz:11763.got - 2010.06.27 23:14:04.
