data_PCOD8077657
_publ_section_title
;
Structure prediction by ZEFSAII (Michael W. Deem and Ramdas Pophale) SiO2 
 PCOD8077657
Probable space group: P 21/M
;
_chemical_formula_sum "Si O2"
_cell_formula_units_Z 28
_cell_length_a 22.116061
_cell_length_b 8.653987
_cell_length_c 10.022854
_cell_angle_alpha 90.000000
_cell_angle_beta 48.495568
_cell_angle_gamma 90.000000
_cell_volume 1436.619776
_symmetry_space_group_name_H-M "P 21/M"
_symmetry_group_IT_number 11
_symmetry_cell_setting 'monoclinic'
loop_
_space_group_symop_operation_xyz
x,y,z
-x,1/2+y,-z
-x,-y,-z
x,1/2-y,z
loop_
_atom_site_type_symbol
_atom_site_label
_atom_site_fract_x
_atom_site_fract_y
_atom_site_fract_z
Si Si1 0.987800 0.427744 0.373886
Si Si2 0.171763 0.069611 0.499227
Si Si3 0.165159 0.426535 0.026623
Si Si4 0.412278 0.568314 0.487154
Si Si5 0.237638 0.569555 0.663461
Si Si6 0.424526 0.568347 0.769743
Si Si7 0.742047 0.068349 0.868187
O O1 0.961288 0.250000 0.429906
O O2 0.919559 0.519751 0.394573
O O3 0.000000 0.500000 0.500000
O O4 0.068702 0.442294 0.168925
O O5 0.181315 0.250000 0.456873
O O6 0.191314 0.032844 0.623638
O O7 0.234832 0.975790 0.315809
O O8 0.190858 0.250000 0.961034
O O9 0.200250 0.538293 0.862932
O O10 0.198256 0.477588 0.121618
O O11 0.419571 0.750000 0.480747
O O12 0.331752 0.519258 0.526084
O O13 0.407221 0.503713 0.646079
O O14 0.491471 0.501280 0.297550
O O15 0.227592 0.750000 0.645100
O O16 0.433880 0.750000 0.754682
O O17 0.350529 0.516888 0.971910
O O18 0.752630 0.250000 0.877575
#
# Coordination Sequence:
#
# PCOD8077657 Si02
#       7
#     4   4   4   4   4   4   4
#     4  11  23  40  63  91 122 157 200 248 302 354
#     4  12  26  42  61  89 122 159 203 249 304 361
#     4  11  23  38  62  93 121 154 200 250 297 354
#     4   9  18  34  56  86 119 154 195 243 296 352
#     4  11  23  42  63  87 122 163 202 244 304 363
#     4   9  18  33  56  89 119 151 196 245 294 349
#     4  11  21  38  62  89 121 159 202 246 298 357
#
# _framework density 19.490195
#
# number of rings (size 3 to 8) (size 9 to 14) (size 15 to 20)
#    0.000    1.429    2.857    3.000    0.000    4.571 
#    0.000    0.714    0.000    0.000    0.000    0.000 
#    0.000    0.000    0.000    0.000    0.000    0.000 
#
# Total GULP energy -347316.948548 kJ/mol
# GULP energy per Si atom -12404.176734 kJ/mol
# Density = 1.944583 g / cm^3
# Si number density = 19.490195 Si / 1000 Ang^3
#
#
#
# Elastic Constant Matrix: (Units=GPa)
#
#
# Indices 1 2 3 4 5 6 
#
# 1 91.2306 40.1737 22.6789 0.0000 -11.9370 0.0000
# 2 40.1737 67.5516 24.3406 0.0000 -14.2499 0.0000
# 3 22.6789 24.3406 73.1890 0.0000 -16.9984 0.0000
# 4 0.0000 0.0000 0.0000 32.7597 0.0000 -0.5020
# 5 -11.9370 -14.2499 -16.9984 0.0000 33.4787 0.0000
# 6 0.0000 0.0000 0.0000 -0.5020 0.0000 32.7938
#
#
#
# Elastic Compliance Matrix: (Units=1/GPa)
#
#
# Indices 1 2 3 4 5 6 
#
# 1 0.015115 -0.008145 -0.001733 0.000000 0.001043 0.000000
# 2 -0.008145 0.021947 -0.003718 0.000000 0.004549 0.000000
# 3 -0.001733 -0.003718 0.016921 0.000000 0.006391 0.000000
# 4 0.000000 0.000000 0.000000 0.030532 0.000000 0.000467
# 5 0.001043 0.004549 0.006391 0.000000 0.035423 0.000000
# 6 0.000000 0.000000 0.000000 0.000467 0.000000 0.030501
#
#
# Mechanical properties :
#
#
# Convention : Reuss Voigt Hill
#
# Bulk Modulus (GPa) = 37.32587 45.15084 41.23836
# Shear Modulus (GPa) = 26.80084 29.45829 28.12956
#
# Velocity S-wave (km/s) = 3.71225 3.89194 3.80316
# Velocity P-wave (km/s) = 6.12920 6.58882 6.36316
#
# Compressibility (1/GPa) = 0.02679107
#
# Stress axis : x y z
#
# Youngs Moduli (GPa) = 66.15951 45.56473 59.09762
#
# Poissons Ratio (x) = 0.37111 0.10240
# Poissons Ratio (y) = 0.53885 0.21975
# Poissons Ratio (z) = 0.11464 0.16943
#
# Static dielectric constant tensor:
#      x y z
#    x 3.509860 0.000000 -0.327320 
#    y 0.000000 3.589890 0.000000 
#    z -0.327320 0.000000 3.565270 
# 
# 
# High freq. dielectric constant tensor:
#      x y z
#    x 1.753640 0.000000 -0.020090 
#    y 0.000000 1.764850 0.000000 
#    z -0.020090 0.000000 1.757020 
# 
# From -- ./inp_files/26045.got.cif
#   From: 2010.06.25/outbox.cif.g09.slc.cpg/sg11_14_cif.got.tgz:26045.got - 2010.06.27 23:14:04.
