data_PCOD8077573
_publ_section_title
;
Structure prediction by ZEFSAII (Michael W. Deem and Ramdas Pophale) SiO2 
 PCOD8077573
Probable space group: P 21/M
;
_chemical_formula_sum "Si O2"
_cell_formula_units_Z 28
_cell_length_a 9.970323
_cell_length_b 16.294276
_cell_length_c 9.298993
_cell_angle_alpha 90.000000
_cell_angle_beta 118.811879
_cell_angle_gamma 90.000000
_cell_volume 1323.691642
_symmetry_space_group_name_H-M "P 21/M"
_symmetry_group_IT_number 11
_symmetry_cell_setting 'monoclinic'
loop_
_space_group_symop_operation_xyz
x,y,z
-x,1/2+y,-z
-x,-y,-z
x,1/2-y,z
loop_
_atom_site_type_symbol
_atom_site_label
_atom_site_fract_x
_atom_site_fract_y
_atom_site_fract_z
Si Si1 0.148372 0.604994 0.868073
Si Si2 0.076845 0.340109 0.023230
Si Si3 0.944107 0.051581 0.723209
Si Si4 0.326345 0.153802 0.574706
Si Si5 0.465885 0.546457 0.132074
Si Si6 0.977509 0.158094 0.472527
Si Si7 0.320124 0.053544 0.295414
O O1 0.040893 0.662868 0.906615
O O2 0.075942 0.514942 0.814929
O O3 0.153966 0.649016 0.716289
O O4 0.312319 0.598447 0.027782
O O5 0.141746 0.250000 0.026478
O O6 0.219568 0.397332 0.129528
O O7 0.985102 0.369977 0.838262
O O8 0.939677 0.084831 0.560273
O O9 0.777862 0.018382 0.680538
O O10 0.369772 0.250000 0.596014
O O11 0.401466 0.110745 0.754030
O O12 0.143646 0.141029 0.487655
O O13 0.385679 0.112735 0.455458
O O14 0.452382 0.485324 0.263162
O O15 0.500000 0.500000 0.000000
O O16 0.971085 0.250000 0.535847
#
# Coordination Sequence:
#
# PCOD8077573 Si02
#       7
#     4   4   4   4   4   4   4
#     4  11  21  40  65  92 125 163 209 262 321 380
#     4  11  20  36  66  98 126 159 210 273 323 371
#     4  11  20  37  65  96 124 161 214 267 311 383
#     4  11  25  44  66  96 133 170 211 266 327 386
#     4  12  26  44  68  92 130 175 222 264 319 386
#     4  11  23  39  64  97 128 163 210 267 326 374
#     4  11  22  43  66  93 125 175 221 256 320 390
#
# _framework density 21.152963
#
# number of rings (size 3 to 8) (size 9 to 14) (size 15 to 20)
#    0.000    0.857    5.714    3.857    2.000    1.143 
#    0.000    0.714    0.000    0.000    0.000    0.000 
#    0.000    0.000    0.000    0.000    0.000    0.000 
#
# Total GULP energy -347171.108144 kJ/mol
# GULP energy per Si atom -12398.968148 kJ/mol
# Density = 2.110482 g / cm^3
# Si number density = 21.152963 Si / 1000 Ang^3
#
#
#
# Elastic Constant Matrix: (Units=GPa)
#
#
# Indices 1 2 3 4 5 6 
#
# 1 48.1583 34.5331 17.2888 0.0000 -9.1272 0.0000
# 2 34.5331 104.8929 36.9508 0.0000 -11.3881 0.0000
# 3 17.2888 36.9508 106.8524 0.0000 -6.9489 0.0000
# 4 0.0000 0.0000 0.0000 24.7185 0.0000 -6.9034
# 5 -9.1272 -11.3881 -6.9489 0.0000 31.7371 0.0000
# 6 0.0000 0.0000 0.0000 -6.9034 0.0000 10.0198
#
#
#
# Elastic Compliance Matrix: (Units=1/GPa)
#
#
# Indices 1 2 3 4 5 6 
#
# 1 0.028079 -0.008234 -0.001382 0.000000 0.004818 0.000000
# 2 -0.008234 0.013584 -0.003248 0.000000 0.001795 0.000000
# 3 -0.001382 -0.003248 0.010757 0.000000 0.000792 0.000000
# 4 0.000000 0.000000 0.000000 0.050094 0.000000 0.034514
# 5 0.004818 0.001795 0.000792 0.000000 0.033712 0.000000
# 6 0.000000 0.000000 0.000000 0.034514 0.000000 0.123581
#
#
# Mechanical properties :
#
#
# Convention : Reuss Voigt Hill
#
# Bulk Modulus (GPa) = 37.46751 48.60544 43.03648
# Shear Modulus (GPa) = 16.98179 24.70384 20.84281
#
# Velocity S-wave (km/s) = 2.83646 3.42111 3.14241
# Velocity P-wave (km/s) = 5.33652 6.21557 5.79274
#
# Compressibility (1/GPa) = 0.02668979
#
# Stress axis : x y z
#
# Youngs Moduli (GPa) = 35.61424 73.61844 92.96099
#
# Poissons Ratio (x) = 0.60618 0.12851
# Poissons Ratio (y) = 0.29325 0.30197
# Poissons Ratio (z) = 0.04923 0.23914
#
# Static dielectric constant tensor:
#      x y z
#    x 3.596780 0.000000 -0.031230 
#    y 0.000000 3.986860 0.000000 
#    z -0.031230 0.000000 4.048890 
# 
# 
# High freq. dielectric constant tensor:
#      x y z
#    x 1.796060 0.000000 -0.007740 
#    y 0.000000 1.834430 0.000000 
#    z -0.007740 0.000000 1.846980 
# 
# From -- ./inp_files/18160.got.cif
#   From: 2010.06.25/outbox.cif.g09.slc.cpg/sg11_10_cif.got.tgz:18160.got - 2010.06.27 23:14:04.
