data_PCOD8077459
_publ_section_title
;
Structure prediction by ZEFSAII (Michael W. Deem and Ramdas Pophale) SiO2 
 PCOD8077459
Probable space group: P 21/M
;
_chemical_formula_sum "Si O2"
_cell_formula_units_Z 28
_cell_length_a 5.284030
_cell_length_b 21.064359
_cell_length_c 11.931123
_cell_angle_alpha 90.000000
_cell_angle_beta 103.912587
_cell_angle_gamma 90.000000
_cell_volume 1289.031786
_symmetry_space_group_name_H-M "P 21/M"
_symmetry_group_IT_number 11
_symmetry_cell_setting 'monoclinic'
loop_
_space_group_symop_operation_xyz
x,y,z
-x,1/2+y,-z
-x,-y,-z
x,1/2-y,z
loop_
_atom_site_type_symbol
_atom_site_label
_atom_site_fract_x
_atom_site_fract_y
_atom_site_fract_z
Si Si1 0.335840 0.865350 0.083590
Si Si2 0.198321 0.503419 0.125619
Si Si3 0.332605 0.958310 0.560614
Si Si4 0.840209 0.177575 0.163087
Si Si5 0.942335 0.553602 0.326021
Si Si6 0.617384 0.878408 0.753658
Si Si7 0.878198 0.678340 0.197215
O O1 0.399658 0.939042 0.119698
O O2 0.605612 0.826352 0.099766
O O3 0.135234 0.835112 0.151731
O O4 0.190118 0.864823 0.950134
O O5 0.343582 0.436485 0.154235
O O6 0.076556 0.521938 0.232817
O O7 0.000000 0.500000 0.000000
O O8 0.502087 0.899544 0.622065
O O9 0.096900 0.934765 0.458801
O O10 0.500000 0.000000 0.500000
O O11 0.271284 0.001024 0.663971
O O12 0.862920 0.250000 0.128710
O O13 0.593442 0.169657 0.217716
O O14 0.110848 0.155532 0.248166
O O15 0.843538 0.625007 0.289815
O O16 0.901559 0.750000 0.248569
#
# Coordination Sequence:
#
# PCOD8077459 Si02
#       7
#     4   4   4   4   4   4   4
#     4  11  24  41  66  96 139 179 219 268 341 409
#     4  11  22  42  67 108 138 164 214 290 348 396
#     4  11  23  44  71  95 130 177 229 282 342 398
#     4  12  26  44  64  95 139 188 227 265 326 413
#     4  10  24  42  68 101 137 174 224 280 342 403
#     4  12  25  43  69  99 133 175 228 282 336 392
#     4  11  23  42  65  97 135 178 224 270 332 408
#
# _framework density 21.721730999999998
#
# number of rings (size 3 to 8) (size 9 to 14) (size 15 to 20)
#    0.000    0.857    2.857    4.286    6.000    1.714 
#    0.000    1.429    0.000    0.000    0.000    0.000 
#    0.000    0.000    0.000    0.000    0.000    0.000 
#
# Total GULP energy -347040.689287 kJ/mol
# GULP energy per Si atom -12394.310332 kJ/mol
# Density = 2.167229 g / cm^3
# Si number density = 21.721731 Si / 1000 Ang^3
#
#
#
# Elastic Constant Matrix: (Units=GPa)
#
#
# Indices 1 2 3 4 5 6 
#
# 1 90.6136 31.6268 7.3170 0.0000 11.2529 0.0000
# 2 31.6268 84.4130 17.2165 0.0000 -1.1935 0.0000
# 3 7.3170 17.2165 87.4380 0.0000 -3.3208 0.0000
# 4 0.0000 0.0000 0.0000 22.4030 0.0000 0.2903
# 5 11.2529 -1.1935 -3.3208 0.0000 24.2901 0.0000
# 6 0.0000 0.0000 0.0000 0.2903 0.0000 33.8067
#
#
#
# Elastic Compliance Matrix: (Units=1/GPa)
#
#
# Indices 1 2 3 4 5 6 
#
# 1 0.013688 -0.005144 -0.000385 0.000000 -0.006646 0.000000
# 2 -0.005144 0.014277 -0.002275 0.000000 0.002773 0.000000
# 3 -0.000385 -0.002275 0.011982 0.000000 0.001705 0.000000
# 4 0.000000 0.000000 0.000000 0.044642 0.000000 -0.000383
# 5 -0.006646 0.002773 0.001705 0.000000 0.044618 0.000000
# 6 0.000000 0.000000 0.000000 -0.000383 0.000000 0.029583
#
#
# Mechanical properties :
#
#
# Convention : Reuss Voigt Hill
#
# Bulk Modulus (GPa) = 41.08802 41.64281 41.36541
# Shear Modulus (GPa) = 27.39575 29.85356 28.62466
#
# Velocity S-wave (km/s) = 3.55521 3.71126 3.63407
# Velocity P-wave (km/s) = 5.98409 6.13003 6.05750
#
# Compressibility (1/GPa) = 0.02433800
#
# Stress axis : x y z
#
# Youngs Moduli (GPa) = 73.05841 70.04270 83.46091
#
# Poissons Ratio (x) = 0.36028 0.03214
# Poissons Ratio (y) = 0.37580 0.18990
# Poissons Ratio (z) = 0.02813 0.15937
#
# Static dielectric constant tensor:
#      x y z
#    x 3.938000 0.000000 0.088380 
#    y 0.000000 4.044760 0.000000 
#    z 0.088380 0.000000 3.594720 
# 
# 
# High freq. dielectric constant tensor:
#      x y z
#    x 1.859310 0.000000 0.011850 
#    y 0.000000 1.853550 0.000000 
#    z 0.011850 0.000000 1.847460 
# 
# From -- ./inp_files/30023.got.cif
#   From: 2010.06.25/outbox.cif.g09.slc.cpg/sg11_16_cif.got.tgz:30023.got - 2010.06.27 23:14:04.
