data_PCOD8077147
_publ_section_title
;
Structure prediction by ZEFSAII (Michael W. Deem and Ramdas Pophale) SiO2 
 PCOD8077147
Probable space group: P 21/M
;
_chemical_formula_sum "Si O2"
_cell_formula_units_Z 28
_cell_length_a 5.099954
_cell_length_b 14.279593
_cell_length_c 19.178760
_cell_angle_alpha 90.000000
_cell_angle_beta 66.526859
_cell_angle_gamma 90.000000
_cell_volume 1281.117208
_symmetry_space_group_name_H-M "P 21/M"
_symmetry_group_IT_number 11
_symmetry_cell_setting 'monoclinic'
loop_
_space_group_symop_operation_xyz
x,y,z
-x,1/2+y,-z
-x,-y,-z
x,1/2-y,z
loop_
_atom_site_type_symbol
_atom_site_label
_atom_site_fract_x
_atom_site_fract_y
_atom_site_fract_z
Si Si1 0.086691 0.851012 0.031804
Si Si2 0.678959 0.909666 0.957204
Si Si3 0.146496 0.458947 0.416956
Si Si4 0.811635 0.640934 0.790204
Si Si5 0.693758 0.042391 0.735690
Si Si6 0.275875 0.854469 0.630768
Si Si7 0.099564 0.138556 0.801031
O O1 0.935105 0.750000 0.050347
O O2 0.034089 0.900165 0.112043
O O3 0.935134 0.904885 0.985055
O O4 0.425042 0.833419 0.984067
O O5 0.829735 0.900239 0.866345
O O6 0.500000 0.000000 0.000000
O O7 0.184749 0.540984 0.355677
O O8 0.458752 0.423013 0.404287
O O9 0.000000 0.500000 0.500000
O O10 0.953436 0.376528 0.405319
O O11 0.697999 0.750000 0.798384
O O12 0.617296 0.565401 0.767703
O O13 0.127303 0.636122 0.722626
O O14 0.430445 0.112375 0.767459
O O15 0.945691 0.084052 0.755868
O O16 0.388105 0.750000 0.607179
O O17 0.060095 0.250000 0.796415
#
# Coordination Sequence:
#
# PCOD8077147 Si02
#       7
#     4   4   4   4   4   4   4
#     4  11  23  39  58  82 117 160 205 256 313 368
#     4  12  24  38  59  89 125 164 213 267 322 374
#     4  11  23  42  66  95 130 166 204 261 330 392
#     4  10  22  40  64  94 130 172 219 270 323 386
#     4  11  23  42  64  92 124 163 212 264 320 389
#     4  10  22  41  66  95 129 173 219 262 317 391
#     4  11  23  42  65  89 123 168 216 264 319 384
#
# _framework density 21.855924999999999
#
# number of rings (size 3 to 8) (size 9 to 14) (size 15 to 20)
#    0.000    1.143    0.000    7.286    0.000    6.286 
#    0.000    9.286    0.000    0.000    0.000    0.000 
#    0.000    0.000    0.000    0.000    0.000    0.000 
#
# Total GULP energy -347004.378114 kJ/mol
# GULP energy per Si atom -12393.013504 kJ/mol
# Density = 2.180618 g / cm^3
# Si number density = 21.855925 Si / 1000 Ang^3
#
#
#
# Elastic Constant Matrix: (Units=GPa)
#
#
# Indices 1 2 3 4 5 6 
#
# 1 90.5777 15.0272 20.5327 0.0000 -4.5843 0.0000
# 2 15.0272 92.6777 42.8054 0.0000 1.3006 0.0000
# 3 20.5327 42.8054 157.4181 0.0000 -7.3842 0.0000
# 4 0.0000 0.0000 0.0000 23.0949 0.0000 -3.2363
# 5 -4.5843 1.3006 -7.3842 0.0000 27.4951 0.0000
# 6 0.0000 0.0000 0.0000 -3.2363 0.0000 27.0902
#
#
#
# Elastic Compliance Matrix: (Units=1/GPa)
#
#
# Indices 1 2 3 4 5 6 
#
# 1 0.011600 -0.001422 -0.001046 0.000000 0.001721 0.000000
# 2 -0.001422 0.012576 -0.003315 0.000000 -0.001722 0.000000
# 3 -0.001046 -0.003315 0.007484 0.000000 0.001992 0.000000
# 4 0.000000 0.000000 0.000000 0.044037 0.000000 0.005261
# 5 0.001721 -0.001722 0.001992 0.000000 0.037274 0.000000
# 6 0.000000 0.000000 0.000000 0.005261 0.000000 0.037542
#
#
# Mechanical properties :
#
#
# Convention : Reuss Voigt Hill
#
# Bulk Modulus (GPa) = 49.76480 55.26712 52.51596
# Shear Modulus (GPa) = 29.62504 33.02326 31.32415
#
# Velocity S-wave (km/s) = 3.68566 3.89131 3.78988
# Velocity P-wave (km/s) = 6.39774 6.74772 6.57506
#
# Compressibility (1/GPa) = 0.02009452
#
# Stress axis : x y z
#
# Youngs Moduli (GPa) = 86.20470 79.51696 133.62257
#
# Poissons Ratio (x) = 0.11308 0.13972
# Poissons Ratio (y) = 0.12259 0.44295
# Poissons Ratio (z) = 0.09014 0.26360
#
# Static dielectric constant tensor:
#      x y z
#    x 4.023010 0.000000 -0.039200 
#    y 0.000000 4.351580 0.000000 
#    z -0.039200 0.000000 4.001630 
# 
# 
# High freq. dielectric constant tensor:
#      x y z
#    x 1.860280 0.000000 0.001320 
#    y 0.000000 1.869900 0.000000 
#    z 0.001320 0.000000 1.856340 
# 
# From -- ./inp_files/56923.got.cif
#   From: 2010.06.25/outbox.cif.g09.slc.cpg/sg11_29_cif.got.tgz:56923.got - 2010.06.27 23:14:04.
