data_PCOD8077835
_publ_section_title
;
Structure prediction by ZEFSAII (Michael W. Deem and Ramdas Pophale) SiO2 
 PCOD8077835
Probable space group: P 21/M
;
_chemical_formula_sum "Si O2"
_cell_formula_units_Z 28
_cell_length_a 9.659331
_cell_length_b 8.905980
_cell_length_c 27.326581
_cell_angle_alpha 90.000000
_cell_angle_beta 38.294497
_cell_angle_gamma 90.000000
_cell_volume 1456.793916
_symmetry_space_group_name_H-M "P 21/M"
_symmetry_group_IT_number 11
_symmetry_cell_setting 'monoclinic'
loop_
_space_group_symop_operation_xyz
x,y,z
-x,1/2+y,-z
-x,-y,-z
x,1/2-y,z
loop_
_atom_site_type_symbol
_atom_site_label
_atom_site_fract_x
_atom_site_fract_y
_atom_site_fract_z
Si Si1 0.496293 0.572573 0.278742
Si Si2 0.605587 0.922104 0.016922
Si Si3 0.706954 0.578682 0.467546
Si Si4 0.148333 0.427274 0.306115
Si Si5 0.040220 0.577182 0.844436
Si Si6 0.248481 0.424735 0.169211
Si Si7 0.237171 0.421460 0.436035
O O1 0.461526 0.750000 0.287393
O O2 0.366668 0.500022 0.269329
O O3 0.755413 0.532312 0.201753
O O4 0.408763 0.508537 0.354201
O O5 0.536633 0.750000 0.035376
O O6 0.492170 0.995925 0.096298
O O7 0.873474 0.940853 0.937400
O O8 0.500000 0.000000 0.000000
O O9 0.500000 0.500000 0.500000
O O10 0.726692 0.750000 0.443862
O O11 0.663434 0.572564 0.537333
O O12 0.931915 0.492047 0.392420
O O13 0.154977 0.250000 0.312450
O O14 0.141398 0.469587 0.250764
O O15 0.120930 0.750000 0.817398
O O16 0.921186 0.526559 0.826784
O O17 0.298022 0.250000 0.152098
O O18 0.211409 0.250000 0.425100
O O19 0.000000 0.500000 0.500000
#
# Coordination Sequence:
#
# PCOD8077835 Si02
#       7
#     4   4   4   4   4   4   4
#     4  12  25  39  58  87 118 154 198 242 291 347
#     4   9  17  32  57  86 117 152 190 235 288 342
#     4  11  25  42  62  89 119 152 194 241 291 347
#     4  11  23  41  62  85 118 158 194 239 296 347
#     4   9  19  37  59  86 117 150 191 239 287 342
#     4   9  20  37  60  88 117 151 192 238 292 346
#     4  11  23  41  64  86 114 154 197 239 287 345
#
# _framework density 19.220286999999999
#
# number of rings (size 3 to 8) (size 9 to 14) (size 15 to 20)
#    0.000    1.714    1.429    3.857    2.000    5.714 
#    0.000    0.714    0.000    0.000    0.000    0.000 
#    0.000    0.000    0.000    0.000    0.000    0.000 
#
# Total GULP energy -347210.803585 kJ/mol
# GULP energy per Si atom -12400.385842 kJ/mol
# Density = 1.917654 g / cm^3
# Si number density = 19.220287 Si / 1000 Ang^3
#
#
#
# Elastic Constant Matrix: (Units=GPa)
#
#
# Indices 1 2 3 4 5 6 
#
# 1 86.9293 41.0363 28.2701 0.0000 -10.0075 0.0000
# 2 41.0363 120.4923 42.5647 0.0000 -8.3532 0.0000
# 3 28.2701 42.5647 78.5714 0.0000 -14.0556 0.0000
# 4 0.0000 0.0000 0.0000 39.6858 0.0000 -4.0799
# 5 -10.0075 -8.3532 -14.0556 0.0000 26.5084 0.0000
# 6 0.0000 0.0000 0.0000 -4.0799 0.0000 29.5159
#
#
#
# Elastic Compliance Matrix: (Units=1/GPa)
#
#
# Indices 1 2 3 4 5 6 
#
# 1 0.014488 -0.003803 -0.002639 0.000000 0.002872 0.000000
# 2 -0.003803 0.011264 -0.004812 0.000000 -0.000438 0.000000
# 3 -0.002639 -0.004812 0.017493 0.000000 0.006763 0.000000
# 4 0.000000 0.000000 0.000000 0.025561 0.000000 0.003533
# 5 0.002872 -0.000438 0.006763 0.000000 0.042256 0.000000
# 6 0.000000 0.000000 0.000000 0.003533 0.000000 0.034368
#
#
# Mechanical properties :
#
#
# Convention : Reuss Voigt Hill
#
# Bulk Modulus (GPa) = 48.22165 56.63721 52.42943
# Shear Modulus (GPa) = 28.59585 30.75016 29.67300
#
# Velocity S-wave (km/s) = 3.86138 4.00419 3.93343
# Velocity P-wave (km/s) = 6.70997 7.13508 6.92579
#
# Compressibility (1/GPa) = 0.02073757
#
# Stress axis : x y z
#
# Youngs Moduli (GPa) = 69.02481 88.77860 57.16427
#
# Poissons Ratio (x) = 0.33761 0.15084
# Poissons Ratio (y) = 0.26249 0.27508
# Poissons Ratio (z) = 0.18214 0.42721
#
# Static dielectric constant tensor:
#      x y z
#    x 3.768760 0.000000 -0.271430 
#    y 0.000000 3.784610 0.000000 
#    z -0.271430 0.000000 4.416510 
# 
# 
# High freq. dielectric constant tensor:
#      x y z
#    x 1.730920 0.000000 0.000220 
#    y 0.000000 1.759750 0.000000 
#    z 0.000220 0.000000 1.759710 
# 
# From -- ./inp_files/70646.got.cif
#   From: 2010.06.25/outbox.cif.g09.slc.cpg/sg11_36_cif.got.tgz:70646.got - 2010.06.27 23:14:04.
