data_PCOD8077677
_publ_section_title
;
Structure prediction by ZEFSAII (Michael W. Deem and Ramdas Pophale) SiO2 
 PCOD8077677
Probable space group: P 21/M
;
_chemical_formula_sum "Si O2"
_cell_formula_units_Z 24
_cell_length_a 17.202808
_cell_length_b 14.426636
_cell_length_c 8.580710
_cell_angle_alpha 90.000000
_cell_angle_beta 33.197977
_cell_angle_gamma 90.000000
_cell_volume 1165.999807
_symmetry_space_group_name_H-M "P 21/M"
_symmetry_group_IT_number 11
_symmetry_cell_setting 'monoclinic'
loop_
_space_group_symop_operation_xyz
x,y,z
-x,1/2+y,-z
-x,-y,-z
x,1/2-y,z
loop_
_atom_site_type_symbol
_atom_site_label
_atom_site_fract_x
_atom_site_fract_y
_atom_site_fract_z
Si Si1 0.042345 0.750000 0.888615
Si Si2 0.385230 0.442597 0.288137
Si Si3 0.928128 0.921633 0.222853
Si Si4 0.091731 0.924806 0.258618
Si Si5 0.531491 0.250000 0.024826
Si Si6 0.837212 0.250000 0.653352
Si Si7 0.649452 0.250000 0.480852
Si Si8 0.626580 0.049258 0.376483
O O1 0.081326 0.750000 0.644129
O O2 0.182900 0.750000 0.762355
O O3 0.938167 0.834853 0.092599
O O4 0.233911 0.442566 0.453613
O O5 0.440624 0.339448 0.223287
O O6 0.348442 0.493674 0.508500
O O7 0.500000 0.500000 0.000000
O O8 0.011081 0.894494 0.238936
O O9 0.000000 0.000000 0.000000
O O10 0.116321 0.838949 0.329388
O O11 0.242245 0.967278 0.958298
O O12 0.000000 0.000000 0.500000
O O13 0.669749 0.250000 0.901241
O O14 0.563052 0.250000 0.787401
O O15 0.607516 0.159079 0.449316
O O16 0.500000 0.000000 0.500000
#
# Coordination Sequence:
#
# PCOD8077677 Si02
#       8
#     2   4   4   4   2   2   2   4
#     4  11  22  44  73 102 138 186 243 291 350 429
#     4  12  26  46  73 110 137 189 249 289 356 425
#     4  12  24  45  74 101 140 187 239 294 345 427
#     4  12  26  44  70 106 142 187 235 292 364 417
#     4  11  25  44  75 102 144 187 238 296 349 439
#     4  11  26  44  73 106 143 185 236 296 363 425
#     4  11  21  46  71 102 137 196 237 281 370 423
#     4  12  26  45  72 103 146 188 237 302 359 432
#
# _framework density 20.583193000000001
#
# number of rings (size 3 to 8) (size 9 to 14) (size 15 to 20)
#    0.000    0.333    5.000    3.500    7.000    0.667 
#    0.000    0.833    0.000    0.000    0.000    0.000 
#    0.000    0.000    0.000    0.000    0.000    0.000 
#
# Total GULP energy -297607.134702 kJ/mol
# GULP energy per Si atom -12400.297279 kJ/mol
# Density = 2.053634 g / cm^3
# Si number density = 20.583193 Si / 1000 Ang^3
#
#
#
# Elastic Constant Matrix: (Units=GPa)
#
#
# Indices 1 2 3 4 5 6 
#
# 1 128.8575 53.5196 59.7282 0.0000 -9.5350 0.0000
# 2 53.5196 177.4280 85.1128 0.0000 2.6349 0.0000
# 3 59.7282 85.1128 158.1421 0.0000 -11.1502 0.0000
# 4 0.0000 0.0000 0.0000 41.8447 0.0000 3.3535
# 5 -9.5350 2.6349 -11.1502 0.0000 38.2654 0.0000
# 6 0.0000 0.0000 0.0000 3.3535 0.0000 41.2170
#
#
#
# Elastic Compliance Matrix: (Units=1/GPa)
#
#
# Indices 1 2 3 4 5 6 
#
# 1 0.009842 -0.001716 -0.002667 0.000000 0.001793 0.000000
# 2 -0.001716 0.008013 -0.003812 0.000000 -0.002090 0.000000
# 3 -0.002667 -0.003812 0.009550 0.000000 0.002381 0.000000
# 4 0.000000 0.000000 0.000000 0.024055 0.000000 -0.001957
# 5 0.001793 -0.002090 0.002381 0.000000 0.027418 0.000000
# 6 0.000000 0.000000 0.000000 -0.001957 0.000000 0.024421
#
#
# Mechanical properties :
#
#
# Convention : Reuss Voigt Hill
#
# Bulk Modulus (GPa) = 90.78287 95.68319 93.23303
# Shear Modulus (GPa) = 40.53101 42.00322 41.26711
#
# Velocity S-wave (km/s) = 4.44230 4.52226 4.48246
# Velocity P-wave (km/s) = 8.39721 8.59388 8.49612
#
# Compressibility (1/GPa) = 0.01101529
#
# Stress axis : x y z
#
# Youngs Moduli (GPa) = 101.60245 124.79052 104.70754
#
# Poissons Ratio (x) = 0.21413 0.27929
# Poissons Ratio (y) = 0.17434 0.39916
# Poissons Ratio (z) = 0.27101 0.47572
#
# Static dielectric constant tensor:
#      x y z
#    x 4.069870 0.000000 0.047360 
#    y 0.000000 3.872720 0.000000 
#    z 0.047360 0.000000 4.063690 
# 
# 
# High freq. dielectric constant tensor:
#      x y z
#    x 1.807710 0.000000 0.003880 
#    y 0.000000 1.822490 0.000000 
#    z 0.003880 0.000000 1.822150 
# 
# From -- ./inp_files/24898.got.cif
#   From: 2010.06.25/outbox.cif.g09.slc.cpg/sg11_13_cif.got.tgz:24898.got - 2010.06.27 23:14:04.
