data_PCOD8077533
_publ_section_title
;
Structure prediction by ZEFSAII (Michael W. Deem and Ramdas Pophale) SiO2 
 PCOD8077533
Probable space group: P 21/M
;
_chemical_formula_sum "Si O2"
_cell_formula_units_Z 32
_cell_length_a 24.127247
_cell_length_b 9.100134
_cell_length_c 30.393380
_cell_angle_alpha 90.000000
_cell_angle_beta 15.897169
_cell_angle_gamma 90.000000
_cell_volume 1827.869299
_symmetry_space_group_name_H-M "P 21/M"
_symmetry_group_IT_number 11
_symmetry_cell_setting 'monoclinic'
loop_
_space_group_symop_operation_xyz
x,y,z
-x,1/2+y,-z
-x,-y,-z
x,1/2-y,z
loop_
_atom_site_type_symbol
_atom_site_label
_atom_site_fract_x
_atom_site_fract_y
_atom_site_fract_z
Si Si1 0.409218 0.079625 0.611058
Si Si2 0.365635 0.075917 0.866101
Si Si3 0.225030 0.075871 0.456252
Si Si4 0.383912 0.578104 0.943746
Si Si5 0.014452 0.083042 0.867893
Si Si6 0.726076 0.920915 0.417215
Si Si7 0.001452 0.076749 0.712119
Si Si8 0.161493 0.080546 0.406105
O O1 0.467880 0.250000 0.564287
O O2 0.165446 0.059442 0.794350
O O3 0.500000 0.000000 0.500000
O O4 0.511622 0.006781 0.576000
O O5 0.385093 0.250000 0.851818
O O6 0.566872 0.006345 0.691501
O O7 0.330218 0.015765 0.942099
O O8 0.174482 0.026691 0.982535
O O9 0.266228 0.250000 0.425854
O O10 0.060197 0.024120 0.618243
O O11 0.144768 0.027519 0.469530
O O12 0.358170 0.750000 0.951029
O O13 0.613190 0.546781 0.784283
O O14 0.229008 0.528894 0.100573
O O15 0.933540 0.250000 0.928872
O O16 0.131591 0.049109 0.733202
O O17 0.674524 0.750000 0.461534
O O18 0.840358 0.985724 0.372784
O O19 0.015987 0.250000 0.703737
O O20 0.108500 0.250000 0.443204
O O21 0.000000 0.000000 0.500000
#
# Coordination Sequence:
#
# PCOD8077533 Si02
#       8
#     4   4   4   4   4   4   4   4
#     4   9  17  27  40  62  94 129 163 204 248 294
#     4  11  20  29  46  73 101 129 162 208 255 290
#     4   9  19  35  54  74  97 131 168 200 241 295
#     4   9  17  33  54  75  98 128 167 202 238 290
#     4   9  16  28  45  65  93 128 167 206 244 291
#     4   9  16  27  46  70  95 124 157 203 254 295
#     4   9  16  31  55  76  96 126 168 208 242 293
#     4   9  18  32  53  76 101 133 164 198 235 280
#
# _framework density 17.506722
#
# number of rings (size 3 to 8) (size 9 to 14) (size 15 to 20)
#    0.000    2.750    1.250    3.000    0.000    4.500 
#    0.000    1.875    0.000    0.750    0.000    0.000 
#    0.000    0.000    0.000    0.000    0.000    0.000 
#
# Total GULP energy -396610.596225 kJ/mol
# GULP energy per Si atom -12394.081132 kJ/mol
# Density = 1.746688 g / cm^3
# Si number density = 17.506722 Si / 1000 Ang^3
#
#
#
# Elastic Constant Matrix: (Units=GPa)
#
#
# Indices 1 2 3 4 5 6 
#
# 1 94.3181 29.2225 70.3481 0.0000 -12.4203 0.0000
# 2 29.2225 63.2978 40.6253 0.0000 -9.6805 0.0000
# 3 70.3481 40.6253 122.8276 0.0000 -3.8824 0.0000
# 4 0.0000 0.0000 0.0000 20.4880 0.0000 -10.7893
# 5 -12.4203 -9.6805 -3.8824 0.0000 32.2913 0.0000
# 6 0.0000 0.0000 0.0000 -10.7893 0.0000 23.7300
#
#
#
# Elastic Compliance Matrix: (Units=1/GPa)
#
#
# Indices 1 2 3 4 5 6 
#
# 1 0.019776 -0.001366 -0.010687 0.000000 0.005912 0.000000
# 2 -0.001366 0.021072 -0.006027 0.000000 0.005067 0.000000
# 3 -0.010687 -0.006027 0.016130 0.000000 -0.003978 0.000000
# 4 0.000000 0.000000 0.000000 0.064175 0.000000 0.029178
# 5 0.005912 0.005067 -0.003978 0.000000 0.034283 0.000000
# 6 0.000000 0.000000 0.000000 0.029178 0.000000 0.055407
#
#
# Mechanical properties :
#
#
# Convention : Reuss Voigt Hill
#
# Bulk Modulus (GPa) = 48.03841 62.31503 55.17672
# Shear Modulus (GPa) = 19.68945 24.65168 22.17056
#
# Velocity S-wave (km/s) = 3.35726 3.75657 3.56252
# Velocity P-wave (km/s) = 6.52134 7.38160 6.96476
#
# Compressibility (1/GPa) = 0.02081667
#
# Stress axis : x y z
#
# Youngs Moduli (GPa) = 50.56745 47.45585 61.99504
#
# Poissons Ratio (x) = 0.06484 0.66257
# Poissons Ratio (y) = 0.06909 0.37364
# Poissons Ratio (z) = 0.54044 0.28602
#
# Static dielectric constant tensor:
#      x y z
#    x 3.313190 0.000000 -0.134500 
#    y 0.000000 3.142100 0.000000 
#    z -0.134500 0.000000 3.492370 
# 
# 
# High freq. dielectric constant tensor:
#      x y z
#    x 1.652820 0.000000 -0.020150 
#    y 0.000000 1.659430 0.000000 
#    z -0.020150 0.000000 1.669600 
# 
# From -- ./inp_files/72029.got.cif
#   From: 2010.06.25/outbox.cif.g09.slc.cpg/sg11_37_cif.got.tgz:72029.got - 2010.06.27 23:14:04.
