data_PCOD8077177
_publ_section_title
;
Structure prediction by ZEFSAII (Michael W. Deem and Ramdas Pophale) SiO2 
 PCOD8077177
Probable space group: P 21/M
;
_chemical_formula_sum "Si O2"
_cell_formula_units_Z 28
_cell_length_a 27.119543
_cell_length_b 8.917667
_cell_length_c 9.374102
_cell_angle_alpha 90.000000
_cell_angle_beta 142.184225
_cell_angle_gamma 90.000000
_cell_volume 1389.991102
_symmetry_space_group_name_H-M "P 21/M"
_symmetry_group_IT_number 11
_symmetry_cell_setting 'monoclinic'
loop_
_space_group_symop_operation_xyz
x,y,z
-x,1/2+y,-z
-x,-y,-z
x,1/2-y,z
loop_
_atom_site_type_symbol
_atom_site_label
_atom_site_fract_x
_atom_site_fract_y
_atom_site_fract_z
Si Si1 0.008326 0.572754 0.674524
Si Si2 0.443156 0.421349 0.259711
Si Si3 0.705483 0.926280 0.665352
Si Si4 0.524160 0.572848 0.199798
Si Si5 0.161587 0.925928 0.208479
Si Si6 0.738479 0.920602 0.058086
Si Si7 0.869374 0.073362 0.538914
O O1 0.999183 0.750000 0.636128
O O2 0.941695 0.514432 0.630968
O O3 0.000000 0.500000 0.500000
O O4 0.093203 0.527999 0.938784
O O5 0.500000 0.500000 0.500000
O O6 0.470044 0.250000 0.302015
O O7 0.454138 0.512128 0.140626
O O8 0.352544 0.432206 0.102246
O O9 0.708400 0.750000 0.648539
O O10 0.613091 0.981386 0.450290
O O11 0.755091 0.000244 0.650226
O O12 0.744519 0.970499 0.906588
O O13 0.520011 0.750000 0.182727
O O14 0.500000 0.500000 0.000000
O O15 0.175161 0.750000 0.242736
O O16 0.138523 0.981266 0.315024
O O17 0.770286 0.750000 0.149393
O O18 0.788729 0.034445 0.268887
O O19 0.885835 0.250000 0.567354
#
# Coordination Sequence:
#
# PCOD8077177 Si02
#       7
#     4   4   4   4   4   4   4
#     4  11  23  42  67  94 124 161 202 247 300 361
#     4  11  22  40  64  91 123 164 211 262 316 373
#     4  10  22  41  62  86 120 161 204 250 305 366
#     4  11  24  42  61  89 124 164 211 262 318 377
#     4  10  24  42  61  90 126 160 201 249 300 358
#     4  10  22  41  62  88 122 161 206 253 306 367
#     4  11  24  41  62  93 126 159 201 250 302 360
#
# _framework density 20.144015
#
# number of rings (size 3 to 8) (size 9 to 14) (size 15 to 20)
#    0.000    1.429    1.429    3.000    2.000    7.429 
#    0.000    0.000    0.000    0.000    0.000    0.000 
#    0.000    0.000    0.000    0.000    0.000    0.000 
#
# Total GULP energy -347253.025866 kJ/mol
# GULP energy per Si atom -12401.893781 kJ/mol
# Density = 2.009817 g / cm^3
# Si number density = 20.144015 Si / 1000 Ang^3
#
#
#
# Elastic Constant Matrix: (Units=GPa)
#
#
# Indices 1 2 3 4 5 6 
#
# 1 136.7617 44.1457 33.0294 0.0000 -19.6046 0.0000
# 2 44.1457 73.3137 40.9690 0.0000 -3.1528 0.0000
# 3 33.0294 40.9690 81.7252 0.0000 -12.6716 0.0000
# 4 0.0000 0.0000 0.0000 34.8081 0.0000 -1.0385
# 5 -19.6046 -3.1528 -12.6716 0.0000 36.0086 0.0000
# 6 0.0000 0.0000 0.0000 -1.0385 0.0000 40.9128
#
#
#
# Elastic Compliance Matrix: (Units=1/GPa)
#
#
# Indices 1 2 3 4 5 6 
#
# 1 0.009874 -0.005447 -0.000529 0.000000 0.004712 0.000000
# 2 -0.005447 0.022062 -0.009539 0.000000 -0.004391 0.000000
# 3 -0.000529 -0.009539 0.018042 0.000000 0.005226 0.000000
# 4 0.000000 0.000000 0.000000 0.028751 0.000000 0.000730
# 5 0.004712 -0.004391 0.005226 0.000000 0.031791 0.000000
# 6 0.000000 0.000000 0.000000 0.000730 0.000000 0.024461
#
#
# Mechanical properties :
#
#
# Convention : Reuss Voigt Hill
#
# Bulk Modulus (GPa) = 52.77828 58.67654 55.72741
# Shear Modulus (GPa) = 29.01479 33.92301 31.46890
#
# Velocity S-wave (km/s) = 3.79933 4.10814 3.95675
# Velocity P-wave (km/s) = 6.74566 7.18986 6.97130
#
# Compressibility (1/GPa) = 0.01894719
#
# Stress axis : x y z
#
# Youngs Moduli (GPa) = 101.28063 45.32758 55.42583
#
# Poissons Ratio (x) = 0.24690 0.02933
# Poissons Ratio (y) = 0.55168 0.52870
# Poissons Ratio (z) = 0.05359 0.43238
#
# Static dielectric constant tensor:
#      x y z
#    x 3.706070 0.000000 -0.102560 
#    y 0.000000 3.777400 0.000000 
#    z -0.102560 0.000000 3.809620 
# 
# 
# High freq. dielectric constant tensor:
#      x y z
#    x 1.804690 0.000000 -0.004230 
#    y 0.000000 1.787760 0.000000 
#    z -0.004230 0.000000 1.795070 
# 
# From -- ./inp_files/28624.got.cif
#   From: 2010.06.25/outbox.cif.g09.slc.cpg/sg11_15_cif.got.tgz:28624.got - 2010.06.27 23:14:04.
