data_PCOD8077102
_publ_section_title
;
Structure prediction by ZEFSAII (Michael W. Deem and Ramdas Pophale) SiO2 
 PCOD8077102
Probable space group: P 21/M
;
_chemical_formula_sum "Si O2"
_cell_formula_units_Z 20
_cell_length_a 12.230282
_cell_length_b 8.782752
_cell_length_c 9.567051
_cell_angle_alpha 90.000000
_cell_angle_beta 101.301746
_cell_angle_gamma 90.000000
_cell_volume 1007.722408
_symmetry_space_group_name_H-M "P 21/M"
_symmetry_group_IT_number 11
_symmetry_cell_setting 'monoclinic'
loop_
_space_group_symop_operation_xyz
x,y,z
-x,1/2+y,-z
-x,-y,-z
x,1/2-y,z
loop_
_atom_site_type_symbol
_atom_site_label
_atom_site_fract_x
_atom_site_fract_y
_atom_site_fract_z
Si Si1 0.509550 0.430107 0.849316
Si Si2 0.680035 0.430107 0.387957
Si Si3 0.909233 0.923942 0.380437
Si Si4 0.050194 0.578550 0.145180
Si Si5 0.711313 0.069613 0.708690
O O1 0.503964 0.250000 0.862188
O O2 0.411186 0.484582 0.725631
O O3 0.625327 0.483269 0.806815
O O4 0.500000 0.500000 0.000000
O O5 0.662819 0.250000 0.369945
O O6 0.799339 0.474595 0.356356
O O7 0.671366 0.488518 0.546228
O O8 0.885784 0.750000 0.421727
O O9 0.954772 0.928953 0.236044
O O10 0.000000 0.000000 0.500000
O O11 0.079206 0.750000 0.110340
O O12 0.166317 0.500833 0.225568
O O13 0.000000 0.500000 0.000000
O O14 0.719244 0.250000 0.700307
#
# Coordination Sequence:
#
# PCOD8077102 Si02
#       5
#     4   4   4   4   4
#     4  11  24  42  63  91 123 159 204 253 306 362
#     4  11  22  41  66  90 121 161 203 252 305 360
#     4  11  22  39  63  93 126 158 200 249 300 363
#     4  10  22  40  60  89 124 161 199 245 300 359
#     4   9  20  41  64  86 120 161 202 249 302 359
#
# _framework density 19.846736
#
# number of rings (size 3 to 8) (size 9 to 14) (size 15 to 20)
#    0.000    1.600    2.000    2.400    2.800    1.600 
#    0.000    4.000    0.000    0.000    0.000    0.000 
#    0.000    0.000    0.000    0.000    0.000    0.000 
#
# Total GULP energy -248018.330592 kJ/mol
# GULP energy per Si atom -12400.916530 kJ/mol
# Density = 1.980156 g / cm^3
# Si number density = 19.846736 Si / 1000 Ang^3
#
#
#
# Elastic Constant Matrix: (Units=GPa)
#
#
# Indices 1 2 3 4 5 6 
#
# 1 127.7546 24.9346 63.6061 0.0000 -6.0616 0.0000
# 2 24.9346 58.6347 41.9427 0.0000 -7.7692 0.0000
# 3 63.6061 41.9427 165.4485 0.0000 4.3266 0.0000
# 4 0.0000 0.0000 0.0000 37.5745 0.0000 4.1880
# 5 -6.0616 -7.7692 4.3266 0.0000 32.3943 0.0000
# 6 0.0000 0.0000 0.0000 4.1880 0.0000 32.5979
#
#
#
# Elastic Compliance Matrix: (Units=1/GPa)
#
#
# Indices 1 2 3 4 5 6 
#
# 1 0.009953 -0.001461 -0.003508 0.000000 0.001981 0.000000
# 2 -0.001461 0.022160 -0.005206 0.000000 0.005737 0.000000
# 3 -0.003508 -0.005206 0.008793 0.000000 -0.003079 0.000000
# 4 0.000000 0.000000 0.000000 0.027000 0.000000 -0.003469
# 5 0.001981 0.005737 -0.003079 0.000000 0.033027 0.000000
# 6 0.000000 0.000000 0.000000 -0.003469 0.000000 0.031123
#
#
# Mechanical properties :
#
#
# Convention : Reuss Voigt Hill
#
# Bulk Modulus (GPa) = 48.64642 68.08942 58.36792
# Shear Modulus (GPa) = 31.39539 35.27028 33.33284
#
# Velocity S-wave (km/s) = 3.98162 4.22018 4.10263
# Velocity P-wave (km/s) = 6.76032 7.62421 7.20523
#
# Compressibility (1/GPa) = 0.02055650
#
# Stress axis : x y z
#
# Youngs Moduli (GPa) = 100.47114 45.12582 113.72526
#
# Poissons Ratio (x) = 0.06592 0.39893
# Poissons Ratio (y) = 0.14678 0.59208
# Poissons Ratio (z) = 0.35244 0.23493
#
# Static dielectric constant tensor:
#      x y z
#    x 2.358040 0.000000 1.350870 
#    y 0.000000 3.584850 0.000000 
#    z 1.350870 0.000000 2.161470 
# 
# 
# High freq. dielectric constant tensor:
#      x y z
#    x 1.789100 0.000000 0.000070 
#    y 0.000000 1.762110 0.000000 
#    z 0.000070 0.000000 1.785920 
# 
# From -- ./inp_files/15892.got.cif
#   From: 2010.06.25/outbox.cif.g09.slc.cpg/sg11_8_cif.got.tgz:15892.got - 2010.06.27 23:14:04.
