data_PCOD8077460
_publ_section_title
;
Structure prediction by ZEFSAII (Michael W. Deem and Ramdas Pophale) SiO2 
 PCOD8077460
Probable space group: P 21/M
;
_chemical_formula_sum "Si O2"
_cell_formula_units_Z 16
_cell_length_a 8.596965
_cell_length_b 16.990222
_cell_length_c 5.520862
_cell_angle_alpha 90.000000
_cell_angle_beta 123.135241
_cell_angle_gamma 90.000000
_cell_volume 675.266291
_symmetry_space_group_name_H-M "P 21/M"
_symmetry_group_IT_number 11
_symmetry_cell_setting 'monoclinic'
loop_
_space_group_symop_operation_xyz
x,y,z
-x,1/2+y,-z
-x,-y,-z
x,1/2-y,z
loop_
_atom_site_type_symbol
_atom_site_label
_atom_site_fract_x
_atom_site_fract_y
_atom_site_fract_z
Si Si1 0.249998 0.016016 0.999997
Si Si2 0.586639 0.109868 0.208017
Si Si3 0.913361 0.390131 0.791986
Si Si4 0.366936 0.250000 0.846923
Si Si5 0.866933 0.750000 0.846920
O O1 0.080116 0.073046 0.771989
O O2 0.311317 0.962956 0.830471
O O3 0.419883 0.073044 0.228007
O O4 0.188677 0.962957 0.169521
O O5 0.749998 0.152230 0.500003
O O6 0.498907 0.173272 0.949550
O O7 0.001095 0.326728 0.050454
O O8 0.250002 0.250000 0.500002
O O9 0.250001 0.250000 0.000001
#
# Coordination Sequence:
#
# PCOD8077460 Si02
#       5
#     4   4   4   2   2
#     4  10  24  42  72 110 144 180 246 298 362 430
#     4  11  24  45  74 104 145 189 243 293 370 423
#     4  11  24  45  74 104 145 189 243 293 370 423
#     4  12  29  49  74 105 150 192 246 300 357 430
#     4  12  29  49  74 105 150 192 246 300 357 430
#
# _framework density 23.694358000000001
#
# number of rings (size 3 to 8) (size 9 to 14) (size 15 to 20)
#    0.000    1.000    2.500    2.250    7.000    9.000 
#    0.000    0.000    0.000    0.000    0.000    0.000 
#    0.000    0.000    0.000    0.000    0.000    0.000 
#
# Total GULP energy -198282.672612 kJ/mol
# GULP energy per Si atom -12392.667038 kJ/mol
# Density = 2.364043 g / cm^3
# Si number density = 23.694358 Si / 1000 Ang^3
#
#
#
# Elastic Constant Matrix: (Units=GPa)
#
#
# Indices 1 2 3 4 5 6 
#
# 1 123.3287 44.8946 66.2135 0.0000 26.0167 0.0000
# 2 44.8946 142.2353 75.9787 0.0000 27.1886 0.0000
# 3 66.2135 75.9787 216.3759 0.0000 36.2272 0.0000
# 4 0.0000 0.0000 0.0000 31.4336 0.0000 -2.1896
# 5 26.0167 27.1886 36.2272 0.0000 42.4758 0.0000
# 6 0.0000 0.0000 0.0000 -2.1896 0.0000 -6.8454
#
#
#
# Elastic Compliance Matrix: (Units=1/GPa)
#
#
# Indices 1 2 3 4 5 6 
#
# 1 0.010560 -0.001511 -0.002076 0.000000 -0.003730 0.000000
# 2 -0.001511 0.009323 -0.002295 0.000000 -0.003085 0.000000
# 3 -0.002076 -0.002295 0.006537 0.000000 -0.002835 0.000000
# 4 0.000000 0.000000 0.000000 0.031120 0.000000 -0.009954
# 5 -0.003730 -0.003085 -0.002835 0.000000 0.030220 0.000000
# 6 0.000000 0.000000 0.000000 -0.009954 0.000000 -0.142899
#
#
# Mechanical properties :
#
#
# Convention : Reuss Voigt Hill
#
# Bulk Modulus (GPa) = 68.23087 95.12372 81.67729
# Shear Modulus (GPa) = -129.90832 33.06968 -48.41932
#
# Velocity S-wave (km/s) = -7.41254 3.73993 -4.52541
# Velocity P-wave (km/s) = 6.66350 7.67351 2.69078
#
# Compressibility (1/GPa) = 0.01465612
#
# Stress axis : x y z
#
# Youngs Moduli (GPa) = 94.69593 107.26091 152.96430
#
# Poissons Ratio (x) = 0.16207 0.31762
# Poissons Ratio (y) = 0.14308 0.35103
# Poissons Ratio (z) = 0.19663 0.24615
#
# Static dielectric constant tensor:
#      x y z
#    x 4.745380 0.000000 0.690760 
#    y 0.000000 4.460530 0.000000 
#    z 0.690760 0.000000 4.139760 
# 
# 
# High freq. dielectric constant tensor:
#      x y z
#    x 1.943450 0.000000 0.039390 
#    y 0.000000 1.953600 0.000000 
#    z 0.039390 0.000000 1.923580 
# 
# From -- ./inp_files/1830.got.cif
#   From: 2010.06.25/outbox.cif.g09.slc.cpg/sg11_1_cif.got.tgz:1830.got - 2010.06.27 23:14:04.
