data_PCOD8077718
_publ_section_title
;
Structure prediction by ZEFSAII (Michael W. Deem and Ramdas Pophale) SiO2 
 PCOD8077718
Probable space group: P 21/M
;
_chemical_formula_sum "Si O2"
_cell_formula_units_Z 28
_cell_length_a 19.177930
_cell_length_b 14.258374
_cell_length_c 7.600942
_cell_angle_alpha 90.000000
_cell_angle_beta 141.998215
_cell_angle_gamma 90.000000
_cell_volume 1279.671347
_symmetry_space_group_name_H-M "P 21/M"
_symmetry_group_IT_number 11
_symmetry_cell_setting 'monoclinic'
loop_
_space_group_symop_operation_xyz
x,y,z
-x,1/2+y,-z
-x,-y,-z
x,1/2-y,z
loop_
_atom_site_type_symbol
_atom_site_label
_atom_site_fract_x
_atom_site_fract_y
_atom_site_fract_z
Si Si1 0.211074 0.146331 0.037719
Si Si2 0.694830 0.139503 0.525390
Si Si3 0.037104 0.638868 0.408491
Si Si4 0.746672 0.452966 0.291393
Si Si5 0.625981 0.019463 0.692076
Si Si6 0.172990 0.351964 0.550811
Si Si7 0.929445 0.141351 0.136440
O O1 0.250559 0.250000 0.182309
O O2 0.176078 0.154753 0.766302
O O3 0.094225 0.116119 0.906605
O O4 0.312655 0.072814 0.266365
O O5 0.678251 0.250000 0.493532
O O6 0.668477 0.101151 0.277141
O O7 0.613878 0.096337 0.513621
O O8 0.821015 0.101249 0.819492
O O9 0.058102 0.750000 0.438669
O O10 0.125195 0.587792 0.453612
O O11 0.061195 0.596060 0.650984
O O12 0.747525 0.562825 0.353626
O O13 0.693856 0.439127 0.993295
O O14 0.500000 0.000000 0.500000
O O15 0.210762 0.250000 0.546074
O O16 0.041982 0.374269 0.242613
O O17 0.907805 0.250000 0.124749
#
# Coordination Sequence:
#
# PCOD8077718 Si02
#       7
#     4   4   4   4   4   4   4
#     4   8  17  35  60  89 121 159 205 256 312 371
#     4  11  24  40  60  93 127 157 202 257 306 362
#     4   9  16  31  58  91 126 159 194 244 308 379
#     4  11  22  36  64  92 122 163 202 245 309 378
#     4  11  25  43  65  88 119 165 215 262 305 359
#     4   8  16  31  53  84 123 164 197 241 300 364
#     4   8  15  30  52  81 121 158 193 237 293 358
#
# _framework density 21.880617999999998
#
# number of rings (size 3 to 8) (size 9 to 14) (size 15 to 20)
#    0.000    2.571    1.429    2.143    2.000    4.000 
#    0.000    0.714    0.000    0.000    0.000    0.000 
#    0.000    0.000    0.000    0.000    0.000    0.000 
#
# Total GULP energy -347003.609377 kJ/mol
# GULP energy per Si atom -12392.986049 kJ/mol
# Density = 2.183082 g / cm^3
# Si number density = 21.880618 Si / 1000 Ang^3
#
#
#
# Elastic Constant Matrix: (Units=GPa)
#
#
# Indices 1 2 3 4 5 6 
#
# 1 113.4346 67.2502 30.8524 0.0000 7.2318 0.0000
# 2 67.2502 123.0609 32.0111 0.0000 6.6987 0.0000
# 3 30.8524 32.0111 38.4028 0.0000 20.6813 0.0000
# 4 0.0000 0.0000 0.0000 19.2945 0.0000 -0.3006
# 5 7.2318 6.6987 20.6813 0.0000 22.7385 0.0000
# 6 0.0000 0.0000 0.0000 -0.3006 0.0000 29.0200
#
#
#
# Elastic Compliance Matrix: (Units=1/GPa)
#
#
# Indices 1 2 3 4 5 6 
#
# 1 0.014597 -0.005551 -0.010743 0.000000 0.006763 0.000000
# 2 -0.005551 0.013631 -0.011155 0.000000 0.007896 0.000000
# 3 -0.010743 -0.011155 0.079107 0.000000 -0.065247 0.000000
# 4 0.000000 0.000000 0.000000 0.051837 0.000000 0.000537
# 5 0.006763 0.007896 -0.065247 0.000000 0.098845 0.000000
# 6 0.000000 0.000000 0.000000 0.000537 0.000000 0.034465
#
#
# Mechanical properties :
#
#
# Convention : Reuss Voigt Hill
#
# Bulk Modulus (GPa) = 19.07014 59.45841 39.26428
# Shear Modulus (GPa) = 13.70394 23.86289 18.78341
#
# Velocity S-wave (km/s) = 2.50532 3.30600 2.93311
# Velocity P-wave (km/s) = 4.13562 6.46574 5.42721
#
# Compressibility (1/GPa) = 0.05243799
#
# Stress axis : x y z
#
# Youngs Moduli (GPa) = 68.50696 73.35999 12.64112
#
# Poissons Ratio (x) = 0.40720 0.13580
# Poissons Ratio (y) = 0.38026 0.14102
# Poissons Ratio (z) = 0.73594 0.81836
#
# Static dielectric constant tensor:
#      x y z
#    x 3.654190 0.000000 -0.065680 
#    y 0.000000 4.139780 0.000000 
#    z -0.065680 0.000000 3.709060 
# 
# 
# High freq. dielectric constant tensor:
#      x y z
#    x 1.835700 0.000000 -0.005910 
#    y 0.000000 1.867310 0.000000 
#    z -0.005910 0.000000 1.817980 
# 
# From -- ./inp_files/24958.got.cif
#   From: 2010.06.25/outbox.cif.g09.slc.cpg/sg11_13_cif.got.tgz:24958.got - 2010.06.27 23:14:04.
