data_PCOD8077158
_publ_section_title
;
Structure prediction by ZEFSAII (Michael W. Deem and Ramdas Pophale) SiO2 
 PCOD8077158
Probable space group: P 21/M
;
_chemical_formula_sum "Si O2"
_cell_formula_units_Z 24
_cell_length_a 5.450129
_cell_length_b 20.232853
_cell_length_c 10.993747
_cell_angle_alpha 90.000000
_cell_angle_beta 114.549354
_cell_angle_gamma 90.000000
_cell_volume 1102.711426
_symmetry_space_group_name_H-M "P 21/M"
_symmetry_group_IT_number 11
_symmetry_cell_setting 'monoclinic'
loop_
_space_group_symop_operation_xyz
x,y,z
-x,1/2+y,-z
-x,-y,-z
x,1/2-y,z
loop_
_atom_site_type_symbol
_atom_site_label
_atom_site_fract_x
_atom_site_fract_y
_atom_site_fract_z
Si Si1 0.980145 0.176680 0.604091
Si Si2 0.478661 0.933742 0.916897
Si Si3 0.187111 0.061371 0.508512
Si Si4 0.708775 0.096180 0.737835
Si Si5 0.132294 0.041782 0.229396
Si Si6 0.479796 0.324243 0.889111
O O1 0.902625 0.250000 0.542966
O O2 0.735480 0.145195 0.629188
O O3 0.037194 0.131513 0.498884
O O4 0.227045 0.179024 0.748138
O O5 0.665548 0.936411 0.835894
O O6 0.159132 0.922636 0.826239
O O7 0.587533 0.868393 0.007791
O O8 0.500000 0.000000 0.000000
O O9 0.430246 0.056765 0.655557
O O10 0.281227 0.058058 0.387815
O O11 0.000000 0.000000 0.500000
O O12 0.717282 0.138575 0.863490
O O13 0.929493 0.037611 0.794206
O O14 0.568950 0.250000 0.945324
#
# Coordination Sequence:
#
# PCOD8077158 Si02
#       6
#     4   4   4   4   4   4
#     4  10  22  40  66  96 128 167 217 277 328 385
#     4  12  25  42  65  95 133 172 218 267 320 387
#     4  11  23  40  65  98 133 167 216 269 337 395
#     4  11  21  38  69  96 127 164 219 281 330 381
#     4  12  25  40  67  98 131 168 215 268 327 391
#     4  10  23  42  64  94 128 170 221 272 326 382
#
# _framework density 21.764534000000001
#
# number of rings (size 3 to 8) (size 9 to 14) (size 15 to 20)
#    0.000    1.000    3.333    3.500    4.667    0.667 
#    0.000    1.667    0.000    0.000    0.000    0.000 
#    0.000    0.000    0.000    0.000    0.000    0.000 
#
# Total GULP energy -297523.445016 kJ/mol
# GULP energy per Si atom -12396.810209 kJ/mol
# Density = 2.171500 g / cm^3
# Si number density = 21.764534 Si / 1000 Ang^3
#
#
#
# Elastic Constant Matrix: (Units=GPa)
#
#
# Indices 1 2 3 4 5 6 
#
# 1 119.0161 44.5313 30.6585 0.0000 -32.5890 0.0000
# 2 44.5313 187.2857 41.8636 0.0000 -28.1501 0.0000
# 3 30.6585 41.8636 64.7811 0.0000 -33.3873 0.0000
# 4 0.0000 0.0000 0.0000 29.6301 0.0000 -12.2896
# 5 -32.5890 -28.1501 -33.3873 0.0000 45.9458 0.0000
# 6 0.0000 0.0000 0.0000 -12.2896 0.0000 30.9678
#
#
#
# Elastic Compliance Matrix: (Units=1/GPa)
#
#
# Indices 1 2 3 4 5 6 
#
# 1 0.010875 -0.001430 -0.001117 0.000000 0.006026 0.000000
# 2 -0.001430 0.006488 -0.003182 0.000000 0.000649 0.000000
# 3 -0.001117 -0.003182 0.026553 0.000000 0.016553 0.000000
# 4 0.000000 0.000000 0.000000 0.040399 0.000000 0.016033
# 5 0.006026 0.000649 0.016553 0.000000 0.038465 0.000000
# 6 0.000000 0.000000 0.000000 0.016033 0.000000 0.038654
#
#
# Mechanical properties :
#
#
# Convention : Reuss Voigt Hill
#
# Bulk Modulus (GPa) = 30.80893 67.24331 49.02612
# Shear Modulus (GPa) = 27.21656 38.24402 32.73029
#
# Velocity S-wave (km/s) = 3.54008 4.19641 3.88214
# Velocity P-wave (km/s) = 5.55840 7.37853 6.53217
#
# Compressibility (1/GPa) = 0.03245812
#
# Stress axis : x y z
#
# Youngs Moduli (GPa) = 91.95326 154.12515 37.66101
#
# Poissons Ratio (x) = 0.22047 0.04206
# Poissons Ratio (y) = 0.13154 0.11982
# Poissons Ratio (z) = 0.10270 0.49037
#
# Static dielectric constant tensor:
#      x y z
#    x 4.051660 0.000000 -0.107170 
#    y 0.000000 4.264550 0.000000 
#    z -0.107170 0.000000 3.904910 
# 
# 
# High freq. dielectric constant tensor:
#      x y z
#    x 1.863090 0.000000 -0.009780 
#    y 0.000000 1.853100 0.000000 
#    z -0.009780 0.000000 1.832840 
# 
# From -- ./inp_files/29914.got.cif
#   From: 2010.06.25/outbox.cif.g09.slc.cpg/sg11_15_cif.got.tgz:29914.got - 2010.06.27 23:14:04.
