data_PCOD8077202
_publ_section_title
;
Structure prediction by ZEFSAII (Michael W. Deem and Ramdas Pophale) SiO2 
 PCOD8077202
Probable space group: P 21/M
;
_chemical_formula_sum "Si O2"
_cell_formula_units_Z 32
_cell_length_a 23.933265
_cell_length_b 8.685996
_cell_length_c 14.176631
_cell_angle_alpha 90.000000
_cell_angle_beta 146.896873
_cell_angle_gamma 90.000000
_cell_volume 1609.550855
_symmetry_space_group_name_H-M "P 21/M"
_symmetry_group_IT_number 11
_symmetry_cell_setting 'monoclinic'
loop_
_space_group_symop_operation_xyz
x,y,z
-x,1/2+y,-z
-x,-y,-z
x,1/2-y,z
loop_
_atom_site_type_symbol
_atom_site_label
_atom_site_fract_x
_atom_site_fract_y
_atom_site_fract_z
Si Si1 0.527107 0.067607 0.824110
Si Si2 0.923554 0.931419 0.017987
Si Si3 0.712257 0.932314 0.195441
Si Si4 0.869430 0.567754 0.734400
Si Si5 0.888378 0.068771 0.332201
Si Si6 0.207096 0.070151 0.987832
Si Si7 0.671829 0.567152 0.348140
Si Si8 0.554657 0.569014 0.667382
O O1 0.540756 0.250000 0.849378
O O2 0.433969 0.007714 0.757147
O O3 0.504591 0.016023 0.685917
O O4 0.629994 0.985342 0.002671
O O5 0.937618 0.750000 0.036357
O O6 0.874906 0.989534 0.850452
O O7 0.849972 0.984048 0.998081
O O8 0.034585 0.006317 0.189711
O O9 0.721617 0.750000 0.205744
O O10 0.679708 0.993592 0.252360
O O11 0.821415 0.003464 0.323649
O O12 0.870051 0.750000 0.729439
O O13 0.766184 0.500348 0.542285
O O14 0.894977 0.250000 0.351025
O O15 0.000000 0.000000 0.500000
O O16 0.837991 0.025796 0.161766
O O17 0.189673 0.250000 0.942364
O O18 0.325527 0.031118 0.169144
O O19 0.674761 0.750000 0.354751
O O20 0.500000 0.500000 0.500000
O O21 0.534180 0.750000 0.645272
#
# Coordination Sequence:
#
# PCOD8077202 Si02
#       8
#     4   4   4   4   4   4   4   4
#     4  11  22  40  64  90 120 160 206 251 308 371
#     4   9  19  35  58  84 116 154 194 240 294 353
#     4  11  22  41  63  89 124 160 202 253 309 365
#     4   9  18  36  58  84 116 153 194 242 295 350
#     4  12  26  43  65  92 124 164 207 257 312 372
#     4  10  22  41  64  91 124 163 204 250 308 369
#     4   9  21  37  61  89 117 157 204 250 301 363
#     4  11  24  41  64  92 126 166 207 259 312 369
#
# _framework density 19.881322000000001
#
# number of rings (size 3 to 8) (size 9 to 14) (size 15 to 20)
#    0.000    1.750    1.250    2.625    3.500    1.000 
#    0.000    3.750    0.000    0.000    0.000    0.000 
#    0.000    0.000    0.000    0.000    0.000    0.000 
#
# Total GULP energy -396940.501213 kJ/mol
# GULP energy per Si atom -12404.390663 kJ/mol
# Density = 1.983607 g / cm^3
# Si number density = 19.881322 Si / 1000 Ang^3
#
#
#
# Elastic Constant Matrix: (Units=GPa)
#
#
# Indices 1 2 3 4 5 6 
#
# 1 165.6402 44.8472 54.8038 0.0000 12.5772 0.0000
# 2 44.8472 75.4024 39.8979 0.0000 7.0313 0.0000
# 3 54.8038 39.8979 121.9857 0.0000 10.6327 0.0000
# 4 0.0000 0.0000 0.0000 31.1979 0.0000 4.3477
# 5 12.5772 7.0313 10.6327 0.0000 30.7995 0.0000
# 6 0.0000 0.0000 0.0000 4.3477 0.0000 23.2712
#
#
#
# Elastic Compliance Matrix: (Units=1/GPa)
#
#
# Indices 1 2 3 4 5 6 
#
# 1 0.007808 -0.003277 -0.002292 0.000000 -0.001649 0.000000
# 2 -0.003277 0.017523 -0.004152 0.000000 -0.001229 0.000000
# 3 -0.002292 -0.004152 0.010745 0.000000 -0.001825 0.000000
# 4 0.000000 0.000000 0.000000 0.032910 0.000000 -0.006149
# 5 -0.001649 -0.001229 -0.001825 0.000000 0.034052 0.000000
# 6 0.000000 0.000000 0.000000 -0.006149 0.000000 0.044120
#
#
# Mechanical properties :
#
#
# Convention : Reuss Voigt Hill
#
# Bulk Modulus (GPa) = 60.12198 71.34736 65.73467
# Shear Modulus (GPa) = 29.04526 31.95236 30.49881
#
# Velocity S-wave (km/s) = 3.82636 4.01328 3.92094
# Velocity P-wave (km/s) = 7.05886 7.57890 7.32350
#
# Compressibility (1/GPa) = 0.01663285
#
# Stress axis : x y z
#
# Youngs Moduli (GPa) = 128.07104 57.06831 93.07083
#
# Poissons Ratio (x) = 0.18704 0.21334
# Poissons Ratio (y) = 0.41974 0.38640
# Poissons Ratio (z) = 0.29357 0.23693
#
# Static dielectric constant tensor:
#      x y z
#    x 3.935120 0.000000 -0.062220 
#    y 0.000000 3.453420 0.000000 
#    z -0.062220 0.000000 3.114950 
# 
# 
# High freq. dielectric constant tensor:
#      x y z
#    x 1.792060 0.000000 0.001590 
#    y 0.000000 1.763370 0.000000 
#    z 0.001590 0.000000 1.783340 
# 
# From -- ./inp_files/55756.got.cif
#   From: 2010.06.25/outbox.cif.g09.slc.cpg/sg11_28_cif.got.tgz:55756.got - 2010.06.27 23:14:04.
