data_PCOD8077574
_publ_section_title
;
Structure prediction by ZEFSAII (Michael W. Deem and Ramdas Pophale) SiO2 
 PCOD8077574
Probable space group: P 21/M
;
_chemical_formula_sum "Si O2"
_cell_formula_units_Z 18
_cell_length_a 19.475715
_cell_length_b 9.967321
_cell_length_c 8.918941
_cell_angle_alpha 90.000000
_cell_angle_beta 151.182467
_cell_angle_gamma 90.000000
_cell_volume 834.548988
_symmetry_space_group_name_H-M "P 21/M"
_symmetry_group_IT_number 11
_symmetry_cell_setting 'monoclinic'
loop_
_space_group_symop_operation_xyz
x,y,z
-x,1/2+y,-z
-x,-y,-z
x,1/2-y,z
loop_
_atom_site_type_symbol
_atom_site_label
_atom_site_fract_x
_atom_site_fract_y
_atom_site_fract_z
Si Si1 0.668811 0.538056 0.544070
Si Si2 0.566326 0.250000 0.296395
Si Si3 0.437581 0.750000 0.065932
Si Si4 0.767403 0.750000 0.269685
Si Si5 0.830113 0.750000 0.046699
Si Si6 0.143013 0.750000 0.548266
Si Si7 0.859519 0.984945 0.636210
O O1 0.638544 0.380153 0.516248
O O2 0.520438 0.615385 0.267058
O O3 0.728800 0.555481 0.492127
O O4 0.779107 0.611886 0.868751
O O5 0.600423 0.250000 0.184368
O O6 0.396501 0.250000 0.993356
O O7 0.302132 0.750000 0.923670
O O8 0.768090 0.750000 0.092637
O O9 0.859275 0.875478 0.504495
O O10 0.003842 0.750000 0.386607
O O11 0.155487 0.626557 0.463854
O O12 0.000000 0.000000 0.000000
#
# Coordination Sequence:
#
# PCOD8077574 Si02
#       7
#     4   2   2   2   2   2   4
#     4  11  22  43  70 100 136 169 233 283 340 378
#     4  12  21  38  73 104 126 176 229 289 326 398
#     4  11  20  36  70 104 127 173 223 295 326 389
#     4  12  27  44  68  97 144 177 223 264 356 403
#     4  11  27  47  61  97 146 190 209 275 333 422
#     4  12  23  39  68 100 135 168 234 273 341 382
#     4  12  22  41  72 100 125 175 224 289 322 393
#
# _framework density 21.568535000000001
#
# number of rings (size 3 to 8) (size 9 to 14) (size 15 to 20)
#    0.000    0.444    6.667    3.333    0.000    1.778 
#    0.000    1.111    0.000    0.000    0.000    0.000 
#    0.000    0.000    0.000    0.000    0.000    0.000 
#
# Total GULP energy -223012.574961 kJ/mol
# GULP energy per Si atom -12389.587498 kJ/mol
# Density = 2.151944 g / cm^3
# Si number density = 21.568535 Si / 1000 Ang^3
#
#
#
# Elastic Constant Matrix: (Units=GPa)
#
#
# Indices 1 2 3 4 5 6 
#
# 1 78.9789 33.4878 31.2449 0.0000 9.7134 0.0000
# 2 33.4878 183.8542 46.0271 0.0000 -3.7783 0.0000
# 3 31.2449 46.0271 69.5853 0.0000 27.9137 0.0000
# 4 0.0000 0.0000 0.0000 39.4206 0.0000 6.4865
# 5 9.7134 -3.7783 27.9137 0.0000 44.1256 0.0000
# 6 0.0000 0.0000 0.0000 6.4865 0.0000 14.2448
#
#
#
# Elastic Compliance Matrix: (Units=1/GPa)
#
#
# Indices 1 2 3 4 5 6 
#
# 1 0.015662 -0.001235 -0.006419 0.000000 0.000507 0.000000
# 2 -0.001235 0.007324 -0.006231 0.000000 0.004841 0.000000
# 3 -0.006419 -0.006231 0.028171 0.000000 -0.016941 0.000000
# 4 0.000000 0.000000 0.000000 0.027422 0.000000 -0.012487
# 5 0.000507 0.004841 -0.016941 0.000000 0.033682 0.000000
# 6 0.000000 0.000000 0.000000 -0.012487 0.000000 0.075887
#
#
# Mechanical properties :
#
#
# Convention : Reuss Voigt Hill
#
# Bulk Modulus (GPa) = 42.76195 61.54867 52.15531
# Shear Modulus (GPa) = 22.34987 34.33543 28.34265
#
# Velocity S-wave (km/s) = 3.22254 3.99422 3.62895
# Velocity P-wave (km/s) = 5.80650 7.06187 6.46473
#
# Compressibility (1/GPa) = 0.02338528
#
# Stress axis : x y z
#
# Youngs Moduli (GPa) = 63.84684 136.54456 35.49794
#
# Poissons Ratio (x) = 0.16870 0.22786
# Poissons Ratio (y) = 0.07888 0.22120
# Poissons Ratio (z) = 0.40982 0.85086
#
# Static dielectric constant tensor:
#      x y z
#    x 3.792960 0.000000 0.295300 
#    y 0.000000 4.213540 0.000000 
#    z 0.295300 0.000000 3.707710 
# 
# 
# High freq. dielectric constant tensor:
#      x y z
#    x 1.825670 0.000000 0.028890 
#    y 0.000000 1.870400 0.000000 
#    z 0.028890 0.000000 1.845540 
# 
# From -- ./inp_files/25665.got.cif
#   From: 2010.06.25/outbox.cif.g09.slc.cpg/sg11_13_cif.got.tgz:25665.got - 2010.06.27 23:14:04.
