data_PCOD8077172
_publ_section_title
;
Structure prediction by ZEFSAII (Michael W. Deem and Ramdas Pophale) SiO2 
 PCOD8077172
Probable space group: P 21/M
;
_chemical_formula_sum "Si O2"
_cell_formula_units_Z 28
_cell_length_a 27.526492
_cell_length_b 8.811973
_cell_length_c 9.758005
_cell_angle_alpha 90.000000
_cell_angle_beta 37.706559
_cell_angle_gamma 90.000000
_cell_volume 1447.654902
_symmetry_space_group_name_H-M "P 21/M"
_symmetry_group_IT_number 11
_symmetry_cell_setting 'monoclinic'
loop_
_space_group_symop_operation_xyz
x,y,z
-x,1/2+y,-z
-x,-y,-z
x,1/2-y,z
loop_
_atom_site_type_symbol
_atom_site_label
_atom_site_fract_x
_atom_site_fract_y
_atom_site_fract_z
Si Si1 0.017763 0.929015 0.815609
Si Si2 0.802396 0.073120 0.656705
Si Si3 0.938229 0.429760 0.742317
Si Si4 0.671713 0.073519 0.733629
Si Si5 0.344195 0.925636 0.544391
Si Si6 0.482498 0.424037 0.896459
Si Si7 0.220128 0.072224 0.010959
O O1 0.004530 0.750000 0.848919
O O2 0.106514 0.971184 0.571360
O O3 0.954788 0.005144 0.855082
O O4 0.000000 0.000000 0.000000
O O5 0.793833 0.250000 0.713222
O O6 0.753337 0.032686 0.628887
O O7 0.768137 0.973831 0.857237
O O8 0.947204 0.250000 0.721125
O O9 0.850148 0.474398 0.897031
O O10 0.000000 0.500000 0.500000
O O11 0.653956 0.250000 0.774298
O O12 0.676151 0.018760 0.565452
O O13 0.598276 0.998307 0.982035
O O14 0.318468 0.750000 0.619666
O O15 0.437960 0.945575 0.371958
O O16 0.299346 0.032737 0.750994
O O17 0.464132 0.250000 0.962497
O O18 0.500000 0.500000 0.000000
O O19 0.201386 0.250000 0.042076
#
# Coordination Sequence:
#
# PCOD8077172 Si02
#       7
#     4   4   4   4   4   4   4
#     4  11  24  41  63  91 121 157 198 243 295 348
#     4  10  22  41  61  83 118 160 194 236 297 352
#     4  12  24  42  65  87 116 156 200 244 294 352
#     4   9  19  36  60  88 116 152 193 237 294 348
#     4   9  19  36  59  86 117 152 192 239 291 347
#     4   9  17  32  56  85 116 152 190 235 290 343
#     4  12  25  39  59  88 118 154 199 244 294 347
#
# _framework density 19.341626999999999
#
# number of rings (size 3 to 8) (size 9 to 14) (size 15 to 20)
#    0.000    1.714    1.429    4.286    2.000    4.000 
#    0.000    0.714    0.000    0.000    0.000    0.000 
#    0.000    0.000    0.000    0.000    0.000    0.000 
#
# Total GULP energy -347201.802032 kJ/mol
# GULP energy per Si atom -12400.064358 kJ/mol
# Density = 1.929760 g / cm^3
# Si number density = 19.341627 Si / 1000 Ang^3
#
#
#
# Elastic Constant Matrix: (Units=GPa)
#
#
# Indices 1 2 3 4 5 6 
#
# 1 58.8658 25.8695 23.0584 0.0000 8.8414 0.0000
# 2 25.8695 99.2599 46.4123 0.0000 5.6377 0.0000
# 3 23.0584 46.4123 101.0939 0.0000 8.5903 0.0000
# 4 0.0000 0.0000 0.0000 35.8089 0.0000 -1.2145
# 5 8.8414 5.6377 8.5903 0.0000 31.6689 0.0000
# 6 0.0000 0.0000 0.0000 -1.2145 0.0000 31.9006
#
#
#
# Elastic Compliance Matrix: (Units=1/GPa)
#
#
# Indices 1 2 3 4 5 6 
#
# 1 0.020316 -0.003890 -0.002482 0.000000 -0.004306 0.000000
# 2 -0.003890 0.013588 -0.005362 0.000000 0.000121 0.000000
# 3 -0.002482 -0.005362 0.013081 0.000000 -0.001901 0.000000
# 4 0.000000 0.000000 0.000000 0.027962 0.000000 0.001065
# 5 -0.004306 0.000121 -0.001901 0.000000 0.033273 0.000000
# 6 0.000000 0.000000 0.000000 0.001065 0.000000 0.031388
#
#
# Mechanical properties :
#
#
# Convention : Reuss Voigt Hill
#
# Bulk Modulus (GPa) = 42.51940 49.98891 46.25416
# Shear Modulus (GPa) = 29.25428 30.80097 30.02763
#
# Velocity S-wave (km/s) = 3.89331 3.99491 3.94444
# Velocity P-wave (km/s) = 6.49935 6.86880 6.68663
#
# Compressibility (1/GPa) = 0.02351868
#
# Stress axis : x y z
#
# Youngs Moduli (GPa) = 49.22164 73.59227 76.44687
#
# Poissons Ratio (x) = 0.28625 0.18976
# Poissons Ratio (y) = 0.19146 0.40987
# Poissons Ratio (z) = 0.12218 0.39457
#
# Static dielectric constant tensor:
#      x y z
#    x 3.950650 0.000000 -0.378220 
#    y 0.000000 3.697610 0.000000 
#    z -0.378220 0.000000 3.826950 
# 
# 
# High freq. dielectric constant tensor:
#      x y z
#    x 1.748340 0.000000 -0.012440 
#    y 0.000000 1.757610 0.000000 
#    z -0.012440 0.000000 1.753010 
# 
# From -- ./inp_files/28310.got.cif
#   From: 2010.06.25/outbox.cif.g09.slc.cpg/sg11_15_cif.got.tgz:28310.got - 2010.06.27 23:14:04.
