data_PCOD8077287
_publ_section_title
;
Structure prediction by ZEFSAII (Michael W. Deem and Ramdas Pophale) SiO2 
 PCOD8077287
Probable space group: P 21/M
;
_chemical_formula_sum "Si O2"
_cell_formula_units_Z 16
_cell_length_a 9.182401
_cell_length_b 12.516010
_cell_length_c 5.530569
_cell_angle_alpha 90.000000
_cell_angle_beta 78.198616
_cell_angle_gamma 90.000000
_cell_volume 622.176552
_symmetry_space_group_name_H-M "P 21/M"
_symmetry_group_IT_number 11
_symmetry_cell_setting 'monoclinic'
loop_
_space_group_symop_operation_xyz
x,y,z
-x,1/2+y,-z
-x,-y,-z
x,1/2-y,z
loop_
_atom_site_type_symbol
_atom_site_label
_atom_site_fract_x
_atom_site_fract_y
_atom_site_fract_z
Si Si1 0.616911 0.455935 0.647425
Si Si2 0.944627 0.625725 0.137646
Si Si3 0.351084 0.368798 0.000571
Si Si4 0.924160 0.125674 0.407752
O O1 0.500000 0.500000 0.500000
O O2 0.691502 0.553089 0.767099
O O3 0.746115 0.386691 0.482420
O O4 0.521870 0.381585 0.861404
O O5 0.991382 0.750000 0.126241
O O6 0.765918 0.610286 0.178413
O O7 0.024151 0.573976 0.868628
O O8 0.995708 0.574517 0.378515
O O9 0.328161 0.250000 0.111079
O O10 0.967287 0.250000 0.384773
#
# Coordination Sequence:
#
# PCOD8077287 Si02
#       4
#     4   4   4   4
#     4  11  26  42  64 100 130 178 223 268 336 398
#     4   9  21  41  68  98 130 177 222 271 333 389
#     4  10  24  45  66  93 133 173 221 277 333 398
#     4  10  22  42  68  98 135 174 222 274 328 392
#
# _framework density 25.716176000000001
#
# number of rings (size 3 to 8) (size 9 to 14) (size 15 to 20)
#    0.000    2.000    0.000    0.750   10.500    4.000 
#    0.000    0.000    0.000    0.000    0.000    0.000 
#    0.000    0.000    0.000    0.000    0.000    0.000 
#
# Total GULP energy -198479.890641 kJ/mol
# GULP energy per Si atom -12404.993165 kJ/mol
# Density = 2.565764 g / cm^3
# Si number density = 25.716176 Si / 1000 Ang^3
#
#
#
# Elastic Constant Matrix: (Units=GPa)
#
#
# Indices 1 2 3 4 5 6 
#
# 1 142.4194 32.5542 68.8582 0.0000 8.9641 0.0000
# 2 32.5542 65.7590 63.8040 0.0000 10.7624 0.0000
# 3 68.8582 63.8040 182.8702 0.0000 14.1175 0.0000
# 4 0.0000 0.0000 0.0000 31.0167 0.0000 10.9515
# 5 8.9641 10.7624 14.1175 0.0000 55.3679 0.0000
# 6 0.0000 0.0000 0.0000 10.9515 0.0000 36.4392
#
#
#
# Elastic Compliance Matrix: (Units=1/GPa)
#
#
# Indices 1 2 3 4 5 6 
#
# 1 0.008718 -0.001655 -0.002674 0.000000 -0.000408 0.000000
# 2 -0.001655 0.023640 -0.007437 0.000000 -0.002431 0.000000
# 3 -0.002674 -0.007437 0.009104 0.000000 -0.000443 0.000000
# 4 0.000000 0.000000 0.000000 0.036068 0.000000 -0.010840
# 5 -0.000408 -0.002431 -0.000443 0.000000 0.018713 0.000000
# 6 0.000000 0.000000 0.000000 -0.010840 0.000000 0.030701
#
#
# Mechanical properties :
#
#
# Convention : Reuss Voigt Hill
#
# Bulk Modulus (GPa) = 55.77024 80.16460 67.96742
# Shear Modulus (GPa) = 31.95831 39.62023 35.78927
#
# Velocity S-wave (km/s) = 3.52906 3.92940 3.73460
# Velocity P-wave (km/s) = 6.19190 7.19913 6.71443
#
# Compressibility (1/GPa) = 0.01793071
#
# Stress axis : x y z
#
# Youngs Moduli (GPa) = 114.70180 42.30031 109.83759
#
# Poissons Ratio (x) = 0.07000 0.29370
# Poissons Ratio (y) = 0.18981 0.81692
# Poissons Ratio (z) = 0.30670 0.31461
#
# Static dielectric constant tensor:
#      x y z
#    x 4.727830 0.000000 0.047860 
#    y 0.000000 4.696950 0.000000 
#    z 0.047860 0.000000 4.899960 
# 
# 
# High freq. dielectric constant tensor:
#      x y z
#    x 2.026010 0.000000 0.002830 
#    y 0.000000 2.059680 0.000000 
#    z 0.002830 0.000000 2.038000 
# 
# From -- ./inp_files/1394.got.cif
#   From: 2010.06.25/outbox.cif.g09.slc.cpg/sg11_1_cif.got.tgz:1394.got - 2010.06.27 23:14:04.
