data_PCOD8077569
_publ_section_title
;
Structure prediction by ZEFSAII (Michael W. Deem and Ramdas Pophale) SiO2 
 PCOD8077569
Probable space group: P 21/M
;
_chemical_formula_sum "Si O2"
_cell_formula_units_Z 28
_cell_length_a 8.463054
_cell_length_b 14.590147
_cell_length_c 11.928676
_cell_angle_alpha 90.000000
_cell_angle_beta 110.995650
_cell_angle_gamma 90.000000
_cell_volume 1375.128919
_symmetry_space_group_name_H-M "P 21/M"
_symmetry_group_IT_number 11
_symmetry_cell_setting 'monoclinic'
loop_
_space_group_symop_operation_xyz
x,y,z
-x,1/2+y,-z
-x,-y,-z
x,1/2-y,z
loop_
_atom_site_type_symbol
_atom_site_label
_atom_site_fract_x
_atom_site_fract_y
_atom_site_fract_z
Si Si1 0.161006 0.504672 0.619401
Si Si2 0.749529 0.854153 0.048400
Si Si3 0.704283 0.149238 0.690001
Si Si4 0.398338 0.355248 0.757038
Si Si5 0.547287 0.088590 0.440222
Si Si6 0.745512 0.646071 0.800020
Si Si7 0.989390 0.492170 0.797605
O O1 0.246425 0.404792 0.652847
O O2 0.299159 0.574807 0.607460
O O3 0.000000 0.500000 0.500000
O O4 0.101596 0.536334 0.727254
O O5 0.821110 0.750000 0.082335
O O6 0.611689 0.873338 0.111395
O O7 0.899652 0.928955 0.091761
O O8 0.663359 0.863510 0.903851
O O9 0.775263 0.250000 0.740915
O O10 0.580491 0.110789 0.757388
O O11 0.603305 0.162261 0.547309
O O12 0.849910 0.075244 0.708242
O O13 0.376453 0.250000 0.719433
O O14 0.387172 0.122754 0.330012
O O15 0.500000 0.000000 0.500000
O O16 0.810202 0.750000 0.798127
O O17 0.905817 0.577978 0.838968
#
# Coordination Sequence:
#
# PCOD8077569 Si02
#       7
#     4   4   4   4   4   4   4
#     4  11  20  36  56  83 117 154 187 244 296 349
#     4   9  20  39  62  89 121 157 202 247 295 347
#     4  11  21  36  62  89 117 153 199 245 292 351
#     4   9  19  35  57  85 112 151 199 243 288 344
#     4  12  21  40  60  83 117 157 197 241 296 354
#     4  11  23  41  62  86 121 163 199 244 300 355
#     4  11  21  38  61  89 123 153 200 241 299 350
#
# _framework density 20.361727999999999
#
# number of rings (size 3 to 8) (size 9 to 14) (size 15 to 20)
#    0.000    1.429    4.286    1.286    0.000    0.571 
#    0.000    9.286    0.000    3.429    0.000    0.000 
#    0.000    0.000    0.000    0.000    0.000    0.000 
#
# Total GULP energy -347059.087519 kJ/mol
# GULP energy per Si atom -12394.967411 kJ/mol
# Density = 2.031538 g / cm^3
# Si number density = 20.361728 Si / 1000 Ang^3
#
#
#
# Elastic Constant Matrix: (Units=GPa)
#
#
# Indices 1 2 3 4 5 6 
#
# 1 98.0582 36.0051 27.4679 0.0000 -25.1832 0.0000
# 2 36.0051 78.8204 31.7072 0.0000 -13.9938 0.0000
# 3 27.4679 31.7072 101.7200 0.0000 -15.1658 0.0000
# 4 0.0000 0.0000 0.0000 27.9855 0.0000 -1.6052
# 5 -25.1832 -13.9938 -15.1658 0.0000 29.2402 0.0000
# 6 0.0000 0.0000 0.0000 -1.6052 0.0000 22.0517
#
#
#
# Elastic Compliance Matrix: (Units=1/GPa)
#
#
# Indices 1 2 3 4 5 6 
#
# 1 0.014716 -0.004521 -0.001081 0.000000 0.009950 0.000000
# 2 -0.004521 0.016597 -0.003630 0.000000 0.002167 0.000000
# 3 -0.001081 -0.003630 0.011766 0.000000 0.003434 0.000000
# 4 0.000000 0.000000 0.000000 0.035883 0.000000 0.002612
# 5 0.009950 0.002167 0.003434 0.000000 0.045587 0.000000
# 6 0.000000 0.000000 0.000000 0.002612 0.000000 0.045538
#
#
# Mechanical properties :
#
#
# Convention : Reuss Voigt Hill
#
# Bulk Modulus (GPa) = 40.62376 52.10655 46.36516
# Shear Modulus (GPa) = 25.41214 28.08338 26.74776
#
# Velocity S-wave (km/s) = 3.53659 3.71782 3.62833
# Velocity P-wave (km/s) = 6.05565 6.63894 6.35399
#
# Compressibility (1/GPa) = 0.02461613
#
# Stress axis : x y z
#
# Youngs Moduli (GPa) = 67.95218 60.25191 84.98835
#
# Poissons Ratio (x) = 0.27239 0.09189
# Poissons Ratio (y) = 0.30721 0.30847
# Poissons Ratio (z) = 0.07347 0.21869
#
# Static dielectric constant tensor:
#      x y z
#    x 3.840320 0.000000 -0.301650 
#    y 0.000000 3.785360 0.000000 
#    z -0.301650 0.000000 3.785590 
# 
# 
# High freq. dielectric constant tensor:
#      x y z
#    x 1.788970 0.000000 -0.020510 
#    y 0.000000 1.792750 0.000000 
#    z -0.020510 0.000000 1.795300 
# 
# From -- ./inp_files/31734.got.cif
#   From: 2010.06.25/outbox.cif.g09.slc.cpg/sg11_16_cif.got.tgz:31734.got - 2010.06.27 23:14:04.
