data_PCOD8077416
_publ_section_title
;
Structure prediction by ZEFSAII (Michael W. Deem and Ramdas Pophale) SiO2 
 PCOD8077416
Probable space group: P 21/M
;
_chemical_formula_sum "Si O2"
_cell_formula_units_Z 32
_cell_length_a 12.338507
_cell_length_b 8.561680
_cell_length_c 28.677634
_cell_angle_alpha 90.000000
_cell_angle_beta 30.219267
_cell_angle_gamma 90.000000
_cell_volume 1524.758121
_symmetry_space_group_name_H-M "P 21/M"
_symmetry_group_IT_number 11
_symmetry_cell_setting 'monoclinic'
loop_
_space_group_symop_operation_xyz
x,y,z
-x,1/2+y,-z
-x,-y,-z
x,1/2-y,z
loop_
_atom_site_type_symbol
_atom_site_label
_atom_site_fract_x
_atom_site_fract_y
_atom_site_fract_z
Si Si1 0.958504 0.932205 0.465155
Si Si2 0.078297 0.934505 0.020298
Si Si3 0.283661 0.068340 0.771603
Si Si4 0.487958 0.567075 0.154380
Si Si5 0.387965 0.069120 0.284852
Si Si6 0.255951 0.571533 0.681792
Si Si7 0.321050 0.932730 0.504942
Si Si8 0.044217 0.069863 0.288957
O O1 0.904636 0.750000 0.486466
O O2 0.173207 0.967458 0.355897
O O3 0.000000 0.000000 0.500000
O O4 0.758891 0.025380 0.517367
O O5 0.103252 0.750000 0.007120
O O6 0.916045 0.981916 0.121997
O O7 0.304941 0.012125 0.952251
O O8 0.000000 0.000000 0.000000
O O9 0.335292 0.250000 0.757592
O O10 0.493197 0.974128 0.711268
O O11 0.236414 0.031348 0.735383
O O12 0.495577 0.750000 0.160945
O O13 0.529612 0.475244 0.187486
O O14 0.265644 0.524080 0.211521
O O15 0.325511 0.250000 0.309167
O O16 0.293234 0.750000 0.682446
O O17 0.449298 0.518159 0.575282
O O18 0.035552 0.552023 0.734567
O O19 0.358227 0.750000 0.497524
O O20 0.143632 0.997119 0.607348
O O21 0.088596 0.250000 0.285682
#
# Coordination Sequence:
#
# PCOD8077416 Si02
#       8
#     4   4   4   4   4   4   4   4
#     4  12  24  38  56  84 123 165 209 255 309 373
#     4  11  23  40  66  95 128 164 206 257 312 377
#     4  11  24  42  64  93 127 165 209 257 313 377
#     4  12  24  39  64  96 127 160 204 255 312 374
#     4  12  23  38  61  88 124 164 203 253 312 371
#     4  11  24  42  64  92 126 167 212 262 314 369
#     4  11  22  39  63  90 123 165 211 261 310 367
#     4  10  23  43  66  91 125 168 215 261 311 367
#
# _framework density 20.986934999999999
#
# number of rings (size 3 to 8) (size 9 to 14) (size 15 to 20)
#    0.000    0.750    2.500    6.000    0.000    3.000 
#    0.000    0.625    0.000    0.000    0.000    0.000 
#    0.000    0.000    0.000    0.000    0.000    0.000 
#
# Total GULP energy -396930.969319 kJ/mol
# GULP energy per Si atom -12404.092791 kJ/mol
# Density = 2.093917 g / cm^3
# Si number density = 20.986935 Si / 1000 Ang^3
#
#
#
# Elastic Constant Matrix: (Units=GPa)
#
#
# Indices 1 2 3 4 5 6 
#
# 1 83.6843 19.9275 20.1131 0.0000 -12.1354 0.0000
# 2 19.9275 78.3050 25.8781 0.0000 -8.4287 0.0000
# 3 20.1131 25.8781 86.4527 0.0000 -13.7879 0.0000
# 4 0.0000 0.0000 0.0000 33.7469 0.0000 -3.2667
# 5 -12.1354 -8.4287 -13.7879 0.0000 28.6118 0.0000
# 6 0.0000 0.0000 0.0000 -3.2667 0.0000 30.9619
#
#
#
# Elastic Compliance Matrix: (Units=1/GPa)
#
#
# Indices 1 2 3 4 5 6 
#
# 1 0.013556 -0.002417 -0.001762 0.000000 0.004188 0.000000
# 2 -0.002417 0.014745 -0.003599 0.000000 0.001585 0.000000
# 3 -0.001762 -0.003599 0.013829 0.000000 0.004856 0.000000
# 4 0.000000 0.000000 0.000000 0.029938 0.000000 0.003159
# 5 0.004188 0.001585 0.004856 0.000000 0.039534 0.000000
# 6 0.000000 0.000000 0.000000 0.003159 0.000000 0.032631
#
#
# Mechanical properties :
#
#
# Convention : Reuss Voigt Hill
#
# Bulk Modulus (GPa) = 37.62984 42.25327 39.94156
# Shear Modulus (GPa) = 29.64763 30.83236 30.23999
#
# Velocity S-wave (km/s) = 3.76263 3.83707 3.80003
# Velocity P-wave (km/s) = 6.07005 6.30933 6.19085
#
# Compressibility (1/GPa) = 0.02657465
#
# Stress axis : x y z
#
# Youngs Moduli (GPa) = 73.76750 67.81749 72.31268
#
# Poissons Ratio (x) = 0.16388 0.12745
# Poissons Ratio (y) = 0.17826 0.26024
# Poissons Ratio (z) = 0.13001 0.24407
#
# Static dielectric constant tensor:
#      x y z
#    x 3.672200 0.000000 -0.069460 
#    y 0.000000 3.793990 0.000000 
#    z -0.069460 0.000000 4.128800 
# 
# 
# High freq. dielectric constant tensor:
#      x y z
#    x 1.818830 0.000000 -0.009170 
#    y 0.000000 1.827350 0.000000 
#    z -0.009170 0.000000 1.824360 
# 
# From -- ./inp_files/73109.got.cif
#   From: 2010.06.25/outbox.cif.g09.slc.cpg/sg11_37_cif.got.tgz:73109.got - 2010.06.27 23:14:04.
