data_PCOD8077320
_publ_section_title
;
Structure prediction by ZEFSAII (Michael W. Deem and Ramdas Pophale) SiO2 
 PCOD8077320
Probable space group: P 21/M
;
_chemical_formula_sum "Si O2"
_cell_formula_units_Z 28
_cell_length_a 5.342864
_cell_length_b 19.900829
_cell_length_c 12.980475
_cell_angle_alpha 90.000000
_cell_angle_beta 69.793539
_cell_angle_gamma 90.000000
_cell_volume 1295.235977
_symmetry_space_group_name_H-M "P 21/M"
_symmetry_group_IT_number 11
_symmetry_cell_setting 'monoclinic'
loop_
_space_group_symop_operation_xyz
x,y,z
-x,1/2+y,-z
-x,-y,-z
x,1/2-y,z
loop_
_atom_site_type_symbol
_atom_site_label
_atom_site_fract_x
_atom_site_fract_y
_atom_site_fract_z
Si Si1 0.724484 0.329165 0.472831
Si Si2 0.894351 0.670764 0.983153
Si Si3 0.616611 0.969635 0.711971
Si Si4 0.701237 0.329099 0.903504
Si Si5 0.306143 0.437523 0.513561
Si Si6 0.814593 0.393154 0.676605
Si Si7 0.942551 0.396892 0.244535
O O1 0.682979 0.250000 0.472496
O O2 0.440753 0.364673 0.502002
O O3 0.831999 0.348922 0.570600
O O4 0.912866 0.352981 0.352504
O O5 0.881842 0.750000 0.998675
O O6 0.007379 0.654144 0.855352
O O7 0.094527 0.640096 0.041232
O O8 0.596201 0.640475 0.040275
O O9 0.798897 0.946867 0.588027
O O10 0.321155 0.939135 0.746104
O O11 0.791850 0.943696 0.784069
O O12 0.578888 0.051204 0.718188
O O13 0.689088 0.250000 0.919425
O O14 0.812440 0.344769 0.774334
O O15 0.500000 0.500000 0.500000
O O16 0.079707 0.439958 0.633278
#
# Coordination Sequence:
#
# PCOD8077320 Si02
#       7
#     4   4   4   4   4   4   4
#     4  11  24  38  63 100 133 169 220 282 337 394
#     4  10  22  45  68  90 126 176 222 270 333 398
#     4  11  23  39  66  97 126 177 217 263 332 411
#     4  10  24  42  67  94 128 176 220 267 335 400
#     4  11  22  41  64  92 137 183 223 256 331 415
#     4  12  23  41  64  95 136 172 218 271 336 400
#     4  11  23  43  66  96 128 166 225 278 332 384
#
# _framework density 21.617683
#
# number of rings (size 3 to 8) (size 9 to 14) (size 15 to 20)
#    0.000    1.143    2.857    3.857    2.000    1.143 
#    0.000    5.714    0.000    0.000    0.000    0.000 
#    0.000    0.000    0.000    0.000    0.000    0.000 
#
# Total GULP energy -347040.555351 kJ/mol
# GULP energy per Si atom -12394.305548 kJ/mol
# Density = 2.156848 g / cm^3
# Si number density = 21.617683 Si / 1000 Ang^3
#
#
#
# Elastic Constant Matrix: (Units=GPa)
#
#
# Indices 1 2 3 4 5 6 
#
# 1 129.6445 35.5224 43.7110 0.0000 13.0750 0.0000
# 2 35.5224 87.7795 9.4682 0.0000 3.1709 0.0000
# 3 43.7110 9.4682 126.7502 0.0000 15.7962 0.0000
# 4 0.0000 0.0000 0.0000 33.6919 0.0000 4.2580
# 5 13.0750 3.1709 15.7962 0.0000 30.2787 0.0000
# 6 0.0000 0.0000 0.0000 4.2580 0.0000 20.3881
#
#
#
# Elastic Compliance Matrix: (Units=1/GPa)
#
#
# Indices 1 2 3 4 5 6 
#
# 1 0.009907 -0.003615 -0.002845 0.000000 -0.002415 0.000000
# 2 -0.003615 0.012822 0.000280 0.000000 0.000072 0.000000
# 3 -0.002845 0.000280 0.009305 0.000000 -0.003655 0.000000
# 4 0.000000 0.000000 0.000000 0.030485 0.000000 -0.006367
# 5 -0.002415 0.000072 -0.003655 0.000000 0.035969 0.000000
# 6 0.000000 0.000000 0.000000 -0.006367 0.000000 0.050378
#
#
# Mechanical properties :
#
#
# Convention : Reuss Voigt Hill
#
# Bulk Modulus (GPa) = 50.83004 57.95305 54.39155
# Shear Modulus (GPa) = 29.79999 33.90324 31.85161
#
# Velocity S-wave (km/s) = 3.71684 3.96449 3.84266
# Velocity P-wave (km/s) = 6.47952 6.91539 6.70100
#
# Compressibility (1/GPa) = 0.01967340
#
# Stress axis : x y z
#
# Youngs Moduli (GPa) = 100.94067 77.98932 107.46403
#
# Poissons Ratio (x) = 0.28192 0.30578
# Poissons Ratio (y) = 0.36489 -0.03007
# Poissons Ratio (z) = 0.28722 -0.02182
#
# Static dielectric constant tensor:
#      x y z
#    x 4.212830 0.000000 0.097060 
#    y 0.000000 3.746220 0.000000 
#    z 0.097060 0.000000 3.978880 
# 
# 
# High freq. dielectric constant tensor:
#      x y z
#    x 1.859830 0.000000 0.007780 
#    y 0.000000 1.837460 0.000000 
#    z 0.007780 0.000000 1.842830 
# 
# From -- ./inp_files/29969.got.cif
#   From: 2010.06.25/outbox.cif.g09.slc.cpg/sg11_15_cif.got.tgz:29969.got - 2010.06.27 23:14:04.
