data_PCOD8077943
_publ_section_title
;
Structure prediction by ZEFSAII (Michael W. Deem and Ramdas Pophale) SiO2 
 PCOD8077943
Probable space group: P 21/M
;
_chemical_formula_sum "Si O2"
_cell_formula_units_Z 32
_cell_length_a 16.185273
_cell_length_b 9.128551
_cell_length_c 18.490909
_cell_angle_alpha 90.000000
_cell_angle_beta 124.938085
_cell_angle_gamma 90.000000
_cell_volume 2239.612543
_symmetry_space_group_name_H-M "P 21/M"
_symmetry_group_IT_number 11
_symmetry_cell_setting 'monoclinic'
loop_
_space_group_symop_operation_xyz
x,y,z
-x,1/2+y,-z
-x,-y,-z
x,1/2-y,z
loop_
_atom_site_type_symbol
_atom_site_label
_atom_site_fract_x
_atom_site_fract_y
_atom_site_fract_z
Si Si1 0.509143 0.419600 0.333971
Si Si2 0.102351 0.577932 0.634362
Si Si3 0.901798 0.420911 0.534221
Si Si4 0.587394 0.078716 0.000320
Si Si5 0.495749 0.075511 0.166643
Si Si6 0.702803 0.423605 0.517643
Si Si7 0.300647 0.919695 0.807070
Si Si8 0.403265 0.078934 0.419979
O O1 0.531057 0.250000 0.332318
O O2 0.486843 0.486685 0.243883
O O3 0.611657 0.483140 0.421139
O O4 0.411413 0.443897 0.336951
O O5 0.090186 0.750000 0.640298
O O6 0.121412 0.538117 0.560285
O O7 0.196198 0.509967 0.726641
O O8 0.000612 0.503472 0.612344
O O9 0.921409 0.250000 0.552855
O O10 0.807550 0.472536 0.534886
O O11 0.563348 0.250000 0.979379
O O12 0.687555 0.055823 0.100155
O O13 0.500000 0.000000 0.000000
O O14 0.593981 0.001382 0.925027
O O15 0.482391 0.250000 0.153818
O O16 0.602921 0.019478 0.188721
O O17 0.695738 0.250000 0.525359
O O18 0.694028 0.502037 0.592188
O O19 0.295007 0.750000 0.784554
O O20 0.404844 0.250000 0.440281
O O21 0.500000 0.000000 0.500000
#
# Coordination Sequence:
#
# PCOD8077943 Si02
#       8
#     4   4   4   4   4   4   4   4
#     4   8  14  24  39  56  74 100 130 155 181 222
#     4   9  16  27  41  55  73 100 132 160 187 222
#     4   9  17  27  39  56  77  99 126 162 196 221
#     4   9  16  26  38  54  75  98 126 157 188 221
#     4   9  15  25  40  56  75 100 129 156 185 222
#     4   9  16  27  41  55  75 105 135 159 189 228
#     4   8  14  24  39  54  70  98 130 154 178 217
#     4   9  16  26  39  56  77 101 130 161 191 224
#
# _framework density 14.288186
#
# number of rings (size 3 to 8) (size 9 to 14) (size 15 to 20)
#    0.000    3.250    0.000    3.000    0.000    3.500 
#    0.000    6.250    0.000    3.000    0.000    0.000 
#    0.000    1.000    0.000    2.250    0.000    4.000 
#
# Total GULP energy -396455.962820 kJ/mol
# GULP energy per Si atom -12389.248838 kJ/mol
# Density = 1.425567 g / cm^3
# Si number density = 14.288186 Si / 1000 Ang^3
#
#
#
# Elastic Constant Matrix: (Units=GPa)
#
#
# Indices 1 2 3 4 5 6 
#
# 1 103.7802 32.2096 51.9998 0.0000 -7.8639 0.0000
# 2 32.2096 39.7552 30.4233 0.0000 -2.8357 0.0000
# 3 51.9998 30.4233 102.3031 0.0000 -6.4015 0.0000
# 4 0.0000 0.0000 0.0000 19.1290 0.0000 -1.2380
# 5 -7.8639 -2.8357 -6.4015 0.0000 20.5736 0.0000
# 6 0.0000 0.0000 0.0000 -1.2380 0.0000 21.4767
#
#
#
# Elastic Compliance Matrix: (Units=1/GPa)
#
#
# Indices 1 2 3 4 5 6 
#
# 1 0.014841 -0.008001 -0.004975 0.000000 0.003022 0.000000
# 2 -0.008001 0.036925 -0.006921 0.000000 -0.000123 0.000000
# 3 -0.004975 -0.006921 0.014465 0.000000 0.001645 0.000000
# 4 0.000000 0.000000 0.000000 0.052472 0.000000 0.003025
# 5 0.003022 -0.000123 0.001645 0.000000 0.050256 0.000000
# 6 0.000000 0.000000 0.000000 0.003025 0.000000 0.046736
#
#
# Mechanical properties :
#
#
# Convention : Reuss Voigt Hill
#
# Bulk Modulus (GPa) = 37.82880 52.78932 45.30906
# Shear Modulus (GPa) = 18.91775 20.98291 19.95033
#
# Velocity S-wave (km/s) = 3.64265 3.83632 3.74074
# Velocity P-wave (km/s) = 6.65018 7.52659 7.10192
#
# Compressibility (1/GPa) = 0.02643489
#
# Stress axis : x y z
#
# Youngs Moduli (GPa) = 67.38205 27.08220 69.13314
#
# Poissons Ratio (x) = 0.21669 0.34393
# Poissons Ratio (y) = 0.53915 0.47850
# Poissons Ratio (z) = 0.33522 0.18745
#
# Static dielectric constant tensor:
#      x y z
#    x 2.985120 0.000000 -0.195700 
#    y 0.000000 2.747000 0.000000 
#    z -0.195700 0.000000 3.069230 
# 
# 
# High freq. dielectric constant tensor:
#      x y z
#    x 1.522720 0.000000 -0.013720 
#    y 0.000000 1.532540 0.000000 
#    z -0.013720 0.000000 1.529090 
# 
# From -- ./inp_files/65935.got.cif
#   From: 2010.06.25/outbox.cif.g09.slc.cpg/sg11_33_cif.got.tgz:65935.got - 2010.06.27 23:14:04.
