data_PCOD8077340
_publ_section_title
;
Structure prediction by ZEFSAII (Michael W. Deem and Ramdas Pophale) SiO2 
 PCOD8077340
Probable space group: P 21/M
;
_chemical_formula_sum "Si O2"
_cell_formula_units_Z 24
_cell_length_a 8.839029
_cell_length_b 8.285939
_cell_length_c 15.472893
_cell_angle_alpha 90.000000
_cell_angle_beta 89.798616
_cell_angle_gamma 90.000000
_cell_volume 1133.222347
_symmetry_space_group_name_H-M "P 21/M"
_symmetry_group_IT_number 11
_symmetry_cell_setting 'monoclinic'
loop_
_space_group_symop_operation_xyz
x,y,z
-x,1/2+y,-z
-x,-y,-z
x,1/2-y,z
loop_
_atom_site_type_symbol
_atom_site_label
_atom_site_fract_x
_atom_site_fract_y
_atom_site_fract_z
Si Si1 0.425335 0.441495 0.412650
Si Si2 0.926632 0.063257 0.240879
Si Si3 0.095753 0.936514 0.079321
Si Si4 0.400422 0.435106 0.752361
Si Si5 0.081606 0.440089 0.414878
Si Si6 0.426023 0.063120 0.087152
O O1 0.500000 0.500000 0.500000
O O2 0.436790 0.250000 0.403135
O O3 0.510322 0.524914 0.334201
O O4 0.252972 0.503838 0.411708
O O5 0.969647 0.250000 0.226151
O O6 0.991983 0.996542 0.331233
O O7 0.746484 0.046655 0.240318
O O8 0.998624 0.956060 0.165852
O O9 0.137491 0.750000 0.065290
O O10 0.246832 0.041065 0.084595
O O11 0.000000 0.000000 0.000000
O O12 0.348485 0.250000 0.750648
O O13 0.508723 0.463397 0.833221
O O14 0.080269 0.250000 0.416282
O O15 0.000000 0.500000 0.500000
O O16 0.464929 0.250000 0.100054
O O17 0.500000 0.000000 0.000000
#
# Coordination Sequence:
#
# PCOD8077340 Si02
#       6
#     4   4   4   4   4   4
#     4  11  23  41  63  92 126 165 210 261 316 378
#     4  11  23  42  65  92 125 166 210 259 314 373
#     4  12  25  43  66  95 128 166 209 258 312 373
#     4  12  25  42  64  94 127 165 210 261 317 378
#     4  10  23  40  62  89 122 160 204 253 307 367
#     4  12  25  44  67  94 127 166 210 260 314 375
#
# _framework density 21.178543000000001
#
# number of rings (size 3 to 8) (size 9 to 14) (size 15 to 20)
#    0.000    0.667    0.000    8.500    0.000    6.667 
#    0.000    0.000    0.000    0.000    0.000    0.000 
#    0.000    0.000    0.000    0.000    0.000    0.000 
#
# Total GULP energy -297806.181164 kJ/mol
# GULP energy per Si atom -12408.590882 kJ/mol
# Density = 2.113034 g / cm^3
# Si number density = 21.178543 Si / 1000 Ang^3
#
#
#
# Elastic Constant Matrix: (Units=GPa)
#
#
# Indices 1 2 3 4 5 6 
#
# 1 144.3962 5.9783 62.2713 0.0000 1.1963 0.0000
# 2 5.9783 83.0590 19.5196 0.0000 -2.3828 0.0000
# 3 62.2713 19.5196 179.1564 0.0000 -0.8715 0.0000
# 4 0.0000 0.0000 0.0000 38.1902 0.0000 -3.4988
# 5 1.1963 -2.3828 -0.8715 0.0000 47.8211 0.0000
# 6 0.0000 0.0000 0.0000 -3.4988 0.0000 36.4633
#
#
#
# Elastic Compliance Matrix: (Units=1/GPa)
#
#
# Indices 1 2 3 4 5 6 
#
# 1 0.008150 0.000074 -0.002842 0.000000 -0.000252 0.000000
# 2 0.000074 0.012373 -0.001371 0.000000 0.000590 0.000000
# 3 -0.002842 -0.001371 0.006720 0.000000 0.000125 0.000000
# 4 0.000000 0.000000 0.000000 0.026417 0.000000 0.002535
# 5 -0.000252 0.000590 0.000125 0.000000 0.020949 0.000000
# 6 0.000000 0.000000 0.000000 0.002535 0.000000 0.027668
#
#
# Mechanical properties :
#
#
# Convention : Reuss Voigt Hill
#
# Bulk Modulus (GPa) = 52.72872 64.68333 58.70602
# Shear Modulus (GPa) = 42.78002 45.75110 44.26556
#
# Velocity S-wave (km/s) = 4.49928 4.65290 4.57674
# Velocity P-wave (km/s) = 7.20713 7.71195 7.46381
#
# Compressibility (1/GPa) = 0.01896500
#
# Stress axis : x y z
#
# Youngs Moduli (GPa) = 122.69825 80.81847 148.81933
#
# Poissons Ratio (x) = -0.00599 0.42296
# Poissons Ratio (y) = -0.00909 0.20403
# Poissons Ratio (z) = 0.34872 0.11080
#
# Static dielectric constant tensor:
#      x y z
#    x 3.877440 0.000000 0.068260 
#    y 0.000000 3.821110 0.000000 
#    z 0.068260 0.000000 3.965640 
# 
# 
# High freq. dielectric constant tensor:
#      x y z
#    x 1.847360 0.000000 0.001030 
#    y 0.000000 1.837410 0.000000 
#    z 0.001030 0.000000 1.851630 
# 
# From -- ./inp_files/46499.got.cif
#   From: 2010.06.25/outbox.cif.g09.slc.cpg/sg11_24_cif.got.tgz:46499.got - 2010.06.27 23:14:04.
