data_PCOD8077006
_publ_section_title
;
Structure prediction by ZEFSAII (Michael W. Deem and Ramdas Pophale) SiO2 
 PCOD8077006
Probable space group: P 21/M
;
_chemical_formula_sum "Si O2"
_cell_formula_units_Z 28
_cell_length_a 5.099077
_cell_length_b 16.769961
_cell_length_c 13.695753
_cell_angle_alpha 90.000000
_cell_angle_beta 76.459724
_cell_angle_gamma 90.000000
_cell_volume 1138.590739
_symmetry_space_group_name_H-M "P 21/M"
_symmetry_group_IT_number 11
_symmetry_cell_setting 'monoclinic'
loop_
_space_group_symop_operation_xyz
x,y,z
-x,1/2+y,-z
-x,-y,-z
x,1/2-y,z
loop_
_atom_site_type_symbol
_atom_site_label
_atom_site_fract_x
_atom_site_fract_y
_atom_site_fract_z
Si Si1 0.935937 0.410237 0.236469
Si Si2 0.311760 0.250000 0.424239
Si Si3 0.466011 0.418670 0.403432
Si Si4 0.730464 0.250000 0.562344
Si Si5 0.526635 0.088781 0.955434
Si Si6 0.493210 0.408500 0.626758
Si Si7 0.484862 0.162695 0.161534
Si Si8 0.104656 0.420831 0.830995
O O1 0.792012 0.420629 0.355469
O O2 0.770360 0.342764 0.192534
O O3 0.886117 0.484054 0.169111
O O4 0.254635 0.397713 0.221720
O O5 0.354106 0.335158 0.362169
O O6 0.517582 0.250000 0.494612
O O7 0.017228 0.250000 0.490583
O O8 0.392586 0.414143 0.523395
O O9 0.362136 0.504112 0.365406
O O10 0.691711 0.332685 0.626339
O O11 0.275068 0.109775 0.908256
O O12 0.794463 0.105357 0.867659
O O13 0.528767 0.150896 0.042987
O O14 0.500000 0.000000 0.000000
O O15 0.234820 0.391015 0.717619
O O16 0.365689 0.250000 0.189640
#
# Coordination Sequence:
#
# PCOD8077006 Si02
#       8
#     4   2   4   2   4   4   4   4
#     4  11  22  41  64  96 128 167 210 254 328 384
#     4  10  22  38  62  92 123 170 215 248 322 366
#     4   9  21  40  67  97 133 173 210 268 314 391
#     4  10  22  42  62  88 127 170 209 266 306 370
#     4  12  22  43  67  92 125 165 217 269 323 381
#     4   9  21  43  65  97 134 169 220 262 320 380
#     4  12  26  41  62  94 130 164 207 271 325 384
#     4  11  22  40  71  94 120 172 217 264 320 383
#
# _framework density 24.591802000000001
#
# number of rings (size 3 to 8) (size 9 to 14) (size 15 to 20)
#    0.000    1.429    2.857    1.714    2.000    5.143 
#    2.571    8.571    0.000    0.000    0.000    0.000 
#    0.000    0.000    0.000    0.000    0.000    0.000 
#
# Total GULP energy -346881.172219 kJ/mol
# GULP energy per Si atom -12388.613294 kJ/mol
# Density = 2.453583 g / cm^3
# Si number density = 24.591802 Si / 1000 Ang^3
#
#
#
# Elastic Constant Matrix: (Units=GPa)
#
#
# Indices 1 2 3 4 5 6 
#
# 1 87.7159 10.4855 15.3216 0.0000 -21.7553 0.0000
# 2 10.4855 166.0885 8.9485 0.0000 -17.9716 0.0000
# 3 15.3216 8.9485 95.9358 0.0000 -15.4163 0.0000
# 4 0.0000 0.0000 0.0000 35.0014 0.0000 -6.8790
# 5 -21.7553 -17.9716 -15.4163 0.0000 49.3915 0.0000
# 6 0.0000 0.0000 0.0000 -6.8790 0.0000 19.2477
#
#
#
# Elastic Compliance Matrix: (Units=1/GPa)
#
#
# Indices 1 2 3 4 5 6 
#
# 1 0.012936 -0.000183 -0.001204 0.000000 0.005255 0.000000
# 2 -0.000183 0.006275 -0.000213 0.000000 0.002136 0.000000
# 3 -0.001204 -0.000213 0.011095 0.000000 0.002855 0.000000
# 4 0.000000 0.000000 0.000000 0.030729 0.000000 0.010982
# 5 0.005255 0.002136 0.002855 0.000000 0.024230 0.000000
# 6 0.000000 0.000000 0.000000 0.010982 0.000000 0.055879
#
#
# Mechanical properties :
#
#
# Convention : Reuss Voigt Hill
#
# Bulk Modulus (GPa) = 36.89339 46.58351 41.73845
# Shear Modulus (GPa) = 32.59895 41.72708 37.16301
#
# Velocity S-wave (km/s) = 3.64483 4.12368 3.89163
# Velocity P-wave (km/s) = 5.72258 6.45421 6.09937
#
# Compressibility (1/GPa) = 0.02710513
#
# Stress axis : x y z
#
# Youngs Moduli (GPa) = 77.30279 159.36114 90.13388
#
# Poissons Ratio (x) = 0.02919 0.10856
# Poissons Ratio (y) = 0.01416 0.01918
# Poissons Ratio (z) = 0.09310 0.03391
#
# Static dielectric constant tensor:
#      x y z
#    x 3.930160 0.000000 -0.201660 
#    y 0.000000 5.338510 0.000000 
#    z -0.201660 0.000000 4.659330 
# 
# 
# High freq. dielectric constant tensor:
#      x y z
#    x 1.950100 0.000000 -0.012330 
#    y 0.000000 1.977390 0.000000 
#    z -0.012330 0.000000 1.995010 
# 
# From -- ./inp_files/46011.got.cif
#   From: 2010.06.25/outbox.cif.g09.slc.cpg/sg11_24_cif.got.tgz:46011.got - 2010.06.27 23:14:04.
