data_PCOD8077790
_publ_section_title
;
Structure prediction by ZEFSAII (Michael W. Deem and Ramdas Pophale) SiO2 
 PCOD8077790
Probable space group: P 21/M
;
_chemical_formula_sum "Si O2"
_cell_formula_units_Z 20
_cell_length_a 9.145256
_cell_length_b 9.180826
_cell_length_c 21.956165
_cell_angle_alpha 90.000000
_cell_angle_beta 36.308086
_cell_angle_gamma 90.000000
_cell_volume 1091.563258
_symmetry_space_group_name_H-M "P 21/M"
_symmetry_group_IT_number 11
_symmetry_cell_setting 'monoclinic'
loop_
_space_group_symop_operation_xyz
x,y,z
-x,1/2+y,-z
-x,-y,-z
x,1/2-y,z
loop_
_atom_site_type_symbol
_atom_site_label
_atom_site_fract_x
_atom_site_fract_y
_atom_site_fract_z
Si Si1 0.502586 0.080967 0.323582
Si Si2 0.183423 0.084244 0.312577
Si Si3 0.686569 0.577494 0.482275
Si Si4 0.106045 0.083553 0.871581
Si Si5 0.673434 0.084326 0.092403
O O1 0.557953 0.250000 0.307605
O O2 0.320433 0.040457 0.329399
O O3 0.378733 0.027088 0.427413
O O4 0.772036 0.006262 0.224630
O O5 0.084006 0.250000 0.350018
O O6 0.375591 0.067315 0.191303
O O7 0.961741 0.974510 0.374638
O O8 0.500000 0.500000 0.500000
O O9 0.670064 0.750000 0.479320
O O10 0.172050 0.250000 0.836683
O O11 0.224790 0.034809 0.895325
O O12 0.807577 0.061006 0.981317
O O13 0.733634 0.250000 0.095418
#
# Coordination Sequence:
#
# PCOD8077790 Si02
#       5
#     4   4   4   4   4
#     4   9  19  34  51  73 102 132 161 200 249 292
#     4   9  17  32  53  75 101 130 160 198 243 291
#     4  11  23  37  52  71  97 130 167 206 249 295
#     4   9  15  24  44  73 101 129 161 196 235 285
#     4   8  15  27  43  69 104 133 156 192 243 288
#
# _framework density 18.322347000000001
#
# number of rings (size 3 to 8) (size 9 to 14) (size 15 to 20)
#    0.000    2.800    0.000    3.000    0.000    5.600 
#    0.000    0.000    0.000    1.200    0.000    0.000 
#    0.000    0.000    0.000    0.000    0.000    0.000 
#
# Total GULP energy -247800.719632 kJ/mol
# GULP energy per Si atom -12390.035982 kJ/mol
# Density = 1.828064 g / cm^3
# Si number density = 18.322347 Si / 1000 Ang^3
#
#
#
# Elastic Constant Matrix: (Units=GPa)
#
#
# Indices 1 2 3 4 5 6 
#
# 1 54.3426 33.0610 44.2506 0.0000 -13.6341 0.0000
# 2 33.0610 66.0257 53.8491 0.0000 -11.2607 0.0000
# 3 44.2506 53.8491 147.1855 0.0000 -31.2617 0.0000
# 4 0.0000 0.0000 0.0000 35.8185 0.0000 -4.0219
# 5 -13.6341 -11.2607 -31.2617 0.0000 9.5257 0.0000
# 6 0.0000 0.0000 0.0000 -4.0219 0.0000 21.8185
#
#
#
# Elastic Compliance Matrix: (Units=1/GPa)
#
#
# Indices 1 2 3 4 5 6 
#
# 1 0.035105 -0.012985 0.005309 0.000000 0.052317 0.000000
# 2 -0.012985 0.026395 -0.010144 0.000000 -0.020674 0.000000
# 3 0.005309 -0.010144 0.026329 0.000000 0.082013 0.000000
# 4 0.000000 0.000000 0.000000 0.028509 0.000000 0.005255
# 5 0.052317 -0.020674 0.082013 0.000000 0.424574 0.000000
# 6 0.000000 0.000000 0.000000 0.005255 0.000000 0.046801
#
#
# Mechanical properties :
#
#
# Convention : Reuss Voigt Hill
#
# Bulk Modulus (GPa) = 19.16159 58.87504 39.01831
# Shear Modulus (GPa) = 7.80337 22.52541 15.16439
#
# Velocity S-wave (km/s) = 2.06596 3.51008 2.88000
# Velocity P-wave (km/s) = 4.02140 6.97354 5.69218
#
# Compressibility (1/GPa) = 0.05218775
#
# Stress axis : x y z
#
# Youngs Moduli (GPa) = 28.48616 37.88625 37.98143
#
# Poissons Ratio (x) = 0.49195 -0.20163
# Poissons Ratio (y) = 0.36989 0.38528
# Poissons Ratio (z) = -0.15122 0.38432
#
# Static dielectric constant tensor:
#      x y z
#    x 2.922420 0.000000 -0.043720 
#    y 0.000000 3.388570 0.000000 
#    z -0.043720 0.000000 4.047630 
# 
# 
# High freq. dielectric constant tensor:
#      x y z
#    x 1.638890 0.000000 -0.011260 
#    y 0.000000 1.715790 0.000000 
#    z -0.011260 0.000000 1.740010 
# 
# From -- ./inp_files/16012.got.cif
#   From: 2010.06.25/outbox.cif.g09.slc.cpg/sg11_9_cif.got.tgz:16012.got - 2010.06.27 23:14:04.
