data_PCOD8077412
_publ_section_title
;
Structure prediction by ZEFSAII (Michael W. Deem and Ramdas Pophale) SiO2 
 PCOD8077412
Probable space group: P 21/M
;
_chemical_formula_sum "Si O2"
_cell_formula_units_Z 20
_cell_length_a 5.323407
_cell_length_b 23.535465
_cell_length_c 6.642074
_cell_angle_alpha 90.000000
_cell_angle_beta 80.899133
_cell_angle_gamma 90.000000
_cell_volume 821.701930
_symmetry_space_group_name_H-M "P 21/M"
_symmetry_group_IT_number 11
_symmetry_cell_setting 'monoclinic'
loop_
_space_group_symop_operation_xyz
x,y,z
-x,1/2+y,-z
-x,-y,-z
x,1/2-y,z
loop_
_atom_site_type_symbol
_atom_site_label
_atom_site_fract_x
_atom_site_fract_y
_atom_site_fract_z
Si Si1 0.693012 0.551203 0.503737
Si Si2 0.564127 0.683023 0.844541
Si Si3 0.143921 0.987727 0.183331
Si Si4 0.402285 0.621340 0.252314
Si Si5 0.105731 0.682731 0.608294
O O1 0.500000 0.500000 0.500000
O O2 0.743438 0.547561 0.741145
O O3 0.581051 0.608982 0.425111
O O4 0.959125 0.539919 0.367445
O O5 0.585142 0.750000 0.852986
O O6 0.542394 0.661866 0.076846
O O7 0.316195 0.664360 0.748277
O O8 0.828060 0.660098 0.712673
O O9 0.353403 0.937689 0.135859
O O10 0.000000 0.000000 0.000000
O O11 0.160957 0.653251 0.384571
O O12 0.110473 0.750000 0.574605
#
# Coordination Sequence:
#
# PCOD8077412 Si02
#       5
#     4   4   4   4   4
#     4   9  22  42  60  93 130 172 224 278 341 404
#     4  10  24  44  70 106 142 180 230 287 351 418
#     4  10  23  43  65  94 136 178 226 292 345 404
#     4  11  24  41  71 100 133 185 234 279 350 424
#     4  10  24  45  69 103 144 179 226 292 346 413
#
# _framework density 24.339725000000001
#
# number of rings (size 3 to 8) (size 9 to 14) (size 15 to 20)
#    0.000    2.000    0.000    0.600    5.600    9.600 
#    0.000    6.000    0.000    0.000    0.000    0.000 
#    0.000    0.000    0.000    0.000    0.000    0.000 
#
# Total GULP energy -247778.952508 kJ/mol
# GULP energy per Si atom -12388.947625 kJ/mol
# Density = 2.428433 g / cm^3
# Si number density = 24.339725 Si / 1000 Ang^3
#
#
#
# Elastic Constant Matrix: (Units=GPa)
#
#
# Indices 1 2 3 4 5 6 
#
# 1 121.6911 18.7947 46.7658 0.0000 5.3523 0.0000
# 2 18.7947 45.8425 43.4816 0.0000 10.1298 0.0000
# 3 46.7658 43.4816 147.8956 0.0000 6.7793 0.0000
# 4 0.0000 0.0000 0.0000 33.8418 0.0000 5.8741
# 5 5.3523 10.1298 6.7793 0.0000 54.1340 0.0000
# 6 0.0000 0.0000 0.0000 5.8741 0.0000 24.5678
#
#
#
# Elastic Compliance Matrix: (Units=1/GPa)
#
#
# Indices 1 2 3 4 5 6 
#
# 1 0.009429 -0.001351 -0.002568 0.000000 -0.000358 0.000000
# 2 -0.001351 0.031612 -0.008651 0.000000 -0.004698 0.000000
# 3 -0.002568 -0.008651 0.010089 0.000000 0.000609 0.000000
# 4 0.000000 0.000000 0.000000 0.030829 0.000000 -0.007371
# 5 -0.000358 -0.004698 0.000609 0.000000 0.019311 0.000000
# 6 0.000000 0.000000 0.000000 -0.007371 0.000000 0.042466
#
#
# Mechanical properties :
#
#
# Convention : Reuss Voigt Hill
#
# Bulk Modulus (GPa) = 38.47749 59.27925 48.87837
# Shear Modulus (GPa) = 28.16287 36.26785 32.21536
#
# Velocity S-wave (km/s) = 3.40527 3.86433 3.64204
# Velocity P-wave (km/s) = 5.59500 6.65722 6.14909
#
# Compressibility (1/GPa) = 0.02598922
#
# Stress axis : x y z
#
# Youngs Moduli (GPa) = 106.05874 31.63383 99.11693
#
# Poissons Ratio (x) = 0.04274 0.25452
# Poissons Ratio (y) = 0.14328 0.85750
# Poissons Ratio (z) = 0.27234 0.27368
#
# Static dielectric constant tensor:
#      x y z
#    x 4.827750 0.000000 0.021220 
#    y 0.000000 4.679260 0.000000 
#    z 0.021220 0.000000 4.375170 
# 
# 
# High freq. dielectric constant tensor:
#      x y z
#    x 1.976970 0.000000 0.000200 
#    y 0.000000 1.971120 0.000000 
#    z 0.000200 0.000000 1.967190 
# 
# From -- ./inp_files/783.got.cif
#   From: 2010.06.25/outbox.cif.g09.slc.cpg/sg11_1_cif.got.tgz:783.got - 2010.06.27 23:14:04.
