data_PCOD8077747
_publ_section_title
;
Structure prediction by ZEFSAII (Michael W. Deem and Ramdas Pophale) SiO2 
 PCOD8077747
Probable space group: P 21/M
;
_chemical_formula_sum "Si O2"
_cell_formula_units_Z 32
_cell_length_a 5.037421
_cell_length_b 18.422274
_cell_length_c 17.087835
_cell_angle_alpha 90.000000
_cell_angle_beta 89.766003
_cell_angle_gamma 90.000000
_cell_volume 1585.750678
_symmetry_space_group_name_H-M "P 21/M"
_symmetry_group_IT_number 11
_symmetry_cell_setting 'monoclinic'
loop_
_space_group_symop_operation_xyz
x,y,z
-x,1/2+y,-z
-x,-y,-z
x,1/2-y,z
loop_
_atom_site_type_symbol
_atom_site_label
_atom_site_fract_x
_atom_site_fract_y
_atom_site_fract_z
Si Si1 0.988028 0.576758 0.792371
Si Si2 0.509821 0.063596 0.107225
Si Si3 0.461536 0.101423 0.434297
Si Si4 0.042825 0.833588 0.642327
Si Si5 0.011971 0.076758 0.707629
Si Si6 0.461533 0.101423 0.934297
Si Si7 0.509820 0.436404 0.607225
Si Si8 0.042827 0.833588 0.142327
O O1 0.195337 0.579003 0.863030
O O2 0.050745 0.640798 0.731971
O O3 0.696809 0.590751 0.827503
O O4 0.000001 0.500000 0.750000
O O5 0.457708 0.978818 0.092925
O O6 0.469512 0.108555 0.027840
O O7 0.668357 0.157141 0.396187
O O8 0.469513 0.108555 0.527840
O O9 0.166469 0.119188 0.406300
O O10 0.542295 0.021181 0.407075
O O11 0.960135 0.750000 0.640006
O O12 0.804662 0.079003 0.636970
O O13 0.949254 0.140798 0.768029
O O14 0.303190 0.090751 0.672497
O O15 0.668355 0.157141 0.896187
O O16 0.166467 0.119188 0.906300
O O17 0.960137 0.750000 0.140006
#
# Coordination Sequence:
#
# PCOD8077747 Si02
#       8
#     4   4   4   4   4   4   4   4
#     4  12  21  39  64  95 124 157 203 260 301 359
#     4  11  22  38  66  95 118 152 211 261 303 340
#     4  11  22  41  63  92 121 158 206 256 300 368
#     4  12  25  41  61  89 127 168 200 244 315 375
#     4  12  21  39  64  95 124 157 203 260 301 359
#     4  11  22  41  63  92 121 158 206 256 300 368
#     4  11  22  38  66  95 118 152 211 261 303 340
#     4  12  25  41  61  89 127 168 200 244 315 375
#
# _framework density 20.179717
#
# number of rings (size 3 to 8) (size 9 to 14) (size 15 to 20)
#    0.000    0.500    5.000    4.500    0.000    4.000 
#    0.000    7.500    0.000    0.000    0.000    0.000 
#    0.000    0.000    0.000    0.000    0.000    0.000 
#
# Total GULP energy -397103.850159 kJ/mol
# GULP energy per Si atom -12409.495317 kJ/mol
# Density = 2.013379 g / cm^3
# Si number density = 20.179717 Si / 1000 Ang^3
#
#
#
# Elastic Constant Matrix: (Units=GPa)
#
#
# Indices 1 2 3 4 5 6 
#
# 1 80.4946 0.7195 15.8350 0.0000 4.9059 0.0000
# 2 0.7195 63.7995 30.5584 0.0000 -9.6877 0.0000
# 3 15.8350 30.5584 113.2644 0.0000 5.8261 0.0000
# 4 0.0000 0.0000 0.0000 16.4441 0.0000 3.8546
# 5 4.9059 -9.6877 5.8261 0.0000 45.4600 0.0000
# 6 0.0000 0.0000 0.0000 3.8546 0.0000 13.4505
#
#
#
# Elastic Compliance Matrix: (Units=1/GPa)
#
#
# Indices 1 2 3 4 5 6 
#
# 1 0.012855 0.000617 -0.001912 0.000000 -0.001011 0.000000
# 2 0.000617 0.018988 -0.005450 0.000000 0.004678 0.000000
# 3 -0.001912 -0.005450 0.010686 0.000000 -0.002325 0.000000
# 4 0.000000 0.000000 0.000000 0.065192 0.000000 -0.018683
# 5 -0.001011 0.004678 -0.002325 0.000000 0.023401 0.000000
# 6 0.000000 0.000000 0.000000 -0.018683 0.000000 0.079701
#
#
# Mechanical properties :
#
#
# Convention : Reuss Voigt Hill
#
# Bulk Modulus (GPa) = 34.43456 39.08716 36.76086
# Shear Modulus (GPa) = 21.36826 29.10060 25.23443
#
# Velocity S-wave (km/s) = 3.25760 3.80158 3.54006
# Velocity P-wave (km/s) = 5.59020 6.21940 5.91317
#
# Compressibility (1/GPa) = 0.02904059
#
# Stress axis : x y z
#
# Youngs Moduli (GPa) = 77.78854 52.66527 93.57960
#
# Poissons Ratio (x) = -0.03251 0.17890
# Poissons Ratio (y) = -0.04801 0.50999
# Poissons Ratio (z) = 0.14872 0.28701
#
# Static dielectric constant tensor:
#      x y z
#    x 3.719110 0.000000 0.032610 
#    y 0.000000 3.432880 0.000000 
#    z 0.032610 0.000000 3.896250 
# 
# 
# High freq. dielectric constant tensor:
#      x y z
#    x 1.804730 0.000000 0.001610 
#    y 0.000000 1.759850 0.000000 
#    z 0.001610 0.000000 1.803310 
# 
# From -- ./inp_files/46039.got.cif
#   From: 2010.06.25/outbox.cif.g09.slc.cpg/sg11_24_cif.got.tgz:46039.got - 2010.06.27 23:14:04.
