data_PCOD8077346
_publ_section_title
;
Structure prediction by ZEFSAII (Michael W. Deem and Ramdas Pophale) SiO2 
 PCOD8077346
Probable space group: P 21/M
;
_chemical_formula_sum "Si O2"
_cell_formula_units_Z 14
_cell_length_a 7.604324
_cell_length_b 10.195914
_cell_length_c 9.846051
_cell_angle_alpha 90.000000
_cell_angle_beta 121.160480
_cell_angle_gamma 90.000000
_cell_volume 653.252731
_symmetry_space_group_name_H-M "P 21/M"
_symmetry_group_IT_number 11
_symmetry_cell_setting 'monoclinic'
loop_
_space_group_symop_operation_xyz
x,y,z
-x,1/2+y,-z
-x,-y,-z
x,1/2-y,z
loop_
_atom_site_type_symbol
_atom_site_label
_atom_site_fract_x
_atom_site_fract_y
_atom_site_fract_z
Si Si1 0.531722 0.750000 0.842848
Si Si2 0.419554 0.750000 0.107442
Si Si3 0.946180 0.895860 0.649349
Si Si4 0.663840 0.507644 0.321296
Si Si5 0.043530 0.250000 0.088704
O O1 0.466949 0.875202 0.728489
O O2 0.780987 0.750000 0.957187
O O3 0.420092 0.750000 0.943603
O O4 0.527460 0.621065 0.203527
O O5 0.183909 0.750000 0.065874
O O6 0.986895 0.750000 0.600963
O O7 0.925061 0.880178 0.803826
O O8 0.134626 0.992094 0.692194
O O9 0.736466 0.955816 0.502762
#
# Coordination Sequence:
#
# PCOD8077346 Si02
#       5
#     2   2   4   4   2
#     4  12  24  37  66  91 120 165 198 244 308 358
#     4  12  23  42  61  90 125 161 196 252 298 362
#     4   9  19  41  62  89 117 158 197 255 288 355
#     4  11  21  40  68  86 119 165 203 241 309 348
#     4  10  23  41  59  93 127 152 202 254 296 354
#
# _framework density 21.431215999999999
#
# number of rings (size 3 to 8) (size 9 to 14) (size 15 to 20)
#    0.857    0.571    5.714    0.857    0.000    2.286 
#    0.000    0.000    6.286    0.000    0.000    0.000 
#    0.000    0.000    0.000    0.000    0.000    0.000 
#
# Total GULP energy -173549.363431 kJ/mol
# GULP energy per Si atom -12396.383102 kJ/mol
# Density = 2.138244 g / cm^3
# Si number density = 21.431216 Si / 1000 Ang^3
#
#
#
# Elastic Constant Matrix: (Units=GPa)
#
#
# Indices 1 2 3 4 5 6 
#
# 1 60.3716 9.3801 17.5093 0.0000 29.4922 0.0000
# 2 9.3801 142.0226 58.9233 0.0000 22.3683 0.0000
# 3 17.5093 58.9233 110.2492 0.0000 36.1988 0.0000
# 4 0.0000 0.0000 0.0000 64.2227 0.0000 35.1029
# 5 29.4922 22.3683 36.1988 0.0000 31.0650 0.0000
# 6 0.0000 0.0000 0.0000 35.1029 0.0000 23.5258
#
#
#
# Elastic Compliance Matrix: (Units=1/GPa)
#
#
# Indices 1 2 3 4 5 6 
#
# 1 0.035622 0.001204 0.008241 0.000000 -0.044288 0.000000
# 2 0.001204 0.009127 -0.004108 0.000000 -0.002928 0.000000
# 3 0.008241 -0.004108 0.018715 0.000000 -0.026673 0.000000
# 4 0.000000 0.000000 0.000000 0.084420 0.000000 -0.125963
# 5 -0.044288 -0.002928 -0.026673 0.000000 0.107426 0.000000
# 6 0.000000 0.000000 0.000000 -0.125963 0.000000 0.230456
#
#
# Mechanical properties :
#
#
# Convention : Reuss Voigt Hill
#
# Bulk Modulus (GPa) = 13.48852 53.80763 33.64807
# Shear Modulus (GPa) = 10.00391 38.88477 24.44434
#
# Velocity S-wave (km/s) = 2.16288 4.26420 3.38093
# Velocity P-wave (km/s) = 3.54188 7.02895 5.56557
#
# Compressibility (1/GPa) = 0.07413712
#
# Stress axis : x y z
#
# Youngs Moduli (GPa) = 28.07239 109.56430 53.43340
#
# Poissons Ratio (x) = -0.13187 -0.44033
# Poissons Ratio (y) = -0.03379 0.21949
# Poissons Ratio (z) = -0.23134 0.45007
#
# Static dielectric constant tensor:
#      x y z
#    x 3.465590 0.000000 0.245100 
#    y 0.000000 4.033630 0.000000 
#    z 0.245100 0.000000 3.891650 
# 
# 
# High freq. dielectric constant tensor:
#      x y z
#    x 1.810580 0.000000 0.030100 
#    y 0.000000 1.840200 0.000000 
#    z 0.030100 0.000000 1.843930 
# 
# From -- ./inp_files/11047.got.cif
#   From: 2010.06.25/outbox.cif.g09.slc.cpg/sg11_6_cif.got.tgz:11047.got - 2010.06.27 23:14:04.
