data_PCOD8077636
_publ_section_title
;
Structure prediction by ZEFSAII (Michael W. Deem and Ramdas Pophale) SiO2 
 PCOD8077636
Probable space group: P 21/M
;
_chemical_formula_sum "Si O2"
_cell_formula_units_Z 32
_cell_length_a 25.718985
_cell_length_b 8.863532
_cell_length_c 9.636494
_cell_angle_alpha 90.000000
_cell_angle_beta 50.125918
_cell_angle_gamma 90.000000
_cell_volume 1685.903650
_symmetry_space_group_name_H-M "P 21/M"
_symmetry_group_IT_number 11
_symmetry_cell_setting 'monoclinic'
loop_
_space_group_symop_operation_xyz
x,y,z
-x,1/2+y,-z
-x,-y,-z
x,1/2-y,z
loop_
_atom_site_type_symbol
_atom_site_label
_atom_site_fract_x
_atom_site_fract_y
_atom_site_fract_z
Si Si1 0.195374 0.427697 0.679845
Si Si2 0.176515 0.070348 0.404593
Si Si3 0.577535 0.571936 0.012528
Si Si4 0.562474 0.927747 0.724179
Si Si5 0.700426 0.929755 0.990450
Si Si6 0.686577 0.929692 0.327561
Si Si7 0.025533 0.070628 0.595301
Si Si8 0.952879 0.571759 0.967029
O O1 0.205868 0.250000 0.653321
O O2 0.199351 0.493192 0.516294
O O3 0.253497 0.497347 0.678889
O O4 0.124097 0.469598 0.868922
O O5 0.175612 0.250000 0.410984
O O6 0.101217 0.011138 0.499313
O O7 0.228958 0.012733 0.197547
O O8 0.573186 0.750000 0.033047
O O9 0.508433 0.504527 0.191720
O O10 0.639274 0.508660 0.999390
O O11 0.588074 0.523134 0.833947
O O12 0.552124 0.750000 0.736800
O O13 0.616062 0.982227 0.517011
O O14 0.699211 0.750000 0.994750
O O15 0.693050 0.993895 0.159695
O O16 0.691322 0.750000 0.315770
O O17 0.023895 0.250000 0.594058
O O18 0.000000 0.000000 0.500000
O O19 0.970757 0.008179 0.794765
O O20 0.964604 0.750000 0.939741
O O21 0.000000 0.500000 0.000000
#
# Coordination Sequence:
#
# PCOD8077636 Si02
#       8
#     4   4   4   4   4   4   4   4
#     4   9  17  30  50  76 103 133 171 218 262 306
#     4   9  17  31  50  74 103 134 172 217 261 308
#     4   9  17  30  49  73  99 129 163 204 251 301
#     4   9  17  30  49  73  99 128 164 206 250 299
#     4   9  17  28  46  73 102 130 167 214 256 297
#     4   9  17  28  46  74 102 128 167 215 256 296
#     4  11  23  38  56  82 112 146 184 228 280 333
#     4  11  21  36  58  84 112 144 184 230 278 329
#
# _framework density 18.980919
#
# number of rings (size 3 to 8) (size 9 to 14) (size 15 to 20)
#    0.000    2.500    1.250    1.500    1.750    3.500 
#    0.000    0.000    0.000    3.000    0.000    0.000 
#    0.000    0.000    0.000    0.000    0.000    0.000 
#
# Total GULP energy -396710.513684 kJ/mol
# GULP energy per Si atom -12397.203553 kJ/mol
# Density = 1.893772 g / cm^3
# Si number density = 18.980919 Si / 1000 Ang^3
#
#
#
# Elastic Constant Matrix: (Units=GPa)
#
#
# Indices 1 2 3 4 5 6 
#
# 1 121.1173 12.0637 77.8293 0.0000 4.9212 0.0000
# 2 12.0637 19.9074 24.5200 0.0000 -3.5824 0.0000
# 3 77.8293 24.5200 173.3193 0.0000 10.1705 0.0000
# 4 0.0000 0.0000 0.0000 24.3240 0.0000 -2.0851
# 5 4.9212 -3.5824 10.1705 0.0000 32.8186 0.0000
# 6 0.0000 0.0000 0.0000 -2.0851 0.0000 22.4080
#
#
#
# Elastic Compliance Matrix: (Units=1/GPa)
#
#
# Indices 1 2 3 4 5 6 
#
# 1 0.011616 -0.000822 -0.005085 0.000000 -0.000256 0.000000
# 2 -0.000822 0.063931 -0.009261 0.000000 0.009972 0.000000
# 3 -0.005085 -0.009261 0.009552 0.000000 -0.003208 0.000000
# 4 0.000000 0.000000 0.000000 0.041442 0.000000 0.003856
# 5 -0.000256 0.009972 -0.003208 0.000000 0.032592 0.000000
# 6 0.000000 0.000000 0.000000 0.003856 0.000000 0.044986
#
#
# Mechanical properties :
#
#
# Convention : Reuss Voigt Hill
#
# Bulk Modulus (GPa) = 18.26024 60.35224 39.30624
# Shear Modulus (GPa) = 19.78560 29.23885 24.51222
#
# Velocity S-wave (km/s) = 3.23212 3.92909 3.59752
# Velocity P-wave (km/s) = 4.85489 7.24217 6.16518
#
# Compressibility (1/GPa) = 0.05476379
#
# Stress axis : x y z
#
# Youngs Moduli (GPa) = 86.08566 15.64176 104.69557
#
# Poissons Ratio (x) = 0.01286 0.53238
# Poissons Ratio (y) = 0.07078 0.96953
# Poissons Ratio (z) = 0.43775 0.14485
#
# Static dielectric constant tensor:
#      x y z
#    x 3.850950 0.000000 0.306130 
#    y 0.000000 2.972420 0.000000 
#    z 0.306130 0.000000 4.109980 
# 
# 
# High freq. dielectric constant tensor:
#      x y z
#    x 1.748490 0.000000 -0.000540 
#    y 0.000000 1.680530 0.000000 
#    z -0.000540 0.000000 1.753820 
# 
# From -- ./inp_files/27506.got.cif
#   From: 2010.06.25/outbox.cif.g09.slc.cpg/sg11_14_cif.got.tgz:27506.got - 2010.06.27 23:14:04.
