data_PCOD8077432
_publ_section_title
;
Structure prediction by ZEFSAII (Michael W. Deem and Ramdas Pophale) SiO2 
 PCOD8077432
Probable space group: P 21/M
;
_chemical_formula_sum "Si O2"
_cell_formula_units_Z 28
_cell_length_a 15.321352
_cell_length_b 8.808643
_cell_length_c 12.508693
_cell_angle_alpha 90.000000
_cell_angle_beta 51.970926
_cell_angle_gamma 90.000000
_cell_volume 1329.774222
_symmetry_space_group_name_H-M "P 21/M"
_symmetry_group_IT_number 11
_symmetry_cell_setting 'monoclinic'
loop_
_space_group_symop_operation_xyz
x,y,z
-x,1/2+y,-z
-x,-y,-z
x,1/2-y,z
loop_
_atom_site_type_symbol
_atom_site_label
_atom_site_fract_x
_atom_site_fract_y
_atom_site_fract_z
Si Si1 0.494989 0.073407 0.209570
Si Si2 0.111485 0.070602 0.632695
Si Si3 0.725283 0.572865 0.074741
Si Si4 0.793213 0.082316 0.244859
Si Si5 0.570133 0.418843 0.534517
Si Si6 0.738164 0.929743 0.673572
Si Si7 0.118462 0.428886 0.236683
O O1 0.525088 0.250000 0.177956
O O2 0.392410 0.024814 0.208913
O O3 0.608528 0.980924 0.111595
O O4 0.436913 0.037360 0.364998
O O5 0.115204 0.250000 0.637477
O O6 0.207087 0.009085 0.478914
O O7 0.118165 0.008777 0.750178
O O8 0.995720 0.018095 0.670563
O O9 0.715892 0.750000 0.102240
O O10 0.755310 0.497291 0.164677
O O11 0.821157 0.531506 0.919708
O O12 0.839989 0.250000 0.181099
O O13 0.692995 0.098689 0.401268
O O14 0.500000 0.500000 0.500000
O O15 0.523255 0.250000 0.599188
O O16 0.745233 0.750000 0.664914
O O17 0.806156 0.991804 0.723421
O O18 0.096251 0.250000 0.263786
#
# Coordination Sequence:
#
# PCOD8077432 Si02
#       7
#     4   4   4   4   4   4   4
#     4  11  21  36  60  89 123 159 195 242 299 359
#     4  11  22  39  65  94 120 152 198 251 303 356
#     4  11  24  40  60  87 123 163 202 244 293 356
#     4  11  23  38  60  89 122 158 197 244 299 359
#     4  11  21  33  55  87 121 157 195 244 301 355
#     4   9  20  39  64  91 120 154 195 248 304 352
#     4  10  23  44  63  84 119 162 204 248 297 350
#
# _framework density 21.056206
#
# number of rings (size 3 to 8) (size 9 to 14) (size 15 to 20)
#    0.000    1.429    2.857    2.571    0.000    3.429 
#    0.000    2.143    0.000    0.000    0.000    0.000 
#    0.000    0.000    0.000    0.000    0.000    0.000 
#
# Total GULP energy -346983.316736 kJ/mol
# GULP energy per Si atom -12392.261312 kJ/mol
# Density = 2.100828 g / cm^3
# Si number density = 21.056206 Si / 1000 Ang^3
#
#
#
# Elastic Constant Matrix: (Units=GPa)
#
#
# Indices 1 2 3 4 5 6 
#
# 1 119.9878 32.6773 6.1583 0.0000 7.3009 0.0000
# 2 32.6773 75.4358 19.0384 0.0000 -1.5012 0.0000
# 3 6.1583 19.0384 47.3371 0.0000 -2.7081 0.0000
# 4 0.0000 0.0000 0.0000 19.6779 0.0000 -6.6015
# 5 7.3009 -1.5012 -2.7081 0.0000 21.7326 0.0000
# 6 0.0000 0.0000 0.0000 -6.6015 0.0000 31.3730
#
#
#
# Elastic Compliance Matrix: (Units=1/GPa)
#
#
# Indices 1 2 3 4 5 6 
#
# 1 0.009720 -0.004352 0.000284 0.000000 -0.003531 0.000000
# 2 -0.004352 0.016704 -0.006046 0.000000 0.001863 0.000000
# 3 0.000284 -0.006046 0.023659 0.000000 0.002435 0.000000
# 4 0.000000 0.000000 0.000000 0.054678 0.000000 0.011505
# 5 -0.003531 0.001863 0.002435 0.000000 0.047632 0.000000
# 6 0.000000 0.000000 0.000000 0.011505 0.000000 0.034296
#
#
# Mechanical properties :
#
#
# Convention : Reuss Voigt Hill
#
# Bulk Modulus (GPa) = 33.49485 39.83428 36.66457
# Shear Modulus (GPa) = 23.05544 26.88247 24.96895
#
# Velocity S-wave (km/s) = 3.31259 3.57697 3.44732
# Velocity P-wave (km/s) = 5.52927 6.00156 5.77025
#
# Compressibility (1/GPa) = 0.02985534
#
# Stress axis : x y z
#
# Youngs Moduli (GPa) = 102.88350 59.86416 42.26737
#
# Poissons Ratio (x) = 0.26055 -0.01200
# Poissons Ratio (y) = 0.44778 0.25553
# Poissons Ratio (z) = -0.02922 0.36191
#
# Static dielectric constant tensor:
#      x y z
#    x 4.012150 0.000000 0.027620 
#    y 0.000000 4.152250 0.000000 
#    z 0.027620 0.000000 3.742960 
# 
# 
# High freq. dielectric constant tensor:
#      x y z
#    x 1.843130 0.000000 0.001150 
#    y 0.000000 1.817200 0.000000 
#    z 0.001150 0.000000 1.812640 
# 
# From -- ./inp_files/37833.got.cif
#   From: 2010.06.25/outbox.cif.g09.slc.cpg/sg11_19_cif.got.tgz:37833.got - 2010.06.27 23:14:04.
