data_PCOD8077831
_publ_section_title
;
Structure prediction by ZEFSAII (Michael W. Deem and Ramdas Pophale) SiO2 
 PCOD8077831
Probable space group: P 21/M
;
_chemical_formula_sum "Si O2"
_cell_formula_units_Z 24
_cell_length_a 14.888294
_cell_length_b 8.639497
_cell_length_c 14.664112
_cell_angle_alpha 90.000000
_cell_angle_beta 40.228894
_cell_angle_gamma 90.000000
_cell_volume 1218.192651
_symmetry_space_group_name_H-M "P 21/M"
_symmetry_group_IT_number 11
_symmetry_cell_setting 'monoclinic'
loop_
_space_group_symop_operation_xyz
x,y,z
-x,1/2+y,-z
-x,-y,-z
x,1/2-y,z
loop_
_atom_site_type_symbol
_atom_site_label
_atom_site_fract_x
_atom_site_fract_y
_atom_site_fract_z
Si Si1 0.604657 0.930998 0.157749
Si Si2 0.911672 0.571589 0.149235
Si Si3 0.871808 0.072188 0.863179
Si Si4 0.107498 0.069801 0.346330
Si Si5 0.424527 0.429703 0.145597
Si Si6 0.619565 0.432021 0.345258
O O1 0.592795 0.750000 0.185197
O O2 0.475093 0.985946 0.197727
O O3 0.600333 0.018122 0.256368
O O4 0.747468 0.965257 0.994662
O O5 0.884336 0.750000 0.147272
O O6 0.765935 0.486225 0.272145
O O7 0.992255 0.549077 0.180997
O O8 0.000000 0.500000 0.000000
O O9 0.821486 0.250000 0.904044
O O10 0.914430 0.022527 0.729671
O O11 0.077751 0.250000 0.352690
O O12 0.260992 0.042356 0.266046
O O13 0.000000 0.000000 0.500000
O O14 0.463270 0.250000 0.120871
O O15 0.500000 0.500000 0.000000
O O16 0.500000 0.500000 0.500000
O O17 0.612321 0.250000 0.355759
#
# Coordination Sequence:
#
# PCOD8077831 Si02
#       6
#     4   4   4   4   4   4
#     4  12  24  40  66  97 129 169 217 266 321 386
#     4  11  23  40  66  98 131 171 217 264 319 384
#     4  11  23  40  66  96 129 169 214 264 318 380
#     4  11  25  43  65  94 130 170 212 265 323 381
#     4  11  23  40  65  96 129 169 217 265 319 381
#     4  12  26  45  67  95 132 172 215 271 331 387
#
# _framework density 19.701319000000002
#
# number of rings (size 3 to 8) (size 9 to 14) (size 15 to 20)
#    0.000    0.667    3.333    5.000    0.000    5.333 
#    0.000    1.667    0.000    0.000    0.000    0.000 
#    0.000    0.000    0.000    0.000    0.000    0.000 
#
# Total GULP energy -297780.745071 kJ/mol
# GULP energy per Si atom -12407.531045 kJ/mol
# Density = 1.965648 g / cm^3
# Si number density = 19.701319 Si / 1000 Ang^3
#
#
#
# Elastic Constant Matrix: (Units=GPa)
#
#
# Indices 1 2 3 4 5 6 
#
# 1 131.3622 60.3930 52.2609 0.0000 0.3818 0.0000
# 2 60.3930 148.0265 45.8037 0.0000 -12.1226 0.0000
# 3 52.2609 45.8037 137.6392 0.0000 -4.7402 0.0000
# 4 0.0000 0.0000 0.0000 39.5024 0.0000 0.9175
# 5 0.3818 -12.1226 -4.7402 0.0000 32.5470 0.0000
# 6 0.0000 0.0000 0.0000 0.9175 0.0000 38.4635
#
#
#
# Elastic Compliance Matrix: (Units=1/GPa)
#
#
# Indices 1 2 3 4 5 6 
#
# 1 0.010352 -0.003498 -0.002830 0.000000 -0.001837 0.000000
# 2 -0.003498 0.008913 -0.001530 0.000000 0.003138 0.000000
# 3 -0.002830 -0.001530 0.008875 0.000000 0.000756 0.000000
# 4 0.000000 0.000000 0.000000 0.025329 0.000000 -0.000604
# 5 -0.001837 0.003138 0.000756 0.000000 0.032025 0.000000
# 6 0.000000 0.000000 0.000000 -0.000604 0.000000 0.026013
#
#
# Mechanical properties :
#
#
# Convention : Reuss Voigt Hill
#
# Bulk Modulus (GPa) = 80.48590 81.54925 81.01758
# Shear Modulus (GPa) = 38.06210 39.34059 38.70135
#
# Velocity S-wave (km/s) = 4.40017 4.47346 4.43697
# Velocity P-wave (km/s) = 8.17050 8.25622 8.21347
#
# Compressibility (1/GPa) = 0.01242454
#
# Stress axis : x y z
#
# Youngs Moduli (GPa) = 96.60025 112.19372 112.67737
#
# Poissons Ratio (x) = 0.39249 0.31884
# Poissons Ratio (y) = 0.33794 0.17237
# Poissons Ratio (z) = 0.27335 0.17163
#
# Static dielectric constant tensor:
#      x y z
#    x 3.801040 0.000000 -0.094900 
#    y 0.000000 3.896890 0.000000 
#    z -0.094900 0.000000 3.533780 
# 
# 
# High freq. dielectric constant tensor:
#      x y z
#    x 1.787310 0.000000 -0.000080 
#    y 0.000000 1.790070 0.000000 
#    z -0.000080 0.000000 1.767980 
# 
# From -- ./inp_files/51519.got.cif
#   From: 2010.06.25/outbox.cif.g09.slc.cpg/sg11_26_cif.got.tgz:51519.got - 2010.06.27 23:14:04.
