data_PCOD8077461
_publ_section_title
;
Structure prediction by ZEFSAII (Michael W. Deem and Ramdas Pophale) SiO2 
 PCOD8077461
Probable space group: P 21/M
;
_chemical_formula_sum "Si O2"
_cell_formula_units_Z 24
_cell_length_a 6.570101
_cell_length_b 17.160440
_cell_length_c 10.543186
_cell_angle_alpha 90.000000
_cell_angle_beta 74.379029
_cell_angle_gamma 90.000000
_cell_volume 1144.794451
_symmetry_space_group_name_H-M "P 21/M"
_symmetry_group_IT_number 11
_symmetry_cell_setting 'monoclinic'
loop_
_space_group_symop_operation_xyz
x,y,z
-x,1/2+y,-z
-x,-y,-z
x,1/2-y,z
loop_
_atom_site_type_symbol
_atom_site_label
_atom_site_fract_x
_atom_site_fract_y
_atom_site_fract_z
Si Si1 0.884601 0.076362 0.464695
Si Si2 0.645024 0.841200 0.057038
Si Si3 0.552777 0.450923 0.321058
Si Si4 0.732973 0.086128 0.737391
Si Si5 0.245939 0.157840 0.249345
Si Si6 0.910493 0.964907 0.138061
O O1 0.654184 0.053266 0.444576
O O2 0.837579 0.131428 0.598341
O O3 0.026080 0.121644 0.337059
O O4 0.000000 0.000000 0.500000
O O5 0.676433 0.750000 0.065191
O O6 0.406338 0.863373 0.141353
O O7 0.802757 0.881367 0.129930
O O8 0.698571 0.869101 0.904690
O O9 0.388903 0.519436 0.320056
O O10 0.440297 0.369159 0.305405
O O11 0.749749 0.466974 0.198278
O O12 0.916843 0.043770 0.783071
O O13 0.227578 0.250000 0.259351
O O14 0.000000 0.000000 0.000000
#
# Coordination Sequence:
#
# PCOD8077461 Si02
#       6
#     4   4   4   4   4   4
#     4  12  23  41  66  96 125 165 209 264 311 373
#     4  10  24  43  62  91 130 168 208 259 317 375
#     4  11  21  39  65  92 125 163 209 258 313 368
#     4  11  23  39  65  95 123 162 210 260 311 366
#     4  11  25  43  64  93 129 167 209 257 316 379
#     4  11  21  37  64  95 122 164 212 258 307 369
#
# _framework density 20.964462999999999
#
# number of rings (size 3 to 8) (size 9 to 14) (size 15 to 20)
#    0.000    1.000    3.333    3.500    0.000    4.667 
#    0.000    5.833    0.000    0.000    0.000    0.000 
#    0.000    0.000    0.000    0.000    0.000    0.000 
#
# Total GULP energy -297318.683332 kJ/mol
# GULP energy per Si atom -12388.278472 kJ/mol
# Density = 2.091675 g / cm^3
# Si number density = 20.964463 Si / 1000 Ang^3
#
#
#
# Elastic Constant Matrix: (Units=GPa)
#
#
# Indices 1 2 3 4 5 6 
#
# 1 129.3181 28.4062 54.1877 0.0000 11.6888 0.0000
# 2 28.4062 71.2298 27.2601 0.0000 1.2428 0.0000
# 3 54.1877 27.2601 146.3649 0.0000 -8.0789 0.0000
# 4 0.0000 0.0000 0.0000 22.6491 0.0000 -3.0620
# 5 11.6888 1.2428 -8.0789 0.0000 48.6382 0.0000
# 6 0.0000 0.0000 0.0000 -3.0620 0.0000 25.6216
#
#
#
# Elastic Compliance Matrix: (Units=1/GPa)
#
#
# Indices 1 2 3 4 5 6 
#
# 1 0.009984 -0.002644 -0.003364 0.000000 -0.002891 0.000000
# 2 -0.002644 0.015853 -0.001979 0.000000 -0.000098 0.000000
# 3 -0.003364 -0.001979 0.008572 0.000000 0.002283 0.000000
# 4 0.000000 0.000000 0.000000 0.044877 0.000000 0.005363
# 5 -0.002891 -0.000098 0.002283 0.000000 0.021636 0.000000
# 6 0.000000 0.000000 0.000000 0.005363 0.000000 0.039671
#
#
# Mechanical properties :
#
#
# Convention : Reuss Voigt Hill
#
# Bulk Modulus (GPa) = 54.24235 62.95788 58.60012
# Shear Modulus (GPa) = 30.72926 35.18570 32.95748
#
# Velocity S-wave (km/s) = 3.83270 4.10121 3.96923
# Velocity P-wave (km/s) = 6.74654 7.24724 7.00137
#
# Compressibility (1/GPa) = 0.01843578
#
# Stress axis : x y z
#
# Youngs Moduli (GPa) = 100.15671 63.08106 116.65764
#
# Poissons Ratio (x) = 0.16679 0.39238
# Poissons Ratio (y) = 0.26482 0.23087
# Poissons Ratio (z) = 0.33688 0.12484
#
# Static dielectric constant tensor:
#      x y z
#    x 4.577160 0.000000 -0.288880 
#    y 0.000000 3.148250 0.000000 
#    z -0.288880 0.000000 4.150180 
# 
# 
# High freq. dielectric constant tensor:
#      x y z
#    x 1.837760 0.000000 -0.010510 
#    y 0.000000 1.787040 0.000000 
#    z -0.010510 0.000000 1.853450 
# 
# From -- ./inp_files/29763.got.cif
#   From: 2010.06.25/outbox.cif.g09.slc.cpg/sg11_15_cif.got.tgz:29763.got - 2010.06.27 23:14:04.
