data_PCOD8077136
_publ_section_title
;
Structure prediction by ZEFSAII (Michael W. Deem and Ramdas Pophale) SiO2 
 PCOD8077136
Probable space group: P 21/M
;
_chemical_formula_sum "Si O2"
_cell_formula_units_Z 32
_cell_length_a 15.083829
_cell_length_b 8.752722
_cell_length_c 11.935891
_cell_angle_alpha 90.000000
_cell_angle_beta 87.941799
_cell_angle_gamma 90.000000
_cell_volume 1574.814150
_symmetry_space_group_name_H-M "P 21/M"
_symmetry_group_IT_number 11
_symmetry_cell_setting 'monoclinic'
loop_
_space_group_symop_operation_xyz
x,y,z
-x,1/2+y,-z
-x,-y,-z
x,1/2-y,z
loop_
_atom_site_type_symbol
_atom_site_label
_atom_site_fract_x
_atom_site_fract_y
_atom_site_fract_z
Si Si1 0.748304 0.917760 0.989076
Si Si2 0.020104 0.925141 0.307242
Si Si3 0.503620 0.429093 0.873973
Si Si4 0.827626 0.068111 0.338947
Si Si5 0.920650 0.076644 0.944516
Si Si6 0.332983 0.573561 0.815868
Si Si7 0.670089 0.579615 0.757183
Si Si8 0.816971 0.931832 0.577345
O O1 0.734697 0.750000 0.044433
O O2 0.734918 0.909824 0.858511
O O3 0.846261 0.974134 0.002850
O O4 0.684879 0.039605 0.052092
O O5 0.002779 0.750000 0.344285
O O6 0.071868 0.934362 0.188592
O O7 0.086518 0.002566 0.392861
O O8 0.925276 0.008634 0.301011
O O9 0.498338 0.250000 0.893010
O O10 0.424778 0.483076 0.793326
O O11 0.590084 0.470240 0.796866
O O12 0.500000 0.500000 0.000000
O O13 0.831646 0.250000 0.349012
O O14 0.751490 0.017102 0.253358
O O15 0.795978 0.992816 0.455396
O O16 0.906920 0.250000 0.984521
O O17 0.000000 0.000000 0.000000
O O18 0.351654 0.750000 0.793921
O O19 0.634446 0.750000 0.728030
O O20 0.732753 0.512027 0.655694
O O21 0.823676 0.750000 0.581131
#
# Coordination Sequence:
#
# PCOD8077136 Si02
#       8
#     4   4   4   4   4   4   4   4
#     4  11  21  36  60  88 123 160 199 248 306 367
#     4  11  23  39  61  89 122 163 210 256 303 363
#     4  12  24  39  65  96 128 163 202 251 305 370
#     4  11  25  43  63  89 123 163 208 259 308 361
#     4  11  23  36  54  83 122 164 206 252 305 368
#     4  11  24  42  64  91 126 165 206 254 309 367
#     4  10  22  40  63  93 124 158 200 250 305 361
#     4  11  23  42  67  91 122 163 208 258 306 361
#
# _framework density 20.319859000000001
#
# number of rings (size 3 to 8) (size 9 to 14) (size 15 to 20)
#    0.000    1.000    2.500    4.500    0.000    7.000 
#    0.000    0.625    0.000    0.000    0.000    0.000 
#    0.000    0.000    0.000    0.000    0.000    0.000 
#
# Total GULP energy -396612.219978 kJ/mol
# GULP energy per Si atom -12394.131874 kJ/mol
# Density = 2.027361 g / cm^3
# Si number density = 20.319859 Si / 1000 Ang^3
#
#
#
# Elastic Constant Matrix: (Units=GPa)
#
#
# Indices 1 2 3 4 5 6 
#
# 1 136.7272 56.2725 23.9151 0.0000 -2.9056 0.0000
# 2 56.2725 106.8196 34.0962 0.0000 4.8975 0.0000
# 3 23.9151 34.0962 57.8540 0.0000 -2.0377 0.0000
# 4 0.0000 0.0000 0.0000 30.3350 0.0000 -2.0552
# 5 -2.9056 4.8975 -2.0377 0.0000 28.8507 0.0000
# 6 0.0000 0.0000 0.0000 -2.0552 0.0000 34.4660
#
#
#
# Elastic Compliance Matrix: (Units=1/GPa)
#
#
# Indices 1 2 3 4 5 6 
#
# 1 0.009484 -0.004731 -0.001073 0.000000 0.001683 0.000000
# 2 -0.004731 0.014065 -0.006450 0.000000 -0.003320 0.000000
# 3 -0.001073 -0.006450 0.021619 0.000000 0.002514 0.000000
# 4 0.000000 0.000000 0.000000 0.033099 0.000000 0.001974
# 5 0.001683 -0.003320 0.002514 0.000000 0.035572 0.000000
# 6 0.000000 0.000000 0.000000 0.001974 0.000000 0.029132
#
#
# Mechanical properties :
#
#
# Convention : Reuss Voigt Hill
#
# Bulk Modulus (GPa) = 48.40532 58.88537 53.64534
# Shear Modulus (GPa) = 28.67534 31.20482 29.94008
#
# Velocity S-wave (km/s) = 3.76067 3.92303 3.84271
# Velocity P-wave (km/s) = 6.53684 7.04005 6.79310
#
# Compressibility (1/GPa) = 0.02065889
#
# Stress axis : x y z
#
# Youngs Moduli (GPa) = 105.43613 71.09839 46.25647
#
# Poissons Ratio (x) = 0.33637 0.04964
# Poissons Ratio (y) = 0.49882 0.29838
# Poissons Ratio (z) = 0.11314 0.45862
#
# Static dielectric constant tensor:
#      x y z
#    x 3.723760 0.000000 0.173870 
#    y 0.000000 3.785850 0.000000 
#    z 0.173870 0.000000 3.346230 
# 
# 
# High freq. dielectric constant tensor:
#      x y z
#    x 1.807450 0.000000 -0.003860 
#    y 0.000000 1.802660 0.000000 
#    z -0.003860 0.000000 1.781000 
# 
# From -- ./inp_files/38303.got.cif
#   From: 2010.06.25/outbox.cif.g09.slc.cpg/sg11_20_cif.got.tgz:38303.got - 2010.06.27 23:14:04.
