data_PCOD8077092
_publ_section_title
;
Structure prediction by ZEFSAII (Michael W. Deem and Ramdas Pophale) SiO2 
 PCOD8077092
Probable space group: P 21/M
;
_chemical_formula_sum "Si O2"
_cell_formula_units_Z 28
_cell_length_a 29.851981
_cell_length_b 8.906904
_cell_length_c 10.295612
_cell_angle_alpha 90.000000
_cell_angle_beta 33.696319
_cell_angle_gamma 90.000000
_cell_volume 1518.733192
_symmetry_space_group_name_H-M "P 21/M"
_symmetry_group_IT_number 11
_symmetry_cell_setting 'monoclinic'
loop_
_space_group_symop_operation_xyz
x,y,z
-x,1/2+y,-z
-x,-y,-z
x,1/2-y,z
loop_
_atom_site_type_symbol
_atom_site_label
_atom_site_fract_x
_atom_site_fract_y
_atom_site_fract_z
Si Si1 0.176295 0.423114 0.819529
Si Si2 0.579720 0.573414 0.153732
Si Si3 0.769016 0.424718 0.054174
Si Si4 0.736404 0.572089 0.645129
Si Si5 0.001886 0.923168 0.856314
Si Si6 0.154627 0.428343 0.379827
Si Si7 0.403724 0.923847 0.615703
O O1 0.198007 0.250000 0.797136
O O2 0.193135 0.524444 0.902670
O O3 0.230941 0.489715 0.570381
O O4 0.083520 0.440760 0.006893
O O5 0.587310 0.750000 0.146849
O O6 0.608571 0.511466 0.221687
O O7 0.487526 0.523920 0.343073
O O8 0.643357 0.517934 0.890577
O O9 0.787235 0.250000 0.987095
O O10 0.672415 0.455973 0.293110
O O11 0.808125 0.518773 0.844815
O O12 0.744615 0.750000 0.622652
O O13 0.790741 0.511552 0.632876
O O14 0.024830 0.750000 0.820520
O O15 0.065950 0.002523 0.608115
O O16 0.000000 0.000000 0.000000
O O17 0.147955 0.250000 0.395219
O O18 0.410391 0.750000 0.636621
#
# Coordination Sequence:
#
# PCOD8077092 Si02
#       7
#     4   4   4   4   4   4   4
#     4  10  22  40  58  79 110 149 189 227 273 338
#     4   9  16  30  55  82 108 142 183 227 275 326
#     4  11  23  38  54  82 118 151 186 229 284 335
#     4   9  17  33  57  84 108 139 187 230 268 325
#     4  11  22  38  60  87 116 145 185 235 283 332
#     4  11  21  37  61  86 111 146 190 233 279 335
#     4   9  18  31  50  80 115 144 177 227 278 328
#
# _framework density 18.436418
#
# number of rings (size 3 to 8) (size 9 to 14) (size 15 to 20)
#    0.000    2.000    2.857    1.286    0.000    2.286 
#    0.000    1.429    0.000    0.000    0.000    0.000 
#    0.000    0.000    0.000    0.000    0.000    0.000 
#
# Total GULP energy -347150.916557 kJ/mol
# GULP energy per Si atom -12398.247020 kJ/mol
# Density = 1.839446 g / cm^3
# Si number density = 18.436418 Si / 1000 Ang^3
#
#
#
# Elastic Constant Matrix: (Units=GPa)
#
#
# Indices 1 2 3 4 5 6 
#
# 1 85.0590 34.7738 46.0556 0.0000 2.7879 0.0000
# 2 34.7738 61.8645 38.3620 0.0000 -6.1398 0.0000
# 3 46.0556 38.3620 140.9749 0.0000 -5.8991 0.0000
# 4 0.0000 0.0000 0.0000 24.6891 0.0000 0.4121
# 5 2.7879 -6.1398 -5.8991 0.0000 28.0336 0.0000
# 6 0.0000 0.0000 0.0000 0.4121 0.0000 23.2879
#
#
#
# Elastic Compliance Matrix: (Units=1/GPa)
#
#
# Indices 1 2 3 4 5 6 
#
# 1 0.017017 -0.007725 -0.003631 0.000000 -0.004148 0.000000
# 2 -0.007725 0.023237 -0.003586 0.000000 0.005103 0.000000
# 3 -0.003631 -0.003586 0.009320 0.000000 0.001537 0.000000
# 4 0.000000 0.000000 0.000000 0.040516 0.000000 -0.000717
# 5 -0.004148 0.005103 0.001537 0.000000 0.037525 0.000000
# 6 0.000000 0.000000 0.000000 -0.000717 0.000000 0.042954
#
#
# Mechanical properties :
#
#
# Convention : Reuss Voigt Hill
#
# Bulk Modulus (GPa) = 50.78854 58.47568 54.63211
# Shear Modulus (GPa) = 24.15299 26.44926 25.30112
#
# Velocity S-wave (km/s) = 3.62341 3.79175 3.70854
# Velocity P-wave (km/s) = 6.71664 7.13836 6.93071
#
# Compressibility (1/GPa) = 0.01968948
#
# Stress axis : x y z
#
# Youngs Moduli (GPa) = 58.76626 43.03533 107.30055
#
# Poissons Ratio (x) = 0.33246 0.38956
# Poissons Ratio (y) = 0.45399 0.38476
# Poissons Ratio (z) = 0.21336 0.15432
#
# Static dielectric constant tensor:
#      x y z
#    x 3.336600 0.000000 -0.572210 
#    y 0.000000 3.369330 0.000000 
#    z -0.572210 0.000000 9.502230 
# 
# 
# High freq. dielectric constant tensor:
#      x y z
#    x 1.698490 0.000000 -0.015740 
#    y 0.000000 1.706150 0.000000 
#    z -0.015740 0.000000 1.731500 
# 
# From -- ./inp_files/28400.got.cif
#   From: 2010.06.25/outbox.cif.g09.slc.cpg/sg11_15_cif.got.tgz:28400.got - 2010.06.27 23:14:04.
