data_PCOD8077763
_publ_section_title
;
Structure prediction by ZEFSAII (Michael W. Deem and Ramdas Pophale) SiO2 
 PCOD8077763
Probable space group: P 21/M
;
_chemical_formula_sum "Si O2"
_cell_formula_units_Z 28
_cell_length_a 26.816987
_cell_length_b 8.626389
_cell_length_c 9.259364
_cell_angle_alpha 90.000000
_cell_angle_beta 141.240940
_cell_angle_gamma 90.000000
_cell_volume 1340.994408
_symmetry_space_group_name_H-M "P 21/M"
_symmetry_group_IT_number 11
_symmetry_cell_setting 'monoclinic'
loop_
_space_group_symop_operation_xyz
x,y,z
-x,1/2+y,-z
-x,-y,-z
x,1/2-y,z
loop_
_atom_site_type_symbol
_atom_site_label
_atom_site_fract_x
_atom_site_fract_y
_atom_site_fract_z
Si Si1 0.369592 0.933684 0.549474
Si Si2 0.517524 0.933617 0.696869
Si Si3 0.659359 0.433484 0.193075
Si Si4 0.771078 0.432414 0.973340
Si Si5 0.963372 0.076432 0.778966
Si Si6 0.202521 0.431736 0.662584
Si Si7 0.931827 0.924050 0.253517
O O1 0.366549 0.750000 0.548409
O O2 0.451249 0.992862 0.661472
O O3 0.361754 0.998890 0.694853
O O4 0.297064 0.994465 0.287658
O O5 0.517184 0.750000 0.684725
O O6 0.500000 0.000000 0.500000
O O7 0.602153 0.991734 0.944412
O O8 0.650701 0.250000 0.167621
O O9 0.749205 0.483008 0.356202
O O10 0.764310 0.250000 0.988240
O O11 0.760937 0.520862 0.101110
O O12 0.854496 0.469250 0.086215
O O13 0.932699 0.250000 0.742000
O O14 0.037814 0.080686 0.840241
O O15 0.889888 0.979240 0.549987
O O16 0.000000 0.000000 0.000000
O O17 0.210589 0.250000 0.657477
O O18 0.912544 0.750000 0.266493
O O19 0.000000 0.000000 0.500000
#
# Coordination Sequence:
#
# PCOD8077763 Si02
#       7
#     4   4   4   4   4   4   4
#     4   9  22  41  64  93 126 164 207 254 310 371
#     4  11  22  41  67  97 129 167 210 255 307 372
#     4  11  23  42  65  93 128 167 208 259 316 373
#     4  11  22  40  65  93 124 165 213 264 317 376
#     4  11  25  43  64  91 126 167 212 263 320 380
#     4  12  25  42  63  92 126 166 213 263 317 380
#     4  11  23  40  63  92 124 165 213 263 317 375
#
# _framework density 20.880029
#
# number of rings (size 3 to 8) (size 9 to 14) (size 15 to 20)
#    0.000    1.143    1.429    4.714    2.000    2.857 
#    0.000    6.429    0.000    0.000    0.000    0.000 
#    0.000    0.000    0.000    0.000    0.000    0.000 
#
# Total GULP energy -347333.082790 kJ/mol
# GULP energy per Si atom -12404.752957 kJ/mol
# Density = 2.083250 g / cm^3
# Si number density = 20.880029 Si / 1000 Ang^3
#
#
#
# Elastic Constant Matrix: (Units=GPa)
#
#
# Indices 1 2 3 4 5 6 
#
# 1 121.4053 28.1276 24.0842 0.0000 -6.6606 0.0000
# 2 28.1276 86.5002 26.6398 0.0000 -10.1579 0.0000
# 3 24.0842 26.6398 94.7765 0.0000 -11.6598 0.0000
# 4 0.0000 0.0000 0.0000 33.1871 0.0000 1.4185
# 5 -6.6606 -10.1579 -11.6598 0.0000 42.3224 0.0000
# 6 0.0000 0.0000 0.0000 1.4185 0.0000 34.5640
#
#
#
# Elastic Compliance Matrix: (Units=1/GPa)
#
#
# Indices 1 2 3 4 5 6 
#
# 1 0.009138 -0.002434 -0.001587 0.000000 0.000417 0.000000
# 2 -0.002434 0.013493 -0.002922 0.000000 0.002050 0.000000
# 3 -0.001587 -0.002922 0.012068 0.000000 0.002374 0.000000
# 4 0.000000 0.000000 0.000000 0.030185 0.000000 -0.001239
# 5 0.000417 0.002050 0.002374 0.000000 0.024840 0.000000
# 6 0.000000 0.000000 0.000000 -0.001239 0.000000 0.028983
#
#
# Mechanical properties :
#
#
# Convention : Reuss Voigt Hill
#
# Bulk Modulus (GPa) = 48.04513 51.15390 49.59952
# Shear Modulus (GPa) = 35.83473 36.93672 36.38572
#
# Velocity S-wave (km/s) = 4.14722 4.21051 4.17899
# Velocity P-wave (km/s) = 6.78179 6.94190 6.86231
#
# Compressibility (1/GPa) = 0.02081376
#
# Stress axis : x y z
#
# Youngs Moduli (GPa) = 109.42791 74.11397 82.86621
#
# Poissons Ratio (x) = 0.18039 0.13149
# Poissons Ratio (y) = 0.26634 0.24212
# Poissons Ratio (z) = 0.17364 0.21654
#
# Static dielectric constant tensor:
#      x y z
#    x 4.117160 0.000000 -0.167870 
#    y 0.000000 3.752530 0.000000 
#    z -0.167870 0.000000 3.710490 
# 
# 
# High freq. dielectric constant tensor:
#      x y z
#    x 1.834120 0.000000 -0.000100 
#    y 0.000000 1.816000 0.000000 
#    z -0.000100 0.000000 1.823160 
# 
# From -- ./inp_files/28540.got.cif
#   From: 2010.06.25/outbox.cif.g09.slc.cpg/sg11_15_cif.got.tgz:28540.got - 2010.06.27 23:14:04.
