data_PCOD8077219
_publ_section_title
;
Structure prediction by ZEFSAII (Michael W. Deem and Ramdas Pophale) SiO2 
 PCOD8077219
Probable space group: P 21/M
;
_chemical_formula_sum "Si O2"
_cell_formula_units_Z 24
_cell_length_a 13.869628
_cell_length_b 13.789581
_cell_length_c 11.846871
_cell_angle_alpha 90.000000
_cell_angle_beta 149.990352
_cell_angle_gamma 90.000000
_cell_volume 1133.225108
_symmetry_space_group_name_H-M "P 21/M"
_symmetry_group_IT_number 11
_symmetry_cell_setting 'monoclinic'
loop_
_space_group_symop_operation_xyz
x,y,z
-x,1/2+y,-z
-x,-y,-z
x,1/2-y,z
loop_
_atom_site_type_symbol
_atom_site_label
_atom_site_fract_x
_atom_site_fract_y
_atom_site_fract_z
Si Si1 0.025590 0.955863 0.230149
Si Si2 0.786332 0.356204 0.972570
Si Si3 0.356669 0.358608 0.119545
Si Si4 0.551112 0.053154 0.914576
Si Si5 0.363345 0.917474 0.410180
Si Si6 0.810605 0.472224 0.374132
O O1 0.125785 0.916593 0.447400
O O2 0.174131 0.960613 0.278449
O O3 0.949533 0.065877 0.168934
O O4 0.845361 0.885287 0.023066
O O5 0.867560 0.250000 0.084800
O O6 0.595682 0.378526 0.854134
O O7 0.716674 0.353829 0.773116
O O8 0.344578 0.250000 0.054462
O O9 0.402810 0.439395 0.070978
O O10 0.519237 0.354334 0.381109
O O11 0.325739 0.061420 0.720156
O O12 0.679226 0.087433 0.152130
O O13 0.500000 0.000000 0.500000
O O14 0.000000 0.500000 0.500000
#
# Coordination Sequence:
#
# PCOD8077219 Si02
#       6
#     4   4   4   4   4   4
#     4  11  23  42  65  93 127 165 211 259 315 371
#     4  11  23  41  65  95 129 165 208 259 319 379
#     4  11  23  39  62  92 124 163 209 255 311 371
#     4  10  22  41  65  89 125 164 207 255 315 367
#     4  12  22  43  65  89 126 170 208 258 315 370
#     4  11  19  40  70  86 122 173 203 255 316 369
#
# _framework density 21.178494000000001
#
# number of rings (size 3 to 8) (size 9 to 14) (size 15 to 20)
#    0.000    1.000    8.333    1.000    0.000    1.333 
#    0.000   10.000    0.000    0.000    0.000    0.000 
#    0.000    0.000    0.000    0.000    0.000    0.000 
#
# Total GULP energy -297363.218280 kJ/mol
# GULP energy per Si atom -12390.134095 kJ/mol
# Density = 2.113029 g / cm^3
# Si number density = 21.178494 Si / 1000 Ang^3
#
#
#
# Elastic Constant Matrix: (Units=GPa)
#
#
# Indices 1 2 3 4 5 6 
#
# 1 151.9563 21.4917 41.8142 0.0000 14.9017 0.0000
# 2 21.4917 118.3992 13.4778 0.0000 1.8476 0.0000
# 3 41.8142 13.4778 113.8481 0.0000 -0.5408 0.0000
# 4 0.0000 0.0000 0.0000 11.9491 0.0000 -2.0696
# 5 14.9017 1.8476 -0.5408 0.0000 51.5786 0.0000
# 6 0.0000 0.0000 0.0000 -2.0696 0.0000 7.4014
#
#
#
# Elastic Compliance Matrix: (Units=1/GPa)
#
#
# Indices 1 2 3 4 5 6 
#
# 1 0.007693 -0.001053 -0.002711 0.000000 -0.002213 0.000000
# 2 -0.001053 0.008711 -0.000644 0.000000 -0.000014 0.000000
# 3 -0.002711 -0.000644 0.009860 0.000000 0.000910 0.000000
# 4 0.000000 0.000000 0.000000 0.087948 0.000000 0.024592
# 5 -0.002213 -0.000014 0.000910 0.000000 0.020037 0.000000
# 6 0.000000 0.000000 0.000000 0.024592 0.000000 0.141986
#
#
# Mechanical properties :
#
#
# Convention : Reuss Voigt Hill
#
# Bulk Modulus (GPa) = 57.32040 59.75232 58.53636
# Shear Modulus (GPa) = 17.18993 34.68047 25.93520
#
# Velocity S-wave (km/s) = 2.85207 4.05103 3.50323
# Velocity P-wave (km/s) = 6.16197 7.08210 6.63800
#
# Compressibility (1/GPa) = 0.01744580
#
# Stress axis : x y z
#
# Youngs Moduli (GPa) = 129.98963 114.80036 101.41931
#
# Poissons Ratio (x) = 0.12091 0.27498
# Poissons Ratio (y) = 0.13691 0.06536
# Poissons Ratio (z) = 0.35244 0.07398
#
# Static dielectric constant tensor:
#      x y z
#    x 4.216280 0.000000 -0.062560 
#    y 0.000000 3.339950 0.000000 
#    z -0.062560 0.000000 4.322250 
# 
# 
# High freq. dielectric constant tensor:
#      x y z
#    x 1.854060 0.000000 0.000990 
#    y 0.000000 1.772330 0.000000 
#    z 0.000990 0.000000 1.845380 
# 
# From -- ./inp_files/39738.got.cif
#   From: 2010.06.25/outbox.cif.g09.slc.cpg/sg11_20_cif.got.tgz:39738.got - 2010.06.27 23:14:04.
