data_PCOD8077510
_publ_section_title
;
Structure prediction by ZEFSAII (Michael W. Deem and Ramdas Pophale) SiO2 
 PCOD8077510
Probable space group: P 21/M
;
_chemical_formula_sum "Si O2"
_cell_formula_units_Z 24
_cell_length_a 26.587569
_cell_length_b 10.808416
_cell_length_c 16.411424
_cell_angle_alpha 90.000000
_cell_angle_beta 164.341785
_cell_angle_gamma 90.000000
_cell_volume 1272.878911
_symmetry_space_group_name_H-M "P 21/M"
_symmetry_group_IT_number 11
_symmetry_cell_setting 'monoclinic'
loop_
_space_group_symop_operation_xyz
x,y,z
-x,1/2+y,-z
-x,-y,-z
x,1/2-y,z
loop_
_atom_site_type_symbol
_atom_site_label
_atom_site_fract_x
_atom_site_fract_y
_atom_site_fract_z
Si Si1 0.537735 0.457052 0.755055
Si Si2 0.667627 0.750000 0.223364
Si Si3 0.370787 0.750000 0.887665
Si Si4 0.855461 0.390129 0.135438
Si Si5 0.974999 0.750000 0.841685
Si Si6 0.752628 0.988420 0.249156
Si Si7 0.676430 0.750000 0.503024
Si Si8 0.713697 0.114600 0.746193
O O1 0.362049 0.369768 0.501825
O O2 0.459274 0.553627 0.568332
O O3 0.705468 0.383997 0.973603
O O4 0.619179 0.521213 0.962545
O O5 0.816480 0.750000 0.527117
O O6 0.686440 0.877024 0.203270
O O7 0.459433 0.750000 0.936036
O O8 0.254225 0.623243 0.718135
O O9 0.531082 0.750000 0.203941
O O10 0.923998 0.250000 0.223052
O O11 0.032581 0.469179 0.441239
O O12 0.772851 0.451700 0.923339
O O13 0.886260 0.750000 0.794040
O O14 0.105614 0.628210 0.032177
O O15 0.639320 0.250000 0.655828
#
# Coordination Sequence:
#
# PCOD8077510 Si02
#       8
#     4   2   2   4   2   4   2   4
#     4  11  22  36  58  86 120 142 196 242 291 335
#     4  11  18  38  67  81 115 165 198 224 293 362
#     4   9  22  36  56  92 121 150 196 245 283 342
#     4  11  20  40  62  82 114 160 197 229 291 361
#     4   9  18  38  60  80 111 153 200 227 285 360
#     4  11  21  38  60  90 117 152 196 241 294 339
#     4   9  20  36  57  81 113 160 182 236 293 348
#     4   9  20  37  58  82 111 150 197 231 286 346
#
# _framework density 18.854894999999999
#
# number of rings (size 3 to 8) (size 9 to 14) (size 15 to 20)
#    0.500    1.333    3.333    1.500    1.167    0.667 
#    1.500    0.833    3.667    0.000    0.000    0.000 
#    0.000    0.000    0.000    0.000    0.000    0.000 
#
# Total GULP energy -297437.877092 kJ/mol
# GULP energy per Si atom -12393.244879 kJ/mol
# Density = 1.881198 g / cm^3
# Si number density = 18.854895 Si / 1000 Ang^3
#
#
#
# Elastic Constant Matrix: (Units=GPa)
#
#
# Indices 1 2 3 4 5 6 
#
# 1 79.4623 25.2851 22.7739 0.0000 17.8631 0.0000
# 2 25.2851 93.1059 29.2545 0.0000 0.0346 0.0000
# 3 22.7739 29.2545 68.4070 0.0000 -4.9958 0.0000
# 4 0.0000 0.0000 0.0000 16.8544 0.0000 2.3573
# 5 17.8631 0.0346 -4.9958 0.0000 34.7395 0.0000
# 6 0.0000 0.0000 0.0000 2.3573 0.0000 14.4674
#
#
#
# Elastic Compliance Matrix: (Units=1/GPa)
#
#
# Indices 1 2 3 4 5 6 
#
# 1 0.017170 -0.003054 -0.005108 0.000000 -0.009560 0.000000
# 2 -0.003054 0.012972 -0.004464 0.000000 0.000916 0.000000
# 3 -0.005108 -0.004464 0.018616 0.000000 0.005308 0.000000
# 4 0.000000 0.000000 0.000000 0.060715 0.000000 -0.009893
# 5 -0.009560 0.000916 0.005308 0.000000 0.034464 0.000000
# 6 0.000000 0.000000 0.000000 -0.009893 0.000000 0.070733
#
#
# Mechanical properties :
#
#
# Convention : Reuss Voigt Hill
#
# Bulk Modulus (GPa) = 42.54438 43.95579 43.25008
# Shear Modulus (GPa) = 20.18109 24.12304 22.15207
#
# Velocity S-wave (km/s) = 3.27515 3.58076 3.43136
# Velocity P-wave (km/s) = 6.07579 6.36074 6.21990
#
# Compressibility (1/GPa) = 0.02350487
#
# Stress axis : x y z
#
# Youngs Moduli (GPa) = 58.24272 77.08821 53.71835
#
# Poissons Ratio (x) = 0.23545 0.27440
# Poissons Ratio (y) = 0.17789 0.23979
# Poissons Ratio (z) = 0.29751 0.34411
#
# Static dielectric constant tensor:
#      x y z
#    x 3.651050 0.000000 0.171220 
#    y 0.000000 3.367350 0.000000 
#    z 0.171220 0.000000 3.303990 
# 
# 
# High freq. dielectric constant tensor:
#      x y z
#    x 1.740630 0.000000 0.007420 
#    y 0.000000 1.717470 0.000000 
#    z 0.007420 0.000000 1.720420 
# 
# From -- ./inp_files/55855.got.cif
#   From: 2010.06.25/outbox.cif.g09.slc.cpg/sg11_28_cif.got.tgz:55855.got - 2010.06.27 23:14:04.
