data_PCOD8077124
_publ_section_title
;
Structure prediction by ZEFSAII (Michael W. Deem and Ramdas Pophale) SiO2 
 PCOD8077124
Probable space group: P 21/M
;
_chemical_formula_sum "Si O2"
_cell_formula_units_Z 28
_cell_length_a 17.661372
_cell_length_b 8.562002
_cell_length_c 15.962878
_cell_angle_alpha 90.000000
_cell_angle_beta 34.979014
_cell_angle_gamma 90.000000
_cell_volume 1383.805311
_symmetry_space_group_name_H-M "P 21/M"
_symmetry_group_IT_number 11
_symmetry_cell_setting 'monoclinic'
loop_
_space_group_symop_operation_xyz
x,y,z
-x,1/2+y,-z
-x,-y,-z
x,1/2-y,z
loop_
_atom_site_type_symbol
_atom_site_label
_atom_site_fract_x
_atom_site_fract_y
_atom_site_fract_z
Si Si1 0.398803 0.934966 0.658131
Si Si2 0.185052 0.568586 0.141566
Si Si3 0.284966 0.932178 0.381713
Si Si4 0.089614 0.431412 0.692488
Si Si5 0.876184 0.067549 0.159423
Si Si6 0.145008 0.066924 0.354299
Si Si7 0.551784 0.067264 0.198530
O O1 0.399232 0.750000 0.653110
O O2 0.254877 0.001974 0.765152
O O3 0.438132 0.991482 0.715078
O O4 0.500000 0.000000 0.500000
O O5 0.178948 0.750000 0.173157
O O6 0.193189 0.463422 0.216635
O O7 0.055377 0.520924 0.207359
O O8 0.310461 0.530089 0.971079
O O9 0.257587 0.750000 0.420627
O O10 0.196685 0.032008 0.524966
O O11 0.247875 0.980392 0.321362
O O12 0.438497 0.969381 0.255648
O O13 0.096032 0.250000 0.709883
O O14 0.124295 0.529569 0.742482
O O15 0.879066 0.250000 0.144068
O O16 0.000000 0.000000 0.000000
O O17 0.144463 0.250000 0.374411
O O18 0.000000 0.000000 0.500000
O O19 0.517472 0.250000 0.224735
#
# Coordination Sequence:
#
# PCOD8077124 Si02
#       7
#     4   4   4   4   4   4   4
#     4  10  22  40  62  88 121 164 209 256 308 367
#     4  10  22  41  66  92 124 165 209 259 314 372
#     4  12  25  41  63  93 126 162 206 255 306 371
#     4  11  22  39  64  92 123 162 207 258 314 370
#     4  11  23  39  60  90 125 161 207 259 312 373
#     4  12  24  41  66  95 126 162 205 254 309 370
#     4  10  22  42  64  89 123 165 210 257 314 371
#
# _framework density 20.234062000000002
#
# number of rings (size 3 to 8) (size 9 to 14) (size 15 to 20)
#    0.000    1.143    1.429    5.143    0.000    8.000 
#    0.000    1.429    0.000    0.000    0.000    0.000 
#    0.000    0.000    0.000    0.000    0.000    0.000 
#
# Total GULP energy -347391.209796 kJ/mol
# GULP energy per Si atom -12406.828921 kJ/mol
# Density = 2.018801 g / cm^3
# Si number density = 20.234062 Si / 1000 Ang^3
#
#
#
# Elastic Constant Matrix: (Units=GPa)
#
#
# Indices 1 2 3 4 5 6 
#
# 1 145.3258 30.7807 48.4431 0.0000 -9.0294 0.0000
# 2 30.7807 44.9075 24.0890 0.0000 -2.3980 0.0000
# 3 48.4431 24.0890 113.2656 0.0000 -6.7003 0.0000
# 4 0.0000 0.0000 0.0000 35.0243 0.0000 1.5567
# 5 -9.0294 -2.3980 -6.7003 0.0000 39.0095 0.0000
# 6 0.0000 0.0000 0.0000 1.5567 0.0000 33.4314
#
#
#
# Elastic Compliance Matrix: (Units=1/GPa)
#
#
# Indices 1 2 3 4 5 6 
#
# 1 0.008831 -0.004514 -0.002740 0.000000 0.001296 0.000000
# 2 -0.004514 0.027458 -0.003911 0.000000 -0.000029 0.000000
# 3 -0.002740 -0.003911 0.010892 0.000000 0.000996 0.000000
# 4 0.000000 0.000000 0.000000 0.028611 0.000000 -0.001332
# 5 0.001296 -0.000029 0.000996 0.000000 0.026104 0.000000
# 6 0.000000 0.000000 0.000000 -0.001332 0.000000 0.029974
#
#
# Mechanical properties :
#
#
# Convention : Reuss Voigt Hill
#
# Bulk Modulus (GPa) = 40.24041 56.68050 48.46046
# Shear Modulus (GPa) = 30.77231 34.83877 32.80554
#
# Velocity S-wave (km/s) = 3.90400 4.15395 4.03091
# Velocity P-wave (km/s) = 6.34446 7.14704 6.75768
#
# Compressibility (1/GPa) = 0.02485064
#
# Stress axis : x y z
#
# Youngs Moduli (GPa) = 113.23550 36.41893 91.81452
#
# Poissons Ratio (x) = 0.16439 0.25161
# Poissons Ratio (y) = 0.51113 0.35907
# Poissons Ratio (z) = 0.31031 0.14243
#
# Static dielectric constant tensor:
#      x y z
#    x 5.968950 0.000000 -1.117030 
#    y 0.000000 -2.143710 0.000000 
#    z -1.117030 0.000000 4.264310 
# 
# 
# High freq. dielectric constant tensor:
#      x y z
#    x 1.808300 0.000000 -0.001460 
#    y 0.000000 1.788110 0.000000 
#    z -0.001460 0.000000 1.799720 
# 
# From -- ./inp_files/51914.got.cif
#   From: 2010.06.25/outbox.cif.g09.slc.cpg/sg11_26_cif.got.tgz:51914.got - 2010.06.27 23:14:04.
