data_PCOD8077365
_publ_section_title
;
Structure prediction by ZEFSAII (Michael W. Deem and Ramdas Pophale) SiO2 
 PCOD8077365
Probable space group: P 21/M
;
_chemical_formula_sum "Si O2"
_cell_formula_units_Z 28
_cell_length_a 11.434154
_cell_length_b 19.118877
_cell_length_c 7.026838
_cell_angle_alpha 90.000000
_cell_angle_beta 59.470684
_cell_angle_gamma 90.000000
_cell_volume 1323.170400
_symmetry_space_group_name_H-M "P 21/M"
_symmetry_group_IT_number 11
_symmetry_cell_setting 'monoclinic'
loop_
_space_group_symop_operation_xyz
x,y,z
-x,1/2+y,-z
-x,-y,-z
x,1/2-y,z
loop_
_atom_site_type_symbol
_atom_site_label
_atom_site_fract_x
_atom_site_fract_y
_atom_site_fract_z
Si Si1 0.443398 0.477271 0.750487
Si Si2 0.783484 0.328737 0.981228
Si Si3 0.260525 0.331093 0.393650
Si Si4 0.178454 0.067984 0.794363
Si Si5 0.027029 0.828795 0.510828
Si Si6 0.897893 0.414977 0.208481
Si Si7 0.467950 0.609465 0.996415
O O1 0.500000 0.500000 0.500000
O O2 0.289549 0.450234 0.861972
O O3 0.447275 0.543222 0.881515
O O4 0.529934 0.415391 0.783354
O O5 0.777179 0.250000 0.066917
O O6 0.920143 0.340711 0.747168
O O7 0.786196 0.381749 0.157688
O O8 0.657111 0.339456 0.942959
O O9 0.265467 0.250000 0.453872
O O10 0.247588 0.378812 0.590924
O O11 0.133205 0.345049 0.359818
O O12 0.393755 0.350435 0.166341
O O13 0.132179 0.996243 0.729404
O O14 0.047669 0.101091 0.002903
O O15 0.055111 0.750000 0.556441
O O16 0.110090 0.879455 0.579988
#
# Coordination Sequence:
#
# PCOD8077365 Si02
#       7
#     4   4   4   4   4   4   4
#     4  11  23  41  64  93 127 163 215 263 323 382
#     4  11  23  41  63  94 131 169 215 270 327 389
#     4  11  23  43  66  94 132 176 222 271 324 391
#     4  11  23  41  64  99 128 167 222 271 322 389
#     4  10  23  41  65  92 125 171 216 261 327 393
#     4  11  23  40  66  96 130 167 220 275 331 383
#     4  11  24  40  67  92 128 172 207 269 327 387
#
# _framework density 21.161293000000001
#
# number of rings (size 3 to 8) (size 9 to 14) (size 15 to 20)
#    0.000    1.143    4.286    1.714    2.000    1.143 
#    0.000    1.429    0.000    0.000    0.000    0.000 
#    0.000    0.000    0.000    0.000    0.000    0.000 
#
# Total GULP energy -347245.673747 kJ/mol
# GULP energy per Si atom -12401.631205 kJ/mol
# Density = 2.111313 g / cm^3
# Si number density = 21.161293 Si / 1000 Ang^3
#
#
#
# Elastic Constant Matrix: (Units=GPa)
#
#
# Indices 1 2 3 4 5 6 
#
# 1 106.3822 26.8283 25.1205 0.0000 2.5458 0.0000
# 2 26.8283 98.9600 37.4811 0.0000 10.3472 0.0000
# 3 25.1205 37.4811 65.5734 0.0000 8.2436 0.0000
# 4 0.0000 0.0000 0.0000 23.1931 0.0000 3.5846
# 5 2.5458 10.3472 8.2436 0.0000 29.5503 0.0000
# 6 0.0000 0.0000 0.0000 3.5846 0.0000 39.3508
#
#
#
# Elastic Compliance Matrix: (Units=1/GPa)
#
#
# Indices 1 2 3 4 5 6 
#
# 1 0.010563 -0.001740 -0.003124 0.000000 0.000571 0.000000
# 2 -0.001740 0.013372 -0.006640 0.000000 -0.002680 0.000000
# 3 -0.003124 -0.006640 0.020640 0.000000 -0.003164 0.000000
# 4 0.000000 0.000000 0.000000 0.043732 0.000000 -0.003984
# 5 0.000571 -0.002680 -0.003164 0.000000 0.035612 0.000000
# 6 0.000000 0.000000 0.000000 -0.003984 0.000000 0.025775
#
#
# Mechanical properties :
#
#
# Convention : Reuss Voigt Hill
#
# Bulk Modulus (GPa) = 46.36623 49.97507 48.17065
# Shear Modulus (GPa) = 27.79474 30.51789 29.15632
#
# Velocity S-wave (km/s) = 3.62812 3.80169 3.71592
# Velocity P-wave (km/s) = 6.28565 6.55271 6.42057
#
# Compressibility (1/GPa) = 0.02156742
#
# Stress axis : x y z
#
# Youngs Moduli (GPa) = 94.67136 74.78388 48.45055
#
# Poissons Ratio (x) = 0.13014 0.15134
# Poissons Ratio (y) = 0.16475 0.32169
# Poissons Ratio (z) = 0.29571 0.49654
#
# Static dielectric constant tensor:
#      x y z
#    x 4.117170 0.000000 -0.016060 
#    y 0.000000 3.837090 0.000000 
#    z -0.016060 0.000000 3.817380 
# 
# 
# High freq. dielectric constant tensor:
#      x y z
#    x 1.844940 0.000000 0.000380 
#    y 0.000000 1.834370 0.000000 
#    z 0.000380 0.000000 1.811490 
# 
# From -- ./inp_files/5040.got.cif
#   From: 2010.06.25/outbox.cif.g09.slc.cpg/sg11_3_cif.got.tgz:5040.got - 2010.06.27 23:14:04.
