data_PCOD8077066
_publ_section_title
;
Structure prediction by ZEFSAII (Michael W. Deem and Ramdas Pophale) SiO2 
 PCOD8077066
Probable space group: P 21/M
;
_chemical_formula_sum "Si O2"
_cell_formula_units_Z 16
_cell_length_a 5.265429
_cell_length_b 21.170208
_cell_length_c 9.719593
_cell_angle_alpha 90.000000
_cell_angle_beta 128.573261
_cell_angle_gamma 90.000000
_cell_volume 847.049993
_symmetry_space_group_name_H-M "P 21/M"
_symmetry_group_IT_number 11
_symmetry_cell_setting 'monoclinic'
loop_
_space_group_symop_operation_xyz
x,y,z
-x,1/2+y,-z
-x,-y,-z
x,1/2-y,z
loop_
_atom_site_type_symbol
_atom_site_label
_atom_site_fract_x
_atom_site_fract_y
_atom_site_fract_z
Si Si1 0.790716 0.540035 0.537370
Si Si2 0.742843 0.680702 0.090925
Si Si3 0.676041 0.066597 0.064108
Si Si4 0.411652 0.865667 0.229128
O O1 0.500000 0.500000 0.500000
O O2 0.644593 0.601414 0.417092
O O3 0.000000 0.500000 0.500000
O O4 0.003736 0.563135 0.737052
O O5 0.655544 0.750000 0.998832
O O6 0.639614 0.681128 0.217096
O O7 0.129396 0.671368 0.212645
O O8 0.552778 0.623110 0.950638
O O9 0.757292 0.083618 0.932514
O O10 0.500000 0.000000 0.000000
#
# Coordination Sequence:
#
# PCOD8077066 Si02
#       4
#     4   4   4   4
#     4  12  23  36  61  94 126 153 200 248 310 361
#     4  10  22  42  64  84 123 166 204 247 308 362
#     4  10  22  39  65  89 122 155 203 250 306 354
#     4  10  22  39  62  86 122 157 200 247 305 350
#
# _framework density 18.889085000000001
#
# number of rings (size 3 to 8) (size 9 to 14) (size 15 to 20)
#    1.500    0.000    2.500    3.750    3.500    2.000 
#    0.000    2.500    0.000    0.000    0.000    0.000 
#    0.000    0.000    0.000    0.000    0.000    0.000 
#
# Total GULP energy -198234.826379 kJ/mol
# GULP energy per Si atom -12389.676649 kJ/mol
# Density = 1.884609 g / cm^3
# Si number density = 18.889085 Si / 1000 Ang^3
#
#
#
# Elastic Constant Matrix: (Units=GPa)
#
#
# Indices 1 2 3 4 5 6 
#
# 1 130.6326 37.0869 31.0081 0.0000 26.9552 0.0000
# 2 37.0869 147.5713 51.4047 0.0000 15.4714 0.0000
# 3 31.0081 51.4047 145.4229 0.0000 3.9889 0.0000
# 4 0.0000 0.0000 0.0000 24.5394 0.0000 -2.8171
# 5 26.9552 15.4714 3.9889 0.0000 25.7221 0.0000
# 6 0.0000 0.0000 0.0000 -2.8171 0.0000 16.0402
#
#
#
# Elastic Compliance Matrix: (Units=1/GPa)
#
#
# Indices 1 2 3 4 5 6 
#
# 1 0.010387 -0.001007 -0.001584 0.000000 -0.010034 0.000000
# 2 -0.001007 0.008316 -0.002628 0.000000 -0.003539 0.000000
# 3 -0.001584 -0.002628 0.008089 0.000000 0.001986 0.000000
# 4 0.000000 0.000000 0.000000 0.041589 0.000000 0.007304
# 5 -0.010034 -0.003539 0.001986 0.000000 0.051213 0.000000
# 6 0.000000 0.000000 0.000000 0.007304 0.000000 0.063626
#
#
# Mechanical properties :
#
#
# Convention : Reuss Voigt Hill
#
# Bulk Modulus (GPa) = 61.14309 73.62514 67.38412
# Shear Modulus (GPa) = 25.11191 33.53546 29.32368
#
# Velocity S-wave (km/s) = 3.65010 4.21811 3.94434
# Velocity P-wave (km/s) = 7.08549 7.92373 7.51630
#
# Compressibility (1/GPa) = 0.01635508
#
# Stress axis : x y z
#
# Youngs Moduli (GPa) = 96.27149 120.25280 123.63098
#
# Poissons Ratio (x) = 0.12108 0.19580
# Poissons Ratio (y) = 0.09693 0.32487
# Poissons Ratio (z) = 0.15247 0.31599
#
# Static dielectric constant tensor:
#      x y z
#    x 3.618400 0.000000 -0.188200 
#    y 0.000000 3.450660 0.000000 
#    z -0.188200 0.000000 3.912180 
# 
# 
# High freq. dielectric constant tensor:
#      x y z
#    x 1.742920 0.000000 0.010580 
#    y 0.000000 1.733770 0.000000 
#    z 0.010580 0.000000 1.713540 
# 
# From -- ./inp_files/645.got.cif
#   From: 2010.06.25/outbox.cif.g09.slc.cpg/sg11_1_cif.got.tgz:645.got - 2010.06.27 23:14:04.
