data_PCOD8077377
_publ_section_title
;
Structure prediction by ZEFSAII (Michael W. Deem and Ramdas Pophale) SiO2 
 PCOD8077377
Probable space group: P 21/M
;
_chemical_formula_sum "Si O2"
_cell_formula_units_Z 28
_cell_length_a 10.008420
_cell_length_b 8.771227
_cell_length_c 25.916320
_cell_angle_alpha 90.000000
_cell_angle_beta 38.650746
_cell_angle_gamma 90.000000
_cell_volume 1420.958493
_symmetry_space_group_name_H-M "P 21/M"
_symmetry_group_IT_number 11
_symmetry_cell_setting 'monoclinic'
loop_
_space_group_symop_operation_xyz
x,y,z
-x,1/2+y,-z
-x,-y,-z
x,1/2-y,z
loop_
_atom_site_type_symbol
_atom_site_label
_atom_site_fract_x
_atom_site_fract_y
_atom_site_fract_z
Si Si1 0.593763 0.569567 0.315992
Si Si2 0.993280 0.069715 0.249936
Si Si3 0.543137 0.568810 0.931303
Si Si4 0.825279 0.572538 0.515060
Si Si5 0.041859 0.927536 0.342833
Si Si6 0.521883 0.576232 0.754864
Si Si7 0.777561 0.078803 0.057607
O O1 0.581326 0.750000 0.322670
O O2 0.405286 0.501666 0.407671
O O3 0.572205 0.515845 0.264180
O O4 0.822127 0.512351 0.265858
O O5 0.963535 0.250000 0.255194
O O6 0.226460 0.017452 0.159838
O O7 0.952210 0.017560 0.320813
O O8 0.534154 0.750000 0.937151
O O9 0.362843 0.504429 0.946221
O O10 0.500000 0.500000 0.000000
O O11 0.815056 0.750000 0.531539
O O12 0.000000 0.500000 0.500000
O O13 0.882761 0.543912 0.438301
O O14 0.061754 0.750000 0.323371
O O15 0.270423 0.992210 0.288098
O O16 0.577311 0.750000 0.722312
O O17 0.348725 0.572306 0.851420
O O18 0.828480 0.250000 0.025739
O O19 0.000000 0.000000 0.000000
#
# Coordination Sequence:
#
# PCOD8077377 Si02
#       7
#     4   4   4   4   4   4   4
#     4  12  26  42  63  96 130 165 214 267 316 376
#     4  11  24  45  67  90 126 171 213 258 318 383
#     4  10  23  43  64  91 125 165 209 255 313 377
#     4  11  23  40  64  95 130 167 211 261 317 375
#     4  11  23  40  66  97 126 163 212 261 313 374
#     4  11  22  41  66  91 126 170 213 259 315 376
#     4  10  23  42  63  94 127 163 209 258 311 374
#
# _framework density 19.705007999999999
#
# number of rings (size 3 to 8) (size 9 to 14) (size 15 to 20)
#    0.000    1.143    2.857    3.000    2.000    5.143 
#    0.000    0.000    0.000    0.000    0.000    0.000 
#    0.000    0.000    0.000    0.000    0.000    0.000 
#
# Total GULP energy -347302.794737 kJ/mol
# GULP energy per Si atom -12403.671241 kJ/mol
# Density = 1.966016 g / cm^3
# Si number density = 19.705008 Si / 1000 Ang^3
#
#
#
# Elastic Constant Matrix: (Units=GPa)
#
#
# Indices 1 2 3 4 5 6 
#
# 1 252.6272 105.8401 95.5286 0.0000 5.7151 0.0000
# 2 105.8401 145.7029 71.6508 0.0000 0.8726 0.0000
# 3 95.5286 71.6508 117.9919 0.0000 6.4585 0.0000
# 4 0.0000 0.0000 0.0000 37.7536 0.0000 -0.3854
# 5 5.7151 0.8726 6.4585 0.0000 40.7900 0.0000
# 6 0.0000 0.0000 0.0000 -0.3854 0.0000 41.6095
#
#
#
# Elastic Compliance Matrix: (Units=1/GPa)
#
#
# Indices 1 2 3 4 5 6 
#
# 1 0.006544 -0.003072 -0.003416 0.000000 -0.000310 0.000000
# 2 -0.003072 0.011250 -0.004393 0.000000 0.000885 0.000000
# 3 -0.003416 -0.004393 0.013998 0.000000 -0.001644 0.000000
# 4 0.000000 0.000000 0.000000 0.026490 0.000000 0.000245
# 5 -0.000310 0.000885 -0.001644 0.000000 0.024801 0.000000
# 6 0.000000 0.000000 0.000000 0.000245 0.000000 0.024035
#
#
# Mechanical properties :
#
#
# Convention : Reuss Voigt Hill
#
# Bulk Modulus (GPa) = 99.69171 118.04009 108.86590
# Shear Modulus (GPa) = 37.81509 40.25079 39.03294
#
# Velocity S-wave (km/s) = 4.38546 4.52449 4.45552
# Velocity P-wave (km/s) = 8.73756 9.34496 9.04636
#
# Compressibility (1/GPa) = 0.01003092
#
# Stress axis : x y z
#
# Youngs Moduli (GPa) = 152.80829 88.89103 71.43897
#
# Poissons Ratio (x) = 0.27309 0.24401
# Poissons Ratio (y) = 0.46945 0.31380
# Poissons Ratio (z) = 0.52195 0.39046
#
# Static dielectric constant tensor:
#      x y z
#    x 3.693650 0.000000 -0.008180 
#    y 0.000000 3.774070 0.000000 
#    z -0.008180 0.000000 3.759200 
# 
# 
# High freq. dielectric constant tensor:
#      x y z
#    x 1.780300 0.000000 0.003690 
#    y 0.000000 1.776760 0.000000 
#    z 0.003690 0.000000 1.780550 
# 
# From -- ./inp_files/63366.got.cif
#   From: 2010.06.25/outbox.cif.g09.slc.cpg/sg11_32_cif.got.tgz:63366.got - 2010.06.27 23:14:04.
