data_PCOD8077206
_publ_section_title
;
Structure prediction by ZEFSAII (Michael W. Deem and Ramdas Pophale) SiO2 
 PCOD8077206
Probable space group: P 21/M
;
_chemical_formula_sum "Si O2"
_cell_formula_units_Z 28
_cell_length_a 15.675324
_cell_length_b 8.507372
_cell_length_c 11.801980
_cell_angle_alpha 90.000000
_cell_angle_beta 123.594973
_cell_angle_gamma 90.000000
_cell_volume 1310.980027
_symmetry_space_group_name_H-M "P 21/M"
_symmetry_group_IT_number 11
_symmetry_cell_setting 'monoclinic'
loop_
_space_group_symop_operation_xyz
x,y,z
-x,1/2+y,-z
-x,-y,-z
x,1/2-y,z
loop_
_atom_site_type_symbol
_atom_site_label
_atom_site_fract_x
_atom_site_fract_y
_atom_site_fract_z
Si Si1 0.705218 0.564521 0.417478
Si Si2 0.114202 0.934053 0.588705
Si Si3 0.685600 0.067506 0.879715
Si Si4 0.033731 0.067048 0.144129
Si Si5 0.860444 0.567600 0.157735
Si Si6 0.252184 0.931414 0.322260
Si Si7 0.486790 0.064535 0.865474
O O1 0.698503 0.750000 0.429365
O O2 0.817710 0.516858 0.457283
O O3 0.681334 0.480895 0.519930
O O4 0.619329 0.503265 0.266344
O O5 0.112980 0.750000 0.564105
O O6 0.164918 0.970495 0.747639
O O7 0.000000 0.000000 0.500000
O O8 0.704049 0.250000 0.920877
O O9 0.681554 0.037252 0.742023
O O10 0.579899 0.005474 0.855191
O O11 0.779059 0.970573 0.000696
O O12 0.006087 0.250000 0.129935
O O13 0.153234 0.041988 0.249683
O O14 0.973551 0.976729 0.198698
O O15 0.000000 0.000000 0.000000
O O16 0.856259 0.750000 0.185746
O O17 0.218367 0.750000 0.304029
O O18 0.485759 0.250000 0.871390
O O19 0.500000 0.000000 0.000000
#
# Coordination Sequence:
#
# PCOD8077206 Si02
#       7
#     4   4   4   4   4   4   4
#     4  11  24  43  65  93 130 167 209 261 319 378
#     4  12  25  43  65  91 125 164 210 259 315 377
#     4  10  22  41  64  91 125 164 212 262 313 370
#     4  12  23  38  60  90 128 169 211 258 311 370
#     4  12  24  39  62  93 127 165 211 260 318 376
#     4  11  23  40  63  92 128 169 214 260 314 378
#     4  10  23  43  67  94 124 163 208 263 319 376
#
# _framework density 21.358066999999998
#
# number of rings (size 3 to 8) (size 9 to 14) (size 15 to 20)
#    0.000    0.857    1.429    6.429    0.000    5.143 
#    0.000    0.000    0.000    0.000    0.000    0.000 
#    0.000    0.000    0.000    0.000    0.000    0.000 
#
# Total GULP energy -347399.358297 kJ/mol
# GULP energy per Si atom -12407.119939 kJ/mol
# Density = 2.130946 g / cm^3
# Si number density = 21.358067 Si / 1000 Ang^3
#
#
#
# Elastic Constant Matrix: (Units=GPa)
#
#
# Indices 1 2 3 4 5 6 
#
# 1 138.7889 26.1071 52.0286 0.0000 -7.3020 0.0000
# 2 26.1071 68.8133 25.4772 0.0000 -2.7253 0.0000
# 3 52.0286 25.4772 137.7771 0.0000 -12.0162 0.0000
# 4 0.0000 0.0000 0.0000 36.9092 0.0000 -6.1921
# 5 -7.3020 -2.7253 -12.0162 0.0000 40.7677 0.0000
# 6 0.0000 0.0000 0.0000 -6.1921 0.0000 26.8754
#
#
#
# Elastic Compliance Matrix: (Units=1/GPa)
#
#
# Indices 1 2 3 4 5 6 
#
# 1 0.008716 -0.002237 -0.002827 0.000000 0.000578 0.000000
# 2 -0.002237 0.016176 -0.002142 0.000000 0.000049 0.000000
# 3 -0.002827 -0.002142 0.008894 0.000000 0.001972 0.000000
# 4 0.000000 0.000000 0.000000 0.028183 0.000000 0.006493
# 5 0.000578 0.000049 0.001972 0.000000 0.025217 0.000000
# 6 0.000000 0.000000 0.000000 0.006493 0.000000 0.038705
#
#
# Mechanical properties :
#
#
# Convention : Reuss Voigt Hill
#
# Bulk Modulus (GPa) = 51.61880 61.40055 56.50968
# Shear Modulus (GPa) = 34.06877 37.02824 35.54851
#
# Velocity S-wave (km/s) = 3.99823 4.16828 4.08414
# Velocity P-wave (km/s) = 6.74798 7.20948 6.98255
#
# Compressibility (1/GPa) = 0.01937279
#
# Stress axis : x y z
#
# Youngs Moduli (GPa) = 114.72660 61.82058 112.43673
#
# Poissons Ratio (x) = 0.13830 0.31791
# Poissons Ratio (y) = 0.25666 0.24084
# Poissons Ratio (z) = 0.32438 0.13242
#
# Static dielectric constant tensor:
#      x y z
#    x 4.110290 0.000000 0.025320 
#    y 0.000000 3.837070 0.000000 
#    z 0.025320 0.000000 4.037620 
# 
# 
# High freq. dielectric constant tensor:
#      x y z
#    x 1.841680 0.000000 -0.012140 
#    y 0.000000 1.839100 0.000000 
#    z -0.012140 0.000000 1.848000 
# 
# From -- ./inp_files/38468.got.cif
#   From: 2010.06.25/outbox.cif.g09.slc.cpg/sg11_20_cif.got.tgz:38468.got - 2010.06.27 23:14:04.
