data_PCOD8077480
_publ_section_title
;
Structure prediction by ZEFSAII (Michael W. Deem and Ramdas Pophale) SiO2 
 PCOD8077480
Probable space group: P 21/M
;
_chemical_formula_sum "Si O2"
_cell_formula_units_Z 22
_cell_length_a 10.591694
_cell_length_b 14.441890
_cell_length_c 6.372735
_cell_angle_alpha 90.000000
_cell_angle_beta 99.424345
_cell_angle_gamma 90.000000
_cell_volume 961.642358
_symmetry_space_group_name_H-M "P 21/M"
_symmetry_group_IT_number 11
_symmetry_cell_setting 'monoclinic'
loop_
_space_group_symop_operation_xyz
x,y,z
-x,1/2+y,-z
-x,-y,-z
x,1/2-y,z
loop_
_atom_site_type_symbol
_atom_site_label
_atom_site_fract_x
_atom_site_fract_y
_atom_site_fract_z
Si Si1 0.591075 0.902410 0.838230
Si Si2 0.036914 0.250000 0.116403
Si Si3 0.123231 0.750000 0.324108
Si Si4 0.713014 0.750000 0.110419
Si Si5 0.628465 0.750000 0.507225
Si Si6 0.057339 0.906476 0.611851
Si Si7 0.631561 0.250000 0.801996
Si Si8 0.679752 0.427812 0.079242
O O1 0.630173 0.844221 0.641943
O O2 0.442179 0.933855 0.794830
O O3 0.622337 0.838321 0.046405
O O4 0.677444 0.993248 0.897276
O O5 0.030592 0.345654 0.250607
O O6 0.165974 0.250000 0.012738
O O7 0.916767 0.250000 0.929752
O O8 0.074124 0.842695 0.415649
O O9 0.277410 0.750000 0.377996
O O10 0.748009 0.750000 0.371617
O O11 0.510066 0.750000 0.319787
O O12 0.190617 0.934820 0.754495
O O13 0.000000 0.000000 0.500000
O O14 0.669564 0.333565 0.957742
#
# Coordination Sequence:
#
# PCOD8077480 Si02
#       8
#     4   2   2   2   2   4   2   4
#     4  10  24  44  70 105 144 183 232 303 354 433
#     4  11  26  48  72 103 146 181 247 295 352 425
#     4  11  24  43  72 103 135 184 238 301 346 425
#     4  11  24  46  67 103 148 184 231 300 362 415
#     4  11  22  43  73 103 137 194 235 283 379 420
#     4  11  26  48  75 105 139 196 243 288 360 433
#     4  12  20  42  76  98 140 181 229 305 353 417
#     4  11  22  46  71 105 147 181 237 296 362 419
#
# _framework density 22.877528999999999
#
# number of rings (size 3 to 8) (size 9 to 14) (size 15 to 20)
#    0.000    1.091    3.636    2.182    2.545    5.818 
#    3.273    0.000    0.000    0.000    0.000    0.000 
#    0.000    0.000    0.000    0.000    0.000    0.000 
#
# Total GULP energy -272602.277143 kJ/mol
# GULP energy per Si atom -12391.012597 kJ/mol
# Density = 2.282546 g / cm^3
# Si number density = 22.877529 Si / 1000 Ang^3
#
#
#
# Elastic Constant Matrix: (Units=GPa)
#
#
# Indices 1 2 3 4 5 6 
#
# 1 102.2109 56.1478 53.9278 0.0000 4.2176 0.0000
# 2 56.1478 194.8246 84.7295 0.0000 14.6552 0.0000
# 3 53.9278 84.7295 148.1003 0.0000 -4.8817 0.0000
# 4 0.0000 0.0000 0.0000 29.2256 0.0000 16.0268
# 5 4.2176 14.6552 -4.8817 0.0000 44.3672 0.0000
# 6 0.0000 0.0000 0.0000 16.0268 0.0000 27.7194
#
#
#
# Elastic Compliance Matrix: (Units=1/GPa)
#
#
# Indices 1 2 3 4 5 6 
#
# 1 0.012822 -0.002108 -0.003493 0.000000 -0.000907 0.000000
# 2 -0.002108 0.007517 -0.003621 0.000000 -0.002681 0.000000
# 3 -0.003493 -0.003621 0.010183 0.000000 0.002649 0.000000
# 4 0.000000 0.000000 0.000000 0.050102 0.000000 -0.028968
# 5 -0.000907 -0.002681 0.002649 0.000000 0.023802 0.000000
# 6 0.000000 0.000000 0.000000 -0.028968 0.000000 0.052824
#
#
# Mechanical properties :
#
#
# Convention : Reuss Voigt Hill
#
# Bulk Modulus (GPa) = 82.79615 92.74954 87.77285
# Shear Modulus (GPa) = 27.82090 36.95115 32.38603
#
# Velocity S-wave (km/s) = 3.49102 4.02328 3.76656
# Velocity P-wave (km/s) = 7.24701 7.88747 7.57401
#
# Compressibility (1/GPa) = 0.01207786
#
# Stress axis : x y z
#
# Youngs Moduli (GPa) = 77.99139 133.03325 98.20234
#
# Poissons Ratio (x) = 0.28044 0.34299
# Poissons Ratio (y) = 0.16441 0.35562
# Poissons Ratio (z) = 0.27240 0.48175
#
# Static dielectric constant tensor:
#      x y z
#    x 4.375080 0.000000 0.045930 
#    y 0.000000 4.286150 0.000000 
#    z 0.045930 0.000000 4.252390 
# 
# 
# High freq. dielectric constant tensor:
#      x y z
#    x 1.908650 0.000000 0.003310 
#    y 0.000000 1.916230 0.000000 
#    z 0.003310 0.000000 1.905770 
# 
# From -- ./inp_files/4386.got.cif
#   From: 2010.06.25/outbox.cif.g09.slc.cpg/sg11_3_cif.got.tgz:4386.got - 2010.06.27 23:14:04.
