data_PCOD8077823
_publ_section_title
;
Structure prediction by ZEFSAII (Michael W. Deem and Ramdas Pophale) SiO2 
 PCOD8077823
Probable space group: P 21/M
;
_chemical_formula_sum "Si O2"
_cell_formula_units_Z 24
_cell_length_a 20.521828
_cell_length_b 8.789647
_cell_length_c 9.131538
_cell_angle_alpha 90.000000
_cell_angle_beta 49.930948
_cell_angle_gamma 90.000000
_cell_volume 1260.508120
_symmetry_space_group_name_H-M "P 21/M"
_symmetry_group_IT_number 11
_symmetry_cell_setting 'monoclinic'
loop_
_space_group_symop_operation_xyz
x,y,z
-x,1/2+y,-z
-x,-y,-z
x,1/2-y,z
loop_
_atom_site_type_symbol
_atom_site_label
_atom_site_fract_x
_atom_site_fract_y
_atom_site_fract_z
Si Si1 0.592335 0.422732 0.692550
Si Si2 0.239661 0.427556 0.566376
Si Si3 0.411707 0.075612 0.996877
Si Si4 0.924122 0.070541 0.702126
Si Si5 0.225638 0.424660 0.248076
Si Si6 0.922322 0.931590 0.023982
O O1 0.618250 0.250000 0.629799
O O2 0.668087 0.517441 0.507124
O O3 0.495360 0.455618 0.773009
O O4 0.587624 0.457543 0.871528
O O5 0.239693 0.250000 0.581852
O O6 0.225217 0.475515 0.418703
O O7 0.164032 0.493782 0.775282
O O8 0.416440 0.250000 0.051008
O O9 0.321547 0.056542 0.043054
O O10 0.937295 0.250000 0.699627
O O11 0.834968 0.036836 0.752374
O O12 0.924807 0.992020 0.857259
O O13 0.000000 0.000000 0.500000
O O14 0.194185 0.250000 0.277354
O O15 0.927852 0.750000 0.017229
O O16 0.000000 0.000000 0.000000
#
# Coordination Sequence:
#
# PCOD8077823 Si02
#       6
#     4   4   4   4   4   4
#     4   9  15  24  44  74 105 138 176 216 257 305
#     4   9  19  34  53  78 109 142 174 214 266 318
#     4   8  15  27  44  70 105 141 175 215 262 307
#     4  12  25  40  58  81 108 139 178 222 269 321
#     4   9  17  33  55  79 109 142 177 219 267 316
#     4  11  23  40  61  83 108 140 177 218 268 322
#
# _framework density 19.039942
#
# number of rings (size 3 to 8) (size 9 to 14) (size 15 to 20)
#    0.000    2.333    0.000    4.500    0.000    6.000 
#    0.000    0.000    0.000    1.000    0.000    0.000 
#    0.000    0.000    0.000    0.000    0.000    0.000 
#
# Total GULP energy -297404.959250 kJ/mol
# GULP energy per Si atom -12391.873302 kJ/mol
# Density = 1.899661 g / cm^3
# Si number density = 19.039942 Si / 1000 Ang^3
#
#
#
# Elastic Constant Matrix: (Units=GPa)
#
#
# Indices 1 2 3 4 5 6 
#
# 1 106.3256 36.2102 75.5643 0.0000 -31.5608 0.0000
# 2 36.2102 58.3176 38.3284 0.0000 -8.2324 0.0000
# 3 75.5643 38.3284 139.9557 0.0000 -32.8195 0.0000
# 4 0.0000 0.0000 0.0000 27.3886 0.0000 -5.5411
# 5 -31.5608 -8.2324 -32.8195 0.0000 34.6760 0.0000
# 6 0.0000 0.0000 0.0000 -5.5411 0.0000 32.6753
#
#
#
# Elastic Compliance Matrix: (Units=1/GPa)
#
#
# Indices 1 2 3 4 5 6 
#
# 1 0.018820 -0.006262 -0.006141 0.000000 0.009830 0.000000
# 2 -0.006262 0.023004 -0.003823 0.000000 -0.003857 0.000000
# 3 -0.006141 -0.003823 0.012832 0.000000 0.005648 0.000000
# 4 0.000000 0.000000 0.000000 0.037809 0.000000 0.006412
# 5 0.009830 -0.003857 0.005648 0.000000 0.042216 0.000000
# 6 0.000000 0.000000 0.000000 0.006412 0.000000 0.031691
#
#
# Mechanical properties :
#
#
# Convention : Reuss Voigt Hill
#
# Bulk Modulus (GPa) = 45.03753 67.20052 56.11902
# Shear Modulus (GPa) = 24.24526 29.24771 26.74649
#
# Velocity S-wave (km/s) = 3.57233 3.92359 3.75207
# Velocity P-wave (km/s) = 6.38130 7.47645 6.95048
#
# Compressibility (1/GPa) = 0.02220370
#
# Stress axis : x y z
#
# Youngs Moduli (GPa) = 53.13526 43.47084 77.92758
#
# Poissons Ratio (x) = 0.27220 0.47857
# Poissons Ratio (y) = 0.33271 0.29795
# Poissons Ratio (z) = 0.32631 0.16621
#
# Static dielectric constant tensor:
#      x y z
#    x 3.715750 0.000000 -0.384150 
#    y 0.000000 4.166170 0.000000 
#    z -0.384150 0.000000 3.989500 
# 
# 
# High freq. dielectric constant tensor:
#      x y z
#    x 1.730040 0.000000 -0.045410 
#    y 0.000000 1.740720 0.000000 
#    z -0.045410 0.000000 1.728600 
# 
# From -- ./inp_files/25715.got.cif
#   From: 2010.06.25/outbox.cif.g09.slc.cpg/sg11_13_cif.got.tgz:25715.got - 2010.06.27 23:14:04.
