data_PCOD8077580
_publ_section_title
;
Structure prediction by ZEFSAII (Michael W. Deem and Ramdas Pophale) SiO2 
 PCOD8077580
Probable space group: P 21/M
;
_chemical_formula_sum "Si O2"
_cell_formula_units_Z 32
_cell_length_a 11.715879
_cell_length_b 14.265749
_cell_length_c 17.880750
_cell_angle_alpha 90.000000
_cell_angle_beta 149.436779
_cell_angle_gamma 90.000000
_cell_volume 1519.625486
_symmetry_space_group_name_H-M "P 21/M"
_symmetry_group_IT_number 11
_symmetry_cell_setting 'monoclinic'
loop_
_space_group_symop_operation_xyz
x,y,z
-x,1/2+y,-z
-x,-y,-z
x,1/2-y,z
loop_
_atom_site_type_symbol
_atom_site_label
_atom_site_fract_x
_atom_site_fract_y
_atom_site_fract_z
Si Si1 0.374528 0.149770 0.009547
Si Si2 0.231251 0.400759 0.768847
Si Si3 0.139643 0.360345 0.217185
Si Si4 0.318345 0.353328 0.480679
Si Si5 0.548740 0.512628 0.703124
Si Si6 0.828063 0.146052 0.448988
Si Si7 0.871138 0.395263 0.304036
Si Si8 0.676276 0.459173 0.937636
O O1 0.306585 0.250000 0.008085
O O2 0.261094 0.147670 0.864890
O O3 0.641832 0.151270 0.146973
O O4 0.293004 0.066122 0.016690
O O5 0.117247 0.500254 0.721017
O O6 0.464431 0.411530 0.857077
O O7 0.061929 0.340030 0.623930
O O8 0.143151 0.250000 0.199285
O O9 0.266573 0.380802 0.366213
O O10 0.259352 0.420634 0.220849
O O11 0.884877 0.395609 0.078594
O O12 0.433460 0.250000 0.548779
O O13 0.483514 0.430621 0.608424
O O14 0.086082 0.341351 0.394857
O O15 0.334443 0.577116 0.598094
O O16 0.643074 0.462056 0.830069
O O17 0.720335 0.250000 0.379065
O O18 0.876743 0.100261 0.396740
#
# Coordination Sequence:
#
# PCOD8077580 Si02
#       8
#     4   4   4   4   4   4   4   4
#     4  11  22  37  60  96 135 172 214 259 323 393
#     4  11  21  38  60  94 133 168 205 266 325 384
#     4  11  26  47  68  92 123 175 228 270 321 382
#     4  11  23  41  67  96 128 169 218 266 323 386
#     4  12  24  44  67  93 134 170 217 271 322 380
#     4  12  23  37  63  98 130 168 208 259 332 396
#     4  11  20  38  62  91 131 170 209 259 325 393
#     4  11  24  41  68  93 129 170 220 269 327 376
#
# _framework density 21.05782
#
# number of rings (size 3 to 8) (size 9 to 14) (size 15 to 20)
#    0.000    0.750    3.750    6.750    0.000    3.000 
#    0.000    0.625    0.000    0.000    0.000    0.000 
#    0.000    0.000    0.000    0.000    0.000    0.000 
#
# Total GULP energy -396846.109741 kJ/mol
# GULP energy per Si atom -12401.440929 kJ/mol
# Density = 2.100989 g / cm^3
# Si number density = 21.057820 Si / 1000 Ang^3
#
#
#
# Elastic Constant Matrix: (Units=GPa)
#
#
# Indices 1 2 3 4 5 6 
#
# 1 52.2721 11.3356 8.8841 0.0000 -0.4465 0.0000
# 2 11.3356 123.1732 34.0967 0.0000 -3.8073 0.0000
# 3 8.8841 34.0967 86.7230 0.0000 -15.5174 0.0000
# 4 0.0000 0.0000 0.0000 -22.0533 0.0000 12.2253
# 5 -0.4465 -3.8073 -15.5174 0.0000 29.1122 0.0000
# 6 0.0000 0.0000 0.0000 12.2253 0.0000 19.8012
#
#
#
# Elastic Compliance Matrix: (Units=1/GPa)
#
#
# Indices 1 2 3 4 5 6 
#
# 1 0.019699 -0.001392 -0.001602 0.000000 -0.000734 0.000000
# 2 -0.001392 0.009225 -0.003617 0.000000 -0.000743 0.000000
# 3 -0.001602 -0.003617 0.014402 0.000000 0.007179 0.000000
# 4 0.000000 0.000000 0.000000 -0.033782 0.000000 0.020857
# 5 -0.000734 -0.000743 0.007179 0.000000 0.038068 0.000000
# 6 0.000000 0.000000 0.000000 0.020857 0.000000 0.037625
#
#
# Mechanical properties :
#
#
# Convention : Reuss Voigt Hill
#
# Bulk Modulus (GPa) = 33.21960 41.20012 37.20986
# Shear Modulus (GPa) = 46.08604 19.22882 32.65743
#
# Velocity S-wave (km/s) = 4.68327 3.02511 3.94235
# Velocity P-wave (km/s) = 6.71220 5.63998 6.19932
#
# Compressibility (1/GPa) = 0.03010271
#
# Stress axis : x y z
#
# Youngs Moduli (GPa) = 50.76519 108.39934 69.43573
#
# Poissons Ratio (x) = 0.15090 0.11123
# Poissons Ratio (y) = 0.07067 0.25117
# Poissons Ratio (z) = 0.08132 0.39212
#
# Static dielectric constant tensor:
#      x y z
#    x 3.667950 0.000000 -0.065540 
#    y 0.000000 3.583560 0.000000 
#    z -0.065540 0.000000 3.950830 
# 
# 
# High freq. dielectric constant tensor:
#      x y z
#    x 1.808360 0.000000 -0.016530 
#    y 0.000000 1.842000 0.000000 
#    z -0.016530 0.000000 1.831110 
# 
# From -- ./inp_files/59511.got.cif
#   From: 2010.06.25/outbox.cif.g09.slc.cpg/sg11_30_cif.got.tgz:59511.got - 2010.06.27 23:14:04.
