data_PCOD8077903
_publ_section_title
;
Structure prediction by ZEFSAII (Michael W. Deem and Ramdas Pophale) SiO2 
 PCOD8077903
Probable space group: P 21/M
;
_chemical_formula_sum "Si O2"
_cell_formula_units_Z 20
_cell_length_a 9.430675
_cell_length_b 17.929952
_cell_length_c 5.404922
_cell_angle_alpha 90.000000
_cell_angle_beta 75.058071
_cell_angle_gamma 90.000000
_cell_volume 883.024633
_symmetry_space_group_name_H-M "P 21/M"
_symmetry_group_IT_number 11
_symmetry_cell_setting 'monoclinic'
loop_
_space_group_symop_operation_xyz
x,y,z
-x,1/2+y,-z
-x,-y,-z
x,1/2-y,z
loop_
_atom_site_type_symbol
_atom_site_label
_atom_site_fract_x
_atom_site_fract_y
_atom_site_fract_z
Si Si1 0.989699 0.167947 0.994349
Si Si2 0.100785 0.447335 0.290503
Si Si3 0.268745 0.166393 0.544004
Si Si4 0.263436 0.584868 0.081164
Si Si5 0.556512 0.416567 0.494204
O O1 0.952759 0.250000 0.117938
O O2 0.153306 0.167493 0.817126
O O3 0.869321 0.145013 0.843202
O O4 0.982855 0.104333 0.205222
O O5 0.217846 0.394331 0.369573
O O6 0.198595 0.501195 0.073186
O O7 0.000000 0.500000 0.500000
O O8 0.279320 0.250000 0.423122
O O9 0.424819 0.142103 0.582933
O O10 0.347554 0.592180 0.302098
O O11 0.359143 0.603900 0.796757
O O12 0.500000 0.500000 0.500000
#
# Coordination Sequence:
#
# PCOD8077903 Si02
#       5
#     4   4   4   4   4
#     4  11  26  46  71 105 145 191 242 305 372 438
#     4  12  23  44  75 109 140 187 254 306 365 434
#     4  11  26  45  71 104 146 191 240 305 371 435
#     4  12  26  45  76 104 142 188 243 298 357 433
#     4  12  26  46  70 107 142 189 239 298 362 434
#
# _framework density 22.649424
#
# number of rings (size 3 to 8) (size 9 to 14) (size 15 to 20)
#    0.000    0.400    4.000    4.200    2.800    1.600 
#    0.000    0.000    0.000    0.000    0.000    0.000 
#    0.000    0.000    0.000    0.000    0.000    0.000 
#
# Total GULP energy -247987.647303 kJ/mol
# GULP energy per Si atom -12399.382365 kJ/mol
# Density = 2.259787 g / cm^3
# Si number density = 22.649424 Si / 1000 Ang^3
#
#
#
# Elastic Constant Matrix: (Units=GPa)
#
#
# Indices 1 2 3 4 5 6 
#
# 1 151.0637 85.3030 64.4259 0.0000 17.6248 0.0000
# 2 85.3030 180.7094 49.9199 0.0000 5.0900 0.0000
# 3 64.4259 49.9199 124.8274 0.0000 14.1661 0.0000
# 4 0.0000 0.0000 0.0000 18.0497 0.0000 7.2334
# 5 17.6248 5.0900 14.1661 0.0000 37.3301 0.0000
# 6 0.0000 0.0000 0.0000 7.2334 0.0000 31.3441
#
#
#
# Elastic Compliance Matrix: (Units=1/GPa)
#
#
# Indices 1 2 3 4 5 6 
#
# 1 0.010792 -0.004009 -0.003606 0.000000 -0.003180 0.000000
# 2 -0.004009 0.007710 -0.001160 0.000000 0.001282 0.000000
# 3 -0.003606 -0.001160 0.010581 0.000000 -0.002154 0.000000
# 4 0.000000 0.000000 0.000000 0.061048 0.000000 -0.014088
# 5 -0.003180 0.001282 -0.002154 0.000000 0.028932 0.000000
# 6 0.000000 0.000000 0.000000 -0.014088 0.000000 0.035155
#
#
# Mechanical properties :
#
#
# Convention : Reuss Voigt Hill
#
# Bulk Modulus (GPa) = 86.70118 95.09977 90.90047
# Shear Modulus (GPa) = 28.47162 34.47490 31.47326
#
# Velocity S-wave (km/s) = 3.54935 3.90565 3.73176
# Velocity P-wave (km/s) = 7.42697 7.90049 7.66739
#
# Compressibility (1/GPa) = 0.01153387
#
# Stress axis : x y z
#
# Youngs Moduli (GPa) = 92.65794 129.69536 94.51270
#
# Poissons Ratio (x) = 0.51992 0.34082
# Poissons Ratio (y) = 0.37144 0.10963
# Poissons Ratio (z) = 0.33413 0.15043
#
# Static dielectric constant tensor:
#      x y z
#    x 4.468080 0.000000 0.043720 
#    y 0.000000 4.485800 0.000000 
#    z 0.043720 0.000000 3.904890 
# 
# 
# High freq. dielectric constant tensor:
#      x y z
#    x 1.910320 0.000000 0.003030 
#    y 0.000000 1.906690 0.000000 
#    z 0.003030 0.000000 1.880010 
# 
# From -- ./inp_files/1951.got.cif
#   From: 2010.06.25/outbox.cif.g09.slc.cpg/sg11_1_cif.got.tgz:1951.got - 2010.06.27 23:14:04.
