data_PCOD8077760
_publ_section_title
;
Structure prediction by ZEFSAII (Michael W. Deem and Ramdas Pophale) SiO2 
 PCOD8077760
Probable space group: P 21/M
;
_chemical_formula_sum "Si O2"
_cell_formula_units_Z 32
_cell_length_a 27.733241
_cell_length_b 8.569576
_cell_length_c 21.645260
_cell_angle_alpha 90.000000
_cell_angle_beta 161.335492
_cell_angle_gamma 90.000000
_cell_volume 1646.297321
_symmetry_space_group_name_H-M "P 21/M"
_symmetry_group_IT_number 11
_symmetry_cell_setting 'monoclinic'
loop_
_space_group_symop_operation_xyz
x,y,z
-x,1/2+y,-z
-x,-y,-z
x,1/2-y,z
loop_
_atom_site_type_symbol
_atom_site_label
_atom_site_fract_x
_atom_site_fract_y
_atom_site_fract_z
Si Si1 0.923254 0.434988 0.997643
Si Si2 0.092740 0.434561 0.436435
Si Si3 0.845289 0.064662 0.038809
Si Si4 0.774472 0.565015 0.700093
Si Si5 0.076410 0.064048 0.652822
Si Si6 0.405349 0.934564 0.061664
Si Si7 0.458244 0.935338 0.264729
Si Si8 0.577850 0.432704 0.155710
O O1 0.915942 0.250000 0.988281
O O2 0.803522 0.499982 0.803524
O O3 0.874110 0.500891 0.004868
O O4 0.092737 0.491088 0.185465
O O5 0.115434 0.250000 0.464701
O O6 0.252219 0.516048 0.628483
O O7 0.989233 0.488555 0.253477
O O8 0.013697 0.492105 0.401096
O O9 0.834726 0.250000 0.025604
O O10 0.688948 0.996843 0.877892
O O11 0.771277 0.750000 0.698961
O O12 0.612584 0.499114 0.481836
O O13 0.079104 0.250000 0.658208
O O14 0.238892 0.992087 0.851502
O O15 0.000000 0.000000 0.500000
O O16 0.416893 0.750000 0.067647
O O17 0.460754 0.988577 0.196520
O O18 0.499690 0.016006 0.123427
O O19 0.452957 0.750000 0.262070
O O20 0.568048 0.250000 0.136123
O O21 0.500000 0.500000 0.000000
#
# Coordination Sequence:
#
# PCOD8077760 Si02
#       8
#     4   4   4   4   4   4   4   4
#     4   9  18  33  55  82 114 151 193 236 283 339
#     4  11  22  40  64  90 118 155 201 248 298 357
#     4   9  18  34  58  86 114 149 194 240 286 346
#     4   9  18  33  55  82 114 151 193 236 283 339
#     4  12  24  40  62  88 121 158 197 244 297 354
#     4  11  22  40  64  90 118 155 201 248 298 357
#     4   9  18  34  58  86 114 149 194 240 286 346
#     4  12  26  44  62  88 121 156 197 248 305 360
#
# _framework density 19.437557999999999
#
# number of rings (size 3 to 8) (size 9 to 14) (size 15 to 20)
#    0.000    1.750    1.250    3.750    1.750    0.500 
#    0.000    2.500    0.000    0.000    0.000    0.000 
#    0.000    0.000    0.000    0.000    0.000    0.000 
#
# Total GULP energy -396746.933623 kJ/mol
# GULP energy per Si atom -12398.341676 kJ/mol
# Density = 1.939332 g / cm^3
# Si number density = 19.437558 Si / 1000 Ang^3
#
#
#
# Elastic Constant Matrix: (Units=GPa)
#
#
# Indices 1 2 3 4 5 6 
#
# 1 193.9147 34.4600 107.3426 0.0000 -4.9360 0.0000
# 2 34.4600 54.5305 34.8735 0.0000 -2.8426 0.0000
# 3 107.3426 34.8735 195.2200 0.0000 -4.1880 0.0000
# 4 0.0000 0.0000 0.0000 30.8228 0.0000 0.1620
# 5 -4.9360 -2.8426 -4.1880 0.0000 38.7184 0.0000
# 6 0.0000 0.0000 0.0000 0.1620 0.0000 30.8450
#
#
#
# Elastic Compliance Matrix: (Units=1/GPa)
#
#
# Indices 1 2 3 4 5 6 
#
# 1 0.007695 -0.002418 -0.003791 0.000000 0.000393 0.000000
# 2 -0.002418 0.021512 -0.002492 0.000000 0.001002 0.000000
# 3 -0.003791 -0.002492 0.007655 0.000000 0.000162 0.000000
# 4 0.000000 0.000000 0.000000 0.032444 0.000000 -0.000170
# 5 0.000393 0.001002 0.000162 0.000000 0.025969 0.000000
# 6 0.000000 0.000000 0.000000 -0.000170 0.000000 0.032421
#
#
# Mechanical properties :
#
#
# Convention : Reuss Voigt Hill
#
# Bulk Modulus (GPa) = 51.38369 88.55750 69.97059
# Shear Modulus (GPa) = 32.98476 37.87650 35.43063
#
# Velocity S-wave (km/s) = 4.12389 4.41911 4.27405
# Velocity P-wave (km/s) = 7.01198 8.46741 7.77383
#
# Compressibility (1/GPa) = 0.01946143
#
# Stress axis : x y z
#
# Youngs Moduli (GPa) = 129.95433 46.48524 130.62687
#
# Poissons Ratio (x) = 0.11240 0.49517
# Poissons Ratio (y) = 0.31423 0.32550
# Poissons Ratio (z) = 0.49262 0.11583
#
# Static dielectric constant tensor:
#      x y z
#    x 3.900720 0.000000 0.037820 
#    y 0.000000 3.447900 0.000000 
#    z 0.037820 0.000000 3.894980 
# 
# 
# High freq. dielectric constant tensor:
#      x y z
#    x 1.773340 0.000000 0.000490 
#    y 0.000000 1.736570 0.000000 
#    z 0.000490 0.000000 1.773260 
# 
# From -- ./inp_files/67269.got.cif
#   From: 2010.06.25/outbox.cif.g09.slc.cpg/sg11_34_cif.got.tgz:67269.got - 2010.06.27 23:14:04.
