data_PCOD8077281
_publ_section_title
;
Structure prediction by ZEFSAII (Michael W. Deem and Ramdas Pophale) SiO2 
 PCOD8077281
Probable space group: P 21/M
;
_chemical_formula_sum "Si O2"
_cell_formula_units_Z 20
_cell_length_a 5.704795
_cell_length_b 9.501740
_cell_length_c 15.021353
_cell_angle_alpha 90.000000
_cell_angle_beta 86.049550
_cell_angle_gamma 90.000000
_cell_volume 812.305002
_symmetry_space_group_name_H-M "P 21/M"
_symmetry_group_IT_number 11
_symmetry_cell_setting 'monoclinic'
loop_
_space_group_symop_operation_xyz
x,y,z
-x,1/2+y,-z
-x,-y,-z
x,1/2-y,z
loop_
_atom_site_type_symbol
_atom_site_label
_atom_site_fract_x
_atom_site_fract_y
_atom_site_fract_z
Si Si1 0.329794 0.987028 0.154586
Si Si2 0.292124 0.596698 0.744432
Si Si3 0.918688 0.406072 0.674652
Si Si4 0.882121 0.750000 0.907805
Si Si5 0.359884 0.750000 0.010200
Si Si6 0.371494 0.406264 0.430246
O O1 0.286001 0.897887 0.245743
O O2 0.344912 0.890690 0.068592
O O3 0.579347 0.065662 0.164361
O O4 0.121242 0.104470 0.149202
O O5 0.161081 0.750000 0.759567
O O6 0.479964 0.616070 0.661692
O O7 0.140643 0.463565 0.721506
O O8 0.968048 0.250000 0.636029
O O9 0.862456 0.508112 0.592755
O O10 0.622825 0.750000 0.962474
O O11 0.120445 0.750000 0.958448
O O12 0.500000 0.500000 0.500000
O O13 0.307733 0.250000 0.470281
#
# Coordination Sequence:
#
# PCOD8077281 Si02
#       6
#     4   4   4   2   2   4
#     4  11  25  43  67  96 136 180 231 289 348 431
#     4  10  23  41  67  96 129 180 228 276 345 413
#     4  11  24  40  67  98 131 179 228 281 346 412
#     4  12  28  46  70 100 139 190 231 300 364 434
#     4  12  28  46  68 104 141 180 241 294 372 422
#     4  10  22  42  66  98 137 174 224 282 342 413
#
# _framework density 24.621292
#
# number of rings (size 3 to 8) (size 9 to 14) (size 15 to 20)
#    0.000    1.200    2.000    2.400    9.800    2.400 
#    0.000    0.000    0.000    0.000    0.000    0.000 
#    0.000    0.000    0.000    0.000    0.000    0.000 
#
# Total GULP energy -247872.283344 kJ/mol
# GULP energy per Si atom -12393.614167 kJ/mol
# Density = 2.456525 g / cm^3
# Si number density = 24.621292 Si / 1000 Ang^3
#
#
#
# Elastic Constant Matrix: (Units=GPa)
#
#
# Indices 1 2 3 4 5 6 
#
# 1 94.9054 48.6203 32.1265 0.0000 38.3875 0.0000
# 2 48.6203 228.3899 54.9119 0.0000 38.0174 0.0000
# 3 32.1265 54.9119 89.2822 0.0000 43.2767 0.0000
# 4 0.0000 0.0000 0.0000 39.7164 0.0000 16.7774
# 5 38.3875 38.0174 43.2767 0.0000 46.6249 0.0000
# 6 0.0000 0.0000 0.0000 16.7774 0.0000 32.8909
#
#
#
# Elastic Compliance Matrix: (Units=1/GPa)
#
#
# Indices 1 2 3 4 5 6 
#
# 1 0.016340 -0.001614 0.001811 0.000000 -0.013818 0.000000
# 2 -0.001614 0.005435 -0.002287 0.000000 -0.000980 0.000000
# 3 0.001811 -0.002287 0.021404 0.000000 -0.019493 0.000000
# 4 0.000000 0.000000 0.000000 0.032094 0.000000 -0.016371
# 5 -0.013818 -0.000980 -0.019493 0.000000 0.051717 0.000000
# 6 0.000000 0.000000 0.000000 -0.016371 0.000000 0.038754
#
#
# Mechanical properties :
#
#
# Convention : Reuss Voigt Hill
#
# Bulk Modulus (GPa) = 25.64175 75.98831 50.81503
# Shear Modulus (GPa) = 27.33382 42.30768 34.82075
#
# Velocity S-wave (km/s) = 3.33554 4.14978 3.76474
# Velocity P-wave (km/s) = 5.02707 7.34103 6.29135
#
# Compressibility (1/GPa) = 0.03899890
#
# Stress axis : x y z
#
# Youngs Moduli (GPa) = 61.20118 183.99144 46.72003
#
# Poissons Ratio (x) = 0.29690 -0.08459
# Poissons Ratio (y) = 0.09876 0.10684
# Poissons Ratio (z) = -0.11081 0.42076
#
# Static dielectric constant tensor:
#      x y z
#    x 4.457390 0.000000 0.002910 
#    y 0.000000 4.655560 0.000000 
#    z 0.002910 0.000000 4.467360 
# 
# 
# High freq. dielectric constant tensor:
#      x y z
#    x 1.978460 0.000000 0.001970 
#    y 0.000000 2.001000 0.000000 
#    z 0.001970 0.000000 1.983460 
# 
# From -- ./inp_files/9228.got.cif
#   From: 2010.06.25/outbox.cif.g09.slc.cpg/sg11_5_cif.got.tgz:9228.got - 2010.06.27 23:14:04.
