data_PCOD8077719
_publ_section_title
;
Structure prediction by ZEFSAII (Michael W. Deem and Ramdas Pophale) SiO2 
 PCOD8077719
Probable space group: P 21/M
;
_chemical_formula_sum "Si O2"
_cell_formula_units_Z 26
_cell_length_a 13.553827
_cell_length_b 17.007828
_cell_length_c 10.907980
_cell_angle_alpha 90.000000
_cell_angle_beta 29.746018
_cell_angle_gamma 90.000000
_cell_volume 1247.594688
_symmetry_space_group_name_H-M "P 21/M"
_symmetry_group_IT_number 11
_symmetry_cell_setting 'monoclinic'
loop_
_space_group_symop_operation_xyz
x,y,z
-x,1/2+y,-z
-x,-y,-z
x,1/2-y,z
loop_
_atom_site_type_symbol
_atom_site_label
_atom_site_fract_x
_atom_site_fract_y
_atom_site_fract_z
Si Si1 0.328556 0.399096 0.599193
Si Si2 0.903837 0.250000 0.773045
Si Si3 0.034942 0.587189 0.154669
Si Si4 0.537538 0.905661 0.043177
Si Si5 0.391319 0.025570 0.773542
Si Si6 0.283116 0.250000 0.237362
Si Si7 0.538093 0.750000 0.695908
Si Si8 0.826658 0.496240 0.586246
O O1 0.091560 0.395472 0.831654
O O2 0.397641 0.482745 0.468037
O O3 0.366874 0.401732 0.704503
O O4 0.439912 0.325869 0.414942
O O5 0.944755 0.170439 0.802321
O O6 0.038608 0.250000 0.501290
O O7 0.667661 0.250000 0.004959
O O8 0.915776 0.523776 0.363502
O O9 0.241316 0.545696 0.901281
O O10 0.631003 0.940911 0.066713
O O11 0.293874 0.912623 0.297330
O O12 0.612100 0.817939 0.951206
O O13 0.641331 0.947420 0.816026
O O14 0.305718 0.250000 0.361490
O O15 0.000000 0.500000 0.500000
#
# Coordination Sequence:
#
# PCOD8077719 Si02
#       8
#     4   2   4   4   4   2   2   4
#     4  11  23  42  65  94 125 170 217 262 317 379
#     4  12  24  36  65 100 125 162 212 271 324 372
#     4  12  21  41  64  96 130 162 219 269 315 380
#     4  11  24  40  61  95 130 171 210 262 329 382
#     4  11  24  40  65  93 127 171 216 262 315 390
#     4  12  26  41  64  96 134 161 215 272 324 390
#     4  12  24  43  67  90 129 167 213 273 322 384
#     4  11  22  36  65  90 127 168 209 263 322 379
#
# _framework density 20.840101000000001
#
# number of rings (size 3 to 8) (size 9 to 14) (size 15 to 20)
#    0.000    0.615    7.692    0.462    4.308    0.615 
#    0.000    0.000    0.000    0.000    0.000    0.000 
#    0.000    0.000    0.000    0.000    0.000    0.000 
#
# Total GULP energy -322139.646031 kJ/mol
# GULP energy per Si atom -12389.986386 kJ/mol
# Density = 2.079267 g / cm^3
# Si number density = 20.840101 Si / 1000 Ang^3
#
#
#
# Elastic Constant Matrix: (Units=GPa)
#
#
# Indices 1 2 3 4 5 6 
#
# 1 74.5894 21.0725 18.8201 0.0000 -6.1641 0.0000
# 2 21.0725 93.3099 29.0244 0.0000 -1.7837 0.0000
# 3 18.8201 29.0244 73.9219 0.0000 -13.9871 0.0000
# 4 0.0000 0.0000 0.0000 40.1360 0.0000 6.9472
# 5 -6.1641 -1.7837 -13.9871 0.0000 37.2086 0.0000
# 6 0.0000 0.0000 0.0000 6.9472 0.0000 14.5343
#
#
#
# Elastic Compliance Matrix: (Units=1/GPa)
#
#
# Indices 1 2 3 4 5 6 
#
# 1 0.014879 -0.002548 -0.002524 0.000000 0.001394 0.000000
# 2 -0.002548 0.012704 -0.004633 0.000000 -0.001555 0.000000
# 3 -0.002524 -0.004633 0.017084 0.000000 0.005782 0.000000
# 4 0.000000 0.000000 0.000000 0.027163 0.000000 -0.012983
# 5 0.001394 -0.001555 0.005782 0.000000 0.029205 0.000000
# 6 0.000000 0.000000 0.000000 -0.012983 0.000000 0.075008
#
#
# Mechanical properties :
#
#
# Convention : Reuss Voigt Hill
#
# Bulk Modulus (GPa) = 39.59593 42.18392 40.88992
# Shear Modulus (GPa) = 24.52518 29.90273 27.21395
#
# Velocity S-wave (km/s) = 3.43421 3.79207 3.61757
# Velocity P-wave (km/s) = 5.89629 6.28162 6.09200
#
# Compressibility (1/GPa) = 0.02525512
#
# Stress axis : x y z
#
# Youngs Moduli (GPa) = 67.21029 78.71516 58.53588
#
# Poissons Ratio (x) = 0.20060 0.14772
# Poissons Ratio (y) = 0.17128 0.27122
# Poissons Ratio (z) = 0.16961 0.36472
#
# Static dielectric constant tensor:
#      x y z
#    x 3.859360 0.000000 -0.328750 
#    y 0.000000 3.921070 0.000000 
#    z -0.328750 0.000000 4.044980 
# 
# 
# High freq. dielectric constant tensor:
#      x y z
#    x 1.807760 0.000000 -0.018810 
#    y 0.000000 1.805300 0.000000 
#    z -0.018810 0.000000 1.824530 
# 
# From -- ./inp_files/39839.got.cif
#   From: 2010.06.25/outbox.cif.g09.slc.cpg/sg11_20_cif.got.tgz:39839.got - 2010.06.27 23:14:04.
