data_PCOD8077048
_publ_section_title
;
Structure prediction by ZEFSAII (Michael W. Deem and Ramdas Pophale) SiO2 
 PCOD8077048
Probable space group: P 21/M
;
_chemical_formula_sum "Si O2"
_cell_formula_units_Z 24
_cell_length_a 7.764523
_cell_length_b 8.810410
_cell_length_c 22.733802
_cell_angle_alpha 90.000000
_cell_angle_beta 132.442979
_cell_angle_gamma 90.000000
_cell_volume 1147.650132
_symmetry_space_group_name_H-M "P 21/M"
_symmetry_group_IT_number 11
_symmetry_cell_setting 'monoclinic'
loop_
_space_group_symop_operation_xyz
x,y,z
-x,1/2+y,-z
-x,-y,-z
x,1/2-y,z
loop_
_atom_site_type_symbol
_atom_site_label
_atom_site_fract_x
_atom_site_fract_y
_atom_site_fract_z
Si Si1 0.825766 0.570922 0.413468
Si Si2 0.933353 0.074272 0.313991
Si Si3 0.319014 0.071192 0.002652
Si Si4 0.142799 0.579331 0.169506
Si Si5 0.336147 0.076182 0.321483
Si Si6 0.481001 0.077914 0.839528
O O1 0.848934 0.750000 0.420559
O O2 0.899474 0.516413 0.366077
O O3 0.563491 0.528234 0.371462
O O4 0.000000 0.500000 0.500000
O O5 0.877099 0.250000 0.312517
O O6 0.197451 0.052638 0.350871
O O7 0.760086 0.011861 0.223759
O O8 0.354851 0.250000 0.014818
O O9 0.354568 0.000299 0.074733
O O10 0.061908 0.026285 0.921209
O O11 0.500000 0.000000 0.000000
O O12 0.092889 0.750000 0.180825
O O13 0.158745 0.466774 0.228176
O O14 0.388018 0.574392 0.192395
O O15 0.414091 0.250000 0.331987
O O16 0.426790 0.250000 0.846849
#
# Coordination Sequence:
#
# PCOD8077048 Si02
#       6
#     4   4   4   4   4   4
#     4  12  26  46  72 100 133 171 212 264 323 386
#     4  11  24  43  68 100 134 173 218 266 323 385
#     4  11  23  38  56  84 123 167 218 273 324 382
#     4  10  22  39  60  88 124 169 218 267 322 381
#     4  11  24  42  68  99 133 172 216 266 322 386
#     4  11  22  38  61  90 124 169 218 268 325 382
#
# _framework density 20.912298
#
# number of rings (size 3 to 8) (size 9 to 14) (size 15 to 20)
#    0.000    1.000    1.667    5.000    0.000    8.000 
#    0.000    0.000    0.000    0.000    0.000    0.000 
#    0.000    0.000    0.000    0.000    0.000    0.000 
#
# Total GULP energy -297723.695662 kJ/mol
# GULP energy per Si atom -12405.153986 kJ/mol
# Density = 2.086470 g / cm^3
# Si number density = 20.912298 Si / 1000 Ang^3
#
#
#
# Elastic Constant Matrix: (Units=GPa)
#
#
# Indices 1 2 3 4 5 6 
#
# 1 105.1026 55.6562 39.6581 0.0000 2.8528 0.0000
# 2 55.6562 159.7987 63.7360 0.0000 4.2382 0.0000
# 3 39.6581 63.7360 128.2915 0.0000 6.6687 0.0000
# 4 0.0000 0.0000 0.0000 42.7249 0.0000 -0.6622
# 5 2.8528 4.2382 6.6687 0.0000 17.8674 0.0000
# 6 0.0000 0.0000 0.0000 -0.6622 0.0000 27.3547
#
#
#
# Elastic Compliance Matrix: (Units=1/GPa)
#
#
# Indices 1 2 3 4 5 6 
#
# 1 0.012086 -0.003389 -0.002034 0.000000 -0.000367 0.000000
# 2 -0.003389 0.008757 -0.003287 0.000000 -0.000309 0.000000
# 3 -0.002034 -0.003287 0.010197 0.000000 -0.002701 0.000000
# 4 0.000000 0.000000 0.000000 0.023414 0.000000 0.000567
# 5 -0.000367 -0.000309 -0.002701 0.000000 0.057108 0.000000
# 6 0.000000 0.000000 0.000000 0.000567 0.000000 0.036571
#
#
# Mechanical properties :
#
#
# Convention : Reuss Voigt Hill
#
# Bulk Modulus (GPa) = 73.41198 79.03260 76.22229
# Shear Modulus (GPa) = 29.39571 33.19889 31.29730
#
# Velocity S-wave (km/s) = 3.75329 3.98870 3.87279
# Velocity P-wave (km/s) = 7.34601 7.68684 7.51835
#
# Compressibility (1/GPa) = 0.01362175
#
# Stress axis : x y z
#
# Youngs Moduli (GPa) = 82.73872 114.18914 98.06940
#
# Poissons Ratio (x) = 0.38695 0.19943
# Poissons Ratio (y) = 0.28038 0.32237
# Poissons Ratio (z) = 0.16825 0.37535
#
# Static dielectric constant tensor:
#      x y z
#    x 3.855630 0.000000 0.191030 
#    y 0.000000 3.983870 0.000000 
#    z 0.191030 0.000000 4.148000 
# 
# 
# High freq. dielectric constant tensor:
#      x y z
#    x 1.829390 0.000000 0.001850 
#    y 0.000000 1.830330 0.000000 
#    z 0.001850 0.000000 1.819790 
# 
# From -- ./inp_files/67818.got.cif
#   From: 2010.06.25/outbox.cif.g09.slc.cpg/sg11_34_cif.got.tgz:67818.got - 2010.06.27 23:14:04.
