data_PCOD8077957
_publ_section_title
;
Structure prediction by ZEFSAII (Michael W. Deem and Ramdas Pophale) SiO2 
 PCOD8077957
Probable space group: P 21/M
;
_chemical_formula_sum "Si O2"
_cell_formula_units_Z 28
_cell_length_a 23.252540
_cell_length_b 9.140135
_cell_length_c 21.963541
_cell_angle_alpha 90.000000
_cell_angle_beta 160.930493
_cell_angle_gamma 90.000000
_cell_volume 1525.086140
_symmetry_space_group_name_H-M "P 21/M"
_symmetry_group_IT_number 11
_symmetry_cell_setting 'monoclinic'
loop_
_space_group_symop_operation_xyz
x,y,z
-x,1/2+y,-z
-x,-y,-z
x,1/2-y,z
loop_
_atom_site_type_symbol
_atom_site_label
_atom_site_fract_x
_atom_site_fract_y
_atom_site_fract_z
Si Si1 0.698595 0.421387 0.636651
Si Si2 0.683996 0.420410 0.178187
Si Si3 0.691735 0.080271 0.319949
Si Si4 0.705159 0.576831 0.083032
Si Si5 0.995067 0.424069 0.707916
Si Si6 0.000825 0.576479 0.152089
Si Si7 0.701067 0.578379 0.762838
O O1 0.721365 0.250000 0.671064
O O2 0.757332 0.500927 0.756902
O O3 0.498651 0.461780 0.418632
O O4 0.823599 0.475953 0.707188
O O5 0.658250 0.250000 0.137579
O O6 0.774848 0.442166 0.335315
O O7 0.785792 0.498785 0.224290
O O8 0.500000 0.500000 0.000000
O O9 0.675780 0.250000 0.319026
O O10 0.826495 0.008743 0.503306
O O11 0.493264 0.016516 0.127856
O O12 0.707312 0.750000 0.097127
O O13 0.824842 0.531140 0.145676
O O14 0.979769 0.250000 0.694399
O O15 0.998699 0.490902 0.779550
O O16 0.996708 0.750000 0.152607
O O17 0.827627 0.520917 0.943147
O O18 0.724945 0.750000 0.776122
#
# Coordination Sequence:
#
# PCOD8077957 Si02
#       7
#     4   4   4   4   4   4   4
#     4   9  17  29  46  68  91 115 144 179 221 262
#     4   9  16  28  47  69  91 115 146 185 227 266
#     4   8  15  27  42  63  89 113 142 181 220 260
#     4   9  17  29  46  67  89 115 147 182 222 265
#     4   9  17  28  43  65  91 118 148 181 219 261
#     4   9  17  28  43  65  91 117 147 183 218 255
#     4   9  17  29  46  69  92 113 144 183 220 260
#
# _framework density 18.359618000000001
#
# number of rings (size 3 to 8) (size 9 to 14) (size 15 to 20)
#    0.000    3.143    0.000    1.714    0.000    1.714 
#    0.000    5.714    0.000    5.143    0.000    6.000 
#    0.000    0.000    0.000    0.000    0.000    0.000 
#
# Total GULP energy -346991.508524 kJ/mol
# GULP energy per Si atom -12392.553876 kJ/mol
# Density = 1.831783 g / cm^3
# Si number density = 18.359618 Si / 1000 Ang^3
#
#
#
# Elastic Constant Matrix: (Units=GPa)
#
#
# Indices 1 2 3 4 5 6 
#
# 1 179.9085 29.6284 92.4378 0.0000 -11.9304 0.0000
# 2 29.6284 28.3157 19.1570 0.0000 -4.7903 0.0000
# 3 92.4378 19.1570 128.8734 0.0000 -12.4314 0.0000
# 4 0.0000 0.0000 0.0000 12.6679 0.0000 -3.3140
# 5 -11.9304 -4.7903 -12.4314 0.0000 28.5508 0.0000
# 6 0.0000 0.0000 0.0000 -3.3140 0.0000 21.3947
#
#
#
# Elastic Compliance Matrix: (Units=1/GPa)
#
#
# Indices 1 2 3 4 5 6 
#
# 1 0.009649 -0.005970 -0.005993 0.000000 0.000421 0.000000
# 2 -0.005970 0.043453 -0.001789 0.000000 0.004017 0.000000
# 3 -0.005993 -0.001789 0.012582 0.000000 0.002674 0.000000
# 4 0.000000 0.000000 0.000000 0.082273 0.000000 0.012744
# 5 0.000421 0.004017 0.002674 0.000000 0.037039 0.000000
# 6 0.000000 0.000000 0.000000 0.012744 0.000000 0.048715
#
#
# Mechanical properties :
#
#
# Convention : Reuss Voigt Hill
#
# Bulk Modulus (GPa) = 26.19246 68.83822 47.51534
# Shear Modulus (GPa) = 18.25202 25.58098 21.91650
#
# Velocity S-wave (km/s) = 3.15642 3.73678 3.45879
# Velocity P-wave (km/s) = 5.25179 7.49625 6.47206
#
# Compressibility (1/GPa) = 0.03817892
#
# Stress axis : x y z
#
# Youngs Moduli (GPa) = 103.64263 23.01316 79.47978
#
# Poissons Ratio (x) = 0.13740 0.47629
# Poissons Ratio (y) = 0.61879 0.14223
# Poissons Ratio (z) = 0.62109 0.04118
#
# Static dielectric constant tensor:
#      x y z
#    x 3.014380 0.000000 -0.181080 
#    y 0.000000 3.069070 0.000000 
#    z -0.181080 0.000000 3.635220 
# 
# 
# High freq. dielectric constant tensor:
#      x y z
#    x 1.714830 0.000000 -0.000760 
#    y 0.000000 1.659870 0.000000 
#    z -0.000760 0.000000 1.713240 
# 
# From -- ./inp_files/25567.got.cif
#   From: 2010.06.25/outbox.cif.g09.slc.cpg/sg11_13_cif.got.tgz:25567.got - 2010.06.27 23:14:04.
