data_PCOD8077343
_publ_section_title
;
Structure prediction by ZEFSAII (Michael W. Deem and Ramdas Pophale) SiO2 
 PCOD8077343
Probable space group: P 21/M
;
_chemical_formula_sum "Si O2"
_cell_formula_units_Z 28
_cell_length_a 8.978487
_cell_length_b 13.384390
_cell_length_c 12.155333
_cell_angle_alpha 90.000000
_cell_angle_beta 64.739140
_cell_angle_gamma 90.000000
_cell_volume 1321.042540
_symmetry_space_group_name_H-M "P 21/M"
_symmetry_group_IT_number 11
_symmetry_cell_setting 'monoclinic'
loop_
_space_group_symop_operation_xyz
x,y,z
-x,1/2+y,-z
-x,-y,-z
x,1/2-y,z
loop_
_atom_site_type_symbol
_atom_site_label
_atom_site_fract_x
_atom_site_fract_y
_atom_site_fract_z
Si Si1 0.312013 0.029365 0.568055
Si Si2 0.059138 0.636139 0.697020
Si Si3 0.581977 0.046520 0.823312
Si Si4 0.622259 0.366564 0.039839
Si Si5 0.838152 0.547648 0.598817
Si Si6 0.959975 0.367684 0.048681
Si Si7 0.737234 0.632366 0.186758
O O1 0.209554 0.926606 0.600212
O O2 0.500000 0.000000 0.500000
O O3 0.262725 0.093005 0.473645
O O4 0.268933 0.093029 0.687840
O O5 0.118831 0.750000 0.681367
O O6 0.018024 0.596727 0.832569
O O7 0.893999 0.627200 0.674073
O O8 0.428077 0.107058 0.825547
O O9 0.530903 0.932893 0.870574
O O10 0.726092 0.039061 0.688448
O O11 0.656101 0.107859 0.902053
O O12 0.578021 0.250000 0.068536
O O13 0.780827 0.398146 0.060697
O O14 0.000000 0.500000 0.500000
O O15 0.982073 0.250000 0.034502
O O16 0.105205 0.416212 0.927585
O O17 0.757789 0.750000 0.186448
#
# Coordination Sequence:
#
# PCOD8077343 Si02
#       7
#     4   4   4   4   4   4   4
#     4  11  23  43  65  94 130 168 225 273 319 387
#     4  10  23  43  67  93 129 173 215 268 330 390
#     4  11  23  40  65  94 128 173 209 277 330 381
#     4  10  23  40  62  96 132 168 214 265 332 398
#     4  10  24  43  61  91 127 171 223 263 316 391
#     4   9  21  40  64  96 125 161 211 261 321 392
#     4  11  24  42  67  98 130 168 214 268 333 393
#
# _framework density 21.195381000000001
#
# number of rings (size 3 to 8) (size 9 to 14) (size 15 to 20)
#    0.000    1.714    1.429    1.286    8.000    2.857 
#    0.000    0.714    0.000    0.000    0.000    0.000 
#    0.000    0.000    0.000    0.000    0.000    0.000 
#
# Total GULP energy -347178.219209 kJ/mol
# GULP energy per Si atom -12399.222115 kJ/mol
# Density = 2.114714 g / cm^3
# Si number density = 21.195381 Si / 1000 Ang^3
#
#
#
# Elastic Constant Matrix: (Units=GPa)
#
#
# Indices 1 2 3 4 5 6 
#
# 1 143.3708 30.8096 74.6340 0.0000 22.4434 0.0000
# 2 30.8096 72.3638 23.2949 0.0000 4.8945 0.0000
# 3 74.6340 23.2949 136.7532 0.0000 12.1091 0.0000
# 4 0.0000 0.0000 0.0000 26.9792 0.0000 4.3522
# 5 22.4434 4.8945 12.1091 0.0000 55.4582 0.0000
# 6 0.0000 0.0000 0.0000 4.3522 0.0000 34.5511
#
#
#
# Elastic Compliance Matrix: (Units=1/GPa)
#
#
# Indices 1 2 3 4 5 6 
#
# 1 0.010677 -0.002702 -0.005104 0.000000 -0.002968 0.000000
# 2 -0.002702 0.015336 -0.001137 0.000000 -0.000012 0.000000
# 3 -0.005104 -0.001137 0.010299 0.000000 -0.000083 0.000000
# 4 0.000000 0.000000 0.000000 0.037834 0.000000 -0.004766
# 5 -0.002968 -0.000012 -0.000083 0.000000 0.019252 0.000000
# 6 0.000000 0.000000 0.000000 -0.004766 0.000000 0.029543
#
#
# Mechanical properties :
#
#
# Convention : Reuss Voigt Hill
#
# Bulk Modulus (GPa) = 54.26905 67.77388 61.02146
# Shear Modulus (GPa) = 34.02066 38.31433 36.16750
#
# Velocity S-wave (km/s) = 4.01071 4.25629 4.13532
# Velocity P-wave (km/s) = 6.86349 7.49665 7.18705
#
# Compressibility (1/GPa) = 0.01842671
#
# Stress axis : x y z
#
# Youngs Moduli (GPa) = 93.65732 65.20515 97.09689
#
# Poissons Ratio (x) = 0.17619 0.49559
# Poissons Ratio (y) = 0.25307 0.11037
# Poissons Ratio (z) = 0.47803 0.07412
#
# Static dielectric constant tensor:
#      x y z
#    x 4.510880 0.000000 0.680000 
#    y 0.000000 3.640440 0.000000 
#    z 0.680000 0.000000 4.669060 
# 
# 
# High freq. dielectric constant tensor:
#      x y z
#    x 1.846750 0.000000 0.010940 
#    y 0.000000 1.816520 0.000000 
#    z 0.010940 0.000000 1.844160 
# 
# From -- ./inp_files/31798.got.cif
#   From: 2010.06.25/outbox.cif.g09.slc.cpg/sg11_16_cif.got.tgz:31798.got - 2010.06.27 23:14:04.
