data_PCOD8077270
_publ_section_title
;
Structure prediction by ZEFSAII (Michael W. Deem and Ramdas Pophale) SiO2 
 PCOD8077270
Probable space group: P 21/M
;
_chemical_formula_sum "Si O2"
_cell_formula_units_Z 20
_cell_length_a 12.065122
_cell_length_b 8.761662
_cell_length_c 9.617699
_cell_angle_alpha 90.000000
_cell_angle_beta 103.295409
_cell_angle_gamma 90.000000
_cell_volume 989.441885
_symmetry_space_group_name_H-M "P 21/M"
_symmetry_group_IT_number 11
_symmetry_cell_setting 'monoclinic'
loop_
_space_group_symop_operation_xyz
x,y,z
-x,1/2+y,-z
-x,-y,-z
x,1/2-y,z
loop_
_atom_site_type_symbol
_atom_site_label
_atom_site_fract_x
_atom_site_fract_y
_atom_site_fract_z
Si Si1 0.530307 0.069779 0.654125
Si Si2 0.211761 0.570428 0.205093
Si Si3 0.818089 0.929639 0.092304
Si Si4 0.019622 0.927505 0.355897
Si Si5 0.411030 0.930163 0.869579
O O1 0.517324 0.250000 0.647294
O O2 0.657375 0.021972 0.736228
O O3 0.500000 0.000000 0.500000
O O4 0.436044 0.998292 0.726650
O O5 0.199645 0.750000 0.170493
O O6 0.141579 0.526162 0.324239
O O7 0.159536 0.478301 0.060298
O O8 0.792272 0.750000 0.091990
O O9 0.925119 0.977241 0.216881
O O10 0.714579 0.026147 0.122170
O O11 0.013814 0.750000 0.381560
O O12 0.000000 0.000000 0.500000
O O13 0.424549 0.750000 0.872472
O O14 0.500000 0.000000 0.000000
#
# Coordination Sequence:
#
# PCOD8077270 Si02
#       5
#     4   4   4   4   4
#     4  11  24  41  63  94 131 168 208 255 314 374
#     4  10  22  42  65  90 124 166 210 256 311 372
#     4  11  23  40  65  95 126 163 211 259 310 375
#     4  10  24  43  63  93 126 161 209 260 313 372
#     4  12  24  41  65  94 128 165 209 258 313 374
#
# _framework density 20.213415999999999
#
# number of rings (size 3 to 8) (size 9 to 14) (size 15 to 20)
#    0.000    1.200    2.000    3.600    2.800    3.200 
#    0.000    0.000    0.000    0.000    0.000    0.000 
#    0.000    0.000    0.000    0.000    0.000    0.000 
#
# Total GULP energy -248066.968026 kJ/mol
# GULP energy per Si atom -12403.348401 kJ/mol
# Density = 2.016741 g / cm^3
# Si number density = 20.213416 Si / 1000 Ang^3
#
#
#
# Elastic Constant Matrix: (Units=GPa)
#
#
# Indices 1 2 3 4 5 6 
#
# 1 88.3954 32.8650 35.1273 0.0000 -15.3472 0.0000
# 2 32.8650 87.3154 51.5490 0.0000 2.7491 0.0000
# 3 35.1273 51.5490 149.1247 0.0000 -15.2210 0.0000
# 4 0.0000 0.0000 0.0000 42.9534 0.0000 -4.4600
# 5 -15.3472 2.7491 -15.2210 0.0000 36.9513 0.0000
# 6 0.0000 0.0000 0.0000 -4.4600 0.0000 30.3615
#
#
#
# Elastic Compliance Matrix: (Units=1/GPa)
#
#
# Indices 1 2 3 4 5 6 
#
# 1 0.014677 -0.005071 -0.001090 0.000000 0.006024 0.000000
# 2 -0.005071 0.016527 -0.005072 0.000000 -0.005425 0.000000
# 3 -0.001090 -0.005072 0.009090 0.000000 0.003669 0.000000
# 4 0.000000 0.000000 0.000000 0.023642 0.000000 0.003473
# 5 0.006024 -0.005425 0.003669 0.000000 0.031480 0.000000
# 6 0.000000 0.000000 0.000000 0.003473 0.000000 0.033447
#
#
# Mechanical properties :
#
#
# Convention : Reuss Voigt Hill
#
# Bulk Modulus (GPa) = 56.08830 62.65759 59.37295
# Shear Modulus (GPa) = 31.79247 35.73952 33.76599
#
# Velocity S-wave (km/s) = 3.97021 4.20945 4.09158
# Velocity P-wave (km/s) = 6.98749 7.39536 7.19431
#
# Compressibility (1/GPa) = 0.01782903
#
# Stress axis : x y z
#
# Youngs Moduli (GPa) = 68.13380 60.50836 110.00758
#
# Poissons Ratio (x) = 0.30683 0.11985
# Poissons Ratio (y) = 0.34549 0.55797
# Poissons Ratio (z) = 0.07423 0.30691
#
# Static dielectric constant tensor:
#      x y z
#    x 3.193470 0.000000 0.232580 
#    y 0.000000 -14.238440 0.000000 
#    z 0.232580 0.000000 3.617020 
# 
# 
# High freq. dielectric constant tensor:
#      x y z
#    x 1.802780 0.000000 -0.007960 
#    y 0.000000 1.792950 0.000000 
#    z -0.007960 0.000000 1.801920 
# 
# From -- ./inp_files/15900.got.cif
#   From: 2010.06.25/outbox.cif.g09.slc.cpg/sg11_8_cif.got.tgz:15900.got - 2010.06.27 23:14:04.
