data_PCOD8077548
_publ_section_title
;
Structure prediction by ZEFSAII (Michael W. Deem and Ramdas Pophale) SiO2 
 PCOD8077548
Probable space group: P 21/M
;
_chemical_formula_sum "Si O2"
_cell_formula_units_Z 24
_cell_length_a 11.800027
_cell_length_b 8.428941
_cell_length_c 20.911121
_cell_angle_alpha 90.000000
_cell_angle_beta 38.449778
_cell_angle_gamma 90.000000
_cell_volume 1293.313738
_symmetry_space_group_name_H-M "P 21/M"
_symmetry_group_IT_number 11
_symmetry_cell_setting 'monoclinic'
loop_
_space_group_symop_operation_xyz
x,y,z
-x,1/2+y,-z
-x,-y,-z
x,1/2-y,z
loop_
_atom_site_type_symbol
_atom_site_label
_atom_site_fract_x
_atom_site_fract_y
_atom_site_fract_z
Si Si1 0.528518 0.565407 0.723075
Si Si2 0.832390 0.064921 0.261959
Si Si3 0.104369 0.437112 0.638844
Si Si4 0.558498 0.064717 0.575038
Si Si5 0.888312 0.062244 0.609868
Si Si6 0.866395 0.564248 0.112286
O O1 0.489337 0.750000 0.750134
O O2 0.606250 0.531977 0.618153
O O3 0.683377 0.506396 0.703362
O O4 0.340776 0.471625 0.816956
O O5 0.786926 0.250000 0.282465
O O6 0.961783 0.016035 0.264656
O O7 0.649192 0.963601 0.352517
O O8 0.921681 0.019671 0.154626
O O9 0.097185 0.250000 0.648664
O O10 0.310564 0.497524 0.537496
O O11 0.979993 0.496878 0.635256
O O12 0.593081 0.250000 0.571479
O O13 0.882413 0.250000 0.608415
O O14 0.000000 0.000000 0.500000
O O15 0.892136 0.750000 0.109498
O O16 0.000000 0.500000 0.000000
#
# Coordination Sequence:
#
# PCOD8077548 Si02
#       6
#     4   4   4   4   4   4
#     4  11  21  35  55  82 114 147 188 232 276 328
#     4  11  22  36  54  79 110 143 183 228 279 333
#     4  11  22  35  51  75 110 151 189 227 273 327
#     4  11  20  32  51  75 108 147 187 228 274 327
#     4  11  22  35  54  78 112 154 195 232 271 324
#     4  11  22  40  64  88 112 140 180 230 285 336
#
# _framework density 18.556982000000001
#
# number of rings (size 3 to 8) (size 9 to 14) (size 15 to 20)
#    0.000    1.000    1.667    9.500    0.000    2.000 
#    0.000    0.000    0.000    1.000    0.000    0.000 
#    0.000    0.000    0.000    0.000    0.000    0.000 
#
# Total GULP energy -297652.842412 kJ/mol
# GULP energy per Si atom -12402.201767 kJ/mol
# Density = 1.851475 g / cm^3
# Si number density = 18.556982 Si / 1000 Ang^3
#
#
#
# Elastic Constant Matrix: (Units=GPa)
#
#
# Indices 1 2 3 4 5 6 
#
# 1 119.9729 24.6668 52.0524 0.0000 24.0711 0.0000
# 2 24.6668 80.3244 18.4315 0.0000 8.5618 0.0000
# 3 52.0524 18.4315 94.0188 0.0000 16.8346 0.0000
# 4 0.0000 0.0000 0.0000 29.2895 0.0000 1.6049
# 5 24.0711 8.5618 16.8346 0.0000 20.9513 0.0000
# 6 0.0000 0.0000 0.0000 1.6049 0.0000 30.0860
#
#
#
# Elastic Compliance Matrix: (Units=1/GPa)
#
#
# Indices 1 2 3 4 5 6 
#
# 1 0.012877 -0.001736 -0.004984 0.000000 -0.010080 0.000000
# 2 -0.001736 0.013538 -0.001237 0.000000 -0.002543 0.000000
# 3 -0.004984 -0.001237 0.014627 0.000000 -0.005521 0.000000
# 4 0.000000 0.000000 0.000000 0.034242 0.000000 -0.001827
# 5 -0.010080 -0.002543 -0.005521 0.000000 0.064786 0.000000
# 6 0.000000 0.000000 0.000000 -0.001827 0.000000 0.033335
#
#
# Mechanical properties :
#
#
# Convention : Reuss Voigt Hill
#
# Bulk Modulus (GPa) = 39.79886 53.84638 46.82262
# Shear Modulus (GPa) = 25.29138 29.34306 27.31722
#
# Velocity S-wave (km/s) = 3.69576 3.98080 3.84092
# Velocity P-wave (km/s) = 6.30118 7.08581 6.70499
#
# Compressibility (1/GPa) = 0.02512635
#
# Stress axis : x y z
#
# Youngs Moduli (GPa) = 77.65741 73.86774 68.36874
#
# Poissons Ratio (x) = 0.12826 0.34074
# Poissons Ratio (y) = 0.13484 0.08459
# Poissons Ratio (z) = 0.38704 0.09139
#
# Static dielectric constant tensor:
#      x y z
#    x 3.741860 0.000000 0.135790 
#    y 0.000000 3.582950 0.000000 
#    z 0.135790 0.000000 3.203870 
# 
# 
# High freq. dielectric constant tensor:
#      x y z
#    x 1.724660 0.000000 0.012530 
#    y 0.000000 1.740880 0.000000 
#    z 0.012530 0.000000 1.683350 
# 
# From -- ./inp_files/64121.got.cif
#   From: 2010.06.25/outbox.cif.g09.slc.cpg/sg11_33_cif.got.tgz:64121.got - 2010.06.27 23:14:04.
