data_PCOD8077495
_publ_section_title
;
Structure prediction by ZEFSAII (Michael W. Deem and Ramdas Pophale) SiO2 
 PCOD8077495
Probable space group: P 21/M
;
_chemical_formula_sum "Si O2"
_cell_formula_units_Z 28
_cell_length_a 12.617929
_cell_length_b 8.442582
_cell_length_c 14.630018
_cell_angle_alpha 90.000000
_cell_angle_beta 121.203793
_cell_angle_gamma 90.000000
_cell_volume 1333.036111
_symmetry_space_group_name_H-M "P 21/M"
_symmetry_group_IT_number 11
_symmetry_cell_setting 'monoclinic'
loop_
_space_group_symop_operation_xyz
x,y,z
-x,1/2+y,-z
-x,-y,-z
x,1/2-y,z
loop_
_atom_site_type_symbol
_atom_site_label
_atom_site_fract_x
_atom_site_fract_y
_atom_site_fract_z
Si Si1 0.713578 0.061202 0.211922
Si Si2 0.587024 0.437298 0.618102
Si Si3 0.141870 0.934737 0.309755
Si Si4 0.982902 0.435066 0.392456
Si Si5 0.507874 0.062586 0.783765
Si Si6 0.296803 0.435106 0.988486
Si Si7 0.036470 0.934588 0.919205
O O1 0.700893 0.250000 0.204305
O O2 0.854955 0.003798 0.290137
O O3 0.633178 0.987821 0.258574
O O4 0.663347 0.988067 0.095013
O O5 0.500000 0.500000 0.500000
O O6 0.586149 0.250000 0.615329
O O7 0.725556 0.503385 0.662759
O O8 0.540448 0.496410 0.696179
O O9 0.151404 0.750000 0.332317
O O10 0.101057 0.015349 0.385704
O O11 0.040508 0.967905 0.188244
O O12 0.976574 0.250000 0.396125
O O13 0.000000 0.500000 0.500000
O O14 0.527376 0.250000 0.803019
O O15 0.592195 0.969067 0.893028
O O16 0.263413 0.250000 0.975412
O O17 0.181111 0.540055 0.968157
O O18 0.004784 0.750000 0.896071
O O19 0.000000 0.000000 0.000000
#
# Coordination Sequence:
#
# PCOD8077495 Si02
#       7
#     4   4   4   4   4   4   4
#     4  11  24  43  66  96 133 173 218 270 326 390
#     4  10  25  45  67  95 128 169 214 266 321 379
#     4  11  23  43  68  97 132 169 215 270 326 388
#     4  11  25  43  67  97 132 173 219 272 329 390
#     4  11  24  43  66  95 132 174 219 269 325 390
#     4  12  24  41  66  97 131 172 216 267 327 390
#     4  12  24  40  64  96 132 173 216 266 323 386
#
# _framework density 21.004683
#
# number of rings (size 3 to 8) (size 9 to 14) (size 15 to 20)
#    0.000    0.857    1.429    5.571    2.000    5.143 
#    0.000    0.000    0.000    0.000    0.000    0.000 
#    0.000    0.000    0.000    0.000    0.000    0.000 
#
# Total GULP energy -347381.257571 kJ/mol
# GULP energy per Si atom -12406.473485 kJ/mol
# Density = 2.095688 g / cm^3
# Si number density = 21.004683 Si / 1000 Ang^3
#
#
#
# Elastic Constant Matrix: (Units=GPa)
#
#
# Indices 1 2 3 4 5 6 
#
# 1 164.5118 29.5173 53.5758 0.0000 -19.5813 0.0000
# 2 29.5173 47.0207 42.8702 0.0000 2.0891 0.0000
# 3 53.5758 42.8702 109.3001 0.0000 -28.9049 0.0000
# 4 0.0000 0.0000 0.0000 36.2359 0.0000 -0.4710
# 5 -19.5813 2.0891 -28.9049 0.0000 39.2477 0.0000
# 6 0.0000 0.0000 0.0000 -0.4710 0.0000 37.2761
#
#
#
# Elastic Compliance Matrix: (Units=1/GPa)
#
#
# Indices 1 2 3 4 5 6 
#
# 1 0.007544 -0.003326 -0.001678 0.000000 0.002705 0.000000
# 2 -0.003326 0.042280 -0.019854 0.000000 -0.018532 0.000000
# 3 -0.001678 -0.019854 0.022126 0.000000 0.016515 0.000000
# 4 0.000000 0.000000 0.000000 0.027601 0.000000 0.000349
# 5 0.002705 -0.018532 0.016515 0.000000 0.039978 0.000000
# 6 0.000000 0.000000 0.000000 0.000349 0.000000 0.026831
#
#
# Mechanical properties :
#
#
# Convention : Reuss Voigt Hill
#
# Bulk Modulus (GPa) = 44.97494 63.63991 54.30742
# Shear Modulus (GPa) = 22.37270 35.54322 28.95796
#
# Velocity S-wave (km/s) = 3.26717 4.11805 3.71704
# Velocity P-wave (km/s) = 5.97419 7.27838 6.65829
#
# Compressibility (1/GPa) = 0.02223460
#
# Stress axis : x y z
#
# Youngs Moduli (GPa) = 132.56025 23.65204 45.19558
#
# Poissons Ratio (x) = 0.07867 0.07583
# Poissons Ratio (y) = 0.44091 0.89729
# Poissons Ratio (z) = 0.22241 0.46958
#
# Static dielectric constant tensor:
#      x y z
#    x 4.188880 0.000000 0.065280 
#    y 0.000000 3.794090 0.000000 
#    z 0.065280 0.000000 3.804740 
# 
# 
# High freq. dielectric constant tensor:
#      x y z
#    x 1.843000 0.000000 -0.005260 
#    y 0.000000 1.828270 0.000000 
#    z -0.005260 0.000000 1.828570 
# 
# From -- ./inp_files/49471.got.cif
#   From: 2010.06.25/outbox.cif.g09.slc.cpg/sg11_25_cif.got.tgz:49471.got - 2010.06.27 23:14:04.
