data_PCOD8077833
_publ_section_title
;
Structure prediction by ZEFSAII (Michael W. Deem and Ramdas Pophale) SiO2 
 PCOD8077833
Probable space group: P 21/M
;
_chemical_formula_sum "Si O2"
_cell_formula_units_Z 24
_cell_length_a 14.692091
_cell_length_b 8.498812
_cell_length_c 14.918923
_cell_angle_alpha 90.000000
_cell_angle_beta 39.579238
_cell_angle_gamma 90.000000
_cell_volume 1186.908957
_symmetry_space_group_name_H-M "P 21/M"
_symmetry_group_IT_number 11
_symmetry_cell_setting 'monoclinic'
loop_
_space_group_symop_operation_xyz
x,y,z
-x,1/2+y,-z
-x,-y,-z
x,1/2-y,z
loop_
_atom_site_type_symbol
_atom_site_label
_atom_site_fract_x
_atom_site_fract_y
_atom_site_fract_z
Si Si1 0.845851 0.067509 0.138538
Si Si2 0.149199 0.065577 0.352650
Si Si3 0.647260 0.930758 0.639124
Si Si4 0.342618 0.431317 0.869207
Si Si5 0.848264 0.430049 0.342988
Si Si6 0.851945 0.432293 0.836997
O O1 0.844321 0.250000 0.113206
O O2 0.807354 0.040858 0.271178
O O3 0.726867 0.976725 0.172578
O O4 0.000000 0.000000 0.000000
O O5 0.133209 0.250000 0.348327
O O6 0.270490 0.025835 0.332459
O O7 0.195609 0.981180 0.226183
O O8 0.000000 0.000000 0.500000
O O9 0.598210 0.750000 0.675939
O O10 0.511070 0.041920 0.734593
O O11 0.750993 0.957553 0.476474
O O12 0.311003 0.250000 0.913925
O O13 0.279722 0.536071 0.997087
O O14 0.821400 0.250000 0.391330
O O15 0.013971 0.467266 0.231807
O O16 0.893707 0.250000 0.806992
#
# Coordination Sequence:
#
# PCOD8077833 Si02
#       6
#     4   4   4   4   4   4
#     4  11  23  40  66  97 130 169 216 265 319 383
#     4  11  23  40  66  97 130 168 216 266 321 383
#     4  11  25  44  66  95 131 171 213 266 326 384
#     4  12  26  44  66  94 131 172 214 270 328 383
#     4  11  23  40  66  97 129 168 215 264 318 382
#     4  12  24  40  66  96 129 170 216 267 320 383
#
# _framework density 20.220590000000001
#
# number of rings (size 3 to 8) (size 9 to 14) (size 15 to 20)
#    0.000    0.667    3.333    5.000    0.000    5.333 
#    0.000    0.000    0.000    0.000    0.000    0.000 
#    0.000    0.000    0.000    0.000    0.000    0.000 
#
# Total GULP energy -297809.596214 kJ/mol
# GULP energy per Si atom -12408.733176 kJ/mol
# Density = 2.017457 g / cm^3
# Si number density = 20.220590 Si / 1000 Ang^3
#
#
#
# Elastic Constant Matrix: (Units=GPa)
#
#
# Indices 1 2 3 4 5 6 
#
# 1 120.1686 61.7246 34.1194 0.0000 3.6993 0.0000
# 2 61.7246 78.6402 31.2749 0.0000 10.5442 0.0000
# 3 34.1194 31.2749 73.6967 0.0000 3.5536 0.0000
# 4 0.0000 0.0000 0.0000 37.1991 0.0000 -0.5168
# 5 3.6993 10.5442 3.5536 0.0000 37.6112 0.0000
# 6 0.0000 0.0000 0.0000 -0.5168 0.0000 32.7102
#
#
#
# Elastic Compliance Matrix: (Units=1/GPa)
#
#
# Indices 1 2 3 4 5 6 
#
# 1 0.014353 -0.010619 -0.002224 0.000000 0.001775 0.000000
# 2 -0.010619 0.023683 -0.004886 0.000000 -0.005133 0.000000
# 3 -0.002224 -0.004886 0.016672 0.000000 0.000013 0.000000
# 4 0.000000 0.000000 0.000000 0.026888 0.000000 0.000425
# 5 0.001775 -0.005133 0.000013 0.000000 0.027851 0.000000
# 6 0.000000 0.000000 0.000000 0.000425 0.000000 0.030578
#
#
# Mechanical properties :
#
#
# Convention : Reuss Voigt Hill
#
# Bulk Modulus (GPa) = 51.95318 58.52703 55.24011
# Shear Modulus (GPa) = 27.48755 31.19656 29.34205
#
# Velocity S-wave (km/s) = 3.69098 3.93213 3.81346
# Velocity P-wave (km/s) = 6.62672 7.04433 6.83871
#
# Compressibility (1/GPa) = 0.01924810
#
# Stress axis : x y z
#
# Youngs Moduli (GPa) = 69.67166 42.22488 59.98134
#
# Poissons Ratio (x) = 0.44839 0.13341
# Poissons Ratio (y) = 0.73986 0.29309
# Poissons Ratio (z) = 0.15496 0.20633
#
# Static dielectric constant tensor:
#      x y z
#    x 3.109630 0.000000 -0.331960 
#    y 0.000000 3.777920 0.000000 
#    z -0.331960 0.000000 3.179990 
# 
# 
# High freq. dielectric constant tensor:
#      x y z
#    x 1.799840 0.000000 0.010520 
#    y 0.000000 1.806000 0.000000 
#    z 0.010520 0.000000 1.791130 
# 
# From -- ./inp_files/51505.got.cif
#   From: 2010.06.25/outbox.cif.g09.slc.cpg/sg11_26_cif.got.tgz:51505.got - 2010.06.27 23:14:04.
