data_PCOD8077735
_publ_section_title
;
Structure prediction by ZEFSAII (Michael W. Deem and Ramdas Pophale) SiO2 
 PCOD8077735
Probable space group: P 21/M
;
_chemical_formula_sum "Si O2"
_cell_formula_units_Z 32
_cell_length_a 11.008004
_cell_length_b 19.211455
_cell_length_c 19.586102
_cell_angle_alpha 90.000000
_cell_angle_beta 24.885786
_cell_angle_gamma 90.000000
_cell_volume 1743.025357
_symmetry_space_group_name_H-M "P 21/M"
_symmetry_group_IT_number 11
_symmetry_cell_setting 'monoclinic'
loop_
_space_group_symop_operation_xyz
x,y,z
-x,1/2+y,-z
-x,-y,-z
x,1/2-y,z
loop_
_atom_site_type_symbol
_atom_site_label
_atom_site_fract_x
_atom_site_fract_y
_atom_site_fract_z
Si Si1 0.770116 0.039136 0.445135
Si Si2 0.536121 0.327379 0.635438
Si Si3 0.327078 0.827946 0.276447
Si Si4 0.097574 0.674495 0.001934
Si Si5 0.839220 0.027400 0.647671
Si Si6 0.193612 0.959796 0.732371
Si Si7 0.205748 0.523634 0.958085
Si Si8 0.041204 0.174890 0.085391
O O1 0.686230 0.117203 0.509354
O O2 0.854848 0.036688 0.323286
O O3 0.509721 0.985895 0.593496
O O4 0.052671 0.014606 0.341850
O O5 0.631023 0.250000 0.563193
O O6 0.623578 0.339627 0.668658
O O7 0.190811 0.334727 0.806034
O O8 0.200085 0.750000 0.327991
O O9 0.106586 0.889618 0.367257
O O10 0.615882 0.838287 0.083925
O O11 0.244188 0.750000 0.946375
O O12 0.291149 0.605845 0.915291
O O13 0.023663 0.675621 0.960883
O O14 0.499468 0.019128 0.806138
O O15 0.000000 0.000000 0.500000
O O16 0.154399 0.880685 0.776278
O O17 0.955734 0.008047 0.889079
O O18 0.000000 0.500000 0.000000
O O19 0.964025 0.250000 0.156950
#
# Coordination Sequence:
#
# PCOD8077735 Si02
#       8
#     4   4   4   4   4   4   4   4
#     4  11  24  37  53  87 119 148 194 232 283 330
#     4   9  16  32  56  81 113 148 185 227 283 340
#     4   9  17  33  57  84 111 144 185 231 287 341
#     4   9  17  30  56  87 109 140 190 237 277 334
#     4  12  23  36  59  90 114 145 186 239 281 336
#     4  11  22  38  58  80 115 154 190 238 274 338
#     4  12  20  36  63  83 109 151 188 231 285 333
#     4   9  17  32  57  86 107 142 193 235 279 335
#
# _framework density 18.358884
#
# number of rings (size 3 to 8) (size 9 to 14) (size 15 to 20)
#    0.000    1.750    5.000    3.000    0.000    1.000 
#    0.000    1.875    0.000    1.500    0.000    0.000 
#    0.000    0.000    0.000    0.000    0.000    0.000 
#
# Total GULP energy -396568.913232 kJ/mol
# GULP energy per Si atom -12392.778539 kJ/mol
# Density = 1.831710 g / cm^3
# Si number density = 18.358884 Si / 1000 Ang^3
#
#
#
# Elastic Constant Matrix: (Units=GPa)
#
#
# Indices 1 2 3 4 5 6 
#
# 1 66.5635 31.9700 37.1404 0.0000 2.2268 0.0000
# 2 31.9700 181.1956 42.4677 0.0000 5.8956 0.0000
# 3 37.1404 42.4677 79.0206 0.0000 11.2166 0.0000
# 4 0.0000 0.0000 0.0000 -98.9584 0.0000 -67.7335
# 5 2.2268 5.8956 11.2166 0.0000 21.4256 0.0000
# 6 0.0000 0.0000 0.0000 -67.7335 0.0000 -16.6284
#
#
#
# Elastic Compliance Matrix: (Units=1/GPa)
#
#
# Indices 1 2 3 4 5 6 
#
# 1 0.020950 -0.001586 -0.009450 0.000000 0.003206 0.000000
# 2 -0.001586 0.006434 -0.002684 0.000000 -0.000201 0.000000
# 3 -0.009450 -0.002684 0.019763 0.000000 -0.008626 0.000000
# 4 0.000000 0.000000 0.000000 0.005651 0.000000 -0.023021
# 5 0.003206 -0.000201 -0.008626 0.000000 0.050911 0.000000
# 6 0.000000 0.000000 0.000000 -0.023021 0.000000 0.033633
#
#
# Mechanical properties :
#
#
# Convention : Reuss Voigt Hill
#
# Bulk Modulus (GPa) = 50.73943 61.10400 55.92172
# Shear Modulus (GPa) = 29.17977 -4.48547 12.34715
#
# Velocity S-wave (km/s) = 3.99106 -1.56477 2.59616
# Velocity P-wave (km/s) = 6.99540 5.48549 6.28595
#
# Compressibility (1/GPa) = 0.01970854
#
# Stress axis : x y z
#
# Youngs Moduli (GPa) = 47.73204 155.41607 50.59928
#
# Poissons Ratio (x) = 0.24650 0.47814
# Poissons Ratio (y) = 0.07570 0.13581
# Poissons Ratio (z) = 0.45104 0.41715
#
# Static dielectric constant tensor:
#      x y z
#    x 3.098250 0.000000 -0.019830 
#    y 0.000000 0.896910 0.000000 
#    z -0.019830 0.000000 3.395130 
# 
# 
# High freq. dielectric constant tensor:
#      x y z
#    x 1.666920 0.000000 0.013790 
#    y 0.000000 1.742190 0.000000 
#    z 0.013790 0.000000 1.693680 
# 
# From -- ./inp_files/64920.got.cif
#   From: 2010.06.25/outbox.cif.g09.slc.cpg/sg11_33_cif.got.tgz:64920.got - 2010.06.27 23:14:04.
