data_PCOD8077756
_publ_section_title
;
Structure prediction by ZEFSAII (Michael W. Deem and Ramdas Pophale) SiO2 
 PCOD8077756
Probable space group: P 21/M
;
_chemical_formula_sum "Si O2"
_cell_formula_units_Z 28
_cell_length_a 19.360607
_cell_length_b 14.599013
_cell_length_c 9.605799
_cell_angle_alpha 90.000000
_cell_angle_beta 150.745676
_cell_angle_gamma 90.000000
_cell_volume 1326.804151
_symmetry_space_group_name_H-M "P 21/M"
_symmetry_group_IT_number 11
_symmetry_cell_setting 'monoclinic'
loop_
_space_group_symop_operation_xyz
x,y,z
-x,1/2+y,-z
-x,-y,-z
x,1/2-y,z
loop_
_atom_site_type_symbol
_atom_site_label
_atom_site_fract_x
_atom_site_fract_y
_atom_site_fract_z
Si Si1 0.027947 0.022512 0.206131
Si Si2 0.285375 0.526754 0.238631
Si Si3 0.515143 0.505984 0.861308
Si Si4 0.096991 0.651982 0.466124
Si Si5 0.651155 0.145343 0.906775
Si Si6 0.239799 0.353663 0.712800
Si Si7 0.786690 0.848930 0.023650
O O1 0.129259 0.110081 0.403050
O O2 0.127267 0.937904 0.429575
O O3 0.882234 0.040241 0.032989
O O4 0.000000 0.000000 0.000000
O O5 0.364728 0.530618 0.526015
O O6 0.354017 0.602106 0.256648
O O7 0.314119 0.428194 0.214593
O O8 0.569253 0.412582 0.882253
O O9 0.500000 0.500000 0.000000
O O10 0.616464 0.591299 0.016717
O O11 0.138465 0.750000 0.466181
O O12 0.930493 0.651668 0.192583
O O13 0.183226 0.644170 0.761144
O O14 0.592612 0.250000 0.800408
O O15 0.276802 0.250000 0.736069
O O16 0.167419 0.363433 0.736085
O O17 0.708906 0.750000 0.869241
#
# Coordination Sequence:
#
# PCOD8077756 Si02
#       7
#     4   4   4   4   4   4   4
#     4  11  22  39  64  96 132 173 209 264 324 391
#     4  11  23  40  66  98 130 168 218 274 323 384
#     4  12  26  45  64  93 134 178 218 268 333 398
#     4   9  18  35  61  92 124 160 207 262 322 382
#     4  11  23  41  67  94 127 172 223 276 328 389
#     4  11  23  41  66  93 127 167 214 265 323 386
#     4   9  18  35  64  98 126 158 210 271 323 375
#
# _framework density 21.103342000000001
#
# number of rings (size 3 to 8) (size 9 to 14) (size 15 to 20)
#    0.000    1.429    2.857    2.143    0.000    6.286 
#    0.000    2.857    0.000    0.000    0.000    0.000 
#    0.000    0.000    0.000    0.000    0.000    0.000 
#
# Total GULP energy -346994.572600 kJ/mol
# GULP energy per Si atom -12392.663307 kJ/mol
# Density = 2.105531 g / cm^3
# Si number density = 21.103342 Si / 1000 Ang^3
#
#
#
# Elastic Constant Matrix: (Units=GPa)
#
#
# Indices 1 2 3 4 5 6 
#
# 1 62.7272 36.3697 12.9074 0.0000 -17.6750 0.0000
# 2 36.3697 159.8314 50.0678 0.0000 -5.6018 0.0000
# 3 12.9074 50.0678 116.4325 0.0000 -14.9372 0.0000
# 4 0.0000 0.0000 0.0000 14.9014 0.0000 1.4225
# 5 -17.6750 -5.6018 -14.9372 0.0000 36.3033 0.0000
# 6 0.0000 0.0000 0.0000 1.4225 0.0000 13.6179
#
#
#
# Elastic Compliance Matrix: (Units=1/GPa)
#
#
# Indices 1 2 3 4 5 6 
#
# 1 0.021371 -0.004822 0.000996 0.000000 0.010071 0.000000
# 2 -0.004822 0.008320 -0.003357 0.000000 -0.002445 0.000000
# 3 0.000996 -0.003357 0.010470 0.000000 0.004275 0.000000
# 4 0.000000 0.000000 0.000000 0.067784 0.000000 -0.007080
# 5 0.010071 -0.002445 0.004275 0.000000 0.033831 0.000000
# 6 0.000000 0.000000 0.000000 -0.007080 0.000000 0.074172
#
#
# Mechanical properties :
#
#
# Convention : Reuss Voigt Hill
#
# Bulk Modulus (GPa) = 38.76619 59.74229 49.25424
# Shear Modulus (GPa) = 20.92838 28.94094 24.93466
#
# Velocity S-wave (km/s) = 3.15256 3.70725 3.44110
# Velocity P-wave (km/s) = 5.62682 6.83343 6.25927
#
# Compressibility (1/GPa) = 0.02579568
#
# Stress axis : x y z
#
# Youngs Moduli (GPa) = 46.79337 120.19723 95.51011
#
# Poissons Ratio (x) = 0.57960 -0.09517
# Poissons Ratio (y) = 0.22564 0.32060
# Poissons Ratio (z) = -0.04663 0.40347
#
# Static dielectric constant tensor:
#      x y z
#    x 3.946270 0.000000 -0.044210 
#    y 0.000000 4.019250 0.000000 
#    z -0.044210 0.000000 3.902090 
# 
# 
# High freq. dielectric constant tensor:
#      x y z
#    x 1.801290 0.000000 0.002120 
#    y 0.000000 1.840270 0.000000 
#    z 0.002120 0.000000 1.833790 
# 
# From -- ./inp_files/26941.got.cif
#   From: 2010.06.25/outbox.cif.g09.slc.cpg/sg11_14_cif.got.tgz:26941.got - 2010.06.27 23:14:04.
