data_PCOD8077679
_publ_section_title
;
Structure prediction by ZEFSAII (Michael W. Deem and Ramdas Pophale) SiO2 
 PCOD8077679
Probable space group: P 21/M
;
_chemical_formula_sum "Si O2"
_cell_formula_units_Z 28
_cell_length_a 16.048589
_cell_length_b 9.388944
_cell_length_c 22.075069
_cell_angle_alpha 90.000000
_cell_angle_beta 32.346320
_cell_angle_gamma 90.000000
_cell_volume 1779.665103
_symmetry_space_group_name_H-M "P 21/M"
_symmetry_group_IT_number 11
_symmetry_cell_setting 'monoclinic'
loop_
_space_group_symop_operation_xyz
x,y,z
-x,1/2+y,-z
-x,-y,-z
x,1/2-y,z
loop_
_atom_site_type_symbol
_atom_site_label
_atom_site_fract_x
_atom_site_fract_y
_atom_site_fract_z
Si Si1 0.817174 0.415858 0.054825
Si Si2 0.837177 0.586812 0.162754
Si Si3 0.078485 0.088243 0.528153
Si Si4 0.364245 0.409787 0.422303
Si Si5 0.232868 0.586888 0.329226
Si Si6 0.534269 0.583810 0.418317
Si Si7 0.498644 0.411943 0.205575
O O1 0.798591 0.250000 0.081059
O O2 0.789192 0.493345 0.135301
O O3 0.680452 0.461032 0.091916
O O4 0.987378 0.451987 0.922594
O O5 0.830194 0.750000 0.145615
O O6 0.716304 0.558523 0.291084
O O7 0.109638 0.250000 0.483910
O O8 0.175644 0.071017 0.531135
O O9 0.890243 0.068008 0.651384
O O10 0.142021 0.970662 0.443286
O O11 0.403274 0.250000 0.421753
O O12 0.426050 0.525515 0.431157
O O13 0.439585 0.435192 0.310298
O O14 0.277781 0.750000 0.311914
O O15 0.395894 0.503029 0.221008
O O16 0.500000 0.500000 0.500000
O O17 0.497037 0.750000 0.449979
O O18 0.481236 0.250000 0.195390
#
# Coordination Sequence:
#
# PCOD8077679 Si02
#       7
#     4   4   4   4   4   4   4
#     4   9  16  28  45  62  84 113 139 169 211 256
#     4   9  18  30  44  63  83 105 141 181 211 247
#     4   8  15  26  37  52  77 110 140 167 204 248
#     4   9  16  28  43  58  79 109 143 173 207 250
#     4   9  15  22  35  55  80 109 140 170 198 235
#     4  11  22  33  45  62  84 110 144 182 216 250
#     4   9  16  25  39  59  85 114 139 163 203 254
#
# _framework density 15.733295999999999
#
# number of rings (size 3 to 8) (size 9 to 14) (size 15 to 20)
#    0.000    2.857    1.429    1.714    0.000    4.000 
#    0.000    0.000    0.000    0.000    0.000    0.000 
#    0.000    1.143    0.000    2.286    0.000    3.429 
#
# Total GULP energy -346871.120241 kJ/mol
# GULP energy per Si atom -12388.254294 kJ/mol
# Density = 1.569749 g / cm^3
# Si number density = 15.733296 Si / 1000 Ang^3
#
#
#
# Elastic Constant Matrix: (Units=GPa)
#
#
# Indices 1 2 3 4 5 6 
#
# 1 71.6556 39.5386 45.2521 0.0000 -35.1088 0.0000
# 2 39.5386 74.9519 38.0004 0.0000 -17.6281 0.0000
# 3 45.2521 38.0004 69.4802 0.0000 -26.0201 0.0000
# 4 0.0000 0.0000 0.0000 17.3181 0.0000 -6.4730
# 5 -35.1088 -17.6281 -26.0201 0.0000 33.9103 0.0000
# 6 0.0000 0.0000 0.0000 -6.4730 0.0000 25.7438
#
#
#
# Elastic Compliance Matrix: (Units=1/GPa)
#
#
# Indices 1 2 3 4 5 6 
#
# 1 0.038843 -0.008852 -0.009990 0.000000 0.027948 0.000000
# 2 -0.008852 0.020642 -0.006929 0.000000 -0.003751 0.000000
# 3 -0.009990 -0.006929 0.027316 0.000000 0.007015 0.000000
# 4 0.000000 0.000000 0.000000 0.063733 0.000000 0.016025
# 5 0.027948 -0.003751 0.007015 0.000000 0.061858 0.000000
# 6 0.000000 0.000000 0.000000 0.016025 0.000000 0.042874
#
#
# Mechanical properties :
#
#
# Convention : Reuss Voigt Hill
#
# Bulk Modulus (GPa) = 28.36236 51.29666 39.82951
# Shear Modulus (GPa) = 15.69556 21.61423 18.65489
#
# Velocity S-wave (km/s) = 3.16191 3.71049 3.44713
# Velocity P-wave (km/s) = 5.60324 7.14364 6.41981
#
# Compressibility (1/GPa) = 0.03525800
#
# Stress axis : x y z
#
# Youngs Moduli (GPa) = 25.74472 48.44382 36.60874
#
# Poissons Ratio (x) = 0.42883 0.36573
# Poissons Ratio (y) = 0.22790 0.25367
# Poissons Ratio (z) = 0.25720 0.33568
#
# Static dielectric constant tensor:
#      x y z
#    x 3.211290 0.000000 -0.664700 
#    y 0.000000 3.107070 0.000000 
#    z -0.664700 0.000000 2.979060 
# 
# 
# High freq. dielectric constant tensor:
#      x y z
#    x 1.584840 0.000000 -0.057750 
#    y 0.000000 1.614040 0.000000 
#    z -0.057750 0.000000 1.564650 
# 
# From -- ./inp_files/42615.got.cif
#   From: 2010.06.25/outbox.cif.g09.slc.cpg/sg11_22_cif.got.tgz:42615.got - 2010.06.27 23:14:04.
