data_PCOD8077665
_publ_section_title
;
Structure prediction by ZEFSAII (Michael W. Deem and Ramdas Pophale) SiO2 
 PCOD8077665
Probable space group: P 21/M
;
_chemical_formula_sum "Si O2"
_cell_formula_units_Z 24
_cell_length_a 24.286875
_cell_length_b 8.503605
_cell_length_c 16.963597
_cell_angle_alpha 90.000000
_cell_angle_beta 160.570820
_cell_angle_gamma 90.000000
_cell_volume 1165.383972
_symmetry_space_group_name_H-M "P 21/M"
_symmetry_group_IT_number 11
_symmetry_cell_setting 'monoclinic'
loop_
_space_group_symop_operation_xyz
x,y,z
-x,1/2+y,-z
-x,-y,-z
x,1/2-y,z
loop_
_atom_site_type_symbol
_atom_site_label
_atom_site_fract_x
_atom_site_fract_y
_atom_site_fract_z
Si Si1 0.201187 0.565886 0.119036
Si Si2 0.318543 0.064021 0.742046
Si Si3 0.714636 0.933460 0.931439
Si Si4 0.966389 0.435470 0.540557
Si Si5 0.374121 0.434371 0.503116
Si Si6 0.826428 0.936211 0.616942
O O1 0.205775 0.750000 0.105083
O O2 0.281688 0.471235 0.156014
O O3 0.307633 0.532042 0.339669
O O4 0.014426 0.504947 0.880748
O O5 0.323258 0.250000 0.746503
O O6 0.248181 0.994700 0.564780
O O7 0.203791 0.008921 0.658642
O O8 0.500000 0.000000 0.000000
O O9 0.682188 0.750000 0.900725
O O10 0.568151 0.030556 0.775484
O O11 0.885402 0.988914 0.201787
O O12 0.948077 0.250000 0.513107
O O13 0.000000 0.500000 0.500000
O O14 0.342721 0.250000 0.447469
O O15 0.280510 0.498642 0.454080
O O16 0.819228 0.750000 0.604869
#
# Coordination Sequence:
#
# PCOD8077665 Si02
#       6
#     4   4   4   4   4   4
#     4  11  21  40  65  90 122 164 208 256 311 366
#     4  11  23  43  67  96 128 165 209 256 314 377
#     4  11  24  42  62  91 125 162 208 256 307 368
#     4  11  25  44  67  95 126 164 209 261 317 376
#     4  11  23  39  61  92 126 165 207 254 307 367
#     4   9  21  40  63  90 124 163 204 250 309 369
#
# _framework density 20.594069999999999
#
# number of rings (size 3 to 8) (size 9 to 14) (size 15 to 20)
#    0.000    1.333    1.667    3.500    2.333    2.000 
#    0.000    5.000    0.000    0.000    0.000    0.000 
#    0.000    0.000    0.000    0.000    0.000    0.000 
#
# Total GULP energy -297770.006148 kJ/mol
# GULP energy per Si atom -12407.083590 kJ/mol
# Density = 2.054720 g / cm^3
# Si number density = 20.594070 Si / 1000 Ang^3
#
#
#
# Elastic Constant Matrix: (Units=GPa)
#
#
# Indices 1 2 3 4 5 6 
#
# 1 135.9890 20.8847 42.2430 0.0000 12.1531 0.0000
# 2 20.8847 53.6296 27.6055 0.0000 0.5475 0.0000
# 3 42.2430 27.6055 127.5411 0.0000 14.4210 0.0000
# 4 0.0000 0.0000 0.0000 33.1356 0.0000 1.0551
# 5 12.1531 0.5475 14.4210 0.0000 42.2189 0.0000
# 6 0.0000 0.0000 0.0000 1.0551 0.0000 28.8956
#
#
#
# Elastic Compliance Matrix: (Units=1/GPa)
#
#
# Indices 1 2 3 4 5 6 
#
# 1 0.008509 -0.002188 -0.002154 0.000000 -0.001685 0.000000
# 2 -0.002188 0.021619 -0.004155 0.000000 0.001769 0.000000
# 3 -0.002154 -0.004155 0.009754 0.000000 -0.002658 0.000000
# 4 0.000000 0.000000 0.000000 0.030214 0.000000 -0.001103
# 5 -0.001685 0.001769 -0.002658 0.000000 0.025056 0.000000
# 6 0.000000 0.000000 0.000000 -0.001103 0.000000 0.034648
#
#
# Mechanical properties :
#
#
# Convention : Reuss Voigt Hill
#
# Bulk Modulus (GPa) = 43.68943 55.40293 49.54618
# Shear Modulus (GPa) = 32.37863 35.94510 34.16186
#
# Velocity S-wave (km/s) = 3.96944 4.18234 4.07728
# Velocity P-wave (km/s) = 6.50148 7.09108 6.80267
#
# Compressibility (1/GPa) = 0.02288883
#
# Stress axis : x y z
#
# Youngs Moduli (GPa) = 117.51815 46.25592 102.52301
#
# Poissons Ratio (x) = 0.10119 0.22087
# Poissons Ratio (y) = 0.25708 0.42595
# Poissons Ratio (z) = 0.25317 0.19218
#
# Static dielectric constant tensor:
#      x y z
#    x 3.903370 0.000000 0.042900 
#    y 0.000000 3.564150 0.000000 
#    z 0.042900 0.000000 3.930620 
# 
# 
# High freq. dielectric constant tensor:
#      x y z
#    x 1.817150 0.000000 0.005780 
#    y 0.000000 1.797730 0.000000 
#    z 0.005780 0.000000 1.820020 
# 
# From -- ./inp_files/61890.got.cif
#   From: 2010.06.25/outbox.cif.g09.slc.cpg/sg11_31_cif.got.tgz:61890.got - 2010.06.27 23:14:04.
