data_PCOD8077337
_publ_section_title
;
Structure prediction by ZEFSAII (Michael W. Deem and Ramdas Pophale) SiO2 
 PCOD8077337
Probable space group: P 21/M
;
_chemical_formula_sum "Si O2"
_cell_formula_units_Z 28
_cell_length_a 8.091926
_cell_length_b 26.170966
_cell_length_c 8.934464
_cell_angle_alpha 90.000000
_cell_angle_beta 45.544663
_cell_angle_gamma 90.000000
_cell_volume 1350.562341
_symmetry_space_group_name_H-M "P 21/M"
_symmetry_group_IT_number 11
_symmetry_cell_setting 'monoclinic'
loop_
_space_group_symop_operation_xyz
x,y,z
-x,1/2+y,-z
-x,-y,-z
x,1/2-y,z
loop_
_atom_site_type_symbol
_atom_site_label
_atom_site_fract_x
_atom_site_fract_y
_atom_site_fract_z
Si Si1 0.191719 0.872728 0.780575
Si Si2 0.851865 0.547550 0.644737
Si Si3 0.105857 0.309339 0.842237
Si Si4 0.895613 0.124664 0.713961
Si Si5 0.201913 0.447431 0.976941
Si Si6 0.553524 0.135138 0.681580
Si Si7 0.654418 0.056166 0.104540
O O1 0.249230 0.869125 0.571017
O O2 0.403650 0.898710 0.736783
O O3 0.097443 0.818902 0.904876
O O4 0.998441 0.913134 0.970921
O O5 0.588219 0.532035 0.786202
O O6 0.000000 0.500000 0.500000
O O7 0.921903 0.599056 0.513994
O O8 0.876842 0.558725 0.802616
O O9 0.121919 0.250000 0.797475
O O10 0.355017 0.325944 0.752506
O O11 0.035732 0.336045 0.730247
O O12 0.692847 0.152901 0.743214
O O13 0.778868 0.079393 0.881406
O O14 0.446818 0.420658 0.781848
O O15 0.204538 0.506424 0.923054
#
# Coordination Sequence:
#
# PCOD8077337 Si02
#       7
#     4   4   4   4   4   4   4
#     4  10  23  40  61  87 123 160 205 257 310 365
#     4  12  21  34  58  90 129 170 210 246 295 363
#     4  10  25  46  65  91 118 149 207 269 316 376
#     4  11  22  40  66  90 126 168 207 250 311 371
#     4  11  21  35  57  90 129 168 212 244 291 364
#     4  11  22  41  65  90 124 164 199 256 313 365
#     4  11  22  36  56  90 128 174 209 245 295 360
#
# _framework density 20.732106999999999
#
# number of rings (size 3 to 8) (size 9 to 14) (size 15 to 20)
#    0.000    1.143    4.286    2.571    0.000    1.714 
#    0.000    0.000    0.000    0.000    0.000    0.000 
#    0.000    0.000    0.000    0.000    0.000    0.000 
#
# Total GULP energy -346936.355913 kJ/mol
# GULP energy per Si atom -12390.584140 kJ/mol
# Density = 2.068492 g / cm^3
# Si number density = 20.732107 Si / 1000 Ang^3
#
#
#
# Elastic Constant Matrix: (Units=GPa)
#
#
# Indices 1 2 3 4 5 6 
#
# 1 93.6935 39.7273 18.1335 0.0000 4.4469 0.0000
# 2 39.7273 118.0388 31.8163 0.0000 -2.5731 0.0000
# 3 18.1335 31.8163 83.0882 0.0000 11.3984 0.0000
# 4 0.0000 0.0000 0.0000 19.7870 0.0000 -1.3832
# 5 4.4469 -2.5731 11.3984 0.0000 32.8160 0.0000
# 6 0.0000 0.0000 0.0000 -1.3832 0.0000 25.3152
#
#
#
# Elastic Compliance Matrix: (Units=1/GPa)
#
#
# Indices 1 2 3 4 5 6 
#
# 1 0.012653 -0.004029 -0.000987 0.000000 -0.001688 0.000000
# 2 -0.004029 0.010869 -0.003648 0.000000 0.002666 0.000000
# 3 -0.000987 -0.003648 0.014353 0.000000 -0.005138 0.000000
# 4 0.000000 0.000000 0.000000 0.050732 0.000000 0.002772
# 5 -0.001688 0.002666 -0.005138 0.000000 0.032695 0.000000
# 6 0.000000 0.000000 0.000000 0.002772 0.000000 0.039653
#
#
# Mechanical properties :
#
#
# Convention : Reuss Voigt Hill
#
# Bulk Modulus (GPa) = 48.67245 52.68608 50.67927
# Shear Modulus (GPa) = 27.00764 29.25987 28.13375
#
# Velocity S-wave (km/s) = 3.61320 3.76084 3.68776
# Velocity P-wave (km/s) = 6.39803 6.65782 6.52922
#
# Compressibility (1/GPa) = 0.02054551
#
# Stress axis : x y z
#
# Youngs Moduli (GPa) = 79.03489 92.00176 69.67343
#
# Poissons Ratio (x) = 0.37069 0.06877
# Poissons Ratio (y) = 0.31844 0.25420
# Poissons Ratio (z) = 0.07801 0.33566
#
# Static dielectric constant tensor:
#      x y z
#    x 4.111750 0.000000 -0.048960 
#    y 0.000000 3.501700 0.000000 
#    z -0.048960 0.000000 3.722750 
# 
# 
# High freq. dielectric constant tensor:
#      x y z
#    x 1.830560 0.000000 -0.001600 
#    y 0.000000 1.781320 0.000000 
#    z -0.001600 0.000000 1.815460 
# 
# From -- ./inp_files/15261.got.cif
#   From: 2010.06.25/outbox.cif.g09.slc.cpg/sg11_8_cif.got.tgz:15261.got - 2010.06.27 23:14:04.
