data_PCOD8077959
_publ_section_title
;
Structure prediction by ZEFSAII (Michael W. Deem and Ramdas Pophale) SiO2 
 PCOD8077959
Probable space group: P 21/M
;
_chemical_formula_sum "Si O2"
_cell_formula_units_Z 20
_cell_length_a 16.145652
_cell_length_b 9.139362
_cell_length_c 27.638239
_cell_angle_alpha 90.000000
_cell_angle_beta 163.583489
_cell_angle_gamma 90.000000
_cell_volume 1152.607624
_symmetry_space_group_name_H-M "P 21/M"
_symmetry_group_IT_number 11
_symmetry_cell_setting 'monoclinic'
loop_
_space_group_symop_operation_xyz
x,y,z
-x,1/2+y,-z
-x,-y,-z
x,1/2-y,z
loop_
_atom_site_type_symbol
_atom_site_label
_atom_site_fract_x
_atom_site_fract_y
_atom_site_fract_z
Si Si1 0.962016 0.576843 0.629714
Si Si2 0.204324 0.421299 0.849156
Si Si3 0.592248 0.421104 0.743320
Si Si4 0.567870 0.579800 0.924062
Si Si5 0.227508 0.077305 0.063557
O O1 0.972373 0.750000 0.644400
O O2 0.678570 0.527747 0.441109
O O3 0.945140 0.497518 0.672981
O O4 0.250535 0.518665 0.762912
O O5 0.219371 0.250000 0.845281
O O6 0.500000 0.500000 0.000000
O O7 0.180556 0.446595 0.893951
O O8 0.577343 0.250000 0.746079
O O9 0.887959 0.464482 0.880821
O O10 0.572787 0.504462 0.783349
O O11 0.525610 0.750000 0.891289
O O12 0.673091 0.509748 0.932416
O O13 0.273718 0.250000 0.092228
#
# Coordination Sequence:
#
# PCOD8077959 Si02
#       5
#     4   4   4   4   4
#     4   9  17  30  46  65  90 117 145 178 217 258
#     4   9  16  28  46  67  91 117 145 177 216 259
#     4   9  18  31  46  64  88 116 145 181 221 257
#     4   8  15  28  46  65  86 114 145 177 214 258
#     4   9  17  31  48  63  84 117 150 177 215 265
#
# _framework density 17.351958
#
# number of rings (size 3 to 8) (size 9 to 14) (size 15 to 20)
#    0.000    3.200    0.000    1.800    0.000    1.600 
#    0.000    6.000    0.000    0.000    0.000    0.000 
#    0.000    0.000    0.000    0.000    0.000    0.000 
#
# Total GULP energy -247849.117202 kJ/mol
# GULP energy per Si atom -12392.455860 kJ/mol
# Density = 1.731246 g / cm^3
# Si number density = 17.351958 Si / 1000 Ang^3
#
#
#
# Elastic Constant Matrix: (Units=GPa)
#
#
# Indices 1 2 3 4 5 6 
#
# 1 77.6722 30.1008 67.9244 0.0000 -24.2837 0.0000
# 2 30.1008 41.7111 38.7785 0.0000 -14.8235 0.0000
# 3 67.9244 38.7785 141.7537 0.0000 -34.2528 0.0000
# 4 0.0000 0.0000 0.0000 26.5329 0.0000 -9.3673
# 5 -24.2837 -14.8235 -34.2528 0.0000 25.6055 0.0000
# 6 0.0000 0.0000 0.0000 -9.3673 0.0000 21.5299
#
#
#
# Elastic Compliance Matrix: (Units=1/GPa)
#
#
# Indices 1 2 3 4 5 6 
#
# 1 0.025795 -0.007937 -0.007961 0.000000 0.009218 0.000000
# 2 -0.007937 0.036471 -0.004272 0.000000 0.007872 0.000000
# 3 -0.007961 -0.004272 0.014209 0.000000 0.008984 0.000000
# 4 0.000000 0.000000 0.000000 0.044529 0.000000 0.019374
# 5 0.009218 0.007872 0.008984 0.000000 0.064372 0.000000
# 6 0.000000 0.000000 0.000000 0.019374 0.000000 0.054876
#
#
# Mechanical properties :
#
#
# Convention : Reuss Voigt Hill
#
# Bulk Modulus (GPa) = 27.67442 59.41602 43.54522
# Shear Modulus (GPa) = 17.08602 23.02254 20.05428
#
# Velocity S-wave (km/s) = 3.14136 3.64648 3.40330
# Velocity P-wave (km/s) = 5.39824 7.21423 6.37127
#
# Compressibility (1/GPa) = 0.03613445
#
# Stress axis : x y z
#
# Youngs Moduli (GPa) = 38.76752 27.41883 70.37899
#
# Poissons Ratio (x) = 0.21763 0.56031
# Poissons Ratio (y) = 0.30770 0.30064
# Poissons Ratio (z) = 0.30864 0.11713
#
# Static dielectric constant tensor:
#      x y z
#    x 3.539660 0.000000 -0.328730 
#    y 0.000000 3.115120 0.000000 
#    z -0.328730 0.000000 3.533490 
# 
# 
# High freq. dielectric constant tensor:
#      x y z
#    x 1.662230 0.000000 -0.024820 
#    y 0.000000 1.650230 0.000000 
#    z -0.024820 0.000000 1.664940 
# 
# From -- ./inp_files/16370.got.cif
#   From: 2010.06.25/outbox.cif.g09.slc.cpg/sg11_9_cif.got.tgz:16370.got - 2010.06.27 23:14:04.
