data_PCOD8077546
_publ_section_title
;
Structure prediction by ZEFSAII (Michael W. Deem and Ramdas Pophale) SiO2 
 PCOD8077546
Probable space group: P 21/M
;
_chemical_formula_sum "Si O2"
_cell_formula_units_Z 32
_cell_length_a 15.165294
_cell_length_b 8.658497
_cell_length_c 15.101282
_cell_angle_alpha 90.000000
_cell_angle_beta 80.030187
_cell_angle_gamma 90.000000
_cell_volume 1952.984990
_symmetry_space_group_name_H-M "P 21/M"
_symmetry_group_IT_number 11
_symmetry_cell_setting 'monoclinic'
loop_
_space_group_symop_operation_xyz
x,y,z
-x,1/2+y,-z
-x,-y,-z
x,1/2-y,z
loop_
_atom_site_type_symbol
_atom_site_label
_atom_site_fract_x
_atom_site_fract_y
_atom_site_fract_z
Si Si1 0.078092 0.070180 0.806371
Si Si2 0.419238 0.431705 0.127394
Si Si3 0.054745 0.069467 0.612233
Si Si4 0.751108 0.933810 0.751444
Si Si5 0.112613 0.068682 0.120651
Si Si6 0.874280 0.568059 0.581628
Si Si7 0.193426 0.571123 0.933511
Si Si8 0.389116 0.929744 0.945990
O O1 0.091594 0.250000 0.824388
O O2 0.097544 0.032436 0.699765
O O3 0.150298 0.971875 0.847528
O O4 0.978472 0.024368 0.850740
O O5 0.414246 0.250000 0.134554
O O6 0.349462 0.499621 0.212752
O O7 0.522216 0.487229 0.123841
O O8 0.382648 0.478485 0.038117
O O9 0.034019 0.250000 0.605002
O O10 0.121594 0.011876 0.521585
O O11 0.961704 0.980935 0.620490
O O12 0.749980 0.750000 0.751500
O O13 0.816883 0.989793 0.818428
O O14 0.787718 0.997553 0.650238
O O15 0.092594 0.250000 0.131843
O O16 0.150645 0.033012 0.017131
O O17 0.869826 0.750000 0.585392
O O18 0.175676 0.750000 0.958786
O O19 0.299750 0.537503 0.905594
O O20 0.399768 0.750000 0.967666
#
# Coordination Sequence:
#
# PCOD8077546 Si02
#       8
#     4   4   4   4   4   4   4   4
#     4  11  22  34  46  64  89 123 158 191 223 259
#     4   9  16  29  47  67  90 115 144 179 222 270
#     4   9  18  30  45  65  89 115 147 186 223 259
#     4   9  16  26  46  71  92 117 145 174 216 269
#     4  11  20  32  47  67  92 123 155 186 218 260
#     4   9  16  29  47  67  90 115 144 179 222 270
#     4  11  22  34  46  64  89 123 158 191 223 259
#     4   9  18  30  45  65  89 115 147 186 223 259
#
# _framework density 16.385173000000002
#
# number of rings (size 3 to 8) (size 9 to 14) (size 15 to 20)
#    0.000    2.250    2.500    1.500    0.000    1.000 
#    0.000    0.625    0.000    0.000    0.000    0.875 
#    0.000    0.000    0.000    0.000    0.000    0.000 
#
# Total GULP energy -396581.998332 kJ/mol
# GULP energy per Si atom -12393.187448 kJ/mol
# Density = 1.634788 g / cm^3
# Si number density = 16.385173 Si / 1000 Ang^3
#
#
#
# Elastic Constant Matrix: (Units=GPa)
#
#
# Indices 1 2 3 4 5 6 
#
# 1 106.4857 8.9008 60.3750 0.0000 -21.4146 0.0000
# 2 8.9008 10.9802 7.0357 0.0000 -1.6382 0.0000
# 3 60.3750 7.0357 111.7054 0.0000 -22.3013 0.0000
# 4 0.0000 0.0000 0.0000 15.6441 0.0000 1.9158
# 5 -21.4146 -1.6382 -22.3013 0.0000 28.4419 0.0000
# 6 0.0000 0.0000 0.0000 1.9158 0.0000 14.4832
#
#
#
# Elastic Compliance Matrix: (Units=1/GPa)
#
#
# Indices 1 2 3 4 5 6 
#
# 1 0.014745 -0.007008 -0.006393 0.000000 0.005685 0.000000
# 2 -0.007008 0.098254 -0.002756 0.000000 -0.001778 0.000000
# 3 -0.006393 -0.002756 0.013739 0.000000 0.005801 0.000000
# 4 0.000000 0.000000 0.000000 0.064975 0.000000 -0.008595
# 5 0.005685 -0.001778 0.005801 0.000000 0.043886 0.000000
# 6 0.000000 0.000000 0.000000 -0.008595 0.000000 0.070182
#
#
# Mechanical properties :
#
#
# Convention : Reuss Voigt Hill
#
# Bulk Modulus (GPa) = 10.59041 42.42159 26.50600
# Shear Modulus (GPa) = 13.52928 21.90448 17.71688
#
# Velocity S-wave (km/s) = 2.87662 3.66026 3.29184
# Velocity P-wave (km/s) = 4.18458 6.61889 5.53717
#
# Compressibility (1/GPa) = 0.09442502
#
# Stress axis : x y z
#
# Youngs Moduli (GPa) = 67.82139 10.17766 72.78562
#
# Poissons Ratio (x) = 0.07132 0.46530
# Poissons Ratio (y) = 0.47528 0.20059
# Poissons Ratio (z) = 0.43357 0.02805
#
# Static dielectric constant tensor:
#      x y z
#    x 3.382700 0.000000 -0.462380 
#    y 0.000000 3.001940 0.000000 
#    z -0.462380 0.000000 3.549510 
# 
# 
# High freq. dielectric constant tensor:
#      x y z
#    x 1.614980 0.000000 -0.019400 
#    y 0.000000 1.623340 0.000000 
#    z -0.019400 0.000000 1.620260 
# 
# From -- ./inp_files/51219.got.cif
#   From: 2010.06.25/outbox.cif.g09.slc.cpg/sg11_26_cif.got.tgz:51219.got - 2010.06.27 23:14:04.
