data_PCOD8077333
_publ_section_title
;
Structure prediction by ZEFSAII (Michael W. Deem and Ramdas Pophale) SiO2 
 PCOD8077333
Probable space group: P 21/M
;
_chemical_formula_sum "Si O2"
_cell_formula_units_Z 32
_cell_length_a 18.736350
_cell_length_b 17.865803
_cell_length_c 15.129018
_cell_angle_alpha 90.000000
_cell_angle_beta 18.840760
_cell_angle_gamma 90.000000
_cell_volume 1635.455919
_symmetry_space_group_name_H-M "P 21/M"
_symmetry_group_IT_number 11
_symmetry_cell_setting 'monoclinic'
loop_
_space_group_symop_operation_xyz
x,y,z
-x,1/2+y,-z
-x,-y,-z
x,1/2-y,z
loop_
_atom_site_type_symbol
_atom_site_label
_atom_site_fract_x
_atom_site_fract_y
_atom_site_fract_z
Si Si1 0.852878 0.834446 0.324350
Si Si2 0.282635 0.338654 0.057180
Si Si3 0.316931 0.567824 0.357302
Si Si4 0.156551 0.403285 0.019437
Si Si5 0.884677 0.073023 0.595361
Si Si6 0.263887 0.929910 0.892569
Si Si7 0.452754 0.915535 0.860600
Si Si8 0.344808 0.165304 0.630193
O O1 0.930859 0.750000 0.252153
O O2 0.626860 0.848758 0.643199
O O3 0.816942 0.848593 0.262556
O O4 0.029907 0.892999 0.149410
O O5 0.285919 0.250000 0.047319
O O6 0.276259 0.373551 0.966920
O O7 0.067831 0.363791 0.364022
O O8 0.502521 0.366155 0.849743
O O9 0.243081 0.551270 0.344025
O O10 0.421266 0.493202 0.274113
O O11 0.107011 0.592895 0.660862
O O12 0.255379 0.483406 0.876566
O O13 0.206456 0.347016 0.881241
O O14 0.704631 0.105750 0.873718
O O15 0.000000 0.000000 0.500000
O O16 0.300607 0.922639 0.953423
O O17 0.448219 0.890472 0.616657
O O18 0.436236 0.250000 0.521433
#
# Coordination Sequence:
#
# PCOD8077333 Si02
#       8
#     4   4   4   4   4   4   4   4
#     4  10  23  40  60  89 125 161 203 261 316 362
#     4  11  25  42  62  95 132 162 205 261 311 363
#     4  11  22  40  65  93 122 162 208 253 305 366
#     4  11  22  40  66  91 123 165 212 253 307 378
#     4  11  23  39  68  91 121 163 209 252 302 369
#     4  11  21  39  64  91 122 159 210 259 306 369
#     4  11  21  39  64  91 119 159 207 250 306 368
#     4  10  23  40  59  88 127 163 206 258 314 370
#
# _framework density 19.566407999999999
#
# number of rings (size 3 to 8) (size 9 to 14) (size 15 to 20)
#    0.000    1.250    3.750    2.250    0.000    5.000 
#    0.000    2.500    0.000    0.000    0.000    0.000 
#    0.000    0.000    0.000    0.000    0.000    0.000 
#
# Total GULP energy -396964.506315 kJ/mol
# GULP energy per Si atom -12405.140822 kJ/mol
# Density = 1.952187 g / cm^3
# Si number density = 19.566408 Si / 1000 Ang^3
#
#
#
# Elastic Constant Matrix: (Units=GPa)
#
#
# Indices 1 2 3 4 5 6 
#
# 1 103.6922 44.5911 69.7003 0.0000 2.1699 0.0000
# 2 44.5911 116.7537 34.5427 0.0000 -13.9812 0.0000
# 3 69.7003 34.5427 105.3735 0.0000 4.7591 0.0000
# 4 0.0000 0.0000 0.0000 21.6058 0.0000 1.7547
# 5 2.1699 -13.9812 4.7591 0.0000 37.0226 0.0000
# 6 0.0000 0.0000 0.0000 1.7547 0.0000 21.2296
#
#
#
# Elastic Compliance Matrix: (Units=1/GPa)
#
#
# Indices 1 2 3 4 5 6 
#
# 1 0.018882 -0.004074 -0.011099 0.000000 -0.001218 0.000000
# 2 -0.004074 0.010993 -0.001114 0.000000 0.004533 0.000000
# 3 -0.011099 -0.001114 0.017287 0.000000 -0.001992 0.000000
# 4 0.000000 0.000000 0.000000 0.046597 0.000000 -0.003851
# 5 -0.001218 0.004533 -0.001992 0.000000 0.029050 0.000000
# 6 0.000000 0.000000 0.000000 -0.003851 0.000000 0.047422
#
#
# Mechanical properties :
#
#
# Convention : Reuss Voigt Hill
#
# Bulk Modulus (GPa) = 68.54687 69.27639 68.91163
# Shear Modulus (GPa) = 24.07693 27.77062 25.92377
#
# Velocity S-wave (km/s) = 3.51169 3.77145 3.64388
# Velocity P-wave (km/s) = 7.17994 7.37887 7.28009
#
# Compressibility (1/GPa) = 0.01458856
#
# Stress axis : x y z
#
# Youngs Moduli (GPa) = 52.96074 90.96453 57.84724
#
# Poissons Ratio (x) = 0.37055 0.64206
# Poissons Ratio (y) = 0.21574 0.06444
# Poissons Ratio (z) = 0.58782 0.10133
#
# Static dielectric constant tensor:
#      x y z
#    x 3.643980 0.000000 -0.016210 
#    y 0.000000 3.535950 0.000000 
#    z -0.016210 0.000000 3.751200 
# 
# 
# High freq. dielectric constant tensor:
#      x y z
#    x 1.767810 0.000000 -0.003400 
#    y 0.000000 1.763150 0.000000 
#    z -0.003400 0.000000 1.772020 
# 
# From -- ./inp_files/53805.got.cif
#   From: 2010.06.25/outbox.cif.g09.slc.cpg/sg11_27_cif.got.tgz:53805.got - 2010.06.27 23:14:04.
