data_PCOD8077252
_publ_section_title
;
Structure prediction by ZEFSAII (Michael W. Deem and Ramdas Pophale) SiO2 
 PCOD8077252
Probable space group: P 21/M
;
_chemical_formula_sum "Si O2"
_cell_formula_units_Z 24
_cell_length_a 8.662950
_cell_length_b 13.607938
_cell_length_c 13.600921
_cell_angle_alpha 90.000000
_cell_angle_beta 42.866697
_cell_angle_gamma 90.000000
_cell_volume 1090.746190
_symmetry_space_group_name_H-M "P 21/M"
_symmetry_group_IT_number 11
_symmetry_cell_setting 'monoclinic'
loop_
_space_group_symop_operation_xyz
x,y,z
-x,1/2+y,-z
-x,-y,-z
x,1/2-y,z
loop_
_atom_site_type_symbol
_atom_site_label
_atom_site_fract_x
_atom_site_fract_y
_atom_site_fract_z
Si Si1 0.070089 0.423061 0.547005
Si Si2 0.717655 0.250000 0.710257
Si Si3 0.425056 0.635298 0.711046
Si Si4 0.362939 0.750000 0.033974
Si Si5 0.911623 0.448450 0.268614
Si Si6 0.850221 0.750000 0.835552
Si Si7 0.221776 0.250000 0.898201
Si Si8 0.111844 0.903909 0.032501
O O1 0.306198 0.373229 0.407356
O O2 0.095038 0.469896 0.643531
O O3 0.000000 0.500000 0.500000
O O4 0.870938 0.345141 0.630176
O O5 0.598301 0.250000 0.869713
O O6 0.493251 0.250000 0.744567
O O7 0.352234 0.750000 0.747513
O O8 0.339561 0.583349 0.650506
O O9 0.300937 0.581651 0.860078
O O10 0.227836 0.845851 0.066602
O O11 0.621947 0.750000 0.875713
O O12 0.026270 0.349617 0.256166
O O13 0.043288 0.491052 0.110607
O O14 0.831906 0.750000 0.961592
O O15 0.111080 0.347200 0.901944
#
# Coordination Sequence:
#
# PCOD8077252 Si02
#       8
#     4   2   4   2   4   2   2   4
#     4  12  30  47  69  99 141 192 232 278 352 416
#     4  11  24  50  66 101 145 179 227 297 338 414
#     4  12  24  47  71 105 145 180 228 289 345 416
#     4  10  22  41  71 105 138 179 224 288 353 396
#     4  12  25  46  69 105 139 184 238 282 347 410
#     4  11  24  40  68 105 143 177 228 300 337 403
#     4  10  22  43  71 109 138 169 231 289 354 403
#     4  11  22  42  77 108 132 184 228 286 347 416
#
# _framework density 22.003285000000002
#
# number of rings (size 3 to 8) (size 9 to 14) (size 15 to 20)
#    0.000    0.667    6.667    1.000    4.667    2.667 
#    0.000    0.000    0.000    1.000    0.000    0.000 
#    0.000    0.000    0.000    0.000    0.000    0.000 
#
# Total GULP energy -297522.028644 kJ/mol
# GULP energy per Si atom -12396.751194 kJ/mol
# Density = 2.195320 g / cm^3
# Si number density = 22.003285 Si / 1000 Ang^3
#
#
#
# Elastic Constant Matrix: (Units=GPa)
#
#
# Indices 1 2 3 4 5 6 
#
# 1 97.5305 21.9353 40.7948 0.0000 -23.9055 0.0000
# 2 21.9353 98.4978 31.6520 0.0000 -3.4351 0.0000
# 3 40.7948 31.6520 101.7989 0.0000 -17.3726 0.0000
# 4 0.0000 0.0000 0.0000 33.8027 0.0000 -2.5553
# 5 -23.9055 -3.4351 -17.3726 0.0000 43.1746 0.0000
# 6 0.0000 0.0000 0.0000 -2.5553 0.0000 16.0921
#
#
#
# Elastic Compliance Matrix: (Units=1/GPa)
#
#
# Indices 1 2 3 4 5 6 
#
# 1 0.013718 -0.001561 -0.004012 0.000000 0.005857 0.000000
# 2 -0.001561 0.011469 -0.003148 0.000000 -0.001219 0.000000
# 3 -0.004012 -0.003148 0.012872 0.000000 0.002707 0.000000
# 4 0.000000 0.000000 0.000000 0.029943 0.000000 0.004755
# 5 0.005857 -0.001219 0.002707 0.000000 0.027397 0.000000
# 6 0.000000 0.000000 0.000000 0.004755 0.000000 0.062897
#
#
# Mechanical properties :
#
#
# Convention : Reuss Voigt Hill
#
# Bulk Modulus (GPa) = 48.50757 54.06571 51.28664
# Shear Modulus (GPa) = 27.38025 32.17689 29.77857
#
# Velocity S-wave (km/s) = 3.53139 3.82824 3.68281
# Velocity P-wave (km/s) = 6.22263 6.64572 6.43765
#
# Compressibility (1/GPa) = 0.02061534
#
# Stress axis : x y z
#
# Youngs Moduli (GPa) = 72.89556 87.18796 77.68688
#
# Poissons Ratio (x) = 0.13614 0.31171
# Poissons Ratio (y) = 0.11382 0.24459
# Poissons Ratio (z) = 0.29249 0.27451
#
# Static dielectric constant tensor:
#      x y z
#    x 4.246950 0.000000 -0.173120 
#    y 0.000000 3.926200 0.000000 
#    z -0.173120 0.000000 3.897310 
# 
# 
# High freq. dielectric constant tensor:
#      x y z
#    x 1.884950 0.000000 -0.011580 
#    y 0.000000 1.873400 0.000000 
#    z -0.011580 0.000000 1.851240 
# 
# From -- ./inp_files/47547.got.cif
#   From: 2010.06.25/outbox.cif.g09.slc.cpg/sg11_24_cif.got.tgz:47547.got - 2010.06.27 23:14:04.
