data_PCOD8077456
_publ_section_title
;
Structure prediction by ZEFSAII (Michael W. Deem and Ramdas Pophale) SiO2 
 PCOD8077456
Probable space group: P 21/M
;
_chemical_formula_sum "Si O2"
_cell_formula_units_Z 18
_cell_length_a 11.530286
_cell_length_b 10.171961
_cell_length_c 8.032945
_cell_angle_alpha 90.000000
_cell_angle_beta 102.674780
_cell_angle_gamma 90.000000
_cell_volume 919.189910
_symmetry_space_group_name_H-M "P 21/M"
_symmetry_group_IT_number 11
_symmetry_cell_setting 'monoclinic'
loop_
_space_group_symop_operation_xyz
x,y,z
-x,1/2+y,-z
-x,-y,-z
x,1/2-y,z
loop_
_atom_site_type_symbol
_atom_site_label
_atom_site_fract_x
_atom_site_fract_y
_atom_site_fract_z
Si Si1 0.460418 0.399927 0.624030
Si Si2 0.656056 0.395162 0.946596
Si Si3 0.891010 0.250000 0.316700
Si Si4 0.052952 0.250000 0.680871
Si Si5 0.866425 0.250000 0.922138
Si Si6 0.235352 0.020721 0.725098
O O1 0.500000 0.500000 0.500000
O O2 0.483891 0.250000 0.575402
O O3 0.541562 0.436827 0.807149
O O4 0.320113 0.419925 0.609825
O O5 0.634800 0.250000 0.024087
O O6 0.779707 0.378586 0.878391
O O7 0.678535 0.508141 0.088056
O O8 0.926080 0.250000 0.129646
O O9 0.815291 0.378734 0.340194
O O10 0.002893 0.250000 0.476742
O O11 0.128920 0.119240 0.730055
O O12 0.957668 0.250000 0.799810
#
# Coordination Sequence:
#
# PCOD8077456 Si02
#       6
#     4   4   2   2   2   4
#     4  11  24  41  64  96 126 161 212 266 323 385
#     4   8  19  41  65  87 122 168 206 254 317 399
#     4  10  24  42  63  90 127 186 206 255 326 388
#     4  12  24  39  66  94 132 163 217 285 292 373
#     4   8  20  41  63  88 121 173 217 236 332 375
#     4  11  22  43  61  94 125 164 218 261 324 374
#
# _framework density 19.582460000000001
#
# number of rings (size 3 to 8) (size 9 to 14) (size 15 to 20)
#    0.667    1.333    2.222    1.333    4.667    3.556 
#    6.000    0.000    0.000    0.000    0.000    0.000 
#    0.000    0.000    0.000    0.000    0.000    0.000 
#
# Total GULP energy -222997.972375 kJ/mol
# GULP energy per Si atom -12388.776243 kJ/mol
# Density = 1.953789 g / cm^3
# Si number density = 19.582460 Si / 1000 Ang^3
#
#
#
# Elastic Constant Matrix: (Units=GPa)
#
#
# Indices 1 2 3 4 5 6 
#
# 1 99.5831 36.8637 36.1835 0.0000 -10.9837 0.0000
# 2 36.8637 114.1113 34.1622 0.0000 8.6010 0.0000
# 3 36.1835 34.1622 62.2633 0.0000 8.6728 0.0000
# 4 0.0000 0.0000 0.0000 29.1726 0.0000 5.3489
# 5 -10.9837 8.6010 8.6728 0.0000 34.9308 0.0000
# 6 0.0000 0.0000 0.0000 5.3489 0.0000 36.7514
#
#
#
# Elastic Compliance Matrix: (Units=1/GPa)
#
#
# Indices 1 2 3 4 5 6 
#
# 1 0.014880 -0.002953 -0.008059 0.000000 0.007407 0.000000
# 2 -0.002953 0.011120 -0.004013 0.000000 -0.002670 0.000000
# 3 -0.008059 -0.004013 0.023991 0.000000 -0.007503 0.000000
# 4 0.000000 0.000000 0.000000 0.035219 0.000000 -0.005126
# 5 0.007407 -0.002670 -0.007503 0.000000 0.033477 0.000000
# 6 0.000000 0.000000 0.000000 -0.005126 0.000000 0.027956
#
#
# Mechanical properties :
#
#
# Convention : Reuss Voigt Hill
#
# Bulk Modulus (GPa) = 50.14749 54.48628 52.31688
# Shear Modulus (GPa) = 27.27166 31.42085 29.34625
#
# Velocity S-wave (km/s) = 3.73588 4.01002 3.87537
# Velocity P-wave (km/s) = 6.65380 7.02316 6.84097
#
# Compressibility (1/GPa) = 0.01994118
#
# Stress axis : x y z
#
# Youngs Moduli (GPa) = 67.20388 89.92804 41.68164
#
# Poissons Ratio (x) = 0.26552 0.33592
# Poissons Ratio (y) = 0.19843 0.16729
# Poissons Ratio (z) = 0.54160 0.36092
#
# Static dielectric constant tensor:
#      x y z
#    x 4.027210 0.000000 0.896540 
#    y 0.000000 3.548300 0.000000 
#    z 0.896540 0.000000 4.517730 
# 
# 
# High freq. dielectric constant tensor:
#      x y z
#    x 1.764890 0.000000 0.018630 
#    y 0.000000 1.760960 0.000000 
#    z 0.018630 0.000000 1.746900 
# 
# From -- ./inp_files/16094.got.cif
#   From: 2010.06.25/outbox.cif.g09.slc.cpg/sg11_9_cif.got.tgz:16094.got - 2010.06.27 23:14:04.
