data_PCOD8077814
_publ_section_title
;
Structure prediction by ZEFSAII (Michael W. Deem and Ramdas Pophale) SiO2 
 PCOD8077814
Probable space group: P 21/M
;
_chemical_formula_sum "Si O2"
_cell_formula_units_Z 24
_cell_length_a 12.367366
_cell_length_b 8.491352
_cell_length_c 12.429369
_cell_angle_alpha 90.000000
_cell_angle_beta 70.665831
_cell_angle_gamma 90.000000
_cell_volume 1231.665465
_symmetry_space_group_name_H-M "P 21/M"
_symmetry_group_IT_number 11
_symmetry_cell_setting 'monoclinic'
loop_
_space_group_symop_operation_xyz
x,y,z
-x,1/2+y,-z
-x,-y,-z
x,1/2-y,z
loop_
_atom_site_type_symbol
_atom_site_label
_atom_site_fract_x
_atom_site_fract_y
_atom_site_fract_z
Si Si1 0.247019 0.567243 0.378554
Si Si2 0.506109 0.436129 0.617860
Si Si3 0.275666 0.567837 0.757838
Si Si4 0.890435 0.568033 0.762044
Si Si5 0.871031 0.931369 0.382349
Si Si6 0.116886 0.933259 0.008397
O O1 0.242641 0.750000 0.349878
O O2 0.373660 0.512794 0.370279
O O3 0.212590 0.466909 0.285700
O O4 0.159251 0.536247 0.504615
O O5 0.500000 0.500000 0.500000
O O6 0.491240 0.250000 0.621253
O O7 0.407369 0.515046 0.722435
O O8 0.265652 0.750000 0.727822
O O9 0.213933 0.466103 0.687358
O O10 0.219021 0.535583 0.891438
O O11 0.925402 0.750000 0.747148
O O12 0.848464 0.523254 0.894776
O O13 0.999968 0.464862 0.695219
O O14 0.858887 0.750000 0.419175
O O15 0.100256 0.750000 0.038398
O O16 0.000000 0.000000 0.000000
#
# Coordination Sequence:
#
# PCOD8077814 Si02
#       6
#     4   4   4   4   4   4
#     4  11  24  42  62  89 126 164 206 253 307 369
#     4  11  23  39  64  91 123 162 205 254 305 363
#     4  11  23  39  62  93 126 158 204 255 304 361
#     4  12  25  41  62  90 126 164 206 255 310 368
#     4  12  23  37  62  92 126 163 202 251 310 370
#     4  11  23  40  64  91 123 163 205 253 304 365
#
# _framework density 19.485809
#
# number of rings (size 3 to 8) (size 9 to 14) (size 15 to 20)
#    0.000    0.667    3.333    5.500    0.000    4.000 
#    0.000    0.833    0.000    0.000    0.000    0.000 
#    0.000    0.000    0.000    0.000    0.000    0.000 
#
# Total GULP energy -297800.810971 kJ/mol
# GULP energy per Si atom -12408.367124 kJ/mol
# Density = 1.944146 g / cm^3
# Si number density = 19.485809 Si / 1000 Ang^3
#
#
#
# Elastic Constant Matrix: (Units=GPa)
#
#
# Indices 1 2 3 4 5 6 
#
# 1 88.9771 30.6568 66.6233 0.0000 0.3542 0.0000
# 2 30.6568 76.5759 32.3855 0.0000 -1.9990 0.0000
# 3 66.6233 32.3855 118.7449 0.0000 3.5573 0.0000
# 4 0.0000 0.0000 0.0000 33.3871 0.0000 1.7917
# 5 0.3542 -1.9990 3.5573 0.0000 38.2933 0.0000
# 6 0.0000 0.0000 0.0000 1.7917 0.0000 33.5402
#
#
#
# Elastic Compliance Matrix: (Units=1/GPa)
#
#
# Indices 1 2 3 4 5 6 
#
# 1 0.020299 -0.003716 -0.010393 0.000000 0.000584 0.000000
# 2 -0.003716 0.015492 -0.002172 0.000000 0.001045 0.000000
# 3 -0.010393 -0.002172 0.014887 0.000000 -0.001400 0.000000
# 4 0.000000 0.000000 0.000000 0.030038 0.000000 -0.001605
# 5 0.000584 0.001045 -0.001400 0.000000 0.026293 0.000000
# 6 0.000000 0.000000 0.000000 -0.001605 0.000000 0.029901
#
#
# Mechanical properties :
#
#
# Convention : Reuss Voigt Hill
#
# Bulk Modulus (GPa) = 55.19749 60.40323 57.80036
# Shear Modulus (GPa) = 28.48849 31.35294 29.92072
#
# Velocity S-wave (km/s) = 3.82778 4.01560 3.92281
# Velocity P-wave (km/s) = 6.92274 7.25024 7.08838
#
# Compressibility (1/GPa) = 0.01811677
#
# Stress axis : x y z
#
# Youngs Moduli (GPa) = 49.26430 64.54813 67.17412
#
# Poissons Ratio (x) = 0.23985 0.69813
# Poissons Ratio (y) = 0.18306 0.14588
# Poissons Ratio (z) = 0.51200 0.14018
#
# Static dielectric constant tensor:
#      x y z
#    x 3.705090 0.000000 -0.049160 
#    y 0.000000 3.695200 0.000000 
#    z -0.049160 0.000000 3.657160 
# 
# 
# High freq. dielectric constant tensor:
#      x y z
#    x 1.757870 0.000000 -0.001350 
#    y 0.000000 1.775680 0.000000 
#    z -0.001350 0.000000 1.759590 
# 
# From -- ./inp_files/33681.got.cif
#   From: 2010.06.25/outbox.cif.g09.slc.cpg/sg11_17_cif.got.tgz:33681.got - 2010.06.27 23:14:04.
