data_PCOD8077468
_publ_section_title
;
Structure prediction by ZEFSAII (Michael W. Deem and Ramdas Pophale) SiO2 
 PCOD8077468
Probable space group: P 21/M
;
_chemical_formula_sum "Si O2"
_cell_formula_units_Z 20
_cell_length_a 9.771916
_cell_length_b 18.617479
_cell_length_c 5.172523
_cell_angle_alpha 90.000000
_cell_angle_beta 102.236717
_cell_angle_gamma 90.000000
_cell_volume 919.649119
_symmetry_space_group_name_H-M "P 21/M"
_symmetry_group_IT_number 11
_symmetry_cell_setting 'monoclinic'
loop_
_space_group_symop_operation_xyz
x,y,z
-x,1/2+y,-z
-x,-y,-z
x,1/2-y,z
loop_
_atom_site_type_symbol
_atom_site_label
_atom_site_fract_x
_atom_site_fract_y
_atom_site_fract_z
Si Si1 0.833257 0.666991 0.466319
Si Si2 0.689496 0.889921 0.909043
Si Si3 0.245333 0.949641 0.100434
Si Si4 0.137369 0.891403 0.565683
Si Si5 0.603888 0.168817 0.100846
O O1 0.799131 0.750000 0.410473
O O2 0.792027 0.644000 0.738302
O O3 0.997555 0.654654 0.495820
O O4 0.746964 0.623020 0.219637
O O5 0.538157 0.854251 0.813925
O O6 0.674932 0.974912 0.859017
O O7 0.152455 0.939951 0.317911
O O8 0.138501 0.945300 0.813260
O O9 0.362737 0.886348 0.122066
O O10 0.268884 0.836551 0.641462
O O11 0.591782 0.250000 0.989804
#
# Coordination Sequence:
#
# PCOD8077468 Si02
#       5
#     4   4   4   4   4
#     4  12  26  44  66 100 135 175 220 273 328 390
#     4  12  26  43  70  97 138 171 218 274 335 386
#     4  10  24  43  70  99 130 172 225 269 326 388
#     4  10  24  43  70  91 133 171 223 268 323 387
#     4  10  24  44  68  97 131 177 223 270 324 392
#
# _framework density 21.747423999999999
#
# number of rings (size 3 to 8) (size 9 to 14) (size 15 to 20)
#    1.200    0.000    0.000    5.400    2.800    7.200 
#    0.000    0.000    0.000    0.000    0.000    0.000 
#    0.000    0.000    0.000    0.000    0.000    0.000 
#
# Total GULP energy -247990.404146 kJ/mol
# GULP energy per Si atom -12399.520207 kJ/mol
# Density = 2.169793 g / cm^3
# Si number density = 21.747424 Si / 1000 Ang^3
#
#
#
# Elastic Constant Matrix: (Units=GPa)
#
#
# Indices 1 2 3 4 5 6 
#
# 1 120.9570 43.2989 24.4570 0.0000 -0.1262 0.0000
# 2 43.2989 148.8246 17.7464 0.0000 -4.7206 0.0000
# 3 24.4570 17.7464 117.8577 0.0000 -5.9235 0.0000
# 4 0.0000 0.0000 0.0000 21.7893 0.0000 -7.8645
# 5 -0.1262 -4.7206 -5.9235 0.0000 15.8936 0.0000
# 6 0.0000 0.0000 0.0000 -7.8645 0.0000 29.2939
#
#
#
# Elastic Compliance Matrix: (Units=1/GPa)
#
#
# Indices 1 2 3 4 5 6 
#
# 1 0.009538 -0.002620 -0.001651 0.000000 -0.001318 0.000000
# 2 -0.002620 0.007606 -0.000498 0.000000 0.002052 0.000000
# 3 -0.001651 -0.000498 0.009064 0.000000 0.003217 0.000000
# 4 0.000000 0.000000 0.000000 0.050819 0.000000 0.013643
# 5 -0.001318 0.002052 0.003217 0.000000 0.064717 0.000000
# 6 0.000000 0.000000 0.000000 0.013643 0.000000 0.037800
#
#
# Mechanical properties :
#
#
# Convention : Reuss Voigt Hill
#
# Bulk Modulus (GPa) = 59.99009 62.07153 61.03081
# Shear Modulus (GPa) = 25.68878 33.53781 29.61330
#
# Velocity S-wave (km/s) = 3.44064 3.93128 3.69411
# Velocity P-wave (km/s) = 6.59005 7.01503 6.80586
#
# Compressibility (1/GPa) = 0.01666942
#
# Stress axis : x y z
#
# Youngs Moduli (GPa) = 104.84762 131.47395 110.32478
#
# Poissons Ratio (x) = 0.34444 0.18214
# Poissons Ratio (y) = 0.27468 0.05499
# Poissons Ratio (z) = 0.17310 0.06554
#
# Static dielectric constant tensor:
#      x y z
#    x 3.780800 0.000000 -0.066570 
#    y 0.000000 3.826060 0.000000 
#    z -0.066570 0.000000 3.827790 
# 
# 
# High freq. dielectric constant tensor:
#      x y z
#    x 1.855330 0.000000 -0.007000 
#    y 0.000000 1.858250 0.000000 
#    z -0.007000 0.000000 1.851410 
# 
# From -- ./inp_files/2363.got.cif
#   From: 2010.06.25/outbox.cif.g09.slc.cpg/sg11_2_cif.got.tgz:2363.got - 2010.06.27 23:14:04.
