data_PCOD8077474
_publ_section_title
;
Structure prediction by ZEFSAII (Michael W. Deem and Ramdas Pophale) SiO2 
 PCOD8077474
Probable space group: P 21/M
;
_chemical_formula_sum "Si O2"
_cell_formula_units_Z 32
_cell_length_a 16.982008
_cell_length_b 15.122792
_cell_length_c 11.720223
_cell_angle_alpha 90.000000
_cell_angle_beta 30.547200
_cell_angle_gamma 90.000000
_cell_volume 1529.792652
_symmetry_space_group_name_H-M "P 21/M"
_symmetry_group_IT_number 11
_symmetry_cell_setting 'monoclinic'
loop_
_space_group_symop_operation_xyz
x,y,z
-x,1/2+y,-z
-x,-y,-z
x,1/2-y,z
loop_
_atom_site_type_symbol
_atom_site_label
_atom_site_fract_x
_atom_site_fract_y
_atom_site_fract_z
Si Si1 0.372201 0.973993 0.445784
Si Si2 0.880002 0.845329 0.744002
Si Si3 0.722931 0.994997 0.054297
Si Si4 0.400775 0.650592 0.191880
Si Si5 0.888353 0.066096 0.072744
Si Si6 0.184452 0.566633 0.301990
Si Si7 0.184577 0.153473 0.635548
Si Si8 0.727876 0.617684 0.716900
O O1 0.295619 0.072141 0.533495
O O2 0.392116 0.924008 0.301317
O O3 0.257669 0.911475 0.663453
O O4 0.537631 0.987520 0.301431
O O5 0.941546 0.750000 0.712305
O O6 0.762787 0.826514 0.787117
O O7 0.002687 0.912554 0.533828
O O8 0.790771 0.895832 0.955865
O O9 0.758492 0.055993 0.899335
O O10 0.811301 0.031146 0.053112
O O11 0.406474 0.750000 0.236704
O O12 0.260794 0.647722 0.275809
O O13 0.544285 0.627282 0.930523
O O14 0.004378 0.146352 0.899683
O O15 0.000000 0.000000 0.000000
O O16 0.225429 0.483698 0.328698
O O17 0.243889 0.250000 0.607175
O O18 0.181578 0.157758 0.502589
#
# Coordination Sequence:
#
# PCOD8077474 Si02
#       8
#     4   4   4   4   4   4   4   4
#     4  11  23  42  67  92 136 172 223 271 323 387
#     4  11  22  35  56  95 130 166 211 262 325 392
#     4  11  22  40  67  90 129 178 216 271 331 385
#     4  12  23  38  64 101 133 169 211 264 333 397
#     4  10  24  44  66  93 123 173 228 269 325 380
#     4  11  21  37  60  92 134 170 206 261 330 393
#     4  11  22  40  65  94 129 174 220 266 322 389
#     4  11  20  37  61  88 131 166 208 255 329 394
#
# _framework density 20.917866
#
# number of rings (size 3 to 8) (size 9 to 14) (size 15 to 20)
#    0.000    1.000    3.750    6.000    1.750    0.500 
#    0.000    4.375    0.000    3.000    0.000    0.000 
#    0.000    0.000    0.000    0.000    0.000    0.000 
#
# Total GULP energy -396462.554005 kJ/mol
# GULP energy per Si atom -12389.454813 kJ/mol
# Density = 2.087026 g / cm^3
# Si number density = 20.917866 Si / 1000 Ang^3
#
#
#
# Elastic Constant Matrix: (Units=GPa)
#
#
# Indices 1 2 3 4 5 6 
#
# 1 88.5173 21.1336 20.3403 0.0000 -5.4257 0.0000
# 2 21.1336 122.0563 38.5988 0.0000 0.5045 0.0000
# 3 20.3403 38.5988 131.3249 0.0000 -6.4525 0.0000
# 4 0.0000 0.0000 0.0000 11.8581 0.0000 -11.5275
# 5 -5.4257 0.5045 -6.4525 0.0000 28.0043 0.0000
# 6 0.0000 0.0000 0.0000 -11.5275 0.0000 8.9483
#
#
#
# Elastic Compliance Matrix: (Units=1/GPa)
#
#
# Indices 1 2 3 4 5 6 
#
# 1 0.012125 -0.001705 -0.001274 0.000000 0.002086 0.000000
# 2 -0.001705 0.009289 -0.002519 0.000000 -0.001078 0.000000
# 3 -0.001274 -0.002519 0.008640 0.000000 0.001789 0.000000
# 4 0.000000 0.000000 0.000000 -0.334235 0.000000 -0.430570
# 5 0.002086 -0.001078 0.001789 0.000000 0.036545 0.000000
# 6 0.000000 0.000000 0.000000 -0.430570 0.000000 -0.442919
#
#
# Mechanical properties :
#
#
# Convention : Reuss Voigt Hill
#
# Bulk Modulus (GPa) = 52.47247 55.78267 54.12757
# Shear Modulus (GPa) = -7.21287 27.21721 10.00217
#
# Velocity S-wave (km/s) = -1.85894 3.61105 2.18907
# Velocity P-wave (km/s) = 4.53121 6.64166 5.68522
#
# Compressibility (1/GPa) = 0.01905761
#
# Stress axis : x y z
#
# Youngs Moduli (GPa) = 82.47415 107.65103 115.73504
#
# Poissons Ratio (x) = 0.18355 0.14749
# Poissons Ratio (y) = 0.14062 0.29156
# Poissons Ratio (z) = 0.10510 0.27119
#
# Static dielectric constant tensor:
#      x y z
#    x 0.221500 0.000000 4.345600 
#    y 0.000000 3.781150 0.000000 
#    z 4.345600 0.000000 -1.651220 
# 
# 
# High freq. dielectric constant tensor:
#      x y z
#    x 1.811460 0.000000 -0.014160 
#    y 0.000000 1.812020 0.000000 
#    z -0.014160 0.000000 1.829030 
# 
# From -- ./inp_files/41631.got.cif
#   From: 2010.06.25/outbox.cif.g09.slc.cpg/sg11_21_cif.got.tgz:41631.got - 2010.06.27 23:14:04.
