data_PCOD8077090
_publ_section_title
;
Structure prediction by ZEFSAII (Michael W. Deem and Ramdas Pophale) SiO2 
 PCOD8077090
Probable space group: P 21/M
;
_chemical_formula_sum "Si O2"
_cell_formula_units_Z 20
_cell_length_a 5.051745
_cell_length_b 26.652621
_cell_length_c 6.090622
_cell_angle_alpha 90.000000
_cell_angle_beta 95.131398
_cell_angle_gamma 90.000000
_cell_volume 816.768404
_symmetry_space_group_name_H-M "P 21/M"
_symmetry_group_IT_number 11
_symmetry_cell_setting 'monoclinic'
loop_
_space_group_symop_operation_xyz
x,y,z
-x,1/2+y,-z
-x,-y,-z
x,1/2-y,z
loop_
_atom_site_type_symbol
_atom_site_label
_atom_site_fract_x
_atom_site_fract_y
_atom_site_fract_z
Si Si1 0.955743 0.846884 0.673127
Si Si2 0.464129 0.807482 0.908575
Si Si3 0.851825 0.973416 0.183623
Si Si4 0.609460 0.623298 0.282503
Si Si5 0.250519 0.937164 0.573733
O O1 0.206875 0.809984 0.732023
O O2 0.066751 0.903270 0.722940
O O3 0.724556 0.831602 0.820904
O O4 0.855181 0.845204 0.409805
O O5 0.521747 0.750000 0.970774
O O6 0.421396 0.838690 0.132995
O O7 0.694281 0.921741 0.121601
O O8 0.080736 0.959275 0.366694
O O9 0.647633 0.014941 0.275566
O O10 0.000000 0.000000 0.000000
O O11 0.478273 0.598190 0.489608
#
# Coordination Sequence:
#
# PCOD8077090 Si02
#       5
#     4   4   4   4   4
#     4  11  25  49  72 102 145 186 236 303 360 430
#     4  12  28  47  74 106 137 187 248 303 371 432
#     4  10  22  39  69 106 149 195 236 289 356 438
#     4  11  25  45  75 103 152 190 242 301 362 432
#     4  10  22  42  68 107 144 193 239 288 360 436
#
# _framework density 24.486746
#
# number of rings (size 3 to 8) (size 9 to 14) (size 15 to 20)
#    0.000    1.200    2.000    2.400    8.400    2.400 
#    0.000    0.000    0.000    0.000    0.000    0.000 
#    0.000    0.000    0.000    0.000    0.000    0.000 
#
# Total GULP energy -247790.296297 kJ/mol
# GULP energy per Si atom -12389.514815 kJ/mol
# Density = 2.443101 g / cm^3
# Si number density = 24.486746 Si / 1000 Ang^3
#
#
#
# Elastic Constant Matrix: (Units=GPa)
#
#
# Indices 1 2 3 4 5 6 
#
# 1 111.9617 46.6570 33.1682 0.0000 -6.5142 0.0000
# 2 46.6570 166.3781 83.4428 0.0000 3.0558 0.0000
# 3 33.1682 83.4428 67.8958 0.0000 -12.6115 0.0000
# 4 0.0000 0.0000 0.0000 40.5210 0.0000 6.1652
# 5 -6.5142 3.0558 -12.6115 0.0000 31.1134 0.0000
# 6 0.0000 0.0000 0.0000 6.1652 0.0000 29.6873
#
#
#
# Elastic Compliance Matrix: (Units=1/GPa)
#
#
# Indices 1 2 3 4 5 6 
#
# 1 0.010523 -0.001242 -0.003441 0.000000 0.000930 0.000000
# 2 -0.001242 0.019429 -0.025601 0.000000 -0.012545 0.000000
# 3 -0.003441 -0.025601 0.052131 0.000000 0.022925 0.000000
# 4 0.000000 0.000000 0.000000 0.025484 0.000000 -0.005292
# 5 0.000930 -0.012545 0.022925 0.000000 0.042860 0.000000
# 6 0.000000 0.000000 0.000000 -0.005292 0.000000 0.034784
#
#
# Mechanical properties :
#
#
# Convention : Reuss Voigt Hill
#
# Bulk Modulus (GPa) = 46.48181 74.75241 60.61711
# Shear Modulus (GPa) = 19.76674 32.46217 26.11446
#
# Velocity S-wave (km/s) = 2.84428 3.64497 3.26923
# Velocity P-wave (km/s) = 5.45988 6.95042 6.24975
#
# Compressibility (1/GPa) = 0.02151379
#
# Stress axis : x y z
#
# Youngs Moduli (GPa) = 95.03159 51.47009 19.18236
#
# Poissons Ratio (x) = 0.06393 0.06601
# Poissons Ratio (y) = 0.11804 0.49109
# Poissons Ratio (z) = 0.32703 1.31769
#
# Static dielectric constant tensor:
#      x y z
#    x 4.400400 0.000000 0.099800 
#    y 0.000000 4.899120 0.000000 
#    z 0.099800 0.000000 4.517180 
# 
# 
# High freq. dielectric constant tensor:
#      x y z
#    x 1.968100 0.000000 0.004490 
#    y 0.000000 1.977280 0.000000 
#    z 0.004490 0.000000 1.962410 
# 
# From -- ./inp_files/995.got.cif
#   From: 2010.06.25/outbox.cif.g09.slc.cpg/sg11_1_cif.got.tgz:995.got - 2010.06.27 23:14:04.
