data_PCOD8077658
_publ_section_title
;
Structure prediction by ZEFSAII (Michael W. Deem and Ramdas Pophale) SiO2 
 PCOD8077658
Probable space group: P 21/M
;
_chemical_formula_sum "Si O2"
_cell_formula_units_Z 28
_cell_length_a 29.727159
_cell_length_b 8.577036
_cell_length_c 10.077684
_cell_angle_alpha 90.000000
_cell_angle_beta 34.103378
_cell_angle_gamma 90.000000
_cell_volume 1440.696471
_symmetry_space_group_name_H-M "P 21/M"
_symmetry_group_IT_number 11
_symmetry_cell_setting 'monoclinic'
loop_
_space_group_symop_operation_xyz
x,y,z
-x,1/2+y,-z
-x,-y,-z
x,1/2-y,z
loop_
_atom_site_type_symbol
_atom_site_label
_atom_site_fract_x
_atom_site_fract_y
_atom_site_fract_z
Si Si1 0.238456 0.568288 0.915883
Si Si2 0.160852 0.431852 0.356790
Si Si3 0.997445 0.431926 0.152725
Si Si4 0.824939 0.571252 0.191218
Si Si5 0.426054 0.566915 0.838802
Si Si6 0.741322 0.067935 0.645491
Si Si7 0.588526 0.433489 0.423325
O O1 0.230757 0.750000 0.970944
O O2 0.208286 0.540308 0.841376
O O3 0.330951 0.511924 0.698774
O O4 0.184616 0.468977 0.148068
O O5 0.172301 0.250000 0.359622
O O6 0.215831 0.533120 0.320094
O O7 0.068365 0.478056 0.600541
O O8 0.976262 0.250000 0.196024
O O9 0.081280 0.462029 0.020410
O O10 0.000000 0.500000 0.000000
O O11 0.809236 0.750000 0.190946
O O12 0.779697 0.535920 0.438042
O O13 0.433736 0.750000 0.811307
O O14 0.509691 0.499130 0.691212
O O15 0.409184 0.499364 0.732427
O O16 0.352364 0.520691 0.114211
O O17 0.751909 0.250000 0.586594
O O18 0.582240 0.250000 0.438925
#
# Coordination Sequence:
#
# PCOD8077658 Si02
#       7
#     4   4   4   4   4   4   4
#     4  11  23  42  63  87 122 163 201 244 303 361
#     4  12  24  38  62  92 121 157 202 250 298 353
#     4  11  23  40  63  90 122 156 199 250 301 355
#     4  11  25  42  61  90 122 156 200 248 302 361
#     4   9  18  33  56  88 119 151 195 245 294 349
#     4  11  21  38  62  89 121 159 202 246 298 357
#     4   9  18  34  56  86 119 153 195 244 295 351
#
# _framework density 19.435044000000001
#
# number of rings (size 3 to 8) (size 9 to 14) (size 15 to 20)
#    0.000    1.429    2.857    3.000    0.000    4.571 
#    0.000    0.714    0.000    0.000    0.000    0.000 
#    0.000    0.000    0.000    0.000    0.000    0.000 
#
# Total GULP energy -347309.348465 kJ/mol
# GULP energy per Si atom -12403.905302 kJ/mol
# Density = 1.939081 g / cm^3
# Si number density = 19.435044 Si / 1000 Ang^3
#
#
#
# Elastic Constant Matrix: (Units=GPa)
#
#
# Indices 1 2 3 4 5 6 
#
# 1 81.8088 27.4753 29.7405 0.0000 -12.9331 0.0000
# 2 27.4753 53.2872 42.1612 0.0000 -15.6655 0.0000
# 3 29.7405 42.1612 101.1027 0.0000 -26.8755 0.0000
# 4 0.0000 0.0000 0.0000 33.2236 0.0000 -0.1953
# 5 -12.9331 -15.6655 -26.8755 0.0000 32.0682 0.0000
# 6 0.0000 0.0000 0.0000 -0.1953 0.0000 30.1414
#
#
#
# Elastic Compliance Matrix: (Units=1/GPa)
#
#
# Indices 1 2 3 4 5 6 
#
# 1 0.015085 -0.006125 -0.001366 0.000000 0.001947 0.000000
# 2 -0.006125 0.031134 -0.010030 0.000000 0.004333 0.000000
# 3 -0.001366 -0.010030 0.016760 0.000000 0.008596 0.000000
# 4 0.000000 0.000000 0.000000 0.030100 0.000000 0.000195
# 5 0.001947 0.004333 0.008596 0.000000 0.041290 0.000000
# 6 0.000000 0.000000 0.000000 0.000195 0.000000 0.033178
#
#
# Mechanical properties :
#
#
# Convention : Reuss Voigt Hill
#
# Bulk Modulus (GPa) = 35.79296 48.32809 42.06052
# Shear Modulus (GPa) = 23.59604 28.20810 25.90207
#
# Velocity S-wave (km/s) = 3.48817 3.81386 3.65465
# Velocity P-wave (km/s) = 5.88896 6.65691 6.28468
#
# Compressibility (1/GPa) = 0.02793846
#
# Stress axis : x y z
#
# Youngs Moduli (GPa) = 66.29111 32.11955 59.66556
#
# Poissons Ratio (x) = 0.19673 0.08148
# Poissons Ratio (y) = 0.40604 0.59842
# Poissons Ratio (z) = 0.09053 0.32214
#
# Static dielectric constant tensor:
#      x y z
#    x 3.437410 0.000000 -0.296900 
#    y 0.000000 3.498750 0.000000 
#    z -0.296900 0.000000 3.898090 
# 
# 
# High freq. dielectric constant tensor:
#      x y z
#    x 1.741480 0.000000 -0.018240 
#    y 0.000000 1.761080 0.000000 
#    z -0.018240 0.000000 1.766410 
# 
# From -- ./inp_files/28275.got.cif
#   From: 2010.06.25/outbox.cif.g09.slc.cpg/sg11_15_cif.got.tgz:28275.got - 2010.06.27 23:14:04.
