data_PCOD8077110
_publ_section_title
;
Structure prediction by ZEFSAII (Michael W. Deem and Ramdas Pophale) SiO2 
 PCOD8077110
Probable space group: P 21/M
;
_chemical_formula_sum "Si O2"
_cell_formula_units_Z 32
_cell_length_a 22.009576
_cell_length_b 8.785957
_cell_length_c 13.807072
_cell_angle_alpha 90.000000
_cell_angle_beta 36.664041
_cell_angle_gamma 90.000000
_cell_volume 1594.282540
_symmetry_space_group_name_H-M "P 21/M"
_symmetry_group_IT_number 11
_symmetry_cell_setting 'monoclinic'
loop_
_space_group_symop_operation_xyz
x,y,z
-x,1/2+y,-z
-x,-y,-z
x,1/2-y,z
loop_
_atom_site_type_symbol
_atom_site_label
_atom_site_fract_x
_atom_site_fract_y
_atom_site_fract_z
Si Si1 0.302456 0.571384 0.849047
Si Si2 0.224172 0.075074 0.287120
Si Si3 0.918840 0.930189 0.175986
Si Si4 0.076078 0.571317 0.621800
Si Si5 0.139255 0.423141 0.189668
Si Si6 0.289510 0.071037 0.659068
Si Si7 0.497046 0.068913 0.301675
Si Si8 0.439848 0.929699 0.988670
O O1 0.307425 0.750000 0.827681
O O2 0.273484 0.496697 0.785116
O O3 0.410736 0.508161 0.749223
O O4 0.216237 0.534404 0.037188
O O5 0.254855 0.250000 0.265470
O O6 0.149290 0.055835 0.291837
O O7 0.170385 0.012877 0.451718
O O8 0.323392 0.977242 0.140320
O O9 0.934226 0.750000 0.163249
O O10 0.805930 0.973483 0.285108
O O11 0.938553 0.006622 0.253106
O O12 0.000000 0.000000 0.000000
O O13 0.098294 0.750000 0.597251
O O14 0.975177 0.532522 0.690628
O O15 0.163976 0.250000 0.126574
O O16 0.299201 0.250000 0.658605
O O17 0.391287 0.003736 0.479016
O O18 0.497346 0.250000 0.300811
O O19 0.511154 0.009090 0.174100
O O20 0.447644 0.750000 0.985170
O O21 0.500000 0.000000 0.000000
#
# Coordination Sequence:
#
# PCOD8077110 Si02
#       8
#     4   4   4   4   4   4   4   4
#     4  11  21  36  61  92 122 156 200 253 308 363
#     4  11  23  41  64  92 124 162 207 252 307 372
#     4  11  24  42  64  89 122 163 206 252 307 371
#     4  11  24  41  63  91 124 160 205 260 311 363
#     4  10  22  40  62  89 123 163 204 250 306 370
#     4  10  22  40  61  85 118 161 202 248 305 364
#     4   9  20  39  61  87 121 158 198 248 303 359
#     4  11  23  41  64  92 127 166 205 251 307 365
#
# _framework density 20.071725000000001
#
# number of rings (size 3 to 8) (size 9 to 14) (size 15 to 20)
#    0.000    1.500    1.250    3.375    1.750    5.500 
#    0.000    1.875    0.000    0.000    0.000    0.000 
#    0.000    0.000    0.000    0.000    0.000    0.000 
#
# Total GULP energy -396967.841636 kJ/mol
# GULP energy per Si atom -12405.245051 kJ/mol
# Density = 2.002604 g / cm^3
# Si number density = 20.071725 Si / 1000 Ang^3
#
#
#
# Elastic Constant Matrix: (Units=GPa)
#
#
# Indices 1 2 3 4 5 6 
#
# 1 100.3849 39.6367 16.3793 0.0000 9.3565 0.0000
# 2 39.6367 46.7532 26.2865 0.0000 -4.4626 0.0000
# 3 16.3793 26.2865 103.9430 0.0000 10.5788 0.0000
# 4 0.0000 0.0000 0.0000 33.6518 0.0000 0.6190
# 5 9.3565 -4.4626 10.5788 0.0000 35.4627 0.0000
# 6 0.0000 0.0000 0.0000 0.6190 0.0000 32.4543
#
#
#
# Elastic Compliance Matrix: (Units=1/GPa)
#
#
# Indices 1 2 3 4 5 6 
#
# 1 0.016538 -0.015882 0.002122 0.000000 -0.006995 0.000000
# 2 -0.015882 0.041142 -0.009133 0.000000 0.012092 0.000000
# 3 0.002122 -0.009133 0.012138 0.000000 -0.005330 0.000000
# 4 0.000000 0.000000 0.000000 0.029727 0.000000 -0.000567
# 5 -0.006995 0.012092 -0.005330 0.000000 0.033156 0.000000
# 6 0.000000 0.000000 0.000000 -0.000567 0.000000 0.030823
#
#
# Mechanical properties :
#
#
# Convention : Reuss Voigt Hill
#
# Bulk Modulus (GPa) = 41.60702 46.18733 43.89718
# Shear Modulus (GPa) = 23.00749 31.56565 27.28657
#
# Velocity S-wave (km/s) = 3.38932 3.96996 3.69108
# Velocity P-wave (km/s) = 6.00757 6.63891 6.33112
#
# Compressibility (1/GPa) = 0.02403440
#
# Stress axis : x y z
#
# Youngs Moduli (GPa) = 60.46582 24.30593 82.38390
#
# Poissons Ratio (x) = 0.38602 -0.17484
# Poissons Ratio (y) = 0.96031 0.75238
# Poissons Ratio (z) = -0.12832 0.22198
#
# Static dielectric constant tensor:
#      x y z
#    x 3.887080 0.000000 -0.109850 
#    y 0.000000 3.589430 0.000000 
#    z -0.109850 0.000000 3.834160 
# 
# 
# High freq. dielectric constant tensor:
#      x y z
#    x 1.798220 0.000000 0.001120 
#    y 0.000000 1.776830 0.000000 
#    z 0.001120 0.000000 1.795650 
# 
# From -- ./inp_files/55605.got.cif
#   From: 2010.06.25/outbox.cif.g09.slc.cpg/sg11_28_cif.got.tgz:55605.got - 2010.06.27 23:14:04.
