data_PCOD8077635
_publ_section_title
;
Structure prediction by ZEFSAII (Michael W. Deem and Ramdas Pophale) SiO2 
 PCOD8077635
Probable space group: P 21/M
;
_chemical_formula_sum "Si O2"
_cell_formula_units_Z 32
_cell_length_a 11.883046
_cell_length_b 8.564864
_cell_length_c 15.170329
_cell_angle_alpha 90.000000
_cell_angle_beta 90.129092
_cell_angle_gamma 90.000000
_cell_volume 1543.981693
_symmetry_space_group_name_H-M "P 21/M"
_symmetry_group_IT_number 11
_symmetry_cell_setting 'monoclinic'
loop_
_space_group_symop_operation_xyz
x,y,z
-x,1/2+y,-z
-x,-y,-z
x,1/2-y,z
loop_
_atom_site_type_symbol
_atom_site_label
_atom_site_fract_x
_atom_site_fract_y
_atom_site_fract_z
Si Si1 0.074110 0.426824 0.924813
Si Si2 0.423483 0.565154 0.578699
Si Si3 0.168794 0.934633 0.553999
Si Si4 0.048138 0.935648 0.377705
Si Si5 0.660267 0.435811 0.899866
Si Si6 0.690535 0.068349 0.093991
Si Si7 0.466437 0.067124 0.768552
Si Si8 0.127568 0.925838 0.198099
O O1 0.112986 0.250000 0.947873
O O2 0.176885 0.542006 0.908516
O O3 0.998113 0.427485 0.838340
O O4 0.000000 0.500000 0.000000
O O5 0.500000 0.500000 0.500000
O O6 0.424844 0.750000 0.571538
O O7 0.295216 0.500211 0.569567
O O8 0.472138 0.515588 0.673821
O O9 0.171391 0.750000 0.559484
O O10 0.121161 0.994669 0.460389
O O11 0.079675 0.998776 0.625067
O O12 0.039136 0.750000 0.374253
O O13 0.117333 0.003745 0.294392
O O14 0.663335 0.250000 0.905174
O O15 0.566122 0.496231 0.831903
O O16 0.779523 0.507000 0.864981
O O17 0.639016 0.494444 0.000366
O O18 0.664299 0.250000 0.109138
O O19 0.646208 0.971682 0.177633
O O20 0.476302 0.250000 0.751214
O O21 0.172082 0.750000 0.210401
#
# Coordination Sequence:
#
# PCOD8077635 Si02
#       8
#     4   4   4   4   4   4   4   4
#     4  11  21  36  57  86 122 159 201 243 297 362
#     4  11  25  44  64  90 123 160 200 250 305 362
#     4   9  20  38  59  84 116 150 189 237 297 356
#     4   9  18  34  61  88 112 147 191 241 292 352
#     4   9  19  37  62  88 119 160 205 253 305 359
#     4  11  22  40  63  88 124 162 201 256 310 360
#     4  11  24  41  65  92 118 159 209 252 303 366
#     4   9  18  33  57  86 114 150 196 243 294 353
#
# _framework density 20.725632999999998
#
# number of rings (size 3 to 8) (size 9 to 14) (size 15 to 20)
#    0.000    2.000    1.250    1.875    3.500    1.000 
#    0.000    2.500    0.000    0.000    0.000    0.000 
#    0.000    0.000    0.000    0.000    0.000    0.000 
#
# Total GULP energy -396656.761892 kJ/mol
# GULP energy per Si atom -12395.523809 kJ/mol
# Density = 2.067846 g / cm^3
# Si number density = 20.725633 Si / 1000 Ang^3
#
#
#
# Elastic Constant Matrix: (Units=GPa)
#
#
# Indices 1 2 3 4 5 6 
#
# 1 97.7965 15.2007 34.8162 0.0000 -2.1893 0.0000
# 2 15.2007 39.3027 20.3923 0.0000 2.9047 0.0000
# 3 34.8162 20.3923 132.5804 0.0000 -17.6452 0.0000
# 4 0.0000 0.0000 0.0000 28.8331 0.0000 -2.8471
# 5 -2.1893 2.9047 -17.6452 0.0000 30.9207 0.0000
# 6 0.0000 0.0000 0.0000 -2.8471 0.0000 29.6638
#
#
#
# Elastic Compliance Matrix: (Units=1/GPa)
#
#
# Indices 1 2 3 4 5 6 
#
# 1 0.011636 -0.003108 -0.002629 0.000000 -0.000384 0.000000
# 2 -0.003108 0.029352 -0.004431 0.000000 -0.005506 0.000000
# 3 -0.002629 -0.004431 0.009680 0.000000 0.005754 0.000000
# 4 0.000000 0.000000 0.000000 0.035014 0.000000 0.003361
# 5 -0.000384 -0.005506 0.005754 0.000000 0.036115 0.000000
# 6 0.000000 0.000000 0.000000 0.003361 0.000000 0.034034
#
#
# Mechanical properties :
#
#
# Convention : Reuss Voigt Hill
#
# Bulk Modulus (GPa) = 32.96855 45.61088 39.28972
# Shear Modulus (GPa) = 26.84184 31.16822 29.00503
#
# Velocity S-wave (km/s) = 3.60266 3.88216 3.74502
# Velocity P-wave (km/s) = 5.76604 6.49227 6.13990
#
# Compressibility (1/GPa) = 0.03033193
#
# Stress axis : x y z
#
# Youngs Moduli (GPa) = 85.94315 34.06960 103.30240
#
# Poissons Ratio (x) = 0.10588 0.27155
# Poissons Ratio (y) = 0.26710 0.45776
# Poissons Ratio (z) = 0.22592 0.15097
#
# Static dielectric constant tensor:
#      x y z
#    x 4.414100 0.000000 -0.092370 
#    y 0.000000 3.488020 0.000000 
#    z -0.092370 0.000000 4.074740 
# 
# 
# High freq. dielectric constant tensor:
#      x y z
#    x 1.817000 0.000000 -0.004640 
#    y 0.000000 1.781790 0.000000 
#    z -0.004640 0.000000 1.823210 
# 
# From -- ./inp_files/49352.got.cif
#   From: 2010.06.25/outbox.cif.g09.slc.cpg/sg11_25_cif.got.tgz:49352.got - 2010.06.27 23:14:04.
