data_PCOD8077616
_publ_section_title
;
Structure prediction by ZEFSAII (Michael W. Deem and Ramdas Pophale) SiO2 
 PCOD8077616
Probable space group: P 21/M
;
_chemical_formula_sum "Si O2"
_cell_formula_units_Z 24
_cell_length_a 9.366944
_cell_length_b 8.797762
_cell_length_c 19.134443
_cell_angle_alpha 90.000000
_cell_angle_beta 61.021036
_cell_angle_gamma 90.000000
_cell_volume 1379.410611
_symmetry_space_group_name_H-M "P 21/M"
_symmetry_group_IT_number 11
_symmetry_cell_setting 'monoclinic'
loop_
_space_group_symop_operation_xyz
x,y,z
-x,1/2+y,-z
-x,-y,-z
x,1/2-y,z
loop_
_atom_site_type_symbol
_atom_site_label
_atom_site_fract_x
_atom_site_fract_y
_atom_site_fract_z
Si Si1 0.606602 0.922502 0.916079
Si Si2 0.410860 0.076744 0.233296
Si Si3 0.792351 0.929782 0.360920
Si Si4 0.836659 0.930829 0.507627
Si Si5 0.865286 0.429738 0.773241
Si Si6 0.519212 0.430038 0.648552
O O1 0.640477 0.750000 0.930368
O O2 0.511247 0.931157 0.863681
O O3 0.782812 0.006339 0.864545
O O4 0.500000 0.000000 0.000000
O O5 0.396514 0.250000 0.262692
O O6 0.229148 0.002823 0.271042
O O7 0.518109 0.979286 0.262475
O O8 0.783465 0.750000 0.365484
O O9 0.810826 0.992961 0.434920
O O10 0.627412 0.993122 0.364933
O O11 0.946306 0.980350 0.276893
O O12 0.848854 0.750000 0.506689
O O13 0.684772 0.986542 0.588791
O O14 0.000000 0.000000 0.500000
O O15 0.844921 0.250000 0.775128
O O16 0.538215 0.250000 0.638068
#
# Coordination Sequence:
#
# PCOD8077616 Si02
#       6
#     4   4   4   4   4   4
#     4   9  18  31  52  81 109 133 171 216 259 310
#     4   9  19  33  50  77 106 133 172 216 257 305
#     4   9  20  35  52  75 104 139 178 216 260 310
#     4  11  22  37  55  77 105 137 178 223 262 305
#     4   9  16  31  54  77 103 135 172 216 262 306
#     4  11  21  35  53  75 104 141 179 215 260 311
#
# _framework density 17.398734999999999
#
# number of rings (size 3 to 8) (size 9 to 14) (size 15 to 20)
#    1.000    1.333    0.000    3.500    0.000    1.333 
#    0.000    7.500    0.000    1.000    0.000    0.000 
#    0.000    0.000    0.000    0.000    0.000    0.000 
#
# Total GULP energy -297393.917321 kJ/mol
# GULP energy per Si atom -12391.413222 kJ/mol
# Density = 1.735913 g / cm^3
# Si number density = 17.398735 Si / 1000 Ang^3
#
#
#
# Elastic Constant Matrix: (Units=GPa)
#
#
# Indices 1 2 3 4 5 6 
#
# 1 126.7140 39.7842 51.1722 0.0000 3.9898 0.0000
# 2 39.7842 85.5551 36.3726 0.0000 0.4314 0.0000
# 3 51.1722 36.3726 103.5255 0.0000 0.0451 0.0000
# 4 0.0000 0.0000 0.0000 30.0455 0.0000 1.4470
# 5 3.9898 0.4314 0.0451 0.0000 15.1906 0.0000
# 6 0.0000 0.0000 0.0000 1.4470 0.0000 22.0241
#
#
#
# Elastic Compliance Matrix: (Units=1/GPa)
#
#
# Indices 1 2 3 4 5 6 
#
# 1 0.010648 -0.003175 -0.004147 0.000000 -0.002694 0.000000
# 2 -0.003175 0.014690 -0.003592 0.000000 0.000427 0.000000
# 3 -0.004147 -0.003592 0.012971 0.000000 0.001153 0.000000
# 4 0.000000 0.000000 0.000000 0.033388 0.000000 -0.002194
# 5 -0.002694 0.000427 0.001153 0.000000 0.066522 0.000000
# 6 0.000000 0.000000 0.000000 -0.002194 0.000000 0.045549
#
#
# Mechanical properties :
#
#
# Convention : Reuss Voigt Hill
#
# Bulk Modulus (GPa) = 60.67470 63.38364 62.02917
# Shear Modulus (GPa) = 23.68672 26.01641 24.85157
#
# Velocity S-wave (km/s) = 3.69372 3.87111 3.78346
# Velocity P-wave (km/s) = 7.28973 7.51597 7.40372
#
# Compressibility (1/GPa) = 0.01648133
#
# Stress axis : x y z
#
# Youngs Moduli (GPa) = 93.91398 68.07503 77.09770
#
# Poissons Ratio (x) = 0.21614 0.31969
# Poissons Ratio (y) = 0.29818 0.27692
# Poissons Ratio (z) = 0.38942 0.24452
#
# Static dielectric constant tensor:
#      x y z
#    x 3.253040 0.000000 0.062030 
#    y 0.000000 3.197270 0.000000 
#    z 0.062030 0.000000 3.207770 
# 
# 
# High freq. dielectric constant tensor:
#      x y z
#    x 1.652470 0.000000 0.004420 
#    y 0.000000 1.676790 0.000000 
#    z 0.004420 0.000000 1.665340 
# 
# From -- ./inp_files/27203.got.cif
#   From: 2010.06.25/outbox.cif.g09.slc.cpg/sg11_14_cif.got.tgz:27203.got - 2010.06.27 23:14:04.
