data_PCOD8077489
_publ_section_title
;
Structure prediction by ZEFSAII (Michael W. Deem and Ramdas Pophale) SiO2 
 PCOD8077489
Probable space group: P 21/M
;
_chemical_formula_sum "Si O2"
_cell_formula_units_Z 16
_cell_length_a 5.005470
_cell_length_b 22.328396
_cell_length_c 5.230710
_cell_angle_alpha 90.000000
_cell_angle_beta 86.129619
_cell_angle_gamma 90.000000
_cell_volume 583.272374
_symmetry_space_group_name_H-M "P 21/M"
_symmetry_group_IT_number 11
_symmetry_cell_setting 'monoclinic'
loop_
_space_group_symop_operation_xyz
x,y,z
-x,1/2+y,-z
-x,-y,-z
x,1/2-y,z
loop_
_atom_site_type_symbol
_atom_site_label
_atom_site_fract_x
_atom_site_fract_y
_atom_site_fract_z
Si Si1 0.599171 0.750000 0.230467
Si Si2 0.040788 0.151208 0.961688
Si Si3 0.235201 0.928768 0.373216
Si Si4 0.750354 0.250000 0.249290
Si Si5 0.698321 0.940069 0.706376
O O1 0.787608 0.691618 0.245944
O O2 0.375720 0.750000 0.462952
O O3 0.469857 0.750000 0.958438
O O4 0.778151 0.124787 0.833464
O O5 0.230001 0.097110 0.045666
O O6 0.936765 0.191118 0.206577
O O7 0.427726 0.912926 0.598818
O O8 0.931031 0.935944 0.482756
O O9 0.339408 0.989329 0.225201
#
# Coordination Sequence:
#
# PCOD8077489 Si02
#       5
#     2   4   4   2   4
#     4  11  30  51  77 116 156 210 276 332 396 468
#     4  11  27  46  80 110 161 205 266 324 402 469
#     4  10  24  45  76 117 157 202 259 321 398 481
#     4  11  30  51  77 116 156 210 276 332 396 468
#     4  10  24  45  76 117 157 202 259 321 398 481
#
# _framework density 27.431443000000002
#
# number of rings (size 3 to 8) (size 9 to 14) (size 15 to 20)
#    0.000    1.500    0.000    0.750   14.000    2.000 
#    0.000   11.250    0.000    4.500    0.000    0.000 
#    0.000    0.000    0.000    0.000    0.000    0.000 
#
# Total GULP energy -198509.385561 kJ/mol
# GULP energy per Si atom -12406.836598 kJ/mol
# Density = 2.736901 g / cm^3
# Si number density = 27.431443 Si / 1000 Ang^3
#
#
#
# Elastic Constant Matrix: (Units=GPa)
#
#
# Indices 1 2 3 4 5 6 
#
# 1 108.7665 28.6733 11.7635 0.0000 22.0005 0.0000
# 2 28.6733 104.6835 11.7833 0.0000 16.1142 0.0000
# 3 11.7635 11.7833 53.0800 0.0000 1.9552 0.0000
# 4 0.0000 0.0000 0.0000 21.9628 0.0000 10.3149
# 5 22.0005 16.1142 1.9552 0.0000 61.3457 0.0000
# 6 0.0000 0.0000 0.0000 10.3149 0.0000 22.4434
#
#
#
# Elastic Compliance Matrix: (Units=1/GPa)
#
#
# Indices 1 2 3 4 5 6 
#
# 1 0.010608 -0.002223 -0.001741 0.000000 -0.003165 0.000000
# 2 -0.002223 0.010664 -0.001803 0.000000 -0.001947 0.000000
# 3 -0.001741 -0.001803 0.019608 0.000000 0.000473 0.000000
# 4 0.000000 0.000000 0.000000 0.058065 0.000000 -0.026686
# 5 -0.003165 -0.001947 0.000473 0.000000 0.017932 0.000000
# 6 0.000000 0.000000 0.000000 -0.026686 0.000000 0.056821
#
#
# Mechanical properties :
#
#
# Convention : Reuss Voigt Hill
#
# Bulk Modulus (GPa) = 34.07460 41.21891 37.64675
# Shear Modulus (GPa) = 25.63905 35.43770 30.53838
#
# Velocity S-wave (km/s) = 3.06054 3.59815 3.34018
# Velocity P-wave (km/s) = 4.99378 5.68516 5.35065
#
# Compressibility (1/GPa) = 0.02934737
#
# Stress axis : x y z
#
# Youngs Moduli (GPa) = 94.26450 93.77376 50.99910
#
# Poissons Ratio (x) = 0.20841 0.08879
# Poissons Ratio (y) = 0.20950 0.09195
# Poissons Ratio (z) = 0.16412 0.16908
#
# Static dielectric constant tensor:
#      x y z
#    x 5.030450 0.000000 0.039790 
#    y 0.000000 5.436190 0.000000 
#    z 0.039790 0.000000 4.293120 
# 
# 
# High freq. dielectric constant tensor:
#      x y z
#    x 2.119280 0.000000 0.001050 
#    y 0.000000 2.122860 0.000000 
#    z 0.001050 0.000000 2.081710 
# 
# From -- ./inp_files/501.got.cif
#   From: 2010.06.25/outbox.cif.g09.slc.cpg/sg11_1_cif.got.tgz:501.got - 2010.06.27 23:14:04.
