data_PCOD8077341
_publ_section_title
;
Structure prediction by ZEFSAII (Michael W. Deem and Ramdas Pophale) SiO2 
 PCOD8077341
Probable space group: P 21/M
;
_chemical_formula_sum "Si O2"
_cell_formula_units_Z 28
_cell_length_a 15.027828
_cell_length_b 8.701836
_cell_length_c 10.987665
_cell_angle_alpha 90.000000
_cell_angle_beta 114.422623
_cell_angle_gamma 90.000000
_cell_volume 1308.284623
_symmetry_space_group_name_H-M "P 21/M"
_symmetry_group_IT_number 11
_symmetry_cell_setting 'monoclinic'
loop_
_space_group_symop_operation_xyz
x,y,z
-x,1/2+y,-z
-x,-y,-z
x,1/2-y,z
loop_
_atom_site_type_symbol
_atom_site_label
_atom_site_fract_x
_atom_site_fract_y
_atom_site_fract_z
Si Si1 0.423696 0.426335 0.546209
Si Si2 0.955124 0.568820 0.350464
Si Si3 0.736468 0.923272 0.729678
Si Si4 0.245407 0.927097 0.808623
Si Si5 0.446352 0.928676 0.812157
Si Si6 0.644420 0.424092 0.902225
Si Si7 0.956845 0.933698 0.849822
O O1 0.500000 0.500000 0.500000
O O2 0.451339 0.250000 0.593057
O O3 0.313963 0.433563 0.430351
O O4 0.428269 0.536968 0.662183
O O5 0.974701 0.750000 0.359614
O O6 0.839668 0.535006 0.289941
O O7 0.000000 0.500000 0.500000
O O8 0.994017 0.495217 0.246568
O O9 0.743736 0.750000 0.781642
O O10 0.844984 0.991823 0.781589
O O11 0.665879 0.009047 0.782817
O O12 0.225679 0.750000 0.758332
O O13 0.349186 0.991995 0.821735
O O14 0.256878 0.941366 0.961508
O O15 0.455763 0.750000 0.843456
O O16 0.548618 0.003265 0.913482
O O17 0.614962 0.250000 0.867287
O O18 0.967516 0.750000 0.855927
O O19 0.000000 0.000000 0.000000
#
# Coordination Sequence:
#
# PCOD8077341 Si02
#       7
#     4   4   4   4   4   4   4
#     4  11  22  38  59  88 123 162 208 257 312 372
#     4  12  27  47  71  99 133 176 223 279 340 399
#     4  10  23  40  62  90 126 165 207 258 316 379
#     4  10  24  44  65  93 127 166 212 264 318 381
#     4  11  23  39  61  90 128 167 209 258 311 376
#     4  11  22  38  63  94 129 167 209 257 311 376
#     4  11  24  45  71 102 135 173 223 278 336 399
#
# _framework density 21.402069999999998
#
# number of rings (size 3 to 8) (size 9 to 14) (size 15 to 20)
#    0.000    1.143    1.429    4.286    2.000    6.286 
#    0.000    0.000    0.000    0.000    0.000    0.000 
#    0.000    0.000    0.000    0.000    0.000    0.000 
#
# Total GULP energy -347097.982988 kJ/mol
# GULP energy per Si atom -12396.356535 kJ/mol
# Density = 2.135336 g / cm^3
# Si number density = 21.402070 Si / 1000 Ang^3
#
#
#
# Elastic Constant Matrix: (Units=GPa)
#
#
# Indices 1 2 3 4 5 6 
#
# 1 108.3787 39.8755 40.4814 0.0000 14.6496 0.0000
# 2 39.8755 72.9522 18.4437 0.0000 10.1078 0.0000
# 3 40.4814 18.4437 113.1136 0.0000 15.5417 0.0000
# 4 0.0000 0.0000 0.0000 35.1111 0.0000 5.0070
# 5 14.6496 10.1078 15.5417 0.0000 41.7982 0.0000
# 6 0.0000 0.0000 0.0000 5.0070 0.0000 28.1627
#
#
#
# Elastic Compliance Matrix: (Units=1/GPa)
#
#
# Indices 1 2 3 4 5 6 
#
# 1 0.012939 -0.005958 -0.003408 0.000000 -0.001827 0.000000
# 2 -0.005958 0.017342 -0.000428 0.000000 -0.001946 0.000000
# 3 -0.003408 -0.000428 0.010488 0.000000 -0.002602 0.000000
# 4 0.000000 0.000000 0.000000 0.029222 0.000000 -0.005195
# 5 -0.001827 -0.001946 -0.002602 0.000000 0.026003 0.000000
# 6 0.000000 0.000000 0.000000 -0.005195 0.000000 0.036432
#
#
# Mechanical properties :
#
#
# Convention : Reuss Voigt Hill
#
# Bulk Modulus (GPa) = 47.21277 54.67174 50.94226
# Shear Modulus (GPa) = 31.43219 34.05733 32.74476
#
# Velocity S-wave (km/s) = 3.83646 3.99345 3.91574
# Velocity P-wave (km/s) = 6.46006 6.84573 6.65569
#
# Compressibility (1/GPa) = 0.02118071
#
# Stress axis : x y z
#
# Youngs Moduli (GPa) = 77.28691 57.66375 95.35027
#
# Poissons Ratio (x) = 0.34353 0.32497
# Poissons Ratio (y) = 0.46044 0.04082
# Poissons Ratio (z) = 0.26341 0.02469
#
# Static dielectric constant tensor:
#      x y z
#    x 4.076930 0.000000 0.234330 
#    y 0.000000 3.648110 0.000000 
#    z 0.234330 0.000000 4.661800 
# 
# 
# High freq. dielectric constant tensor:
#      x y z
#    x 1.845480 0.000000 0.006240 
#    y 0.000000 1.838690 0.000000 
#    z 0.006240 0.000000 1.860090 
# 
# From -- ./inp_files/38442.got.cif
#   From: 2010.06.25/outbox.cif.g09.slc.cpg/sg11_20_cif.got.tgz:38442.got - 2010.06.27 23:14:04.
