data_PCOD8077612
_publ_section_title
;
Structure prediction by ZEFSAII (Michael W. Deem and Ramdas Pophale) SiO2 
 PCOD8077612
Probable space group: P 21/M
;
_chemical_formula_sum "Si O2"
_cell_formula_units_Z 28
_cell_length_a 11.111612
_cell_length_b 8.764101
_cell_length_c 16.021692
_cell_angle_alpha 90.000000
_cell_angle_beta 61.252245
_cell_angle_gamma 90.000000
_cell_volume 1367.938007
_symmetry_space_group_name_H-M "P 21/M"
_symmetry_group_IT_number 11
_symmetry_cell_setting 'monoclinic'
loop_
_space_group_symop_operation_xyz
x,y,z
-x,1/2+y,-z
-x,-y,-z
x,1/2-y,z
loop_
_atom_site_type_symbol
_atom_site_label
_atom_site_fract_x
_atom_site_fract_y
_atom_site_fract_z
Si Si1 0.319177 0.572573 0.419630
Si Si2 0.901317 0.070473 0.964362
Si Si3 0.089172 0.428536 0.214570
Si Si4 0.158511 0.069911 0.615783
Si Si5 0.331286 0.924661 0.222307
Si Si6 0.624954 0.930960 0.320494
Si Si7 0.353406 0.428396 0.873074
O O1 0.303036 0.750000 0.448244
O O2 0.208524 0.474103 0.506953
O O3 0.292151 0.545100 0.331254
O O4 0.471390 0.510685 0.392316
O O5 0.917554 0.250000 0.961074
O O6 0.948377 0.012225 0.858600
O O7 0.744218 0.022797 0.033158
O O8 0.000000 0.000000 0.000000
O O9 0.073741 0.250000 0.206155
O O10 0.243252 0.466231 0.192407
O O11 0.985305 0.487638 0.319985
O O12 0.138130 0.250000 0.629449
O O13 0.269824 0.007714 0.645610
O O14 0.298870 0.750000 0.209641
O O15 0.490449 0.961516 0.152685
O O16 0.618219 0.750000 0.320186
O O17 0.672014 0.986734 0.213168
O O18 0.318431 0.250000 0.893014
#
# Coordination Sequence:
#
# PCOD8077612 Si02
#       7
#     4   4   4   4   4   4   4
#     4   9  18  35  58  84 115 151 192 236 286 345
#     4  12  25  42  64  91 122 153 189 233 285 345
#     4  12  26  42  60  83 114 153 197 245 293 345
#     4  11  21  34  55  84 118 155 194 239 294 348
#     4   9  20  40  63  86 115 153 197 244 291 342
#     4   8  16  32  56  85 116 150 187 233 286 342
#     4   9  18  37  64  89 116 153 195 240 292 344
#
# _framework density 20.468762999999999
#
# number of rings (size 3 to 8) (size 9 to 14) (size 15 to 20)
#    0.000    2.000    0.000    6.000    0.000    3.429 
#    0.000    3.571    0.000    0.000    0.000    0.000 
#    0.000    0.000    0.000    0.000    0.000    0.000 
#
# Total GULP energy -347308.805777 kJ/mol
# GULP energy per Si atom -12403.885921 kJ/mol
# Density = 2.042218 g / cm^3
# Si number density = 20.468763 Si / 1000 Ang^3
#
#
#
# Elastic Constant Matrix: (Units=GPa)
#
#
# Indices 1 2 3 4 5 6 
#
# 1 91.4536 42.6912 25.6829 0.0000 -1.9481 0.0000
# 2 42.6912 112.2380 38.0954 0.0000 -4.6011 0.0000
# 3 25.6829 38.0954 86.2899 0.0000 -18.8958 0.0000
# 4 0.0000 0.0000 0.0000 33.9452 0.0000 -0.7838
# 5 -1.9481 -4.6011 -18.8958 0.0000 27.6796 0.0000
# 6 0.0000 0.0000 0.0000 -0.7838 0.0000 30.9038
#
#
#
# Elastic Compliance Matrix: (Units=1/GPa)
#
#
# Indices 1 2 3 4 5 6 
#
# 1 0.013652 -0.004430 -0.002420 0.000000 -0.001428 0.000000
# 2 -0.004430 0.011983 -0.004237 0.000000 -0.001213 0.000000
# 3 -0.002420 -0.004237 0.016447 0.000000 0.010353 0.000000
# 4 0.000000 0.000000 0.000000 0.029477 0.000000 0.000748
# 5 -0.001428 -0.001213 0.010353 0.000000 0.042893 0.000000
# 6 0.000000 0.000000 0.000000 0.000748 0.000000 0.032377
#
#
# Mechanical properties :
#
#
# Convention : Reuss Voigt Hill
#
# Bulk Modulus (GPa) = 50.23331 55.88005 53.05668
# Shear Modulus (GPa) = 28.46747 30.73985 29.60366
#
# Velocity S-wave (km/s) = 3.73336 3.87950 3.80713
# Velocity P-wave (km/s) = 6.57105 6.88671 6.73073
#
# Compressibility (1/GPa) = 0.01990711
#
# Stress axis : x y z
#
# Youngs Moduli (GPa) = 73.25183 83.45133 60.80130
#
# Poissons Ratio (x) = 0.36966 0.14715
# Poissons Ratio (y) = 0.32448 0.25764
# Poissons Ratio (z) = 0.17729 0.35362
#
# Static dielectric constant tensor:
#      x y z
#    x 3.753090 0.000000 -0.054210 
#    y 0.000000 3.447940 0.000000 
#    z -0.054210 0.000000 3.726980 
# 
# 
# High freq. dielectric constant tensor:
#      x y z
#    x 1.803130 0.000000 -0.005800 
#    y 0.000000 1.781110 0.000000 
#    z -0.005800 0.000000 1.806230 
# 
# From -- ./inp_files/37654.got.cif
#   From: 2010.06.25/outbox.cif.g09.slc.cpg/sg11_19_cif.got.tgz:37654.got - 2010.06.27 23:14:04.
