data_PCOD8077849
_publ_section_title
;
Structure prediction by ZEFSAII (Michael W. Deem and Ramdas Pophale) SiO2 
 PCOD8077849
Probable space group: P 21/M
;
_chemical_formula_sum "Si O2"
_cell_formula_units_Z 20
_cell_length_a 5.174939
_cell_length_b 18.390759
_cell_length_c 8.578288
_cell_angle_alpha 90.000000
_cell_angle_beta 78.491302
_cell_angle_gamma 90.000000
_cell_volume 799.990443
_symmetry_space_group_name_H-M "P 21/M"
_symmetry_group_IT_number 11
_symmetry_cell_setting 'monoclinic'
loop_
_space_group_symop_operation_xyz
x,y,z
-x,1/2+y,-z
-x,-y,-z
x,1/2-y,z
loop_
_atom_site_type_symbol
_atom_site_label
_atom_site_fract_x
_atom_site_fract_y
_atom_site_fract_z
Si Si1 0.881233 0.455062 0.356368
Si Si2 0.298350 0.170072 0.281292
Si Si3 0.342560 0.933198 0.946546
Si Si4 0.525133 0.360970 0.561059
Si Si5 0.963308 0.109704 0.720437
O O1 0.821365 0.463012 0.179688
O O2 0.608320 0.440900 0.483711
O O3 0.063104 0.383333 0.363985
O O4 0.023073 0.532338 0.379517
O O5 0.197961 0.250000 0.236333
O O6 0.460912 0.131827 0.124187
O O7 0.482946 0.186704 0.410794
O O8 0.136953 0.900343 0.093322
O O9 0.500000 0.000000 0.000000
O O10 0.762099 0.336994 0.650071
O O11 0.258885 0.359926 0.695641
#
# Coordination Sequence:
#
# PCOD8077849 Si02
#       5
#     4   4   4   4   4
#     4  11  23  41  72 105 144 184 233 287 358 431
#     4  11  26  48  70  98 142 198 240 284 357 445
#     4  11  24  43  71 109 144 185 238 299 358 424
#     4  11  25  42  69 104 139 180 228 290 351 418
#     4  12  23  40  72 109 140 169 230 304 358 397
#
# _framework density 25.000298000000001
#
# number of rings (size 3 to 8) (size 9 to 14) (size 15 to 20)
#    0.000    0.800    4.000    3.000    5.600    3.200 
#    0.000    2.000    0.000    0.000    0.000    0.000 
#    0.000    0.000    0.000    0.000    0.000    0.000 
#
# Total GULP energy -247826.776581 kJ/mol
# GULP energy per Si atom -12391.338829 kJ/mol
# Density = 2.494340 g / cm^3
# Si number density = 25.000298 Si / 1000 Ang^3
#
#
#
# Elastic Constant Matrix: (Units=GPa)
#
#
# Indices 1 2 3 4 5 6 
#
# 1 149.9787 31.3602 43.6463 0.0000 -6.5215 0.0000
# 2 31.3602 131.1932 -5.9603 0.0000 -5.0281 0.0000
# 3 43.6463 -5.9603 87.4595 0.0000 -20.6783 0.0000
# 4 0.0000 0.0000 0.0000 2.1234 0.0000 -0.3969
# 5 -6.5215 -5.0281 -20.6783 0.0000 55.2461 0.0000
# 6 0.0000 0.0000 0.0000 -0.3969 0.0000 16.0620
#
#
#
# Elastic Compliance Matrix: (Units=1/GPa)
#
#
# Indices 1 2 3 4 5 6 
#
# 1 0.008433 -0.002259 -0.004581 0.000000 -0.000925 0.000000
# 2 -0.002259 0.008300 0.001984 0.000000 0.001231 0.000000
# 3 -0.004581 0.001984 0.015107 0.000000 0.005294 0.000000
# 4 0.000000 0.000000 0.000000 0.473135 0.000000 0.011691
# 5 -0.000925 0.001231 0.005294 0.000000 0.020085 0.000000
# 6 0.000000 0.000000 0.000000 0.011691 0.000000 0.062548
#
#
# Mechanical properties :
#
#
# Convention : Reuss Voigt Hill
#
# Bulk Modulus (GPa) = 45.19276 56.30264 50.74770
# Shear Modulus (GPa) = 8.26862 34.65864 21.46363
#
# Velocity S-wave (km/s) = 1.82060 3.72738 2.93326
# Velocity P-wave (km/s) = 4.74717 6.41048 5.64047
#
# Compressibility (1/GPa) = 0.02212744
#
# Stress axis : x y z
#
# Youngs Moduli (GPa) = 118.58179 120.48525 66.19449
#
# Poissons Ratio (x) = 0.27222 0.30324
# Poissons Ratio (y) = 0.26792 -0.13135
# Poissons Ratio (z) = 0.54323 -0.23908
#
# Static dielectric constant tensor:
#      x y z
#    x 4.661790 0.000000 0.022040 
#    y 0.000000 4.184240 0.000000 
#    z 0.022040 0.000000 4.694000 
# 
# 
# High freq. dielectric constant tensor:
#      x y z
#    x 2.009810 0.000000 -0.000540 
#    y 0.000000 1.955670 0.000000 
#    z -0.000540 0.000000 2.017900 
# 
# From -- ./inp_files/10058.got.cif
#   From: 2010.06.25/outbox.cif.g09.slc.cpg/sg11_6_cif.got.tgz:10058.got - 2010.06.27 23:14:04.
