data_PCOD8077863
_publ_section_title
;
Structure prediction by ZEFSAII (Michael W. Deem and Ramdas Pophale) SiO2 
 PCOD8077863
Probable space group: P 21/M
;
_chemical_formula_sum "Si O2"
_cell_formula_units_Z 22
_cell_length_a 6.807198
_cell_length_b 23.598365
_cell_length_c 9.677011
_cell_angle_alpha 90.000000
_cell_angle_beta 47.469622
_cell_angle_gamma 90.000000
_cell_volume 1145.542769
_symmetry_space_group_name_H-M "P 21/M"
_symmetry_group_IT_number 11
_symmetry_cell_setting 'monoclinic'
loop_
_space_group_symop_operation_xyz
x,y,z
-x,1/2+y,-z
-x,-y,-z
x,1/2-y,z
loop_
_atom_site_type_symbol
_atom_site_label
_atom_site_fract_x
_atom_site_fract_y
_atom_site_fract_z
Si Si1 0.466402 0.373745 0.809893
Si Si2 0.394263 0.372492 0.523934
Si Si3 0.991018 0.250000 0.167893
Si Si4 0.476514 0.250000 0.767453
Si Si5 0.000775 0.566132 0.474730
Si Si6 0.010559 0.128440 0.236438
Si Si7 0.426084 0.250000 0.476221
O O1 0.359006 0.377264 0.704667
O O2 0.577699 0.309347 0.787187
O O3 0.710151 0.416133 0.719900
O O4 0.220718 0.393686 0.022419
O O5 0.221725 0.420818 0.534072
O O6 0.277750 0.310368 0.527684
O O7 0.704308 0.382228 0.335164
O O8 0.055186 0.195724 0.233085
O O9 0.688330 0.250000 0.255595
O O10 0.157084 0.250000 0.946396
O O11 0.548859 0.250000 0.572973
O O12 0.924877 0.598566 0.650620
O O13 0.000000 0.500000 0.500000
#
# Coordination Sequence:
#
# PCOD8077863 Si02
#       7
#     4   4   2   2   4   4   2
#     4   9  19  36  57  79 105 137 171 215 271 322
#     4   9  19  35  55  78 105 133 169 215 266 318
#     4   8  14  29  53  79 104 128 162 211 267 325
#     4   8  14  29  53  79 104 128 162 211 267 325
#     4  11  24  37  50  76 110 143 186 227 252 294
#     4   9  19  36  57  79 105 137 171 215 271 322
#     4   8  14  28  52  78 100 128 162 206 264 322
#
# _framework density 19.204871000000001
#
# number of rings (size 3 to 8) (size 9 to 14) (size 15 to 20)
#    0.000    2.909    0.000    1.091    0.000    6.545 
#    0.000    1.818    0.000    6.545    0.000    0.000 
#    0.000    0.000    0.000    0.000    0.000    0.000 
#
# Total GULP energy -272548.271873 kJ/mol
# GULP energy per Si atom -12388.557812 kJ/mol
# Density = 1.916116 g / cm^3
# Si number density = 19.204871 Si / 1000 Ang^3
#
#
#
# Elastic Constant Matrix: (Units=GPa)
#
#
# Indices 1 2 3 4 5 6 
#
# 1 79.6621 40.9022 40.0495 0.0000 -2.8773 0.0000
# 2 40.9022 91.9983 32.5870 0.0000 -0.5968 0.0000
# 3 40.0495 32.5870 140.6972 0.0000 -9.4749 0.0000
# 4 0.0000 0.0000 0.0000 21.9217 0.0000 -1.3271
# 5 -2.8773 -0.5968 -9.4749 0.0000 13.2311 0.0000
# 6 0.0000 0.0000 0.0000 -1.3271 0.0000 29.2305
#
#
#
# Elastic Compliance Matrix: (Units=1/GPa)
#
#
# Indices 1 2 3 4 5 6 
#
# 1 0.017740 -0.006664 -0.003432 0.000000 0.001099 0.000000
# 2 -0.006664 0.014373 -0.001561 0.000000 -0.001919 0.000000
# 3 -0.003432 -0.001561 0.008816 0.000000 0.005497 0.000000
# 4 0.000000 0.000000 0.000000 0.045743 0.000000 0.002077
# 5 0.001099 -0.001919 0.005497 0.000000 0.079668 0.000000
# 6 0.000000 0.000000 0.000000 0.002077 0.000000 0.034305
#
#
# Mechanical properties :
#
#
# Convention : Reuss Voigt Hill
#
# Bulk Modulus (GPa) = 56.77281 59.93723 58.35502
# Shear Modulus (GPa) = 21.75505 26.13125 23.94315
#
# Velocity S-wave (km/s) = 3.36934 3.69271 3.53473
# Velocity P-wave (km/s) = 6.69048 7.03268 6.86371
#
# Compressibility (1/GPa) = 0.01761407
#
# Stress axis : x y z
#
# Youngs Moduli (GPa) = 56.36994 69.57365 113.42796
#
# Poissons Ratio (x) = 0.46366 0.38930
# Poissons Ratio (y) = 0.37567 0.17709
# Poissons Ratio (z) = 0.19347 0.10862
#
# Static dielectric constant tensor:
#      x y z
#    x 2.994120 0.000000 -0.116990 
#    y 0.000000 3.608310 0.000000 
#    z -0.116990 0.000000 3.712340 
# 
# 
# High freq. dielectric constant tensor:
#      x y z
#    x 1.698370 0.000000 -0.009310 
#    y 0.000000 1.745590 0.000000 
#    z -0.009310 0.000000 1.761630 
# 
# From -- ./inp_files/2890.got.cif
#   From: 2010.06.25/outbox.cif.g09.slc.cpg/sg11_2_cif.got.tgz:2890.got - 2010.06.27 23:14:04.
