data_PCOD8077871
_publ_section_title
;
Structure prediction by ZEFSAII (Michael W. Deem and Ramdas Pophale) SiO2 
 PCOD8077871
Probable space group: P 21/M
;
_chemical_formula_sum "Si O2"
_cell_formula_units_Z 28
_cell_length_a 11.349506
_cell_length_b 8.813469
_cell_length_c 13.784711
_cell_angle_alpha 90.000000
_cell_angle_beta 69.368485
_cell_angle_gamma 90.000000
_cell_volume 1290.431968
_symmetry_space_group_name_H-M "P 21/M"
_symmetry_group_IT_number 11
_symmetry_cell_setting 'monoclinic'
loop_
_space_group_symop_operation_xyz
x,y,z
-x,1/2+y,-z
-x,-y,-z
x,1/2-y,z
loop_
_atom_site_type_symbol
_atom_site_label
_atom_site_fract_x
_atom_site_fract_y
_atom_site_fract_z
Si Si1 0.822396 0.571148 0.291278
Si Si2 0.985900 0.578549 0.895945
Si Si3 0.248258 0.419459 0.157706
Si Si4 0.399230 0.927307 0.732719
Si Si5 0.663016 0.424014 0.677066
Si Si6 0.891136 0.425379 0.469538
Si Si7 0.748960 0.427310 0.032708
O O1 0.833887 0.750000 0.286375
O O2 0.676710 0.517822 0.328496
O O3 0.886406 0.509870 0.369130
O O4 0.886933 0.503440 0.175499
O O5 0.015945 0.750000 0.922989
O O6 0.900527 0.585278 0.822626
O O7 0.897740 0.485509 0.002216
O O8 0.302324 0.250000 0.160214
O O9 0.271025 0.523268 0.243503
O O10 0.313759 0.491784 0.042776
O O11 0.385735 0.750000 0.715439
O O12 0.340363 0.972784 0.853361
O O13 0.543640 0.973507 0.687460
O O14 0.621505 0.250000 0.700826
O O15 0.758708 0.446014 0.561494
O O16 0.923600 0.250000 0.443074
O O17 0.000000 0.500000 0.500000
O O18 0.752798 0.250000 0.012895
#
# Coordination Sequence:
#
# PCOD8077871 Si02
#       7
#     4   4   4   4   4   4   4
#     4  12  25  41  65  93 127 167 209 260 314 374
#     4   9  19  36  61  90 123 162 206 258 312 364
#     4   9  19  35  60  90 123 163 205 257 314 363
#     4  11  25  43  63  89 126 171 214 257 309 373
#     4  11  24  41  64  92 126 165 209 260 312 373
#     4  11  25  45  71 100 127 159 203 258 317 374
#     4   9  19  37  61  91 124 164 213 260 311 369
#
# _framework density 21.698160999999999
#
# number of rings (size 3 to 8) (size 9 to 14) (size 15 to 20)
#    0.857    0.857    0.000    4.286    0.000    8.571 
#    0.000    0.000    0.000    0.000    0.000    0.000 
#    0.000    0.000    0.000    0.000    0.000    0.000 
#
# Total GULP energy -347236.340966 kJ/mol
# GULP energy per Si atom -12401.297892 kJ/mol
# Density = 2.164877 g / cm^3
# Si number density = 21.698161 Si / 1000 Ang^3
#
#
#
# Elastic Constant Matrix: (Units=GPa)
#
#
# Indices 1 2 3 4 5 6 
#
# 1 71.2299 34.6529 28.5472 0.0000 -7.2943 0.0000
# 2 34.6529 150.9253 54.8424 0.0000 -7.0974 0.0000
# 3 28.5472 54.8424 81.7488 0.0000 1.6990 0.0000
# 4 0.0000 0.0000 0.0000 34.0340 0.0000 3.5951
# 5 -7.2943 -7.0974 1.6990 0.0000 29.4786 0.0000
# 6 0.0000 0.0000 0.0000 3.5951 0.0000 39.9712
#
#
#
# Elastic Compliance Matrix: (Units=1/GPa)
#
#
# Indices 1 2 3 4 5 6 
#
# 1 0.017371 -0.002065 -0.004765 0.000000 0.004076 0.000000
# 2 -0.002065 0.009188 -0.005484 0.000000 0.002017 0.000000
# 3 -0.004765 -0.005484 0.017649 0.000000 -0.003517 0.000000
# 4 0.000000 0.000000 0.000000 0.029664 0.000000 -0.002668
# 5 0.004076 0.002017 -0.003517 0.000000 0.035620 0.000000
# 6 0.000000 0.000000 0.000000 -0.002668 0.000000 0.025258
#
#
# Mechanical properties :
#
#
# Convention : Reuss Voigt Hill
#
# Bulk Modulus (GPa) = 51.07805 59.99877 55.53841
# Shear Modulus (GPa) = 30.13763 33.08754 31.61258
#
# Velocity S-wave (km/s) = 3.73090 3.90923 3.82111
# Velocity P-wave (km/s) = 6.49237 6.93453 6.71709
#
# Compressibility (1/GPa) = 0.01957788
#
# Stress axis : x y z
#
# Youngs Moduli (GPa) = 57.56747 108.84072 56.66014
#
# Poissons Ratio (x) = 0.22477 0.27000
# Poissons Ratio (y) = 0.11889 0.31075
# Poissons Ratio (z) = 0.27433 0.59693
#
# Static dielectric constant tensor:
#      x y z
#    x 3.915600 0.000000 0.096070 
#    y 0.000000 3.941610 0.000000 
#    z 0.096070 0.000000 3.857460 
# 
# 
# High freq. dielectric constant tensor:
#      x y z
#    x 1.861450 0.000000 0.011880 
#    y 0.000000 1.863950 0.000000 
#    z 0.011880 0.000000 1.850850 
# 
# From -- ./inp_files/49128.got.cif
#   From: 2010.06.25/outbox.cif.g09.slc.cpg/sg11_25_cif.got.tgz:49128.got - 2010.06.27 23:14:04.
