data_PCOD8077319
_publ_section_title
;
Structure prediction by ZEFSAII (Michael W. Deem and Ramdas Pophale) SiO2 
 PCOD8077319
Probable space group: P 21/M
;
_chemical_formula_sum "Si O2"
_cell_formula_units_Z 22
_cell_length_a 6.188651
_cell_length_b 21.774184
_cell_length_c 10.917452
_cell_angle_alpha 90.000000
_cell_angle_beta 139.007573
_cell_angle_gamma 90.000000
_cell_volume 965.019404
_symmetry_space_group_name_H-M "P 21/M"
_symmetry_group_IT_number 11
_symmetry_cell_setting 'monoclinic'
loop_
_space_group_symop_operation_xyz
x,y,z
-x,1/2+y,-z
-x,-y,-z
x,1/2-y,z
loop_
_atom_site_type_symbol
_atom_site_label
_atom_site_fract_x
_atom_site_fract_y
_atom_site_fract_z
Si Si1 0.672990 0.250000 0.534761
Si Si2 0.659763 0.127981 0.880067
Si Si3 0.552728 0.750000 0.093795
Si Si4 0.844468 0.549145 0.022438
Si Si5 0.167405 0.552494 0.816265
Si Si6 0.291786 0.750000 0.723659
Si Si7 0.751201 0.850810 0.519243
O O1 0.536733 0.250000 0.336639
O O2 0.543788 0.311139 0.547312
O O3 0.070105 0.250000 0.700104
O O4 0.660598 0.194353 0.942907
O O5 0.346449 0.123560 0.655822
O O6 0.980549 0.114787 0.929556
O O7 0.648291 0.078926 0.983687
O O8 0.556003 0.750000 0.947155
O O9 0.917066 0.519056 0.188882
O O10 0.450410 0.556923 0.832719
O O11 0.000000 0.500000 0.000000
O O12 0.841062 0.590379 0.641904
O O13 0.075146 0.810597 0.644654
#
# Coordination Sequence:
#
# PCOD8077319 Si02
#       7
#     2   4   2   4   4   2   4
#     4  11  26  43  62  98 138 172 218 275 325 397
#     4  11  23  42  67  99 134 172 216 273 331 390
#     4  12  23  44  64  93 137 173 215 270 330 393
#     4   9  22  44  69  96 132 175 222 270 324 391
#     4  10  22  45  66  96 134 172 221 273 327 389
#     4  11  23  43  60  91 131 175 217 275 329 396
#     4  11  24  41  65 100 130 168 226 269 331 398
#
# _framework density 22.797470000000001
#
# number of rings (size 3 to 8) (size 9 to 14) (size 15 to 20)
#    0.000    1.455    3.636    0.545    2.545    5.091 
#    0.000    9.091    0.000    0.000    0.000    0.000 
#    0.000    0.000    0.000    0.000    0.000    0.000 
#
# Total GULP energy -272560.862401 kJ/mol
# GULP energy per Si atom -12389.130109 kJ/mol
# Density = 2.274558 g / cm^3
# Si number density = 22.797470 Si / 1000 Ang^3
#
#
#
# Elastic Constant Matrix: (Units=GPa)
#
#
# Indices 1 2 3 4 5 6 
#
# 1 99.9522 35.9121 33.4388 0.0000 0.2273 0.0000
# 2 35.9121 61.8824 24.2833 0.0000 -0.2509 0.0000
# 3 33.4388 24.2833 98.5526 0.0000 -25.4753 0.0000
# 4 0.0000 0.0000 0.0000 26.4227 0.0000 4.9020
# 5 0.2273 -0.2509 -25.4753 0.0000 42.1039 0.0000
# 6 0.0000 0.0000 0.0000 4.9020 0.0000 32.3459
#
#
#
# Elastic Compliance Matrix: (Units=1/GPa)
#
#
# Indices 1 2 3 4 5 6 
#
# 1 0.013529 -0.006451 -0.003591 0.000000 -0.002285 0.000000
# 2 -0.006451 0.021299 -0.003577 0.000000 -0.002002 0.000000
# 3 -0.003591 -0.003577 0.014517 0.000000 0.008782 0.000000
# 4 0.000000 0.000000 0.000000 0.038941 0.000000 -0.005902
# 5 -0.002285 -0.002002 0.008782 0.000000 0.029064 0.000000
# 6 0.000000 0.000000 0.000000 -0.005902 0.000000 0.031810
#
#
# Mechanical properties :
#
#
# Convention : Reuss Voigt Hill
#
# Bulk Modulus (GPa) = 45.23650 49.73951 47.48800
# Shear Modulus (GPa) = 27.20810 31.29138 29.24974
#
# Velocity S-wave (km/s) = 3.45841 3.70886 3.58582
# Velocity P-wave (km/s) = 5.98609 6.34083 6.16602
#
# Compressibility (1/GPa) = 0.02210604
#
# Stress axis : x y z
#
# Youngs Moduli (GPa) = 73.91287 46.95047 68.88613
#
# Poissons Ratio (x) = 0.30290 0.24740
# Poissons Ratio (y) = 0.47685 0.24638
# Poissons Ratio (z) = 0.26545 0.16793
#
# Static dielectric constant tensor:
#      x y z
#    x 4.534250 0.000000 -0.073790 
#    y 0.000000 4.650970 0.000000 
#    z -0.073790 0.000000 3.921090 
# 
# 
# High freq. dielectric constant tensor:
#      x y z
#    x 1.906140 0.000000 -0.004100 
#    y 0.000000 1.906420 0.000000 
#    z -0.004100 0.000000 1.874050 
# 
# From -- ./inp_files/30230.got.cif
#   From: 2010.06.25/outbox.cif.g09.slc.cpg/sg11_16_cif.got.tgz:30230.got - 2010.06.27 23:14:04.
