data_PCOD8077982
_publ_section_title
;
Structure prediction by ZEFSAII (Michael W. Deem and Ramdas Pophale) SiO2 
 PCOD8077982
Probable space group: P 21/M
;
_chemical_formula_sum "Si O2"
_cell_formula_units_Z 24
_cell_length_a 19.006468
_cell_length_b 9.406999
_cell_length_c 9.000763
_cell_angle_alpha 90.000000
_cell_angle_beta 118.265829
_cell_angle_gamma 90.000000
_cell_volume 1417.390106
_symmetry_space_group_name_H-M "P 21/M"
_symmetry_group_IT_number 11
_symmetry_cell_setting 'monoclinic'
loop_
_space_group_symop_operation_xyz
x,y,z
-x,1/2+y,-z
-x,-y,-z
x,1/2-y,z
loop_
_atom_site_type_symbol
_atom_site_label
_atom_site_fract_x
_atom_site_fract_y
_atom_site_fract_z
Si Si1 0.427610 0.414207 0.358845
Si Si2 0.660102 0.086194 0.512866
Si Si3 0.839898 0.413806 0.692662
Si Si4 0.983868 0.088406 0.629288
Si Si5 0.927610 0.585793 0.996375
Si Si6 0.483868 0.911594 0.838448
O O1 0.500000 0.500000 0.500000
O O2 0.428779 0.250000 0.410392
O O3 0.348772 0.491236 0.345484
O O4 0.438425 0.425594 0.191488
O O5 0.642084 0.250000 0.536522
O O6 0.750000 0.066897 0.541871
O O7 0.597250 0.034696 0.324588
O O8 0.857916 0.250000 0.752353
O O9 0.902750 0.465304 0.630088
O O10 0.848772 0.508764 0.852059
O O11 0.971388 0.250000 0.567005
O O12 0.000000 0.000000 0.500000
O O13 0.061574 0.074406 0.814637
O O14 0.928779 0.750000 0.947166
O O15 0.000000 0.500000 0.000000
O O16 0.471388 0.750000 0.875771
O O17 0.500000 0.000000 0.000000
#
# Coordination Sequence:
#
# PCOD8077982 Si02
#       6
#     4   4   4   4   4   4
#     4   9  17  30  48  70  94 121 156 194 232 278
#     4   9  18  33  51  71  95 123 159 203 246 286
#     4   9  18  33  51  71  95 123 159 203 246 286
#     4   9  18  31  48  70  96 126 158 194 235 283
#     4   9  17  30  48  70  94 121 156 194 232 278
#     4   9  18  31  48  70  96 126 158 194 235 283
#
# _framework density 16.932528999999999
#
# number of rings (size 3 to 8) (size 9 to 14) (size 15 to 20)
#    0.000    3.000    0.000    3.000    0.000    7.333 
#    0.000    1.667    0.000    6.000    0.000    0.000 
#    0.000    0.000    0.000    0.000    0.000    0.000 
#
# Total GULP energy -297358.744947 kJ/mol
# GULP energy per Si atom -12389.947706 kJ/mol
# Density = 1.689399 g / cm^3
# Si number density = 16.932529 Si / 1000 Ang^3
#
#
#
# Elastic Constant Matrix: (Units=GPa)
#
#
# Indices 1 2 3 4 5 6 
#
# 1 89.0639 41.7506 53.4870 0.0000 -1.5189 0.0000
# 2 41.7506 93.2660 57.0255 0.0000 -10.9405 0.0000
# 3 53.4870 57.0255 101.1769 0.0000 -7.1569 0.0000
# 4 0.0000 0.0000 0.0000 34.4708 0.0000 -5.1081
# 5 -1.5189 -10.9405 -7.1569 0.0000 22.8870 0.0000
# 6 0.0000 0.0000 0.0000 -5.1081 0.0000 27.3389
#
#
#
# Elastic Compliance Matrix: (Units=1/GPa)
#
#
# Indices 1 2 3 4 5 6 
#
# 1 0.017243 -0.003596 -0.007291 0.000000 -0.002855 0.000000
# 2 -0.003596 0.017701 -0.007663 0.000000 0.005826 0.000000
# 3 -0.007291 -0.007663 0.018166 0.000000 0.001533 0.000000
# 4 0.000000 0.000000 0.000000 0.029836 0.000000 0.005575
# 5 -0.002855 0.005826 0.001533 0.000000 0.046768 0.000000
# 6 0.000000 0.000000 0.000000 0.005575 0.000000 0.037619
#
#
# Mechanical properties :
#
#
# Convention : Reuss Voigt Hill
#
# Bulk Modulus (GPa) = 62.46322 65.33701 63.90012
# Shear Modulus (GPa) = 23.83554 25.68892 24.76223
#
# Velocity S-wave (km/s) = 3.75597 3.89927 3.82829
# Velocity P-wave (km/s) = 7.46856 7.67742 7.57371
#
# Compressibility (1/GPa) = 0.01600942
#
# Stress axis : x y z
#
# Youngs Moduli (GPa) = 57.99321 56.49433 55.04891
#
# Poissons Ratio (x) = 0.20316 0.40135
# Poissons Ratio (y) = 0.20855 0.42186
# Poissons Ratio (z) = 0.42282 0.43294
#
# Static dielectric constant tensor:
#      x y z
#    x 3.499220 0.000000 0.141570 
#    y 0.000000 6.348010 0.000000 
#    z 0.141570 0.000000 3.301570 
# 
# 
# High freq. dielectric constant tensor:
#      x y z
#    x 1.634710 0.000000 0.000610 
#    y 0.000000 1.662330 0.000000 
#    z 0.000610 0.000000 1.633870 
# 
# From -- ./inp_files/13195.got.cif
#   From: 2010.06.25/outbox.cif.g09.slc.cpg/sg11_7_cif.got.tgz:13195.got - 2010.06.27 23:14:04.
