data_PCOD8077036
_publ_section_title
;
Structure prediction by ZEFSAII (Michael W. Deem and Ramdas Pophale) SiO2 
 PCOD8077036
Probable space group: P 21/M
;
_chemical_formula_sum "Si O2"
_cell_formula_units_Z 24
_cell_length_a 9.947535
_cell_length_b 8.770095
_cell_length_c 14.320185
_cell_angle_alpha 90.000000
_cell_angle_beta 79.266808
_cell_angle_gamma 90.000000
_cell_volume 1227.448286
_symmetry_space_group_name_H-M "P 21/M"
_symmetry_group_IT_number 11
_symmetry_cell_setting 'monoclinic'
loop_
_space_group_symop_operation_xyz
x,y,z
-x,1/2+y,-z
-x,-y,-z
x,1/2-y,z
loop_
_atom_site_type_symbol
_atom_site_label
_atom_site_fract_x
_atom_site_fract_y
_atom_site_fract_z
Si Si1 0.125781 0.569888 0.928539
Si Si2 0.777945 0.929517 0.762469
Si Si3 0.064788 0.427539 0.742140
Si Si4 0.648724 0.929506 0.978035
Si Si5 0.586435 0.929809 0.621502
Si Si6 0.323542 0.073263 0.591053
O O1 0.123378 0.750000 0.941395
O O2 0.113382 0.528079 0.822409
O O3 0.267044 0.503265 0.948655
O O4 0.000000 0.500000 0.000000
O O5 0.806210 0.750000 0.748845
O O6 0.721313 0.970906 0.871522
O O7 0.670174 0.990193 0.699876
O O8 0.917122 0.020143 0.726015
O O9 0.062202 0.250000 0.770764
O O10 0.169991 0.459954 0.644435
O O11 0.639480 0.750000 0.994400
O O12 0.500000 0.000000 0.000000
O O13 0.579520 0.750000 0.626855
O O14 0.660909 0.987470 0.517061
O O15 0.431810 0.991581 0.645433
O O16 0.359447 0.250000 0.590742
#
# Coordination Sequence:
#
# PCOD8077036 Si02
#       6
#     4   4   4   4   4   4
#     4  12  24  41  63  87 118 157 197 243 294 351
#     4  10  22  39  59  85 117 155 197 241 291 348
#     4  11  23  38  59  88 119 156 197 241 292 350
#     4  11  24  41  60  88 122 158 198 242 291 350
#     4   9  19  38  61  85 117 153 192 241 293 348
#     4   9  20  38  59  87 118 150 193 241 291 348
#
# _framework density 19.552758000000001
#
# number of rings (size 3 to 8) (size 9 to 14) (size 15 to 20)
#    0.000    1.667    1.667    2.500    2.333    3.333 
#    0.000    0.000    0.000    0.000    0.000    0.000 
#    0.000    0.000    0.000    0.000    0.000    0.000 
#
# Total GULP energy -297705.896950 kJ/mol
# GULP energy per Si atom -12404.412373 kJ/mol
# Density = 1.950826 g / cm^3
# Si number density = 19.552758 Si / 1000 Ang^3
#
#
#
# Elastic Constant Matrix: (Units=GPa)
#
#
# Indices 1 2 3 4 5 6 
#
# 1 132.9599 43.0861 26.1223 0.0000 1.0570 0.0000
# 2 43.0861 72.7228 24.0359 0.0000 -4.3527 0.0000
# 3 26.1223 24.0359 54.5156 0.0000 4.0811 0.0000
# 4 0.0000 0.0000 0.0000 25.1185 0.0000 0.2187
# 5 1.0570 -4.3527 4.0811 0.0000 40.9496 0.0000
# 6 0.0000 0.0000 0.0000 0.2187 0.0000 40.5036
#
#
#
# Elastic Compliance Matrix: (Units=1/GPa)
#
#
# Indices 1 2 3 4 5 6 
#
# 1 0.009590 -0.004926 -0.002383 0.000000 -0.000534 0.000000
# 2 -0.004926 0.018872 -0.006166 0.000000 0.002748 0.000000
# 3 -0.002383 -0.006166 0.022416 0.000000 -0.002828 0.000000
# 4 0.000000 0.000000 0.000000 0.039813 0.000000 -0.000215
# 5 -0.000534 0.002748 -0.002828 0.000000 0.025008 0.000000
# 6 0.000000 0.000000 0.000000 -0.000215 0.000000 0.024690
#
#
# Mechanical properties :
#
#
# Convention : Reuss Voigt Hill
#
# Bulk Modulus (GPa) = 41.79407 49.63190 45.71299
# Shear Modulus (GPa) = 28.52021 32.44462 30.48241
#
# Velocity S-wave (km/s) = 3.82334 4.07792 3.95268
# Velocity P-wave (km/s) = 6.39625 6.90009 6.65294
#
# Compressibility (1/GPa) = 0.02392684
#
# Stress axis : x y z
#
# Youngs Moduli (GPa) = 104.27731 52.98958 44.61169
#
# Poissons Ratio (x) = 0.26102 0.10633
# Poissons Ratio (y) = 0.51366 0.27507
# Poissons Ratio (z) = 0.24853 0.32673
#
# Static dielectric constant tensor:
#      x y z
#    x 3.698190 0.000000 0.112470 
#    y 0.000000 3.560590 0.000000 
#    z 0.112470 0.000000 3.927800 
# 
# 
# High freq. dielectric constant tensor:
#      x y z
#    x 1.772550 0.000000 0.001000 
#    y 0.000000 1.762780 0.000000 
#    z 0.001000 0.000000 1.763770 
# 
# From -- ./inp_files/46477.got.cif
#   From: 2010.06.25/outbox.cif.g09.slc.cpg/sg11_24_cif.got.tgz:46477.got - 2010.06.27 23:14:04.
