data_PCOD8077604
_publ_section_title
;
Structure prediction by ZEFSAII (Michael W. Deem and Ramdas Pophale) SiO2 
 PCOD8077604
Probable space group: P 21/M
;
_chemical_formula_sum "Si O2"
_cell_formula_units_Z 32
_cell_length_a 17.137657
_cell_length_b 8.878384
_cell_length_c 25.890592
_cell_angle_alpha 90.000000
_cell_angle_beta 153.932826
_cell_angle_gamma 90.000000
_cell_volume 1731.058387
_symmetry_space_group_name_H-M "P 21/M"
_symmetry_group_IT_number 11
_symmetry_cell_setting 'monoclinic'
loop_
_space_group_symop_operation_xyz
x,y,z
-x,1/2+y,-z
-x,-y,-z
x,1/2-y,z
loop_
_atom_site_type_symbol
_atom_site_label
_atom_site_fract_x
_atom_site_fract_y
_atom_site_fract_z
Si Si1 0.075639 0.920894 0.994240
Si Si2 0.231571 0.071872 0.822107
Si Si3 0.594771 0.928112 0.860359
Si Si4 0.562865 0.572132 0.326179
Si Si5 0.542520 0.572712 0.947038
Si Si6 0.691079 0.919832 0.753611
Si Si7 0.164863 0.926558 0.432197
Si Si8 0.447029 0.923726 0.520439
O O1 0.147130 0.750000 0.046082
O O2 0.892249 0.917521 0.853101
O O3 0.212124 0.021182 0.043935
O O4 0.000000 0.000000 0.000000
O O5 0.232226 0.250000 0.817709
O O6 0.034631 0.009504 0.692037
O O7 0.360689 0.005108 0.855881
O O8 0.297335 0.023960 0.918881
O O9 0.575967 0.750000 0.843550
O O10 0.582075 0.980362 0.912326
O O11 0.438779 0.007222 0.733489
O O12 0.581904 0.750000 0.336169
O O13 0.365523 0.522841 0.230452
O O14 0.725702 0.506684 0.456601
O O15 0.513097 0.750000 0.932297
O O16 0.626354 0.750000 0.728907
O O17 0.580773 0.991138 0.641803
O O18 0.167455 0.750000 0.446728
O O19 0.251211 0.956641 0.426914
O O20 0.480040 0.750000 0.531097
O O21 0.500000 0.000000 0.500000
#
# Coordination Sequence:
#
# PCOD8077604 Si02
#       8
#     4   4   4   4   4   4   4   4
#     4  11  21  33  52  77 105 141 184 225 266 315
#     4   9  18  37  63  85 107 139 181 224 275 333
#     4  11  22  36  54  78 114 150 181 222 275 330
#     4  11  21  33  53  79 106 139 184 227 264 317
#     4   9  20  37  58  85 113 143 176 221 279 331
#     4   9  19  35  51  68 101 143 178 215 269 320
#     4   9  19  36  57  78 106 144 180 218 274 331
#     4   9  18  32  49  72 103 139 175 216 261 311
#
# _framework density 18.485802
#
# number of rings (size 3 to 8) (size 9 to 14) (size 15 to 20)
#    0.000    2.250    1.250    2.625    0.000    5.000 
#    0.000    1.875    0.000    0.000    0.000    0.000 
#    0.000    0.000    0.000    0.000    0.000    0.000 
#
# Total GULP energy -396529.591602 kJ/mol
# GULP energy per Si atom -12391.549738 kJ/mol
# Density = 1.844373 g / cm^3
# Si number density = 18.485802 Si / 1000 Ang^3
#
#
#
# Elastic Constant Matrix: (Units=GPa)
#
#
# Indices 1 2 3 4 5 6 
#
# 1 135.6277 43.2758 65.4278 0.0000 -11.4726 0.0000
# 2 43.2758 69.6581 36.2245 0.0000 -5.9668 0.0000
# 3 65.4278 36.2245 115.0947 0.0000 5.6576 0.0000
# 4 0.0000 0.0000 0.0000 26.9631 0.0000 1.0314
# 5 -11.4726 -5.9668 5.6576 0.0000 23.7145 0.0000
# 6 0.0000 0.0000 0.0000 1.0314 0.0000 29.6203
#
#
#
# Elastic Compliance Matrix: (Units=1/GPa)
#
#
# Indices 1 2 3 4 5 6 
#
# 1 0.011973 -0.003832 -0.005907 0.000000 0.006237 0.000000
# 2 -0.003832 0.019181 -0.004052 0.000000 0.003939 0.000000
# 3 -0.005907 -0.004052 0.013673 0.000000 -0.007139 0.000000
# 4 0.000000 0.000000 0.000000 0.037137 0.000000 -0.001293
# 5 0.006237 0.003939 -0.007139 0.000000 0.047880 0.000000
# 6 0.000000 0.000000 0.000000 -0.001293 0.000000 0.033806
#
#
# Mechanical properties :
#
#
# Convention : Reuss Voigt Hill
#
# Bulk Modulus (GPa) = 57.98937 67.80408 62.89673
# Shear Modulus (GPa) = 25.38328 27.75641 26.56984
#
# Velocity S-wave (km/s) = 3.70959 3.87912 3.79530
# Velocity P-wave (km/s) = 7.05591 7.53804 7.30096
#
# Compressibility (1/GPa) = 0.01724454
#
# Stress axis : x y z
#
# Youngs Moduli (GPa) = 83.52151 52.13393 73.13948
#
# Poissons Ratio (x) = 0.19980 0.43201
# Poissons Ratio (y) = 0.32009 0.29637
# Poissons Ratio (z) = 0.49333 0.21125
#
# Static dielectric constant tensor:
#      x y z
#    x 2.649610 0.000000 -0.697920 
#    y 0.000000 3.321940 0.000000 
#    z -0.697920 0.000000 3.742440 
# 
# 
# High freq. dielectric constant tensor:
#      x y z
#    x 1.701310 0.000000 -0.007820 
#    y 0.000000 1.714200 0.000000 
#    z -0.007820 0.000000 1.726940 
# 
# From -- ./inp_files/69159.got.cif
#   From: 2010.06.25/outbox.cif.g09.slc.cpg/sg11_35_cif.got.tgz:69159.got - 2010.06.27 23:14:04.
