data_PCOD8077944
_publ_section_title
;
Structure prediction by ZEFSAII (Michael W. Deem and Ramdas Pophale) SiO2 
 PCOD8077944
Probable space group: P 21/M
;
_chemical_formula_sum "Si O2"
_cell_formula_units_Z 28
_cell_length_a 9.971679
_cell_length_b 9.172755
_cell_length_c 30.682955
_cell_angle_alpha 90.000000
_cell_angle_beta 144.122864
_cell_angle_gamma 90.000000
_cell_volume 1644.747524
_symmetry_space_group_name_H-M "P 21/M"
_symmetry_group_IT_number 11
_symmetry_cell_setting 'monoclinic'
loop_
_space_group_symop_operation_xyz
x,y,z
-x,1/2+y,-z
-x,-y,-z
x,1/2-y,z
loop_
_atom_site_type_symbol
_atom_site_label
_atom_site_fract_x
_atom_site_fract_y
_atom_site_fract_z
Si Si1 0.045086 0.579213 0.056656
Si Si2 0.842655 0.423665 0.776439
Si Si3 0.657107 0.920394 0.506751
Si Si4 0.252982 0.580943 0.343354
Si Si5 0.736854 0.920330 0.056339
Si Si6 0.968895 0.923700 0.351279
Si Si7 0.453003 0.923115 0.222826
O O1 0.052904 0.750000 0.049608
O O2 0.287970 0.524470 0.140184
O O3 0.844256 0.540387 0.037768
O O4 0.000000 0.500000 0.000000
O O5 0.827673 0.250000 0.770946
O O6 0.803245 0.493214 0.718061
O O7 0.644694 0.482366 0.756820
O O8 0.089997 0.471583 0.859879
O O9 0.682159 0.750000 0.524578
O O10 0.523513 0.941765 0.425575
O O11 0.500000 0.000000 0.500000
O O12 0.904251 0.999467 0.573967
O O13 0.194504 0.750000 0.324350
O O14 0.087998 0.519174 0.338047
O O15 0.691104 0.750000 0.048040
O O16 0.500000 0.000000 0.000000
O O17 0.988354 0.750000 0.361968
O O18 0.708919 0.980733 0.282460
O O19 0.450263 0.750000 0.223116
#
# Coordination Sequence:
#
# PCOD8077944 Si02
#       7
#     4   4   4   4   4   4   4
#     4   9  18  32  48  69  94 121 154 191 229 274
#     4   8  14  27  45  64  85 113 146 181 216 255
#     4   9  16  27  43  64  89 115 142 178 218 257
#     4   8  14  24  41  63  84 107 142 179 210 248
#     4   9  18  31  48  69  93 119 151 189 229 272
#     4   9  16  27  44  66  87 111 144 181 216 257
#     4   8  15  28  45  63  87 116 147 181 218 261
#
# _framework density 17.023889
#
# number of rings (size 3 to 8) (size 9 to 14) (size 15 to 20)
#    0.000    3.429    0.000    3.000    0.000    1.714 
#    0.000    4.286    0.000    6.857    0.000    0.000 
#    0.000    0.000    0.000    0.000    0.000    0.000 
#
# Total GULP energy -346921.878971 kJ/mol
# GULP energy per Si atom -12390.067106 kJ/mol
# Density = 1.698514 g / cm^3
# Si number density = 17.023889 Si / 1000 Ang^3
#
#
#
# Elastic Constant Matrix: (Units=GPa)
#
#
# Indices 1 2 3 4 5 6 
#
# 1 100.7884 28.4203 98.0860 0.0000 2.0445 0.0000
# 2 28.4203 34.7555 40.6102 0.0000 1.6095 0.0000
# 3 98.0860 40.6102 169.4232 0.0000 5.4315 0.0000
# 4 0.0000 0.0000 0.0000 27.5395 0.0000 1.9124
# 5 2.0445 1.6095 5.4315 0.0000 34.8354 0.0000
# 6 0.0000 0.0000 0.0000 1.9124 0.0000 18.0144
#
#
#
# Elastic Compliance Matrix: (Units=1/GPa)
#
#
# Indices 1 2 3 4 5 6 
#
# 1 0.023256 -0.004573 -0.012393 0.000000 0.000779 0.000000
# 2 -0.004573 0.040869 -0.007133 0.000000 -0.000508 0.000000
# 3 -0.012393 -0.007133 0.014827 0.000000 -0.001255 0.000000
# 4 0.000000 0.000000 0.000000 0.036581 0.000000 -0.003883
# 5 0.000779 -0.000508 -0.001255 0.000000 0.028880 0.000000
# 6 0.000000 0.000000 0.000000 -0.003883 0.000000 0.055923
#
#
# Mechanical properties :
#
#
# Convention : Reuss Voigt Hill
#
# Bulk Modulus (GPa) = 32.51386 71.02223 51.76805
# Shear Modulus (GPa) = 19.32113 25.26789 22.29451
#
# Velocity S-wave (km/s) = 3.37255 3.85679 3.62277
# Velocity P-wave (km/s) = 5.85712 7.85129 6.92635
#
# Compressibility (1/GPa) = 0.03075611
#
# Stress axis : x y z
#
# Youngs Moduli (GPa) = 43.00026 24.46828 67.44501
#
# Poissons Ratio (x) = 0.11188 0.83582
# Poissons Ratio (y) = 0.19662 0.48107
# Poissons Ratio (z) = 0.53289 0.17453
#
# Static dielectric constant tensor:
#      x y z
#    x 3.353490 0.000000 0.116860 
#    y 0.000000 2.957110 0.000000 
#    z 0.116860 0.000000 4.335370 
# 
# 
# High freq. dielectric constant tensor:
#      x y z
#    x 1.640200 0.000000 0.000360 
#    y 0.000000 1.613160 0.000000 
#    z 0.000360 0.000000 1.672170 
# 
# From -- ./inp_files/49019.got.cif
#   From: 2010.06.25/outbox.cif.g09.slc.cpg/sg11_25_cif.got.tgz:49019.got - 2010.06.27 23:14:04.
