data_PCOD8077493
_publ_section_title
;
Structure prediction by ZEFSAII (Michael W. Deem and Ramdas Pophale) SiO2 
 PCOD8077493
Probable space group: P 21/M
;
_chemical_formula_sum "Si O2"
_cell_formula_units_Z 20
_cell_length_a 9.491584
_cell_length_b 8.855732
_cell_length_c 12.081300
_cell_angle_alpha 90.000000
_cell_angle_beta 78.076911
_cell_angle_gamma 90.000000
_cell_volume 993.584321
_symmetry_space_group_name_H-M "P 21/M"
_symmetry_group_IT_number 11
_symmetry_cell_setting 'monoclinic'
loop_
_space_group_symop_operation_xyz
x,y,z
-x,1/2+y,-z
-x,-y,-z
x,1/2-y,z
loop_
_atom_site_type_symbol
_atom_site_label
_atom_site_fract_x
_atom_site_fract_y
_atom_site_fract_z
Si Si1 0.381316 0.921203 0.592768
Si Si2 0.147976 0.579238 0.450443
Si Si3 0.594093 0.928940 0.180004
Si Si4 0.290762 0.071779 0.218154
Si Si5 0.853755 0.926746 0.982470
O O1 0.429660 0.750000 0.612531
O O2 0.232089 0.922064 0.551961
O O3 0.500000 0.000000 0.500000
O O4 0.359511 0.014918 0.707202
O O5 0.122187 0.750000 0.413514
O O6 0.236119 0.491446 0.343036
O O7 0.000000 0.500000 0.500000
O O8 0.574307 0.750000 0.185085
O O9 0.445401 0.002206 0.163843
O O10 0.718902 0.982731 0.076844
O O11 0.308743 0.250000 0.224920
O O12 0.177917 0.028876 0.139794
O O13 0.873392 0.750000 0.993156
O O14 0.000000 0.000000 0.000000
#
# Coordination Sequence:
#
# PCOD8077493 Si02
#       5
#     4   4   4   4   4
#     4  11  23  40  64  94 127 164 208 255 308 370
#     4  11  25  42  63  93 129 167 208 256 312 371
#     4  11  23  41  65  94 126 164 210 257 310 371
#     4  11  23  42  66  93 125 164 211 258 309 371
#     4  10  25  44  64  93 126 162 207 258 313 370
#
# _framework density 20.129142000000002
#
# number of rings (size 3 to 8) (size 9 to 14) (size 15 to 20)
#    0.000    1.200    2.000    3.000    2.800    5.600 
#    0.000    0.000    0.000    0.000    0.000    0.000 
#    0.000    0.000    0.000    0.000    0.000    0.000 
#
# Total GULP energy -248089.752588 kJ/mol
# GULP energy per Si atom -12404.487629 kJ/mol
# Density = 2.008333 g / cm^3
# Si number density = 20.129142 Si / 1000 Ang^3
#
#
#
# Elastic Constant Matrix: (Units=GPa)
#
#
# Indices 1 2 3 4 5 6 
#
# 1 141.4512 55.2279 37.1473 0.0000 -0.3829 0.0000
# 2 55.2279 109.0482 35.5733 0.0000 -0.6199 0.0000
# 3 37.1473 35.5733 85.4642 0.0000 7.3750 0.0000
# 4 0.0000 0.0000 0.0000 31.8859 0.0000 0.3604
# 5 -0.3829 -0.6199 7.3750 0.0000 37.0339 0.0000
# 6 0.0000 0.0000 0.0000 0.3604 0.0000 40.6598
#
#
#
# Elastic Compliance Matrix: (Units=1/GPa)
#
#
# Indices 1 2 3 4 5 6 
#
# 1 0.009224 -0.003872 -0.002442 0.000000 0.000517 0.000000
# 2 -0.003872 0.012279 -0.003502 0.000000 0.000863 0.000000
# 3 -0.002442 -0.003502 0.014476 0.000000 -0.002967 0.000000
# 4 0.000000 0.000000 0.000000 0.031365 0.000000 -0.000278
# 5 0.000517 0.000863 -0.002967 0.000000 0.027613 0.000000
# 6 0.000000 0.000000 0.000000 -0.000278 0.000000 0.024597
#
#
# Mechanical properties :
#
#
# Convention : Reuss Voigt Hill
#
# Bulk Modulus (GPa) = 61.17768 65.76230 63.46999
# Shear Modulus (GPa) = 34.56971 35.78356 35.17663
#
# Velocity S-wave (km/s) = 4.14864 4.22085 4.18490
# Velocity P-wave (km/s) = 7.30800 7.51633 7.41290
#
# Compressibility (1/GPa) = 0.01634583
#
# Stress axis : x y z
#
# Youngs Moduli (GPa) = 108.41156 81.44213 69.07915
#
# Poissons Ratio (x) = 0.31534 0.16871
# Poissons Ratio (y) = 0.41976 0.24194
# Poissons Ratio (z) = 0.26477 0.28524
#
# Static dielectric constant tensor:
#      x y z
#    x 5.834870 0.000000 -0.782450 
#    y 0.000000 3.124120 0.000000 
#    z -0.782450 0.000000 4.179980 
# 
# 
# High freq. dielectric constant tensor:
#      x y z
#    x 1.796920 0.000000 0.005170 
#    y 0.000000 1.798740 0.000000 
#    z 0.005170 0.000000 1.796870 
# 
# From -- ./inp_files/15905.got.cif
#   From: 2010.06.25/outbox.cif.g09.slc.cpg/sg11_8_cif.got.tgz:15905.got - 2010.06.27 23:14:04.
