data_PCOD8077267
_publ_section_title
;
Structure prediction by ZEFSAII (Michael W. Deem and Ramdas Pophale) SiO2 
 PCOD8077267
Probable space group: P 21/M
;
_chemical_formula_sum "Si O2"
_cell_formula_units_Z 28
_cell_length_a 12.593592
_cell_length_b 8.732883
_cell_length_c 13.701059
_cell_angle_alpha 90.000000
_cell_angle_beta 67.046254
_cell_angle_gamma 90.000000
_cell_volume 1387.510038
_symmetry_space_group_name_H-M "P 21/M"
_symmetry_group_IT_number 11
_symmetry_cell_setting 'monoclinic'
loop_
_space_group_symop_operation_xyz
x,y,z
-x,1/2+y,-z
-x,-y,-z
x,1/2-y,z
loop_
_atom_site_type_symbol
_atom_site_label
_atom_site_fract_x
_atom_site_fract_y
_atom_site_fract_z
Si Si1 0.818188 0.076174 0.816583
Si Si2 0.423326 0.429342 0.111487
Si Si3 0.505293 0.570240 0.283955
Si Si4 0.255663 0.429995 0.713195
Si Si5 0.980687 0.931530 0.112229
Si Si6 0.682986 0.931441 0.522567
Si Si7 0.881942 0.075086 0.573145
O O1 0.779030 0.250000 0.853630
O O2 0.912551 0.016969 0.859464
O O3 0.877195 0.067459 0.690747
O O4 0.709096 0.966073 0.863472
O O5 0.441994 0.250000 0.105596
O O6 0.460386 0.493640 0.202238
O O7 0.500000 0.500000 0.000000
O O8 0.483162 0.750000 0.283220
O O9 0.639762 0.530543 0.250972
O O10 0.437075 0.507844 0.402401
O O11 0.241057 0.250000 0.706471
O O12 0.281275 0.497045 0.596306
O O13 0.137778 0.499592 0.799388
O O14 0.972102 0.750000 0.107843
O O15 0.000000 0.000000 0.000000
O O16 0.666779 0.750000 0.527238
O O17 0.778788 0.976341 0.566623
O O18 0.874328 0.250000 0.538766
O O19 0.000000 0.000000 0.500000
#
# Coordination Sequence:
#
# PCOD8077267 Si02
#       7
#     4   4   4   4   4   4   4
#     4  10  22  42  65  90 127 165 206 255 312 373
#     4  12  26  43  66  94 126 164 211 263 315 373
#     4  11  22  40  64  94 129 167 208 254 312 374
#     4   9  21  40  63  89 126 169 208 254 312 374
#     4  10  22  42  64  90 121 162 208 259 310 367
#     4  11  21  38  62  92 125 164 210 256 313 375
#     4  11  22  37  61  90 125 166 207 258 312 371
#
# _framework density 20.180033999999999
#
# number of rings (size 3 to 8) (size 9 to 14) (size 15 to 20)
#    0.000    1.429    1.429    3.857    2.000    3.429 
#    0.000    5.714    0.000    0.000    0.000    0.000 
#    0.000    0.000    0.000    0.000    0.000    0.000 
#
# Total GULP energy -347316.698465 kJ/mol
# GULP energy per Si atom -12404.167802 kJ/mol
# Density = 2.013410 g / cm^3
# Si number density = 20.180034 Si / 1000 Ang^3
#
#
#
# Elastic Constant Matrix: (Units=GPa)
#
#
# Indices 1 2 3 4 5 6 
#
# 1 142.3193 49.5940 72.9969 0.0000 8.3561 0.0000
# 2 49.5940 92.7676 47.4459 0.0000 -4.1461 0.0000
# 3 72.9969 47.4459 155.0494 0.0000 -0.6293 0.0000
# 4 0.0000 0.0000 0.0000 36.1615 0.0000 -4.3046
# 5 8.3561 -4.1461 -0.6293 0.0000 25.8805 0.0000
# 6 0.0000 0.0000 0.0000 -4.3046 0.0000 9.6217
#
#
#
# Elastic Compliance Matrix: (Units=1/GPa)
#
#
# Indices 1 2 3 4 5 6 
#
# 1 0.010577 -0.003893 -0.003805 0.000000 -0.004131 0.000000
# 2 -0.003893 0.014312 -0.002533 0.000000 0.003488 0.000000
# 3 -0.003805 -0.002533 0.009020 0.000000 0.001042 0.000000
# 4 0.000000 0.000000 0.000000 0.029209 0.000000 0.013068
# 5 -0.004131 0.003488 0.001042 0.000000 0.040557 0.000000
# 6 0.000000 0.000000 0.000000 0.013068 0.000000 0.109778
#
#
# Mechanical properties :
#
#
# Convention : Reuss Voigt Hill
#
# Bulk Modulus (GPa) = 74.36129 81.13442 77.74785
# Shear Modulus (GPa) = 20.97325 29.00606 24.98965
#
# Velocity S-wave (km/s) = 3.22733 3.79537 3.52282
# Velocity P-wave (km/s) = 7.12857 7.71356 7.42683
#
# Compressibility (1/GPa) = 0.01344786
#
# Stress axis : x y z
#
# Youngs Moduli (GPa) = 94.54088 69.87100 110.86167
#
# Poissons Ratio (x) = 0.27202 0.42186
# Poissons Ratio (y) = 0.36807 0.28076
# Poissons Ratio (z) = 0.35975 0.17695
#
# Static dielectric constant tensor:
#      x y z
#    x 3.824260 0.000000 -0.061660 
#    y 0.000000 3.586800 0.000000 
#    z -0.061660 0.000000 3.845440 
# 
# 
# High freq. dielectric constant tensor:
#      x y z
#    x 1.803440 0.000000 -0.002500 
#    y 0.000000 1.777240 0.000000 
#    z -0.002500 0.000000 1.800890 
# 
# From -- ./inp_files/49115.got.cif
#   From: 2010.06.25/outbox.cif.g09.slc.cpg/sg11_25_cif.got.tgz:49115.got - 2010.06.27 23:14:04.
