data_PCOD8077386
_publ_section_title
;
Structure prediction by ZEFSAII (Michael W. Deem and Ramdas Pophale) SiO2 
 PCOD8077386
Probable space group: P 21/M
;
_chemical_formula_sum "Si O2"
_cell_formula_units_Z 20
_cell_length_a 25.067093
_cell_length_b 8.551318
_cell_length_c 11.424396
_cell_angle_alpha 90.000000
_cell_angle_beta 156.287938
_cell_angle_gamma 90.000000
_cell_volume 984.800201
_symmetry_space_group_name_H-M "P 21/M"
_symmetry_group_IT_number 11
_symmetry_cell_setting 'monoclinic'
loop_
_space_group_symop_operation_xyz
x,y,z
-x,1/2+y,-z
-x,-y,-z
x,1/2-y,z
loop_
_atom_site_type_symbol
_atom_site_label
_atom_site_fract_x
_atom_site_fract_y
_atom_site_fract_z
Si Si1 0.852101 0.432866 0.699013
Si Si2 0.510612 0.933163 0.391803
Si Si3 0.760520 0.928407 0.748693
Si Si4 0.973188 0.071616 0.570709
Si Si5 0.737689 0.932156 0.237461
O O1 0.862744 0.250000 0.694178
O O2 0.773949 0.463723 0.661796
O O3 0.765906 0.513069 0.425332
O O4 0.000000 0.500000 0.000000
O O5 0.522131 0.750000 0.429547
O O6 0.642540 0.996600 0.592098
O O7 0.500000 0.000000 0.500000
O O8 0.386342 0.975252 0.062524
O O9 0.731291 0.750000 0.651052
O O10 0.894671 0.937751 0.089720
O O11 0.922383 0.250000 0.458510
O O12 0.864271 0.964422 0.412088
O O13 0.000000 0.000000 0.500000
O O14 0.704572 0.750000 0.169370
#
# Coordination Sequence:
#
# PCOD8077386 Si02
#       5
#     4   4   4   4   4
#     4  12  24  41  67  97 130 168 214 271 329 388
#     4  11  24  44  68  97 134 173 217 269 326 389
#     4  10  23  42  65  93 128 170 215 266 324 387
#     4  11  22  38  63  94 128 165 215 271 325 386
#     4  12  25  42  65  94 130 174 219 266 323 386
#
# _framework density 20.308686999999999
#
# number of rings (size 3 to 8) (size 9 to 14) (size 15 to 20)
#    0.000    0.800    2.000    6.000    0.000    4.800 
#    0.000    0.000    0.000    0.000    0.000    0.000 
#    0.000    0.000    0.000    0.000    0.000    0.000 
#
# Total GULP energy -248119.406151 kJ/mol
# GULP energy per Si atom -12405.970308 kJ/mol
# Density = 2.026246 g / cm^3
# Si number density = 20.308687 Si / 1000 Ang^3
#
#
#
# Elastic Constant Matrix: (Units=GPa)
#
#
# Indices 1 2 3 4 5 6 
#
# 1 163.7239 26.9906 49.9424 0.0000 0.7559 0.0000
# 2 26.9906 54.1388 -2.8313 0.0000 2.5187 0.0000
# 3 49.9424 -2.8313 104.6997 0.0000 2.6254 0.0000
# 4 0.0000 0.0000 0.0000 49.7790 0.0000 -11.8752
# 5 0.7559 2.5187 2.6254 0.0000 43.7234 0.0000
# 6 0.0000 0.0000 0.0000 -11.8752 0.0000 45.5047
#
#
#
# Elastic Compliance Matrix: (Units=1/GPa)
#
#
# Indices 1 2 3 4 5 6 
#
# 1 0.008002 -0.004211 -0.003940 0.000000 0.000341 0.000000
# 2 -0.004211 0.020766 0.002602 0.000000 -0.001280 0.000000
# 3 -0.003940 0.002602 0.011520 0.000000 -0.000774 0.000000
# 4 0.000000 0.000000 0.000000 0.021422 0.000000 0.005591
# 5 0.000341 -0.001280 -0.000774 0.000000 0.022985 0.000000
# 6 0.000000 0.000000 0.000000 0.005591 0.000000 0.023435
#
#
# Mechanical properties :
#
#
# Convention : Reuss Voigt Hill
#
# Bulk Modulus (GPa) = 34.25627 52.30731 43.28179
# Shear Modulus (GPa) = 38.77216 44.36545 41.56880
#
# Velocity S-wave (km/s) = 4.37411 4.67899 4.52912
# Velocity P-wave (km/s) = 6.51267 7.41638 6.97917
#
# Compressibility (1/GPa) = 0.02919174
#
# Stress axis : x y z
#
# Youngs Moduli (GPa) = 124.96476 48.15508 86.80487
#
# Poissons Ratio (x) = 0.20280 0.34197
# Poissons Ratio (y) = 0.52627 -0.22591
# Poissons Ratio (z) = 0.49231 -0.12532
#
# Static dielectric constant tensor:
#      x y z
#    x 3.921590 0.000000 0.027040 
#    y 0.000000 3.411490 0.000000 
#    z 0.027040 0.000000 3.825580 
# 
# 
# High freq. dielectric constant tensor:
#      x y z
#    x 1.811930 0.000000 -0.003320 
#    y 0.000000 1.802760 0.000000 
#    z -0.003320 0.000000 1.801090 
# 
# From -- ./inp_files/15869.got.cif
#   From: 2010.06.25/outbox.cif.g09.slc.cpg/sg11_8_cif.got.tgz:15869.got - 2010.06.27 23:14:04.
