data_PCOD8077770
_publ_section_title
;
Structure prediction by ZEFSAII (Michael W. Deem and Ramdas Pophale) SiO2 
 PCOD8077770
Probable space group: P 21/M
;
_chemical_formula_sum "Si O2"
_cell_formula_units_Z 24
_cell_length_a 15.216931
_cell_length_b 16.608620
_cell_length_c 8.785533
_cell_angle_alpha 90.000000
_cell_angle_beta 29.998643
_cell_angle_gamma 90.000000
_cell_volume 1110.148107
_symmetry_space_group_name_H-M "P 21/M"
_symmetry_group_IT_number 11
_symmetry_cell_setting 'monoclinic'
loop_
_space_group_symop_operation_xyz
x,y,z
-x,1/2+y,-z
-x,-y,-z
x,1/2-y,z
loop_
_atom_site_type_symbol
_atom_site_label
_atom_site_fract_x
_atom_site_fract_y
_atom_site_fract_z
Si Si1 0.166781 0.925075 0.999791
Si Si2 0.167763 0.842611 0.313156
Si Si3 0.148539 0.342602 0.683891
Si Si4 0.481080 0.657400 0.370170
Si Si5 0.499875 0.345754 0.000233
Si Si6 0.833398 0.615569 0.999876
O O1 0.118705 0.894338 0.239563
O O2 0.023155 0.894353 0.095330
O O3 0.358498 0.894366 0.664424
O O4 0.166760 0.020130 0.999854
O O5 0.191905 0.750000 0.227863
O O6 0.345993 0.877511 0.120825
O O7 0.015737 0.850053 0.665125
O O8 0.111520 0.250000 0.696689
O O9 0.196452 0.349980 0.788016
O O10 0.312671 0.377521 0.341555
O O11 0.419814 0.750000 0.468469
O O12 0.467038 0.622488 0.220062
O O13 0.681036 0.650037 0.122328
O O14 0.499880 0.250000 0.000221
#
# Coordination Sequence:
#
# PCOD8077770 Si02
#       6
#     4   4   4   4   4   4
#     4  12  25  41  61  93 130 164 205 264 322 368
#     4  11  22  41  65  90 121 165 214 259 308 376
#     4  11  22  41  65  90 121 165 214 259 308 376
#     4  11  22  41  65  90 121 165 214 259 308 376
#     4   9  21  39  64  92 118 153 208 263 304 354
#     4  12  25  41  61  93 130 164 205 264 322 368
#
# _framework density 21.618738
#
# number of rings (size 3 to 8) (size 9 to 14) (size 15 to 20)
#    0.000    1.000    0.000    7.500    0.000    4.000 
#    0.000    2.500    0.000    0.000    0.000    0.000 
#    0.000    0.000    0.000    0.000    0.000    0.000 
#
# Total GULP energy -297807.026845 kJ/mol
# GULP energy per Si atom -12408.626119 kJ/mol
# Density = 2.156953 g / cm^3
# Si number density = 21.618738 Si / 1000 Ang^3
#
#
#
# Elastic Constant Matrix: (Units=GPa)
#
#
# Indices 1 2 3 4 5 6 
#
# 1 99.0357 10.9907 16.7864 0.0000 0.0114 0.0000
# 2 10.9907 67.7368 10.9972 0.0000 -0.0118 0.0000
# 3 16.7864 10.9972 99.0129 0.0000 -0.0189 0.0000
# 4 0.0000 0.0000 0.0000 -82.8080 0.0000 0.6842
# 5 0.0114 -0.0118 -0.0189 0.0000 41.0920 0.0000
# 6 0.0000 0.0000 0.0000 0.6842 0.0000 -81.1720
#
#
#
# Elastic Compliance Matrix: (Units=1/GPa)
#
#
# Indices 1 2 3 4 5 6 
#
# 1 0.010533 -0.001445 -0.001625 0.000000 -0.000004 0.000000
# 2 -0.001445 0.015232 -0.001447 0.000000 0.000004 0.000000
# 3 -0.001625 -0.001447 0.010536 0.000000 0.000005 0.000000
# 4 0.000000 0.000000 0.000000 -0.012077 0.000000 -0.000102
# 5 -0.000004 0.000004 0.000005 0.000000 0.024336 0.000000
# 6 0.000000 0.000000 0.000000 -0.000102 0.000000 -0.012320
#
#
# Mechanical properties :
#
#
# Convention : Reuss Voigt Hill
#
# Bulk Modulus (GPa) = 36.67439 38.14823 37.41131
# Shear Modulus (GPa) = 91.97349 -9.44354 41.26497
#
# Velocity S-wave (km/s) = 6.52961 -2.09230 4.37367
# Velocity P-wave (km/s) = 8.59353 3.44199 6.54584
#
# Compressibility (1/GPa) = 0.02726698
#
# Stress axis : x y z
#
# Youngs Moduli (GPa) = 94.93755 65.64952 94.91326
#
# Poissons Ratio (x) = 0.09488 0.15426
# Poissons Ratio (y) = 0.13721 0.13732
# Poissons Ratio (z) = 0.15430 0.09498
#
# Static dielectric constant tensor:
#      x y z
#    x 3.988190 0.000000 -0.000020 
#    y 0.000000 3.732920 0.000000 
#    z -0.000020 0.000000 3.987460 
# 
# 
# High freq. dielectric constant tensor:
#      x y z
#    x 1.863350 0.000000 0.000000 
#    y 0.000000 1.837700 0.000000 
#    z 0.000000 0.000000 1.863310 
# 
# From -- ./inp_files/22673.got.cif
#   From: 2010.06.25/outbox.cif.g09.slc.cpg/sg11_12_cif.got.tgz:22673.got - 2010.06.27 23:14:04.
