data_PCOD8077093
_publ_section_title
;
Structure prediction by ZEFSAII (Michael W. Deem and Ramdas Pophale) SiO2 
 PCOD8077093
Probable space group: P 21/M
;
_chemical_formula_sum "Si O2"
_cell_formula_units_Z 28
_cell_length_a 11.603500
_cell_length_b 8.810343
_cell_length_c 15.204142
_cell_angle_alpha 90.000000
_cell_angle_beta 64.691168
_cell_angle_gamma 90.000000
_cell_volume 1405.141872
_symmetry_space_group_name_H-M "P 21/M"
_symmetry_group_IT_number 11
_symmetry_cell_setting 'monoclinic'
loop_
_space_group_symop_operation_xyz
x,y,z
-x,1/2+y,-z
-x,-y,-z
x,1/2-y,z
loop_
_atom_site_type_symbol
_atom_site_label
_atom_site_fract_x
_atom_site_fract_y
_atom_site_fract_z
Si Si1 0.193261 0.571477 0.467272
Si Si2 0.478962 0.930022 0.411640
Si Si3 0.460708 0.573870 0.103827
Si Si4 0.617640 0.429637 0.207264
Si Si5 0.979065 0.430246 0.637368
Si Si6 0.135327 0.570161 0.975513
Si Si7 0.178125 0.924992 0.153653
O O1 0.183864 0.750000 0.480914
O O2 0.340168 0.519363 0.420945
O O3 0.124885 0.514237 0.400734
O O4 0.118465 0.498108 0.574004
O O5 0.491616 0.750000 0.413102
O O6 0.500000 0.000000 0.500000
O O7 0.586233 0.992952 0.310471
O O8 0.501599 0.750000 0.092874
O O9 0.520096 0.485093 0.165356
O O10 0.309763 0.554358 0.162332
O O11 0.500000 0.500000 0.000000
O O12 0.605101 0.250000 0.220814
O O13 0.760384 0.478416 0.131376
O O14 0.987145 0.250000 0.633825
O O15 0.932221 0.493141 0.747446
O O16 0.123975 0.750000 0.980956
O O17 0.179645 0.501768 0.055847
O O18 0.000000 0.500000 0.000000
O O19 0.148367 0.750000 0.148554
#
# Coordination Sequence:
#
# PCOD8077093 Si02
#       7
#     4   4   4   4   4   4   4
#     4   9  19  36  55  81 116 147 183 237 297 346
#     4  11  24  42  63  87 117 157 202 248 299 355
#     4  11  20  35  60  89 122 157 197 244 298 357
#     4  11  23  41  62  89 123 156 195 249 306 357
#     4   9  17  32  58  84 108 146 189 232 288 352
#     4  10  22  40  58  80 114 154 195 243 294 350
#     4   9  18  35  56  81 115 151 189 238 294 345
#
# _framework density 19.926811000000001
#
# number of rings (size 3 to 8) (size 9 to 14) (size 15 to 20)
#    0.000    2.000    1.429    2.143    0.000    5.714 
#    0.000    7.857    0.000    0.000    0.000    0.000 
#    0.000    0.000    0.000    0.000    0.000    0.000 
#
# Total GULP energy -347154.183733 kJ/mol
# GULP energy per Si atom -12398.363705 kJ/mol
# Density = 1.988146 g / cm^3
# Si number density = 19.926811 Si / 1000 Ang^3
#
#
#
# Elastic Constant Matrix: (Units=GPa)
#
#
# Indices 1 2 3 4 5 6 
#
# 1 97.6580 33.3653 61.1117 0.0000 -8.6644 0.0000
# 2 33.3653 48.9592 44.8879 0.0000 -5.5552 0.0000
# 3 61.1117 44.8879 184.6583 0.0000 -13.4334 0.0000
# 4 0.0000 0.0000 0.0000 33.2327 0.0000 -1.9864
# 5 -8.6644 -5.5552 -13.4334 0.0000 32.8585 0.0000
# 6 0.0000 0.0000 0.0000 -1.9864 0.0000 32.7595
#
#
#
# Elastic Compliance Matrix: (Units=1/GPa)
#
#
# Indices 1 2 3 4 5 6 
#
# 1 0.014679 -0.007055 -0.003039 0.000000 0.001436 0.000000
# 2 -0.007055 0.029788 -0.004818 0.000000 0.001206 0.000000
# 3 -0.003039 -0.004818 0.007704 0.000000 0.001534 0.000000
# 4 0.000000 0.000000 0.000000 0.030200 0.000000 0.001831
# 5 0.001436 0.001206 0.001534 0.000000 0.031643 0.000000
# 6 0.000000 0.000000 0.000000 0.001831 0.000000 0.030637
#
#
# Mechanical properties :
#
#
# Convention : Reuss Voigt Hill
#
# Bulk Modulus (GPa) = 44.74929 67.77836 56.26382
# Shear Modulus (GPa) = 27.48420 32.56419 30.02419
#
# Velocity S-wave (km/s) = 3.71786 4.04690 3.88586
# Velocity P-wave (km/s) = 6.39809 7.47823 6.95915
#
# Compressibility (1/GPa) = 0.02234673
#
# Stress axis : x y z
#
# Youngs Moduli (GPa) = 68.12488 33.57107 129.80482
#
# Poissons Ratio (x) = 0.23684 0.39442
# Poissons Ratio (y) = 0.48061 0.62546
# Poissons Ratio (z) = 0.20700 0.16176
#
# Static dielectric constant tensor:
#      x y z
#    x 3.718100 0.000000 -0.105590 
#    y 0.000000 3.482650 0.000000 
#    z -0.105590 0.000000 3.951790 
# 
# 
# High freq. dielectric constant tensor:
#      x y z
#    x 1.770610 0.000000 -0.007330 
#    y 0.000000 1.760080 0.000000 
#    z -0.007330 0.000000 1.795780 
# 
# From -- ./inp_files/49124.got.cif
#   From: 2010.06.25/outbox.cif.g09.slc.cpg/sg11_25_cif.got.tgz:49124.got - 2010.06.27 23:14:04.
