data_PCOD8077440
_publ_section_title
;
Structure prediction by ZEFSAII (Michael W. Deem and Ramdas Pophale) SiO2 
 PCOD8077440
Probable space group: P 21/M
;
_chemical_formula_sum "Si O2"
_cell_formula_units_Z 24
_cell_length_a 5.194702
_cell_length_b 16.590237
_cell_length_c 11.434658
_cell_angle_alpha 90.000000
_cell_angle_beta 92.607736
_cell_angle_gamma 90.000000
_cell_volume 984.433617
_symmetry_space_group_name_H-M "P 21/M"
_symmetry_group_IT_number 11
_symmetry_cell_setting 'monoclinic'
loop_
_space_group_symop_operation_xyz
x,y,z
-x,1/2+y,-z
-x,-y,-z
x,1/2-y,z
loop_
_atom_site_type_symbol
_atom_site_label
_atom_site_fract_x
_atom_site_fract_y
_atom_site_fract_z
Si Si1 0.854494 0.090518 0.116723
Si Si2 0.670317 0.154957 0.798808
Si Si3 0.987532 0.900295 0.626087
Si Si4 0.246291 0.250000 0.300255
Si Si5 0.803275 0.911212 0.079523
Si Si6 0.720453 0.250000 0.148404
Si Si7 0.697196 0.445055 0.575470
O O1 0.688338 0.168814 0.066606
O O2 0.848033 0.110754 0.253622
O O3 0.134785 0.095432 0.058398
O O4 0.721138 0.004695 0.095595
O O5 0.715463 0.250000 0.780602
O O6 0.932864 0.112612 0.847809
O O7 0.583568 0.112434 0.674513
O O8 0.434777 0.142364 0.884121
O O9 0.771155 0.830203 0.618492
O O10 0.154799 0.888150 0.513051
O O11 0.887859 0.991132 0.638401
O O12 0.525812 0.250000 0.251137
O O13 0.020061 0.250000 0.198804
O O14 0.500000 0.500000 0.500000
#
# Coordination Sequence:
#
# PCOD8077440 Si02
#       7
#     4   4   4   2   4   2   4
#     4  10  23  46  74 106 145 186 245 296 378 425
#     4  12  28  49  75 106 149 193 249 294 367 443
#     4  10  23  45  67 102 140 179 239 298 361 428
#     4  10  24  40  66 100 135 177 228 290 359 415
#     4  11  26  47  76 105 143 196 238 304 360 451
#     4  10  24  38  68 102 141 181 226 304 349 435
#     4  11  25  45  74 100 142 196 237 306 358 432
#
# _framework density 24.379501000000001
#
# number of rings (size 3 to 8) (size 9 to 14) (size 15 to 20)
#    0.000    1.333    1.667    1.500   12.833    5.333 
#    1.500    0.000    0.000    0.000    0.000    0.000 
#    0.000    0.000    0.000    0.000    0.000    0.000 
#
# Total GULP energy -297327.629775 kJ/mol
# GULP energy per Si atom -12388.651241 kJ/mol
# Density = 2.432401 g / cm^3
# Si number density = 24.379501 Si / 1000 Ang^3
#
#
#
# Elastic Constant Matrix: (Units=GPa)
#
#
# Indices 1 2 3 4 5 6 
#
# 1 92.6297 36.5862 22.7759 0.0000 -9.6774 0.0000
# 2 36.5862 174.8835 46.6183 0.0000 -24.3589 0.0000
# 3 22.7759 46.6183 83.5826 0.0000 -14.2353 0.0000
# 4 0.0000 0.0000 0.0000 32.4573 0.0000 -23.7724
# 5 -9.6774 -24.3589 -14.2353 0.0000 36.9617 0.0000
# 6 0.0000 0.0000 0.0000 -23.7724 0.0000 24.6072
#
#
#
# Elastic Compliance Matrix: (Units=1/GPa)
#
#
# Indices 1 2 3 4 5 6 
#
# 1 0.012153 -0.001820 -0.002096 0.000000 0.001175 0.000000
# 2 -0.001820 0.007361 -0.003066 0.000000 0.003194 0.000000
# 3 -0.002096 -0.003066 0.014777 0.000000 0.003122 0.000000
# 4 0.000000 0.000000 0.000000 0.105359 0.000000 0.101784
# 5 0.001175 0.003194 0.003122 0.000000 0.030670 0.000000
# 6 0.000000 0.000000 0.000000 0.101784 0.000000 0.138970
#
#
# Mechanical properties :
#
#
# Convention : Reuss Voigt Hill
#
# Bulk Modulus (GPa) = 49.19618 62.56184 55.87901
# Shear Modulus (GPa) = 15.15021 35.14626 25.14823
#
# Velocity S-wave (km/s) = 2.49556 3.80100 3.21523
# Velocity P-wave (km/s) = 5.34106 6.70678 6.06250
#
# Compressibility (1/GPa) = 0.02032678
#
# Stress axis : x y z
#
# Youngs Moduli (GPa) = 82.28617 135.85305 67.67243
#
# Poissons Ratio (x) = 0.24724 0.14187
# Poissons Ratio (y) = 0.14975 0.20746
# Poissons Ratio (z) = 0.17250 0.41648
#
# Static dielectric constant tensor:
#      x y z
#    x 4.096040 0.000000 -0.132330 
#    y 0.000000 6.109410 0.000000 
#    z -0.132330 0.000000 4.526010 
# 
# 
# High freq. dielectric constant tensor:
#      x y z
#    x 1.946670 0.000000 -0.017610 
#    y 0.000000 1.997530 0.000000 
#    z -0.017610 0.000000 1.969240 
# 
# From -- ./inp_files/29788.got.cif
#   From: 2010.06.25/outbox.cif.g09.slc.cpg/sg11_15_cif.got.tgz:29788.got - 2010.06.27 23:14:04.
