data_PCOD8077429
_publ_section_title
;
Structure prediction by ZEFSAII (Michael W. Deem and Ramdas Pophale) SiO2 
 PCOD8077429
Probable space group: P 21/M
;
_chemical_formula_sum "Si O2"
_cell_formula_units_Z 28
_cell_length_a 12.457886
_cell_length_b 8.436068
_cell_length_c 14.530353
_cell_angle_alpha 90.000000
_cell_angle_beta 121.617468
_cell_angle_gamma 90.000000
_cell_volume 1300.407563
_symmetry_space_group_name_H-M "P 21/M"
_symmetry_group_IT_number 11
_symmetry_cell_setting 'monoclinic'
loop_
_space_group_symop_operation_xyz
x,y,z
-x,1/2+y,-z
-x,-y,-z
x,1/2-y,z
loop_
_atom_site_type_symbol
_atom_site_label
_atom_site_fract_x
_atom_site_fract_y
_atom_site_fract_z
Si Si1 0.080310 0.565201 0.620139
Si Si2 0.345403 0.432937 0.689617
Si Si3 0.207483 0.930153 0.007391
Si Si4 0.533713 0.932749 0.917247
Si Si5 0.993037 0.933954 0.216581
Si Si6 0.241297 0.569649 0.228829
Si Si7 0.500859 0.566356 0.601950
O O1 0.054324 0.750000 0.621051
O O2 0.227387 0.537556 0.667759
O O3 0.037108 0.476698 0.692535
O O4 0.000000 0.500000 0.500000
O O5 0.305703 0.250000 0.675281
O O6 0.461890 0.464793 0.809129
O O7 0.390336 0.477413 0.607568
O O8 0.251845 0.750000 0.009225
O O9 0.174396 0.955415 0.099906
O O10 0.317559 0.050081 0.029047
O O11 0.087329 0.963780 0.890793
O O12 0.494130 0.750000 0.890512
O O13 0.500000 0.000000 0.000000
O O14 0.963541 0.750000 0.186200
O O15 0.139703 0.971563 0.262060
O O16 0.289464 0.750000 0.261521
O O17 0.362069 0.457030 0.291219
O O18 0.500000 0.500000 0.500000
O O19 0.466957 0.750000 0.587211
#
# Coordination Sequence:
#
# PCOD8077429 Si02
#       7
#     4   4   4   4   4   4   4
#     4  12  27  48  71  98 132 175 225 276 335 398
#     4  12  25  46  71  99 134 172 221 278 335 395
#     4  11  22  40  65  97 135 176 221 273 330 394
#     4  12  24  40  64  96 132 176 221 271 332 396
#     4  11  24  43  67  98 136 179 225 276 331 394
#     4  10  23  43  68  98 137 178 223 273 330 394
#     4  12  26  44  70 101 136 177 224 275 334 398
#
# _framework density 21.531711000000001
#
# number of rings (size 3 to 8) (size 9 to 14) (size 15 to 20)
#    0.000    0.571    1.429    7.286    2.000    1.714 
#    0.000    0.000    0.000    0.000    0.000    0.000 
#    0.000    0.000    0.000    0.000    0.000    0.000 
#
# Total GULP energy -347416.055473 kJ/mol
# GULP energy per Si atom -12407.716267 kJ/mol
# Density = 2.148270 g / cm^3
# Si number density = 21.531711 Si / 1000 Ang^3
#
#
#
# Elastic Constant Matrix: (Units=GPa)
#
#
# Indices 1 2 3 4 5 6 
#
# 1 127.1193 22.2709 22.8918 0.0000 -19.3548 0.0000
# 2 22.2709 88.1956 22.8937 0.0000 -2.5147 0.0000
# 3 22.8918 22.8937 89.2847 0.0000 -18.2738 0.0000
# 4 0.0000 0.0000 0.0000 37.4896 0.0000 3.2690
# 5 -19.3548 -2.5147 -18.2738 0.0000 39.2213 0.0000
# 6 0.0000 0.0000 0.0000 3.2690 0.0000 33.2039
#
#
#
# Elastic Compliance Matrix: (Units=1/GPa)
#
#
# Indices 1 2 3 4 5 6 
#
# 1 0.008965 -0.001887 -0.001033 0.000000 0.003822 0.000000
# 2 -0.001887 0.012564 -0.003055 0.000000 -0.001549 0.000000
# 3 -0.001033 -0.003055 0.013380 0.000000 0.005528 0.000000
# 4 0.000000 0.000000 0.000000 0.026905 0.000000 -0.002649
# 5 0.003822 -0.001549 0.005528 0.000000 0.029859 0.000000
# 6 0.000000 0.000000 0.000000 -0.002649 0.000000 0.030378
#
#
# Mechanical properties :
#
#
# Convention : Reuss Voigt Hill
#
# Bulk Modulus (GPa) = 43.55357 48.96806 46.26081
# Shear Modulus (GPa) = 35.29790 37.75251 36.52520
#
# Velocity S-wave (km/s) = 4.05327 4.19184 4.12314
# Velocity P-wave (km/s) = 6.49438 6.79855 6.64821
#
# Compressibility (1/GPa) = 0.02296023
#
# Stress axis : x y z
#
# Youngs Moduli (GPa) = 111.54427 79.59460 74.74063
#
# Poissons Ratio (x) = 0.15018 0.07717
# Poissons Ratio (y) = 0.21047 0.22831
# Poissons Ratio (z) = 0.11517 0.24314
#
# Static dielectric constant tensor:
#      x y z
#    x 3.901700 0.000000 -0.090400 
#    y 0.000000 3.939560 0.000000 
#    z -0.090400 0.000000 3.872880 
# 
# 
# High freq. dielectric constant tensor:
#      x y z
#    x 1.858320 0.000000 -0.009660 
#    y 0.000000 1.854760 0.000000 
#    z -0.009660 0.000000 1.851000 
# 
# From -- ./inp_files/49507.got.cif
#   From: 2010.06.25/outbox.cif.g09.slc.cpg/sg11_25_cif.got.tgz:49507.got - 2010.06.27 23:14:04.
