data_PCOD8077494
_publ_section_title
;
Structure prediction by ZEFSAII (Michael W. Deem and Ramdas Pophale) SiO2 
 PCOD8077494
Probable space group: P 21/M
;
_chemical_formula_sum "Si O2"
_cell_formula_units_Z 18
_cell_length_a 11.090141
_cell_length_b 12.042562
_cell_length_c 11.090112
_cell_angle_alpha 90.000000
_cell_angle_beta 39.004659
_cell_angle_gamma 90.000000
_cell_volume 932.196142
_symmetry_space_group_name_H-M "P 21/M"
_symmetry_group_IT_number 11
_symmetry_cell_setting 'monoclinic'
loop_
_space_group_symop_operation_xyz
x,y,z
-x,1/2+y,-z
-x,-y,-z
x,1/2-y,z
loop_
_atom_site_type_symbol
_atom_site_label
_atom_site_fract_x
_atom_site_fract_y
_atom_site_fract_z
Si Si1 0.159082 0.250000 0.076827
Si Si2 0.239310 0.750000 0.739310
Si Si3 0.719464 0.482338 0.635629
Si Si4 0.423173 0.750000 0.340917
Si Si5 0.135627 0.017662 0.219465
Si Si6 0.638155 0.126903 0.138153
O O1 0.151577 0.145060 0.169932
O O2 0.982427 0.250000 0.122833
O O3 0.348636 0.250000 0.848636
O O4 0.377167 0.750000 0.517572
O O5 0.284489 0.640175 0.784487
O O6 0.669931 0.354940 0.651578
O O7 0.726864 0.500000 0.773136
O O8 0.560318 0.561414 0.702275
O O9 0.918698 0.515243 0.418699
O O10 0.202272 0.938587 0.060319
O O11 0.605957 0.250000 0.105952
#
# Coordination Sequence:
#
# PCOD8077494 Si02
#       6
#     2   2   4   2   4   4
#     4  12  24  43  67  97 129 174 216 269 326 378
#     4  10  26  46  60 100 132 164 238 258 302 406
#     4  11  24  42  70  99 131 168 211 275 328 387
#     4  12  24  43  67  97 129 174 216 269 326 378
#     4  11  24  42  70  99 131 168 211 275 328 387
#     4  10  25  44  65  96 129 175 217 263 313 394
#
# _framework density 19.309242999999999
#
# number of rings (size 3 to 8) (size 9 to 14) (size 15 to 20)
#    0.667    0.444    4.444    0.667    3.111    4.444 
#    0.000    0.000    0.000    0.000    0.000    0.000 
#    0.000    0.000    0.000    0.000    0.000    0.000 
#
# Total GULP energy -223245.415686 kJ/mol
# GULP energy per Si atom -12402.523094 kJ/mol
# Density = 1.926529 g / cm^3
# Si number density = 19.309243 Si / 1000 Ang^3
#
#
#
# Elastic Constant Matrix: (Units=GPa)
#
#
# Indices 1 2 3 4 5 6 
#
# 1 154.4006 68.6908 76.0842 0.0000 12.5528 0.0000
# 2 68.6908 152.0009 40.4172 0.0000 11.8629 0.0000
# 3 76.0842 40.4172 129.9569 0.0000 -2.2994 0.0000
# 4 0.0000 0.0000 0.0000 26.2236 0.0000 10.2164
# 5 12.5528 11.8629 -2.2994 0.0000 30.4286 0.0000
# 6 0.0000 0.0000 0.0000 10.2164 0.0000 50.5678
#
#
#
# Elastic Compliance Matrix: (Units=1/GPa)
#
#
# Indices 1 2 3 4 5 6 
#
# 1 0.010869 -0.003180 -0.005439 0.000000 -0.003655 0.000000
# 2 -0.003180 0.008381 -0.000780 0.000000 -0.002014 0.000000
# 3 -0.005439 -0.000780 0.011182 0.000000 0.003393 0.000000
# 4 0.000000 0.000000 0.000000 0.041392 0.000000 -0.008363
# 5 -0.003655 -0.002014 0.003393 0.000000 0.035413 0.000000
# 6 0.000000 0.000000 0.000000 -0.008363 0.000000 0.021465
#
#
# Mechanical properties :
#
#
# Convention : Reuss Voigt Hill
#
# Bulk Modulus (GPa) = 85.96423 89.63810 87.80117
# Shear Modulus (GPa) = 33.03011 38.18840 35.60926
#
# Velocity S-wave (km/s) = 4.14041 4.45199 4.29902
# Velocity P-wave (km/s) = 8.21424 8.54108 8.37925
#
# Compressibility (1/GPa) = 0.01163274
#
# Stress axis : x y z
#
# Youngs Moduli (GPa) = 92.00700 119.32076 89.43189
#
# Poissons Ratio (x) = 0.37947 0.48640
# Poissons Ratio (y) = 0.29261 0.06977
# Poissons Ratio (z) = 0.50040 0.09309
#
# Static dielectric constant tensor:
#      x y z
#    x 3.497720 0.000000 -0.073480 
#    y 0.000000 3.632470 0.000000 
#    z -0.073480 0.000000 3.672820 
# 
# 
# High freq. dielectric constant tensor:
#      x y z
#    x 1.752530 0.000000 -0.006470 
#    y 0.000000 1.758580 0.000000 
#    z -0.006470 0.000000 1.767940 
# 
# From -- ./inp_files/34152.got.cif
#   From: 2010.06.25/outbox.cif.g09.slc.cpg/sg11_18_cif.got.tgz:34152.got - 2010.06.27 23:14:04.
