data_PCOD8077806
_publ_section_title
;
Structure prediction by ZEFSAII (Michael W. Deem and Ramdas Pophale) SiO2 
 PCOD8077806
Probable space group: P 21/M
;
_chemical_formula_sum "Si O2"
_cell_formula_units_Z 20
_cell_length_a 11.328938
_cell_length_b 8.747624
_cell_length_c 9.851511
_cell_angle_alpha 90.000000
_cell_angle_beta 90.624907
_cell_angle_gamma 90.000000
_cell_volume 976.239380
_symmetry_space_group_name_H-M "P 21/M"
_symmetry_group_IT_number 11
_symmetry_cell_setting 'monoclinic'
loop_
_space_group_symop_operation_xyz
x,y,z
-x,1/2+y,-z
-x,-y,-z
x,1/2-y,z
loop_
_atom_site_type_symbol
_atom_site_label
_atom_site_fract_x
_atom_site_fract_y
_atom_site_fract_z
Si Si1 0.371374 0.429093 0.983586
Si Si2 0.994804 0.930040 0.649458
Si Si3 0.625635 0.075877 0.513378
Si Si4 0.769077 0.075698 0.779101
Si Si5 0.770463 0.927938 0.285145
O O1 0.379650 0.250000 0.013402
O O2 0.324268 0.464204 0.832486
O O3 0.500000 0.500000 0.000000
O O4 0.278084 0.503865 0.083482
O O5 0.995897 0.750000 0.633451
O O6 0.879832 0.980264 0.729173
O O7 0.000000 0.000000 0.500000
O O8 0.107388 0.983417 0.739095
O O9 0.620569 0.250000 0.460671
O O10 0.663237 0.068809 0.670022
O O11 0.500000 0.000000 0.500000
O O12 0.719282 0.981848 0.427751
O O13 0.808577 0.250000 0.805097
O O14 0.799727 0.750000 0.293845
#
# Coordination Sequence:
#
# PCOD8077806 Si02
#       5
#     4   4   4   4   4
#     4  11  25  44  66  95 131 173 217 265 323 383
#     4  12  24  41  67  97 130 168 212 266 324 381
#     4  11  23  38  61  92 125 164 214 266 321 382
#     4  11  24  42  65  94 128 170 216 264 320 382
#     4  11  24  42  65  93 128 169 215 265 320 383
#
# _framework density 20.486778000000001
#
# number of rings (size 3 to 8) (size 9 to 14) (size 15 to 20)
#    0.000    0.800    2.000    5.400    0.000   11.200 
#    0.000    0.000    0.000    0.000    0.000    0.000 
#    0.000    0.000    0.000    0.000    0.000    0.000 
#
# Total GULP energy -248140.424760 kJ/mol
# GULP energy per Si atom -12407.021238 kJ/mol
# Density = 2.044015 g / cm^3
# Si number density = 20.486778 Si / 1000 Ang^3
#
#
#
# Elastic Constant Matrix: (Units=GPa)
#
#
# Indices 1 2 3 4 5 6 
#
# 1 117.4519 54.5592 7.5682 0.0000 -4.7634 0.0000
# 2 54.5592 158.9845 41.8816 0.0000 4.1535 0.0000
# 3 7.5682 41.8816 67.7474 0.0000 -8.7884 0.0000
# 4 0.0000 0.0000 0.0000 34.1638 0.0000 -3.7911
# 5 -4.7634 4.1535 -8.7884 0.0000 36.7693 0.0000
# 6 0.0000 0.0000 0.0000 -3.7911 0.0000 44.3783
#
#
#
# Elastic Compliance Matrix: (Units=1/GPa)
#
#
# Indices 1 2 3 4 5 6 
#
# 1 0.010378 -0.004047 0.001627 0.000000 0.002191 0.000000
# 2 -0.004047 0.009240 -0.005639 0.000000 -0.002916 0.000000
# 3 0.001627 -0.005639 0.018756 0.000000 0.005331 0.000000
# 4 0.000000 0.000000 0.000000 0.029551 0.000000 0.002524
# 5 0.002191 -0.002916 0.005331 0.000000 0.029084 0.000000
# 6 0.000000 0.000000 0.000000 0.002524 0.000000 0.022749
#
#
# Mechanical properties :
#
#
# Convention : Reuss Voigt Hill
#
# Bulk Modulus (GPa) = 44.93001 61.35573 53.14287
# Shear Modulus (GPa) = 34.89286 39.07393 36.98340
#
# Velocity S-wave (km/s) = 4.13145 4.37197 4.25341
# Velocity P-wave (km/s) = 6.68860 7.44980 7.07944
#
# Compressibility (1/GPa) = 0.02225684
#
# Stress axis : x y z
#
# Youngs Moduli (GPa) = 96.35573 108.22045 53.31555
#
# Poissons Ratio (x) = 0.43800 -0.08674
# Poissons Ratio (y) = 0.38998 0.30062
# Poissons Ratio (z) = -0.15676 0.61021
#
# Static dielectric constant tensor:
#      x y z
#    x 3.843160 0.000000 0.019880 
#    y 0.000000 4.124110 0.000000 
#    z 0.019880 0.000000 3.781160 
# 
# 
# High freq. dielectric constant tensor:
#      x y z
#    x 1.818230 0.000000 -0.000490 
#    y 0.000000 1.820630 0.000000 
#    z -0.000490 0.000000 1.799470 
# 
# From -- ./inp_files/15896.got.cif
#   From: 2010.06.25/outbox.cif.g09.slc.cpg/sg11_8_cif.got.tgz:15896.got - 2010.06.27 23:14:04.
