data_PCOD8077324
_publ_section_title
;
Structure prediction by ZEFSAII (Michael W. Deem and Ramdas Pophale) SiO2 
 PCOD8077324
Probable space group: P 21/M
;
_chemical_formula_sum "Si O2"
_cell_formula_units_Z 26
_cell_length_a 8.142767
_cell_length_b 19.635549
_cell_length_c 12.070843
_cell_angle_alpha 90.000000
_cell_angle_beta 34.266940
_cell_angle_gamma 90.000000
_cell_volume 1086.673494
_symmetry_space_group_name_H-M "P 21/M"
_symmetry_group_IT_number 11
_symmetry_cell_setting 'monoclinic'
loop_
_space_group_symop_operation_xyz
x,y,z
-x,1/2+y,-z
-x,-y,-z
x,1/2-y,z
loop_
_atom_site_type_symbol
_atom_site_label
_atom_site_fract_x
_atom_site_fract_y
_atom_site_fract_z
Si Si1 0.648075 0.388178 0.784546
Si Si2 0.110580 0.488169 0.581839
Si Si3 0.271808 0.952024 0.831035
Si Si4 0.754396 0.750000 0.375956
Si Si5 0.963324 0.895594 0.812621
Si Si6 0.097127 0.750000 0.418260
Si Si7 0.921119 0.250000 0.319474
Si Si8 0.081130 0.617751 0.147294
O O1 0.884526 0.448522 0.624131
O O2 0.706237 0.318405 0.687590
O O3 0.670202 0.367055 0.901378
O O4 0.321641 0.418428 0.955444
O O5 0.423190 0.492446 0.347355
O O6 0.998872 0.563628 0.676563
O O7 0.117064 0.445539 0.695363
O O8 0.244277 0.910309 0.731824
O O9 0.261853 0.898001 0.936107
O O10 0.000000 0.000000 0.000000
O O11 0.413772 0.750000 0.536209
O O12 0.851203 0.750000 0.455252
O O13 0.878798 0.683637 0.245034
O O14 0.925517 0.815983 0.815445
O O15 0.979214 0.750000 0.608084
#
# Coordination Sequence:
#
# PCOD8077324 Si02
#       8
#     4   4   4   2   4   2   2   4
#     4   9  22  46  70  97 142 183 239 300 352 440
#     4  10  23  44  71 100 148 185 245 294 359 445
#     4  12  24  40  72 104 140 191 233 294 371 420
#     4  10  22  47  72 100 148 186 241 307 350 462
#     4  12  25  44  68 106 151 178 250 311 347 444
#     4  10  23  47  73  99 147 196 238 295 384 430
#     4  12  29  42  73 107 149 190 245 300 378 422
#     4   9  22  43  70  99 136 185 236 286 360 426
#
# _framework density 23.926227999999998
#
# number of rings (size 3 to 8) (size 9 to 14) (size 15 to 20)
#    0.923    0.615    1.538    2.308    4.308    1.846 
#    0.000    3.846    0.000    0.000    0.000    0.000 
#    0.000    0.000    0.000    0.000    0.000    0.000 
#
# Total GULP energy -322154.682205 kJ/mol
# GULP energy per Si atom -12390.564700 kJ/mol
# Density = 2.387177 g / cm^3
# Si number density = 23.926228 Si / 1000 Ang^3
#
#
#
# Elastic Constant Matrix: (Units=GPa)
#
#
# Indices 1 2 3 4 5 6 
#
# 1 61.7114 1.7722 20.7650 0.0000 -7.4815 0.0000
# 2 1.7722 121.0335 28.0633 0.0000 -17.4199 0.0000
# 3 20.7650 28.0633 113.2060 0.0000 -28.1044 0.0000
# 4 0.0000 0.0000 0.0000 41.3956 0.0000 -4.0607
# 5 -7.4815 -17.4199 -28.1044 0.0000 37.6260 0.0000
# 6 0.0000 0.0000 0.0000 -4.0607 0.0000 20.6912
#
#
#
# Elastic Compliance Matrix: (Units=1/GPa)
#
#
# Indices 1 2 3 4 5 6 
#
# 1 0.017371 0.000655 -0.002966 0.000000 0.001542 0.000000
# 2 0.000655 0.009074 -0.001589 0.000000 0.003144 0.000000
# 3 -0.002966 -0.001589 0.011592 0.000000 0.007333 0.000000
# 4 0.000000 0.000000 0.000000 0.024631 0.000000 0.004834
# 5 0.001542 0.003144 0.007333 0.000000 0.033817 0.000000
# 6 0.000000 0.000000 0.000000 0.004834 0.000000 0.049278
#
#
# Mechanical properties :
#
#
# Convention : Reuss Voigt Hill
#
# Bulk Modulus (GPa) = 33.07204 44.12799 38.60001
# Shear Modulus (GPa) = 30.55475 36.29926 33.42700
#
# Velocity S-wave (km/s) = 3.57745 3.89926 3.74182
# Velocity P-wave (km/s) = 5.56028 6.22541 5.90222
#
# Compressibility (1/GPa) = 0.03023702
#
# Stress axis : x y z
#
# Youngs Moduli (GPa) = 57.56874 110.21060 86.26744
#
# Poissons Ratio (x) = -0.07222 0.25585
# Poissons Ratio (y) = -0.03772 0.13707
# Poissons Ratio (z) = 0.17074 0.17511
#
# Static dielectric constant tensor:
#      x y z
#    x 4.466370 0.000000 0.166640 
#    y 0.000000 4.387390 0.000000 
#    z 0.166640 0.000000 4.036470 
# 
# 
# High freq. dielectric constant tensor:
#      x y z
#    x 1.948330 0.000000 0.004330 
#    y 0.000000 1.956350 0.000000 
#    z 0.004330 0.000000 1.938440 
# 
# From -- ./inp_files/32783.got.cif
#   From: 2010.06.25/outbox.cif.g09.slc.cpg/sg11_17_cif.got.tgz:32783.got - 2010.06.27 23:14:04.
