data_PCOD8077540
_publ_section_title
;
Structure prediction by ZEFSAII (Michael W. Deem and Ramdas Pophale) SiO2 
 PCOD8077540
Probable space group: P 21/M
;
_chemical_formula_sum "Si O2"
_cell_formula_units_Z 24
_cell_length_a 16.323550
_cell_length_b 8.882248
_cell_length_c 15.758983
_cell_angle_alpha 90.000000
_cell_angle_beta 35.184025
_cell_angle_gamma 90.000000
_cell_volume 1316.565019
_symmetry_space_group_name_H-M "P 21/M"
_symmetry_group_IT_number 11
_symmetry_cell_setting 'monoclinic'
loop_
_space_group_symop_operation_xyz
x,y,z
-x,1/2+y,-z
-x,-y,-z
x,1/2-y,z
loop_
_atom_site_type_symbol
_atom_site_label
_atom_site_fract_x
_atom_site_fract_y
_atom_site_fract_z
Si Si1 0.826924 0.420706 0.302637
Si Si2 0.957378 0.572378 0.448136
Si Si3 0.377651 0.071719 0.839747
Si Si4 0.102735 0.427530 0.168570
Si Si5 0.692220 0.076907 0.595850
Si Si6 0.633481 0.572483 0.341229
O O1 0.820952 0.250000 0.274416
O O2 0.721453 0.441296 0.471340
O O3 0.777869 0.529136 0.268344
O O4 0.986263 0.464853 0.195134
O O5 0.967706 0.750000 0.446180
O O6 0.067352 0.514871 0.284362
O O7 0.000000 0.500000 0.500000
O O8 0.795877 0.526680 0.563081
O O9 0.368151 0.250000 0.842483
O O10 0.530292 0.023207 0.748836
O O11 0.355694 0.007921 0.763508
O O12 0.254116 0.012352 0.006604
O O13 0.101317 0.250000 0.190131
O O14 0.716601 0.250000 0.602680
O O15 0.500000 0.500000 0.500000
O O16 0.612796 0.750000 0.359040
#
# Coordination Sequence:
#
# PCOD8077540 Si02
#       6
#     4   4   4   4   4   4
#     4   9  17  31  50  75 106 143 183 222 265 310
#     4  11  22  38  60  85 108 134 173 215 263 322
#     4   9  18  34  55  78 107 146 183 219 268 317
#     4   9  19  37  58  78 107 143 178 219 270 320
#     4   9  17  34  57  79 107 142 180 218 264 316
#     4  11  20  31  49  75 106 144 189 228 262 307
#
# _framework density 18.229254000000001
#
# number of rings (size 3 to 8) (size 9 to 14) (size 15 to 20)
#    0.000    2.333    1.667    3.000    0.000    3.333 
#    0.000    3.333    0.000    0.000    0.000    0.000 
#    0.000    0.000    0.000    0.000    0.000    0.000 
#
# Total GULP energy -297599.607184 kJ/mol
# GULP energy per Si atom -12399.983633 kJ/mol
# Density = 1.818776 g / cm^3
# Si number density = 18.229254 Si / 1000 Ang^3
#
#
#
# Elastic Constant Matrix: (Units=GPa)
#
#
# Indices 1 2 3 4 5 6 
#
# 1 121.6030 51.8863 77.2261 0.0000 7.0873 0.0000
# 2 51.8863 82.3798 45.3522 0.0000 6.5350 0.0000
# 3 77.2261 45.3522 149.5852 0.0000 -17.7455 0.0000
# 4 0.0000 0.0000 0.0000 20.5706 0.0000 -0.3018
# 5 7.0873 6.5350 -17.7455 0.0000 23.8751 0.0000
# 6 0.0000 0.0000 0.0000 -0.3018 0.0000 34.0858
#
#
#
# Elastic Compliance Matrix: (Units=1/GPa)
#
#
# Indices 1 2 3 4 5 6 
#
# 1 0.015765 -0.004970 -0.007705 0.000000 -0.009046 0.000000
# 2 -0.004970 0.017668 -0.003498 0.000000 -0.005961 0.000000
# 3 -0.007705 -0.003498 0.013279 0.000000 0.013115 0.000000
# 4 0.000000 0.000000 0.000000 0.048619 0.000000 0.000431
# 5 -0.009046 -0.005961 0.013115 0.000000 0.055949 0.000000
# 6 0.000000 0.000000 0.000000 0.000431 0.000000 0.029342
#
#
# Mechanical properties :
#
#
# Convention : Reuss Voigt Hill
#
# Bulk Modulus (GPa) = 69.60923 78.05524 73.83223
# Shear Modulus (GPa) = 22.96145 27.64651 25.30398
#
# Velocity S-wave (km/s) = 3.55293 3.89858 3.72976
# Velocity P-wave (km/s) = 7.42290 7.94839 7.69013
#
# Compressibility (1/GPa) = 0.01436591
#
# Stress axis : x y z
#
# Youngs Moduli (GPa) = 63.43364 56.60088 75.30419
#
# Poissons Ratio (x) = 0.28129 0.58023
# Poissons Ratio (y) = 0.31524 0.26341
# Poissons Ratio (z) = 0.48877 0.19799
#
# Static dielectric constant tensor:
#      x y z
#    x 3.445930 0.000000 -0.223200 
#    y 0.000000 3.308160 0.000000 
#    z -0.223200 0.000000 3.631220 
# 
# 
# High freq. dielectric constant tensor:
#      x y z
#    x 1.705380 0.000000 -0.012290 
#    y 0.000000 1.687070 0.000000 
#    z -0.012290 0.000000 1.700790 
# 
# From -- ./inp_files/51490.got.cif
#   From: 2010.06.25/outbox.cif.g09.slc.cpg/sg11_26_cif.got.tgz:51490.got - 2010.06.27 23:14:04.
