data_PCOD8077043
_publ_section_title
;
Structure prediction by ZEFSAII (Michael W. Deem and Ramdas Pophale) SiO2 
 PCOD8077043
Probable space group: P 21/M
;
_chemical_formula_sum "Si O2"
_cell_formula_units_Z 28
_cell_length_a 10.140541
_cell_length_b 27.250974
_cell_length_c 5.386791
_cell_angle_alpha 90.000000
_cell_angle_beta 58.999837
_cell_angle_gamma 90.000000
_cell_volume 1275.963154
_symmetry_space_group_name_H-M "P 21/M"
_symmetry_group_IT_number 11
_symmetry_cell_setting 'monoclinic'
loop_
_space_group_symop_operation_xyz
x,y,z
-x,1/2+y,-z
-x,-y,-z
x,1/2-y,z
loop_
_atom_site_type_symbol
_atom_site_label
_atom_site_fract_x
_atom_site_fract_y
_atom_site_fract_z
Si Si1 0.656975 0.354901 0.661444
Si Si2 0.889039 0.523544 0.914222
Si Si3 0.809460 0.456988 0.598876
Si Si4 0.371770 0.036223 0.524733
Si Si5 0.472691 0.141384 0.331058
Si Si6 0.982860 0.192261 0.325462
Si Si7 0.146316 0.191510 0.666862
O O1 0.703968 0.411379 0.641532
O O2 0.562317 0.348134 0.500109
O O3 0.803934 0.320489 0.500146
O O4 0.563318 0.339651 0.999436
O O5 0.807052 0.474280 0.884435
O O6 0.007706 0.554569 0.628751
O O7 0.745804 0.556775 0.147631
O O8 0.000000 0.500000 0.000000
O O9 0.743181 0.505690 0.534346
O O10 0.444991 0.083129 0.319577
O O11 0.500000 0.000000 0.500000
O O12 0.317803 0.171710 0.496929
O O13 0.001197 0.250000 0.305745
O O14 0.060408 0.171420 0.502728
O O15 0.061187 0.171166 0.997638
O O16 0.150838 0.250000 0.664166
#
# Coordination Sequence:
#
# PCOD8077043 Si02
#       7
#     4   4   4   4   4   4   4
#     4  12  26  42  65  98 136 171 218 271 326 395
#     4   9  21  37  57  85 113 166 219 266 316 366
#     4  10  22  39  60  86 125 170 221 271 314 375
#     4  11  22  39  60  85 132 172 218 260 324 384
#     4  12  27  41  66 102 132 179 216 269 337 381
#     4  10  23  45  73  98 129 173 215 270 334 395
#     4  10  23  46  72 100 131 167 218 273 328 396
#
# _framework density 21.944206000000001
#
# number of rings (size 3 to 8) (size 9 to 14) (size 15 to 20)
#    0.000    1.429    1.429    2.571    6.000    5.714 
#    0.000    0.000    0.000    0.000    0.000    0.000 
#    0.000    0.000    0.000    0.000    0.000    0.000 
#
# Total GULP energy -346918.624562 kJ/mol
# GULP energy per Si atom -12389.950877 kJ/mol
# Density = 2.189426 g / cm^3
# Si number density = 21.944206 Si / 1000 Ang^3
#
#
#
# Elastic Constant Matrix: (Units=GPa)
#
#
# Indices 1 2 3 4 5 6 
#
# 1 151.8106 13.1534 72.2299 0.0000 6.4106 0.0000
# 2 13.1534 8.5752 15.7539 0.0000 3.3754 0.0000
# 3 72.2299 15.7539 180.2103 0.0000 -2.2569 0.0000
# 4 0.0000 0.0000 0.0000 24.8117 0.0000 -12.5405
# 5 6.4106 3.3754 -2.2569 0.0000 43.7543 0.0000
# 6 0.0000 0.0000 0.0000 -12.5405 0.0000 32.6886
#
#
#
# Elastic Compliance Matrix: (Units=1/GPa)
#
#
# Indices 1 2 3 4 5 6 
#
# 1 0.008621 -0.007791 -0.002784 0.000000 -0.000806 0.000000
# 2 -0.007791 0.151842 -0.010290 0.000000 -0.011103 0.000000
# 3 -0.002784 -0.010290 0.007585 0.000000 0.001593 0.000000
# 4 0.000000 0.000000 0.000000 0.049998 0.000000 0.019181
# 5 -0.000806 -0.011103 0.001593 0.000000 0.023912 0.000000
# 6 0.000000 0.000000 0.000000 0.019181 0.000000 0.037950
#
#
# Mechanical properties :
#
#
# Convention : Reuss Voigt Hill
#
# Bulk Modulus (GPa) = 7.91665 60.31893 34.11779
# Shear Modulus (GPa) = 13.74589 36.21486 24.98038
#
# Velocity S-wave (km/s) = 2.50552 4.06681 3.37762
# Velocity P-wave (km/s) = 3.46203 7.04266 5.54908
#
# Compressibility (1/GPa) = 0.12631602
#
# Stress axis : x y z
#
# Youngs Moduli (GPa) = 115.99565 6.58579 131.84647
#
# Poissons Ratio (x) = 0.05131 0.36711
# Poissons Ratio (y) = 0.90376 1.35673
# Poissons Ratio (z) = 0.32297 0.06777
#
# Static dielectric constant tensor:
#      x y z
#    x -0.716480 0.000000 0.469340 
#    y 0.000000 3.700050 0.000000 
#    z 0.469340 0.000000 5.612960 
# 
# 
# High freq. dielectric constant tensor:
#      x y z
#    x 1.885260 0.000000 -0.004200 
#    y 0.000000 1.835440 0.000000 
#    z -0.004200 0.000000 1.883250 
# 
# From -- ./inp_files/3348.got.cif
#   From: 2010.06.25/outbox.cif.g09.slc.cpg/sg11_2_cif.got.tgz:3348.got - 2010.06.27 23:14:04.
