data_PCOD8077907
_publ_section_title
;
Structure prediction by ZEFSAII (Michael W. Deem and Ramdas Pophale) SiO2 
 PCOD8077907
Probable space group: P 21/M
;
_chemical_formula_sum "Si O2"
_cell_formula_units_Z 24
_cell_length_a 13.513478
_cell_length_b 13.928677
_cell_length_c 10.620782
_cell_angle_alpha 90.000000
_cell_angle_beta 146.470962
_cell_angle_gamma 90.000000
_cell_volume 1104.219358
_symmetry_space_group_name_H-M "P 21/M"
_symmetry_group_IT_number 11
_symmetry_cell_setting 'monoclinic'
loop_
_space_group_symop_operation_xyz
x,y,z
-x,1/2+y,-z
-x,-y,-z
x,1/2-y,z
loop_
_atom_site_type_symbol
_atom_site_label
_atom_site_fract_x
_atom_site_fract_y
_atom_site_fract_z
Si Si1 0.837629 0.929389 0.307197
Si Si2 0.917906 0.538632 0.041531
Si Si3 0.041680 0.250000 0.197226
Si Si4 0.618834 0.454932 0.881898
Si Si5 0.222855 0.433221 0.478088
Si Si6 0.042248 0.750000 0.435557
Si Si7 0.743130 0.250000 0.087443
Si Si8 0.988042 0.750000 0.107853
O O1 0.756745 0.899040 0.356130
O O2 0.909219 0.838878 0.308030
O O3 0.000000 0.000000 0.500000
O O4 0.678941 0.977973 0.060356
O O5 0.870761 0.651931 0.989791
O O6 0.071667 0.516671 0.309302
O O7 0.739995 0.478128 0.887928
O O8 0.000000 0.500000 0.000000
O O9 0.166319 0.343921 0.330633
O O10 0.922103 0.250000 0.194579
O O11 0.925604 0.250000 0.942311
O O12 0.411876 0.474972 0.629030
O O13 0.630309 0.343802 0.935132
O O14 0.202710 0.750000 0.707096
O O15 0.117761 0.750000 0.369727
#
# Coordination Sequence:
#
# PCOD8077907 Si02
#       8
#     4   4   2   4   4   2   2   2
#     4  12  20  41  66  96 135 175 216 277 347 403
#     4  12  24  46  69  94 136 180 226 276 342 408
#     4  12  21  45  69  97 132 177 232 276 330 403
#     4  12  25  41  69 102 133 175 228 285 340 400
#     4  12  24  42  70 100 134 177 227 284 337 406
#     4  12  20  36  71  92 135 181 216 273 350 400
#     4  12  21  42  70  98 132 176 229 281 332 408
#     4  12  24  41  70  99 131 182 221 278 342 403
#
# _framework density 21.734812000000002
#
# number of rings (size 3 to 8) (size 9 to 14) (size 15 to 20)
#    0.000    0.000   10.000    1.000    0.000    0.667 
#    0.000    1.667    0.000    0.000    0.000    0.000 
#    0.000    0.000    0.000    0.000    0.000    0.000 
#
# Total GULP energy -297480.150451 kJ/mol
# GULP energy per Si atom -12395.006269 kJ/mol
# Density = 2.168534 g / cm^3
# Si number density = 21.734812 Si / 1000 Ang^3
#
#
#
# Elastic Constant Matrix: (Units=GPa)
#
#
# Indices 1 2 3 4 5 6 
#
# 1 127.7046 11.7788 41.4649 0.0000 -20.1127 0.0000
# 2 11.7788 154.3114 23.3967 0.0000 2.0419 0.0000
# 3 41.4649 23.3967 72.9209 0.0000 12.5805 0.0000
# 4 0.0000 0.0000 0.0000 23.4756 0.0000 -8.0954
# 5 -20.1127 2.0419 12.5805 0.0000 49.7619 0.0000
# 6 0.0000 0.0000 0.0000 -8.0954 0.0000 24.4715
#
#
#
# Elastic Compliance Matrix: (Units=1/GPa)
#
#
# Indices 1 2 3 4 5 6 
#
# 1 0.011305 0.000206 -0.007613 0.000000 0.006486 0.000000
# 2 0.000206 0.006819 -0.002375 0.000000 0.000404 0.000000
# 3 -0.007613 -0.002375 0.020200 0.000000 -0.008086 0.000000
# 4 0.000000 0.000000 0.000000 0.048083 0.000000 0.015906
# 5 0.006486 0.000404 -0.008086 0.000000 0.024745 0.000000
# 6 0.000000 0.000000 0.000000 0.015906 0.000000 0.046126
#
#
# Mechanical properties :
#
#
# Convention : Reuss Voigt Hill
#
# Bulk Modulus (GPa) = 53.30605 56.46865 54.88735
# Shear Modulus (GPa) = 27.30826 38.09488 32.70157
#
# Velocity S-wave (km/s) = 3.54846 4.19108 3.88309
# Velocity P-wave (km/s) = 6.43177 7.03259 6.73888
#
# Compressibility (1/GPa) = 0.01875960
#
# Stress axis : x y z
#
# Youngs Moduli (GPa) = 88.45631 146.64050 49.50611
#
# Poissons Ratio (x) = -0.03014 0.37690
# Poissons Ratio (y) = -0.01818 0.11755
# Poissons Ratio (z) = 0.67344 0.34820
#
# Static dielectric constant tensor:
#      x y z
#    x 4.669510 0.000000 -0.764200 
#    y 0.000000 4.236490 0.000000 
#    z -0.764200 0.000000 4.030720 
# 
# 
# High freq. dielectric constant tensor:
#      x y z
#    x 1.858370 0.000000 -0.031020 
#    y 0.000000 1.871420 0.000000 
#    z -0.031020 0.000000 1.824100 
# 
# From -- ./inp_files/39773.got.cif
#   From: 2010.06.25/outbox.cif.g09.slc.cpg/sg11_20_cif.got.tgz:39773.got - 2010.06.27 23:14:04.
