data_PCOD8077791
_publ_section_title
;
Structure prediction by ZEFSAII (Michael W. Deem and Ramdas Pophale) SiO2 
 PCOD8077791
Probable space group: P 21/M
;
_chemical_formula_sum "Si O2"
_cell_formula_units_Z 32
_cell_length_a 21.023068
_cell_length_b 9.285257
_cell_length_c 27.563612
_cell_angle_alpha 90.000000
_cell_angle_beta 160.986906
_cell_angle_gamma 90.000000
_cell_volume 1752.896233
_symmetry_space_group_name_H-M "P 21/M"
_symmetry_group_IT_number 11
_symmetry_cell_setting 'monoclinic'
loop_
_space_group_symop_operation_xyz
x,y,z
-x,1/2+y,-z
-x,-y,-z
x,1/2-y,z
loop_
_atom_site_type_symbol
_atom_site_label
_atom_site_fract_x
_atom_site_fract_y
_atom_site_fract_z
Si Si1 0.889791 0.082731 0.554419
Si Si2 0.182147 0.090749 0.845494
Si Si3 0.850847 0.921201 0.427322
Si Si4 0.157109 0.578788 0.080641
Si Si5 0.912672 0.418509 0.079814
Si Si6 0.418766 0.918502 0.085703
Si Si7 0.451721 0.582734 0.616137
Si Si8 0.836011 0.409257 0.672632
O O1 0.895690 0.250000 0.542271
O O2 0.700852 0.053760 0.450964
O O3 0.088426 0.042579 0.726709
O O4 0.883043 0.975779 0.504701
O O5 0.272154 0.250000 0.905425
O O6 0.009457 0.091247 0.759441
O O7 0.355075 0.986950 0.988266
O O8 0.880917 0.750000 0.447055
O O9 0.635737 0.967428 0.255131
O O10 0.000000 0.000000 0.500000
O O11 0.145705 0.750000 0.079586
O O12 0.369671 0.524223 0.248349
O O13 0.114623 0.532514 0.994899
O O14 0.000000 0.500000 0.000000
O O15 0.939578 0.250000 0.103703
O O16 0.111389 0.486945 0.244694
O O17 0.722843 0.471040 0.972955
O O18 0.403744 0.750000 0.067718
O O19 0.517966 0.750000 0.664320
O O20 0.358092 0.542598 0.496286
O O21 0.805923 0.250000 0.672591
#
# Coordination Sequence:
#
# PCOD8077791 Si02
#       8
#     4   4   4   4   4   4   4   4
#     4   9  18  34  56  81 107 134 167 209 256 306
#     4   8  15  29  51  79 106 130 161 204 252 303
#     4  11  23  37  52  73 104 140 178 217 258 305
#     4  11  23  37  52  73 104 140 178 217 258 305
#     4   9  18  33  53  77 103 130 164 209 257 304
#     4   9  18  33  53  77 103 130 164 209 257 304
#     4   9  18  34  56  81 107 134 167 209 256 306
#     4   8  15  29  51  79 106 130 161 204 252 303
#
# _framework density 18.255502
#
# number of rings (size 3 to 8) (size 9 to 14) (size 15 to 20)
#    0.000    2.750    0.000    3.000    0.000    4.500 
#    0.000    6.250    0.000    0.000    0.000    0.000 
#    0.000    0.000    0.000    0.000    0.000    0.000 
#
# Total GULP energy -396703.346791 kJ/mol
# GULP energy per Si atom -12396.979587 kJ/mol
# Density = 1.821395 g / cm^3
# Si number density = 18.255502 Si / 1000 Ang^3
#
#
#
# Elastic Constant Matrix: (Units=GPa)
#
#
# Indices 1 2 3 4 5 6 
#
# 1 68.0708 51.3346 81.3642 0.0000 -3.8670 0.0000
# 2 51.3346 70.3869 67.2351 0.0000 -10.6935 0.0000
# 3 81.3642 67.2351 127.4715 0.0000 -35.9995 0.0000
# 4 0.0000 0.0000 0.0000 38.2614 0.0000 -5.5807
# 5 -3.8670 -10.6935 -35.9995 0.0000 18.9697 0.0000
# 6 0.0000 0.0000 0.0000 -5.5807 0.0000 30.2293
#
#
#
# Elastic Compliance Matrix: (Units=1/GPa)
#
#
# Indices 1 2 3 4 5 6 
#
# 1 -0.034788 -0.012305 0.053299 0.000000 0.087119 0.000000
# 2 -0.012305 0.032537 -0.010421 0.000000 -0.003944 0.000000
# 3 0.053299 -0.010421 -0.041524 0.000000 -0.073811 0.000000
# 4 0.000000 0.000000 0.000000 0.026859 0.000000 0.004959
# 5 0.087119 -0.003944 -0.073811 0.000000 -0.071822 0.000000
# 6 0.000000 0.000000 0.000000 0.004959 0.000000 0.033996
#
#
# Mechanical properties :
#
#
# Convention : Reuss Voigt Hill
#
# Bulk Modulus (GPa) = 57.56951 73.97745 65.77348
# Shear Modulus (GPa) = -45.41397 21.89176 -11.76110
#
# Velocity S-wave (km/s) = -4.99308 3.46668 -2.54096
# Velocity P-wave (km/s) = 1.27956 7.52564 5.24395
#
# Compressibility (1/GPa) = 0.01737031
#
# Stress axis : x y z
#
# Youngs Moduli (GPa) = -28.74529 30.73441 -24.08245
#
# Poissons Ratio (x) = 0.37819 1.28357
# Poissons Ratio (y) = -0.35371 -0.25097
# Poissons Ratio (z) = 1.53210 0.32029
#
# Static dielectric constant tensor:
#      x y z
#    x 3.223360 0.000000 -0.242530 
#    y 0.000000 3.422840 0.000000 
#    z -0.242530 0.000000 3.570760 
# 
# 
# High freq. dielectric constant tensor:
#      x y z
#    x 1.686860 0.000000 -0.019280 
#    y 0.000000 1.705790 0.000000 
#    z -0.019280 0.000000 1.714560 
# 
# From -- ./inp_files/72114.got.cif
#   From: 2010.06.25/outbox.cif.g09.slc.cpg/sg11_37_cif.got.tgz:72114.got - 2010.06.27 23:14:04.
