data_PCOD8077025
_publ_section_title
;
Structure prediction by ZEFSAII (Michael W. Deem and Ramdas Pophale) SiO2 
 PCOD8077025
Probable space group: P 21/M
;
_chemical_formula_sum "Si O2"
_cell_formula_units_Z 24
_cell_length_a 14.813122
_cell_length_b 15.831910
_cell_length_c 8.775415
_cell_angle_alpha 90.000000
_cell_angle_beta 38.919097
_cell_angle_gamma 90.000000
_cell_volume 1292.888297
_symmetry_space_group_name_H-M "P 21/M"
_symmetry_group_IT_number 11
_symmetry_cell_setting 'monoclinic'
loop_
_space_group_symop_operation_xyz
x,y,z
-x,1/2+y,-z
-x,-y,-z
x,1/2-y,z
loop_
_atom_site_type_symbol
_atom_site_label
_atom_site_fract_x
_atom_site_fract_y
_atom_site_fract_z
Si Si1 0.819184 0.583612 0.781713
Si Si2 0.385166 0.655811 0.948904
Si Si3 0.701379 0.847573 0.634045
Si Si4 0.155313 0.000771 0.726311
Si Si5 0.868554 0.090027 0.546984
Si Si6 0.656526 0.485743 0.235772
O O1 0.739683 0.642154 0.762494
O O2 0.852213 0.493752 0.666647
O O3 0.969905 0.626292 0.637763
O O4 0.716384 0.566962 0.062941
O O5 0.404602 0.750000 0.860573
O O6 0.534714 0.625453 0.829888
O O7 0.339960 0.598469 0.867878
O O8 0.255346 0.655436 0.241713
O O9 0.727825 0.750000 0.553079
O O10 0.800548 0.906965 0.397601
O O11 0.159760 0.929830 0.591369
O O12 0.254775 0.968916 0.729861
O O13 0.000000 0.000000 0.000000
O O14 0.500000 0.500000 0.500000
#
# Coordination Sequence:
#
# PCOD8077025 Si02
#       6
#     4   4   4   4   4   4
#     4   9  19  35  56  82 108 146 190 227 275 341
#     4  10  22  39  57  83 117 153 195 241 286 338
#     4  10  22  39  58  83 116 154 193 239 289 339
#     4  11  21  38  61  87 116 151 193 237 287 349
#     4   9  19  35  57  80 109 146 189 230 272 339
#     4  11  21  36  61  88 114 153 192 234 289 343
#
# _framework density 18.563088
#
# number of rings (size 3 to 8) (size 9 to 14) (size 15 to 20)
#    0.000    2.000    3.333    0.000    4.667    2.667 
#    0.000    3.333    0.000    0.000    0.000    0.000 
#    0.000    0.000    0.000    0.000    0.000    0.000 
#
# Total GULP energy -297503.632823 kJ/mol
# GULP energy per Si atom -12395.984701 kJ/mol
# Density = 1.852084 g / cm^3
# Si number density = 18.563088 Si / 1000 Ang^3
#
#
#
# Elastic Constant Matrix: (Units=GPa)
#
#
# Indices 1 2 3 4 5 6 
#
# 1 170.9714 40.2997 66.8892 0.0000 -3.2002 0.0000
# 2 40.2997 63.8068 30.2563 0.0000 -0.8551 0.0000
# 3 66.8892 30.2563 149.1881 0.0000 -11.4742 0.0000
# 4 0.0000 0.0000 0.0000 21.2901 0.0000 -0.9759
# 5 -3.2002 -0.8551 -11.4742 0.0000 37.5221 0.0000
# 6 0.0000 0.0000 0.0000 -0.9759 0.0000 21.0092
#
#
#
# Elastic Compliance Matrix: (Units=1/GPa)
#
#
# Indices 1 2 3 4 5 6 
#
# 1 0.007779 -0.003599 -0.002779 0.000000 -0.000268 0.000000
# 2 -0.003599 0.019023 -0.002288 0.000000 -0.000573 0.000000
# 3 -0.002779 -0.002288 0.008593 0.000000 0.002338 0.000000
# 4 0.000000 0.000000 0.000000 0.047070 0.000000 0.002186
# 5 -0.000268 -0.000573 0.002338 0.000000 0.027330 0.000000
# 6 0.000000 0.000000 0.000000 0.002186 0.000000 0.047700
#
#
# Mechanical properties :
#
#
# Convention : Reuss Voigt Hill
#
# Bulk Modulus (GPa) = 55.36303 73.20631 64.28467
# Shear Modulus (GPa) = 27.64740 32.39901 30.02320
#
# Velocity S-wave (km/s) = 3.86343 4.18227 4.02600
# Velocity P-wave (km/s) = 7.05623 7.92741 7.50448
#
# Compressibility (1/GPa) = 0.01806260
#
# Stress axis : x y z
#
# Youngs Moduli (GPa) = 128.54475 52.56778 116.37834
#
# Poissons Ratio (x) = 0.18921 0.32337
# Poissons Ratio (y) = 0.46269 0.26631
# Poissons Ratio (z) = 0.35717 0.12029
#
# Static dielectric constant tensor:
#      x y z
#    x 3.655970 0.000000 0.098180 
#    y 0.000000 3.138980 0.000000 
#    z 0.098180 0.000000 4.175180 
# 
# 
# High freq. dielectric constant tensor:
#      x y z
#    x 1.737870 0.000000 -0.009320 
#    y 0.000000 1.687140 0.000000 
#    z -0.009320 0.000000 1.730590 
# 
# From -- ./inp_files/13283.got.cif
#   From: 2010.06.25/outbox.cif.g09.slc.cpg/sg11_7_cif.got.tgz:13283.got - 2010.06.27 23:14:04.
