data_PCOD8077864
_publ_section_title
;
Structure prediction by ZEFSAII (Michael W. Deem and Ramdas Pophale) SiO2 
 PCOD8077864
Probable space group: P 21/M
;
_chemical_formula_sum "Si O2"
_cell_formula_units_Z 24
_cell_length_a 22.202487
_cell_length_b 9.284115
_cell_length_c 11.385079
_cell_angle_alpha 90.000000
_cell_angle_beta 147.950561
_cell_angle_gamma 90.000000
_cell_volume 1245.337391
_symmetry_space_group_name_H-M "P 21/M"
_symmetry_group_IT_number 11
_symmetry_cell_setting 'monoclinic'
loop_
_space_group_symop_operation_xyz
x,y,z
-x,1/2+y,-z
-x,-y,-z
x,1/2-y,z
loop_
_atom_site_type_symbol
_atom_site_label
_atom_site_fract_x
_atom_site_fract_y
_atom_site_fract_z
Si Si1 0.383049 0.921153 0.836391
Si Si2 0.353724 0.414264 0.016906
Si Si3 0.751745 0.915032 0.913915
Si Si4 0.565887 0.086074 0.511388
Si Si5 0.934363 0.914137 0.045701
Si Si6 0.832707 0.081966 0.667558
O O1 0.402610 0.750000 0.875357
O O2 0.289497 0.964052 0.584639
O O3 0.331355 0.977199 0.873815
O O4 0.500000 0.000000 0.000000
O O5 0.321141 0.250000 0.928801
O O6 0.276342 0.467300 0.999905
O O7 0.489472 0.420974 0.267839
O O8 0.710186 0.750000 0.836793
O O9 0.686783 0.006576 0.704990
O O10 0.884421 0.932712 0.096326
O O11 0.585872 0.250000 0.583056
O O12 0.500000 0.000000 0.500000
O O13 0.920947 0.750000 0.982497
O O14 0.067003 0.958434 0.260344
O O15 0.857378 0.004529 0.829886
O O16 0.831285 0.250000 0.692245
#
# Coordination Sequence:
#
# PCOD8077864 Si02
#       6
#     4   4   4   4   4   4
#     4  11  24  39  56  77 107 146 184 222 267 321
#     4   9  19  35  51  74 109 143 176 217 266 319
#     4   9  18  32  53  81 108 137 175 220 271 321
#     4   9  17  29  47  72 105 140 173 215 261 308
#     4   9  18  35  60  84 107 138 177 221 272 326
#     4   9  20  38  56  79 110 141 178 226 272 315
#
# _framework density 19.271885999999999
#
# number of rings (size 3 to 8) (size 9 to 14) (size 15 to 20)
#    0.000    2.667    0.000    2.000    2.333    5.333 
#    0.000    0.833    0.000    0.000    0.000    0.000 
#    0.000    0.000    0.000    0.000    0.000    0.000 
#
# Total GULP energy -297347.007817 kJ/mol
# GULP energy per Si atom -12389.458659 kJ/mol
# Density = 1.922802 g / cm^3
# Si number density = 19.271886 Si / 1000 Ang^3
#
#
#
# Elastic Constant Matrix: (Units=GPa)
#
#
# Indices 1 2 3 4 5 6 
#
# 1 111.7195 29.4880 42.1379 0.0000 16.9629 0.0000
# 2 29.4880 71.8267 39.1621 0.0000 -0.2493 0.0000
# 3 42.1379 39.1621 89.5671 0.0000 10.5993 0.0000
# 4 0.0000 0.0000 0.0000 26.9130 0.0000 -2.8376
# 5 16.9629 -0.2493 10.5993 0.0000 24.5120 0.0000
# 6 0.0000 0.0000 0.0000 -2.8376 0.0000 27.0632
#
#
#
# Elastic Compliance Matrix: (Units=1/GPa)
#
#
# Indices 1 2 3 4 5 6 
#
# 1 0.012152 -0.003074 -0.003556 0.000000 -0.006903 0.000000
# 2 -0.003074 0.019407 -0.007709 0.000000 0.005658 0.000000
# 3 -0.003556 -0.007709 0.016785 0.000000 -0.004876 0.000000
# 4 0.000000 0.000000 0.000000 0.037572 0.000000 0.003939
# 5 -0.006903 0.005658 -0.004876 0.000000 0.047739 0.000000
# 6 0.000000 0.000000 0.000000 0.003939 0.000000 0.037364
#
#
# Mechanical properties :
#
#
# Convention : Reuss Voigt Hill
#
# Bulk Modulus (GPa) = 50.84775 54.96545 52.90660
# Shear Modulus (GPa) = 24.24214 26.51932 25.38073
#
# Velocity S-wave (km/s) = 3.55054 3.71356 3.63296
# Velocity P-wave (km/s) = 6.57648 6.85349 6.71641
#
# Compressibility (1/GPa) = 0.01966655
#
# Stress axis : x y z
#
# Youngs Moduli (GPa) = 82.29328 51.52736 59.57551
#
# Poissons Ratio (x) = 0.15839 0.21185
# Poissons Ratio (y) = 0.25296 0.45926
# Poissons Ratio (z) = 0.29263 0.39722
#
# Static dielectric constant tensor:
#      x y z
#    x 3.491650 0.000000 0.144350 
#    y 0.000000 3.651680 0.000000 
#    z 0.144350 0.000000 3.479490 
# 
# 
# High freq. dielectric constant tensor:
#      x y z
#    x 1.756270 0.000000 0.018240 
#    y 0.000000 1.751360 0.000000 
#    z 0.018240 0.000000 1.719990 
# 
# From -- ./inp_files/44029.got.cif
#   From: 2010.06.25/outbox.cif.g09.slc.cpg/sg11_23_cif.got.tgz:44029.got - 2010.06.27 23:14:04.
