data_PCOD8077511
_publ_section_title
;
Structure prediction by ZEFSAII (Michael W. Deem and Ramdas Pophale) SiO2 
 PCOD8077511
Probable space group: P 21/M
;
_chemical_formula_sum "Si O2"
_cell_formula_units_Z 28
_cell_length_a 17.603599
_cell_length_b 20.283767
_cell_length_c 11.894901
_cell_angle_alpha 90.000000
_cell_angle_beta 19.022097
_cell_angle_gamma 90.000000
_cell_volume 1384.327857
_symmetry_space_group_name_H-M "P 21/M"
_symmetry_group_IT_number 11
_symmetry_cell_setting 'monoclinic'
loop_
_space_group_symop_operation_xyz
x,y,z
-x,1/2+y,-z
-x,-y,-z
x,1/2-y,z
loop_
_atom_site_type_symbol
_atom_site_label
_atom_site_fract_x
_atom_site_fract_y
_atom_site_fract_z
Si Si1 0.119453 0.487813 0.181403
Si Si2 0.371603 0.561812 0.125891
Si Si3 0.748165 0.171808 0.525974
Si Si4 0.535918 0.414887 0.245458
Si Si5 0.818176 0.488295 0.157342
Si Si6 0.728446 0.676021 0.233934
Si Si7 0.498465 0.379683 0.661120
O O1 0.873881 0.466374 0.577474
O O2 0.194791 0.562454 0.112340
O O3 0.077571 0.487963 0.105918
O O4 0.309967 0.435087 0.958908
O O5 0.346670 0.625703 0.240324
O O6 0.500000 0.500000 0.000000
O O7 0.520676 0.584794 0.808260
O O8 0.744978 0.250000 0.564533
O O9 0.576821 0.161608 0.660165
O O10 0.009806 0.145055 0.131307
O O11 0.405040 0.467713 0.506063
O O12 0.450330 0.346823 0.418459
O O13 0.728342 0.412846 0.283253
O O14 0.000000 0.500000 0.000000
O O15 0.771653 0.750000 0.204708
O O16 0.614527 0.669406 0.270689
#
# Coordination Sequence:
#
# PCOD8077511 Si02
#       7
#     4   4   4   4   4   4   4
#     4  11  20  38  61  94 127 162 207 257 315 379
#     4  12  24  40  63  94 129 167 210 258 318 378
#     4  11  25  43  65  92 126 171 217 259 312 382
#     4  11  21  36  56  92 125 159 197 260 316 367
#     4  11  19  33  62  93 127 157 199 259 320 364
#     4  11  22  41  65  90 123 166 214 260 312 376
#     4  11  19  38  66  91 122 156 214 261 307 371
#
# _framework density 20.226423
#
# number of rings (size 3 to 8) (size 9 to 14) (size 15 to 20)
#    0.000    0.857    4.286    6.000    0.000    0.571 
#    0.000    0.000    0.000    0.857    0.000    0.000 
#    0.000    0.000    0.000    0.000    0.000    0.000 
#
# Total GULP energy -347000.323799 kJ/mol
# GULP energy per Si atom -12392.868707 kJ/mol
# Density = 2.018039 g / cm^3
# Si number density = 20.226423 Si / 1000 Ang^3
#
#
#
# Elastic Constant Matrix: (Units=GPa)
#
#
# Indices 1 2 3 4 5 6 
#
# 1 100.6254 13.2990 27.3941 0.0000 -2.1509 0.0000
# 2 13.2990 71.6226 20.1220 0.0000 -1.8154 0.0000
# 3 27.3941 20.1220 61.9776 0.0000 2.4449 0.0000
# 4 0.0000 0.0000 0.0000 24.9179 0.0000 -1.9699
# 5 -2.1509 -1.8154 2.4449 0.0000 40.5207 0.0000
# 6 0.0000 0.0000 0.0000 -1.9699 0.0000 31.3102
#
#
#
# Elastic Compliance Matrix: (Units=1/GPa)
#
#
# Indices 1 2 3 4 5 6 
#
# 1 0.011365 -0.000735 -0.004819 0.000000 0.000861 0.000000
# 2 -0.000735 0.015451 -0.004729 0.000000 0.000939 0.000000
# 3 -0.004819 -0.004729 0.019866 0.000000 -0.001666 0.000000
# 4 0.000000 0.000000 0.000000 0.040332 0.000000 0.002538
# 5 0.000861 0.000939 -0.001666 0.000000 0.024867 0.000000
# 6 0.000000 0.000000 0.000000 0.002538 0.000000 0.032098
#
#
# Mechanical properties :
#
#
# Convention : Reuss Voigt Hill
#
# Bulk Modulus (GPa) = 38.28862 39.53952 38.91407
# Shear Modulus (GPa) = 28.86008 30.91043 29.88526
#
# Velocity S-wave (km/s) = 3.78147 3.91349 3.84804
# Velocity P-wave (km/s) = 6.16742 6.32546 6.24694
#
# Compressibility (1/GPa) = 0.02611742
#
# Stress axis : x y z
#
# Youngs Moduli (GPa) = 87.98760 64.72168 50.33779
#
# Poissons Ratio (x) = 0.04755 0.24257
# Poissons Ratio (y) = 0.06464 0.23803
# Poissons Ratio (z) = 0.42400 0.30605
#
# Static dielectric constant tensor:
#      x y z
#    x 3.621820 0.000000 0.134770 
#    y 0.000000 3.711230 0.000000 
#    z 0.134770 0.000000 3.175890 
# 
# 
# High freq. dielectric constant tensor:
#      x y z
#    x 1.802450 0.000000 -0.005150 
#    y 0.000000 1.774400 0.000000 
#    z -0.005150 0.000000 1.785250 
# 
# From -- ./inp_files/41990.got.cif
#   From: 2010.06.25/outbox.cif.g09.slc.cpg/sg11_21_cif.got.tgz:41990.got - 2010.06.27 23:14:04.
