data_PCOD8077098
_publ_section_title
;
Structure prediction by ZEFSAII (Michael W. Deem and Ramdas Pophale) SiO2 
 PCOD8077098
Probable space group: P 21/M
;
_chemical_formula_sum "Si O2"
_cell_formula_units_Z 28
_cell_length_a 28.477956
_cell_length_b 8.809953
_cell_length_c 8.907315
_cell_angle_alpha 90.000000
_cell_angle_beta 39.133530
_cell_angle_gamma 90.000000
_cell_volume 1410.418310
_symmetry_space_group_name_H-M "P 21/M"
_symmetry_group_IT_number 11
_symmetry_cell_setting 'monoclinic'
loop_
_space_group_symop_operation_xyz
x,y,z
-x,1/2+y,-z
-x,-y,-z
x,1/2-y,z
loop_
_atom_site_type_symbol
_atom_site_label
_atom_site_fract_x
_atom_site_fract_y
_atom_site_fract_z
Si Si1 0.362135 0.575194 0.519639
Si Si2 0.929921 0.571397 0.093220
Si Si3 0.928957 0.570539 0.754384
Si Si4 0.351619 0.573498 0.195754
Si Si5 0.210386 0.572354 0.059733
Si Si6 0.783073 0.571845 0.635318
Si Si7 0.498784 0.072525 0.341023
O O1 0.381365 0.750000 0.503984
O O2 0.356809 0.540077 0.358106
O O3 0.426398 0.473863 0.429182
O O4 0.284854 0.528806 0.787097
O O5 0.940202 0.750000 0.069690
O O6 0.924577 0.511180 0.936135
O O7 0.855941 0.521447 0.363459
O O8 0.000000 0.500000 0.000000
O O9 0.935903 0.750000 0.730291
O O10 0.855937 0.521343 0.847874
O O11 0.000000 0.500000 0.500000
O O12 0.333771 0.750000 0.207476
O O13 0.287763 0.467152 0.289237
O O14 0.428621 0.521350 0.930349
O O15 0.192350 0.750000 0.093196
O O16 0.220566 0.526157 0.205962
O O17 0.783757 0.750000 0.671714
O O18 0.497711 0.250000 0.366608
O O19 0.500000 0.000000 0.500000
#
# Coordination Sequence:
#
# PCOD8077098 Si02
#       7
#     4   4   4   4   4   4   4
#     4  10  22  40  61  85 116 152 193 239 289 342
#     4  10  23  40  59  85 116 150 190 234 282 336
#     4  11  23  40  61  87 118 152 192 238 286 340
#     4  10  22  40  60  85 116 152 192 237 288 343
#     4  11  23  39  60  87 117 152 192 237 288 342
#     4  11  23  39  60  87 117 152 193 237 284 340
#     4  11  23  38  59  86 117 152 193 238 287 343
#
# _framework density 19.852266
#
# number of rings (size 3 to 8) (size 9 to 14) (size 15 to 20)
#    0.000    1.429    0.000    4.714    0.000   10.857 
#    0.000    0.000    0.000    0.000    0.000    0.000 
#    0.000    0.000    0.000    0.000    0.000    0.000 
#
# Total GULP energy -347382.949566 kJ/mol
# GULP energy per Si atom -12406.533913 kJ/mol
# Density = 1.980708 g / cm^3
# Si number density = 19.852266 Si / 1000 Ang^3
#
#
#
# Elastic Constant Matrix: (Units=GPa)
#
#
# Indices 1 2 3 4 5 6 
#
# 1 121.0895 30.9842 74.6093 0.0000 -4.5157 0.0000
# 2 30.9842 49.6322 51.3806 0.0000 -4.8114 0.0000
# 3 74.6093 51.3806 189.0554 0.0000 4.9937 0.0000
# 4 0.0000 0.0000 0.0000 31.5177 0.0000 -3.7291
# 5 -4.5157 -4.8114 4.9937 0.0000 41.3140 0.0000
# 6 0.0000 0.0000 0.0000 -3.7291 0.0000 43.3056
#
#
#
# Elastic Compliance Matrix: (Units=1/GPa)
#
#
# Indices 1 2 3 4 5 6 
#
# 1 0.011377 -0.003188 -0.003658 0.000000 0.001314 0.000000
# 2 -0.003188 0.029675 -0.006911 0.000000 0.003943 0.000000
# 3 -0.003658 -0.006911 0.008671 0.000000 -0.002253 0.000000
# 4 0.000000 0.000000 0.000000 0.032055 0.000000 0.002760
# 5 0.001314 0.003943 -0.002253 0.000000 0.025080 0.000000
# 6 0.000000 0.000000 0.000000 0.002760 0.000000 0.023329
#
#
# Mechanical properties :
#
#
# Convention : Reuss Voigt Hill
#
# Bulk Modulus (GPa) = 45.02734 74.85835 59.94285
# Shear Modulus (GPa) = 30.28385 36.74765 33.51575
#
# Velocity S-wave (km/s) = 3.90995 4.30706 4.11330
# Velocity P-wave (km/s) = 6.56613 7.90721 7.26767
#
# Compressibility (1/GPa) = 0.02220873
#
# Stress axis : x y z
#
# Youngs Moduli (GPa) = 87.89577 33.69833 115.32868
#
# Poissons Ratio (x) = 0.10743 0.42189
# Poissons Ratio (y) = 0.28021 0.79703
# Poissons Ratio (z) = 0.32154 0.23289
#
# Static dielectric constant tensor:
#      x y z
#    x 3.726800 0.000000 0.017700 
#    y 0.000000 3.592820 0.000000 
#    z 0.017700 0.000000 3.965190 
# 
# 
# High freq. dielectric constant tensor:
#      x y z
#    x 1.791440 0.000000 0.002580 
#    y 0.000000 1.776100 0.000000 
#    z 0.002580 0.000000 1.797170 
# 
# From -- ./inp_files/28258.got.cif
#   From: 2010.06.25/outbox.cif.g09.slc.cpg/sg11_15_cif.got.tgz:28258.got - 2010.06.27 23:14:04.
