data_PCOD8077111
_publ_section_title
;
Structure prediction by ZEFSAII (Michael W. Deem and Ramdas Pophale) SiO2 
 PCOD8077111
Probable space group: P 21/M
;
_chemical_formula_sum "Si O2"
_cell_formula_units_Z 28
_cell_length_a 21.066226
_cell_length_b 8.889624
_cell_length_c 13.905012
_cell_angle_alpha 90.000000
_cell_angle_beta 32.532396
_cell_angle_gamma 90.000000
_cell_volume 1400.371395
_symmetry_space_group_name_H-M "P 21/M"
_symmetry_group_IT_number 11
_symmetry_cell_setting 'monoclinic'
loop_
_space_group_symop_operation_xyz
x,y,z
-x,1/2+y,-z
-x,-y,-z
x,1/2-y,z
loop_
_atom_site_type_symbol
_atom_site_label
_atom_site_fract_x
_atom_site_fract_y
_atom_site_fract_z
Si Si1 0.058575 0.574028 0.138427
Si Si2 0.227839 0.422173 0.048685
Si Si3 0.880426 0.925621 0.119211
Si Si4 0.532013 0.924957 0.356751
Si Si5 0.879199 0.922545 0.619374
Si Si6 0.308575 0.921309 0.518032
Si Si7 0.827574 0.076377 0.488934
O O1 0.044246 0.750000 0.141070
O O2 0.118174 0.531135 0.162969
O O3 0.930772 0.497752 0.293024
O O4 0.148540 0.501221 0.946308
O O5 0.204305 0.250000 0.046271
O O6 0.225762 0.431723 0.167219
O O7 0.346687 0.484213 0.846324
O O8 0.898786 0.750000 0.084758
O O9 0.774077 0.958347 0.325542
O O10 0.000000 0.000000 0.000000
O O11 0.541161 0.750000 0.368164
O O12 0.438852 0.957197 0.390306
O O13 0.500000 0.000000 0.500000
O O14 0.910732 0.750000 0.554824
O O15 0.819873 0.995776 0.601215
O O16 0.000000 0.000000 0.500000
O O17 0.272493 0.750000 0.591635
O O18 0.292246 0.941733 0.422759
O O19 0.857469 0.250000 0.469387
#
# Coordination Sequence:
#
# PCOD8077111 Si02
#       7
#     4   4   4   4   4   4   4
#     4  12  23  35  56  86 120 156 198 247 301 363
#     4  10  22  40  62  87 120 160 203 251 305 363
#     4  12  23  35  54  82 118 155 195 242 300 364
#     4  10  22  42  65  90 119 159 206 251 303 361
#     4  11  22  37  60  89 123 161 203 253 307 363
#     4  10  22  40  61  85 119 160 203 251 304 363
#     4  11  22  37  58  85 121 158 196 247 307 363
#
# _framework density 19.994696000000001
#
# number of rings (size 3 to 8) (size 9 to 14) (size 15 to 20)
#    0.000    1.143    2.857    4.286    0.000    4.571 
#    0.000    0.714    0.000    0.000    0.000    0.000 
#    0.000    0.000    0.000    0.000    0.000    0.000 
#
# Total GULP energy -347052.868289 kJ/mol
# GULP energy per Si atom -12394.745296 kJ/mol
# Density = 1.994919 g / cm^3
# Si number density = 19.994696 Si / 1000 Ang^3
#
#
#
# Elastic Constant Matrix: (Units=GPa)
#
#
# Indices 1 2 3 4 5 6 
#
# 1 136.7286 50.3293 39.0094 0.0000 1.8524 0.0000
# 2 50.3293 129.6139 30.7157 0.0000 4.4974 0.0000
# 3 39.0094 30.7157 81.8690 0.0000 6.7273 0.0000
# 4 0.0000 0.0000 0.0000 24.5430 0.0000 7.2149
# 5 1.8524 4.4974 6.7273 0.0000 32.8451 0.0000
# 6 0.0000 0.0000 0.0000 7.2149 0.0000 31.7404
#
#
#
# Elastic Compliance Matrix: (Units=1/GPa)
#
#
# Indices 1 2 3 4 5 6 
#
# 1 0.009325 -0.002828 -0.003429 0.000000 0.000564 0.000000
# 2 -0.002828 0.009334 -0.002098 0.000000 -0.000689 0.000000
# 3 -0.003429 -0.002098 0.014846 0.000000 -0.002560 0.000000
# 4 0.000000 0.000000 0.000000 0.043662 0.000000 -0.009925
# 5 0.000564 -0.000689 -0.002560 0.000000 0.031033 0.000000
# 6 0.000000 0.000000 0.000000 -0.009925 0.000000 0.033762
#
#
# Mechanical properties :
#
#
# Convention : Reuss Voigt Hill
#
# Bulk Modulus (GPa) = 59.53723 65.36894 62.45308
# Shear Modulus (GPa) = 30.43759 33.03617 31.73688
#
# Velocity S-wave (km/s) = 3.90588 4.06919 3.98837
# Velocity P-wave (km/s) = 7.08395 7.40553 7.24652
#
# Compressibility (1/GPa) = 0.01679621
#
# Stress axis : x y z
#
# Youngs Moduli (GPa) = 107.23465 107.13011 67.35903
#
# Poissons Ratio (x) = 0.30297 0.23095
# Poissons Ratio (y) = 0.30327 0.14132
# Poissons Ratio (z) = 0.36767 0.22475
#
# Static dielectric constant tensor:
#      x y z
#    x 3.896660 0.000000 0.152720 
#    y 0.000000 3.636350 0.000000 
#    z 0.152720 0.000000 3.695870 
# 
# 
# High freq. dielectric constant tensor:
#      x y z
#    x 1.794890 0.000000 0.011850 
#    y 0.000000 1.784370 0.000000 
#    z 0.011850 0.000000 1.755310 
# 
# From -- ./inp_files/37859.got.cif
#   From: 2010.06.25/outbox.cif.g09.slc.cpg/sg11_19_cif.got.tgz:37859.got - 2010.06.27 23:14:04.
