data_PCOD8077399
_publ_section_title
;
Structure prediction by ZEFSAII (Michael W. Deem and Ramdas Pophale) SiO2 
 PCOD8077399
Probable space group: P 21/M
;
_chemical_formula_sum "Si O2"
_cell_formula_units_Z 24
_cell_length_a 18.658938
_cell_length_b 12.109702
_cell_length_c 14.154030
_cell_angle_alpha 90.000000
_cell_angle_beta 20.479955
_cell_angle_gamma 90.000000
_cell_volume 1118.971925
_symmetry_space_group_name_H-M "P 21/M"
_symmetry_group_IT_number 11
_symmetry_cell_setting 'monoclinic'
loop_
_space_group_symop_operation_xyz
x,y,z
-x,1/2+y,-z
-x,-y,-z
x,1/2-y,z
loop_
_atom_site_type_symbol
_atom_site_label
_atom_site_fract_x
_atom_site_fract_y
_atom_site_fract_z
Si Si1 0.405626 0.917132 0.687347
Si Si2 0.415344 0.054453 0.962712
Si Si3 0.300744 0.121462 0.307207
Si Si4 0.185563 0.750000 0.834411
Si Si5 0.046608 0.250000 0.175010
Si Si6 0.382714 0.750000 0.392576
Si Si7 0.892337 0.980415 0.800564
Si Si8 0.253949 0.250000 0.720641
O O1 0.228603 0.853536 0.848271
O O2 0.602055 0.851882 0.484220
O O3 0.500000 0.000000 0.500000
O O4 0.301111 0.974295 0.904187
O O5 0.497891 0.139087 0.781979
O O6 0.555518 0.944487 0.796748
O O7 0.404939 0.115952 0.075776
O O8 0.186686 0.021253 0.210519
O O9 0.280083 0.250000 0.363455
O O10 0.081568 0.062569 0.576761
O O11 0.346999 0.750000 0.548944
O O12 0.951251 0.750000 0.088411
O O13 0.827378 0.250000 0.401225
O O14 0.058455 0.357196 0.225977
O O15 0.211167 0.250000 0.886634
#
# Coordination Sequence:
#
# PCOD8077399 Si02
#       8
#     4   4   4   2   2   2   4   2
#     4  11  23  41  65  98 133 171 222 278 329 394
#     4  11  24  45  72  99 132 183 220 276 336 402
#     4  11  26  46  66 102 141 170 225 279 336 401
#     4  10  25  41  67  96 136 177 222 280 330 392
#     4  11  22  42  70  99 129 171 228 279 319 405
#     4  11  20  44  72 102 127 179 231 268 333 396
#     4  12  25  43  70  99 135 176 223 275 341 395
#     4  10  23  43  59  93 132 173 221 267 330 387
#
# _framework density 21.448259
#
# number of rings (size 3 to 8) (size 9 to 14) (size 15 to 20)
#    0.000    1.000    4.167    2.000    4.667    2.667 
#    0.000    0.000    0.000    0.000    0.000    0.000 
#    0.000    0.000    0.000    0.000    0.000    0.000 
#
# Total GULP energy -297542.931650 kJ/mol
# GULP energy per Si atom -12397.622152 kJ/mol
# Density = 2.139944 g / cm^3
# Si number density = 21.448259 Si / 1000 Ang^3
#
#
#
# Elastic Constant Matrix: (Units=GPa)
#
#
# Indices 1 2 3 4 5 6 
#
# 1 84.4145 26.1576 1.1918 0.0000 -23.2023 0.0000
# 2 26.1576 154.7328 29.0142 0.0000 -13.2135 0.0000
# 3 1.1918 29.0142 72.6192 0.0000 -12.0273 0.0000
# 4 0.0000 0.0000 0.0000 137.3022 0.0000 -8.3787
# 5 -23.2023 -13.2135 -12.0273 0.0000 32.3213 0.0000
# 6 0.0000 0.0000 0.0000 -8.3787 0.0000 15.8059
#
#
#
# Elastic Compliance Matrix: (Units=1/GPa)
#
#
# Indices 1 2 3 4 5 6 
#
# 1 0.015552 -0.002132 0.002452 0.000000 0.011205 0.000000
# 2 -0.002132 0.007394 -0.002848 0.000000 0.000433 0.000000
# 3 0.002452 -0.002848 0.015950 0.000000 0.006532 0.000000
# 4 0.000000 0.000000 0.000000 0.007527 0.000000 0.003990
# 5 0.011205 0.000433 0.006532 0.000000 0.041591 0.000000
# 6 0.000000 0.000000 0.000000 0.003990 0.000000 0.065383
#
#
# Mechanical properties :
#
#
# Convention : Reuss Voigt Hill
#
# Bulk Modulus (GPa) = 29.54936 47.16597 38.35766
# Shear Modulus (GPa) = 29.45836 54.11274 41.78555
#
# Velocity S-wave (km/s) = 3.71004 5.02834 4.41863
# Velocity P-wave (km/s) = 5.67094 7.46663 6.62986
#
# Compressibility (1/GPa) = 0.03384168
#
# Stress axis : x y z
#
# Youngs Moduli (GPa) = 64.29915 135.24329 62.69713
#
# Poissons Ratio (x) = 0.28835 -0.15376
# Poissons Ratio (y) = 0.13709 0.17853
# Poissons Ratio (z) = -0.15769 0.38512
#
# Static dielectric constant tensor:
#      x y z
#    x 3.943100 0.000000 -0.097710 
#    y 0.000000 3.624810 0.000000 
#    z -0.097710 0.000000 3.974480 
# 
# 
# High freq. dielectric constant tensor:
#      x y z
#    x 1.850390 0.000000 -0.009550 
#    y 0.000000 1.850030 0.000000 
#    z -0.009550 0.000000 1.849370 
# 
# From -- ./inp_files/54799.got.cif
#   From: 2010.06.25/outbox.cif.g09.slc.cpg/sg11_28_cif.got.tgz:54799.got - 2010.06.27 23:14:04.
