data_PCOD8077862
_publ_section_title
;
Structure prediction by ZEFSAII (Michael W. Deem and Ramdas Pophale) SiO2 
 PCOD8077862
Probable space group: P 21/M
;
_chemical_formula_sum "Si O2"
_cell_formula_units_Z 16
_cell_length_a 4.939263
_cell_length_b 21.706455
_cell_length_c 6.095892
_cell_angle_alpha 90.000000
_cell_angle_beta 93.022684
_cell_angle_gamma 90.000000
_cell_volume 652.655014
_symmetry_space_group_name_H-M "P 21/M"
_symmetry_group_IT_number 11
_symmetry_cell_setting 'monoclinic'
loop_
_space_group_symop_operation_xyz
x,y,z
-x,1/2+y,-z
-x,-y,-z
x,1/2-y,z
loop_
_atom_site_type_symbol
_atom_site_label
_atom_site_fract_x
_atom_site_fract_y
_atom_site_fract_z
Si Si1 0.704500 0.515692 0.200137
Si Si2 0.014916 0.872697 0.141810
Si Si3 0.374150 0.902829 0.523566
Si Si4 0.505807 0.821904 0.905466
O O1 0.966270 0.552566 0.112184
O O2 0.782412 0.454613 0.337662
O O3 0.569574 0.565743 0.356061
O O4 0.500000 0.500000 0.000000
O O5 0.144142 0.862408 0.388740
O O6 0.732705 0.836331 0.098110
O O7 0.215547 0.847406 0.967136
O O8 0.560559 0.857917 0.680160
O O9 0.489682 0.750000 0.859173
#
# Coordination Sequence:
#
# PCOD8077862 Si02
#       4
#     4   4   4   4
#     4  11  23  47  76 115 151 183 240 308 378 439
#     4  12  25  50  73 108 145 188 244 302 367 429
#     4  11  25  45  77 111 147 193 239 303 374 443
#     4  12  29  49  72 103 147 198 251 302 354 434
#
# _framework density 24.515249000000001
#
# number of rings (size 3 to 8) (size 9 to 14) (size 15 to 20)
#    0.000    0.500    5.000    1.500    3.500    6.000 
#    0.000    0.000    0.000    0.000    0.000    0.000 
#    0.000    0.000    0.000    0.000    0.000    0.000 
#
# Total GULP energy -198406.991245 kJ/mol
# GULP energy per Si atom -12400.436953 kJ/mol
# Density = 2.445945 g / cm^3
# Si number density = 24.515249 Si / 1000 Ang^3
#
#
#
# Elastic Constant Matrix: (Units=GPa)
#
#
# Indices 1 2 3 4 5 6 
#
# 1 79.7076 38.2104 23.0306 0.0000 23.5317 0.0000
# 2 38.2104 168.5291 75.3777 0.0000 8.4157 0.0000
# 3 23.0306 75.3777 131.2791 0.0000 26.3353 0.0000
# 4 0.0000 0.0000 0.0000 32.6016 0.0000 4.1409
# 5 23.5317 8.4157 26.3353 0.0000 30.5020 0.0000
# 6 0.0000 0.0000 0.0000 4.1409 0.0000 34.4199
#
#
#
# Elastic Compliance Matrix: (Units=1/GPa)
#
#
# Indices 1 2 3 4 5 6 
#
# 1 0.018454 -0.004486 0.002354 0.000000 -0.015031 0.000000
# 2 -0.004486 0.009190 -0.005655 0.000000 0.005808 0.000000
# 3 0.002354 -0.005655 0.012703 0.000000 -0.011223 0.000000
# 4 0.000000 0.000000 0.000000 0.031149 0.000000 -0.003747
# 5 -0.015031 0.005808 -0.011223 0.000000 0.052469 0.000000
# 6 0.000000 0.000000 0.000000 -0.003747 0.000000 0.029504
#
#
# Mechanical properties :
#
#
# Convention : Reuss Voigt Hill
#
# Bulk Modulus (GPa) = 40.36738 72.52814 56.44776
# Shear Modulus (GPa) = 28.20068 35.69783 31.94926
#
# Velocity S-wave (km/s) = 3.39533 3.82009 3.61396
# Velocity P-wave (km/s) = 5.64562 7.00761 6.36316
#
# Compressibility (1/GPa) = 0.02477248
#
# Stress axis : x y z
#
# Youngs Moduli (GPa) = 54.18869 108.81344 78.72331
#
# Poissons Ratio (x) = 0.48817 -0.18531
# Poissons Ratio (y) = 0.24311 0.44516
# Poissons Ratio (z) = -0.12755 0.61531
#
# Static dielectric constant tensor:
#      x y z
#    x 4.359340 0.000000 0.007160 
#    y 0.000000 4.533830 0.000000 
#    z 0.007160 0.000000 4.791160 
# 
# 
# High freq. dielectric constant tensor:
#      x y z
#    x 1.971580 0.000000 0.008160 
#    y 0.000000 1.962450 0.000000 
#    z 0.008160 0.000000 1.990530 
# 
# From -- ./inp_files/438.got.cif
#   From: 2010.06.25/outbox.cif.g09.slc.cpg/sg11_1_cif.got.tgz:438.got - 2010.06.27 23:14:04.
