data_PCOD8077212
_publ_section_title
;
Structure prediction by ZEFSAII (Michael W. Deem and Ramdas Pophale) SiO2 
 PCOD8077212
Probable space group: P 21/M
;
_chemical_formula_sum "Si O2"
_cell_formula_units_Z 28
_cell_length_a 12.541062
_cell_length_b 8.756999
_cell_length_c 14.509154
_cell_angle_alpha 90.000000
_cell_angle_beta 58.840818
_cell_angle_gamma 90.000000
_cell_volume 1363.546746
_symmetry_space_group_name_H-M "P 21/M"
_symmetry_group_IT_number 11
_symmetry_cell_setting 'monoclinic'
loop_
_space_group_symop_operation_xyz
x,y,z
-x,1/2+y,-z
-x,-y,-z
x,1/2-y,z
loop_
_atom_site_type_symbol
_atom_site_label
_atom_site_fract_x
_atom_site_fract_y
_atom_site_fract_z
Si Si1 0.998453 0.575239 0.767915
Si Si2 0.459083 0.929279 0.923491
Si Si3 0.794600 0.573256 0.011728
Si Si4 0.221844 0.572716 0.792314
Si Si5 0.916923 0.070676 0.616520
Si Si6 0.495399 0.929722 0.601906
Si Si7 0.640054 0.430959 0.694527
O O1 0.985117 0.750000 0.741776
O O2 0.965677 0.471654 0.695716
O O3 0.138829 0.538921 0.738759
O O4 0.910388 0.539670 0.893879
O O5 0.482593 0.750000 0.913259
O O6 0.314996 0.963673 0.972922
O O7 0.537878 0.003877 0.808152
O O8 0.500000 0.000000 0.000000
O O9 0.753922 0.750000 0.025224
O O10 0.829519 0.529115 0.100628
O O11 0.209434 0.750000 0.825673
O O12 0.364059 0.528283 0.707897
O O13 0.923184 0.250000 0.602349
O O14 0.775670 0.012089 0.666318
O O15 0.000000 0.000000 0.500000
O O16 0.514680 0.750000 0.587525
O O17 0.500000 0.000000 0.500000
O O18 0.609321 0.003330 0.607528
O O19 0.631898 0.250000 0.696048
#
# Coordination Sequence:
#
# PCOD8077212 Si02
#       7
#     4   4   4   4   4   4   4
#     4  10  23  42  64  93 130 169 213 263 312 373
#     4  12  24  39  62  92 128 168 210 260 314 375
#     4  11  22  38  63  95 129 168 211 258 315 377
#     4  10  22  41  64  93 130 170 210 259 318 372
#     4  11  26  45  67  94 125 165 210 262 316 374
#     4  11  24  41  65  96 130 169 212 261 318 378
#     4  11  24  44  67  94 128 164 210 264 317 374
#
# _framework density 20.534683000000001
#
# number of rings (size 3 to 8) (size 9 to 14) (size 15 to 20)
#    0.000    1.143    1.429    4.286    2.000    6.857 
#    0.000    0.000    0.000    0.000    0.000    0.000 
#    0.000    0.000    0.000    0.000    0.000    0.000 
#
# Total GULP energy -347352.894477 kJ/mol
# GULP energy per Si atom -12405.460517 kJ/mol
# Density = 2.048794 g / cm^3
# Si number density = 20.534683 Si / 1000 Ang^3
#
#
#
# Elastic Constant Matrix: (Units=GPa)
#
#
# Indices 1 2 3 4 5 6 
#
# 1 129.9724 38.5653 28.3914 0.0000 13.1003 0.0000
# 2 38.5653 73.1772 42.8898 0.0000 5.4297 0.0000
# 3 28.3914 42.8898 76.3644 0.0000 19.4158 0.0000
# 4 0.0000 0.0000 0.0000 37.5218 0.0000 7.7641
# 5 13.1003 5.4297 19.4158 0.0000 38.0541 0.0000
# 6 0.0000 0.0000 0.0000 7.7641 0.0000 36.0325
#
#
#
# Elastic Compliance Matrix: (Units=1/GPa)
#
#
# Indices 1 2 3 4 5 6 
#
# 1 0.009361 -0.004584 -0.000291 0.000000 -0.002420 0.000000
# 2 -0.004584 0.022998 -0.012387 0.000000 0.004616 0.000000
# 3 -0.000291 -0.012387 0.022620 0.000000 -0.009673 0.000000
# 4 0.000000 0.000000 0.000000 0.027895 0.000000 -0.006011
# 5 -0.002420 0.004616 -0.009673 0.000000 0.031388 0.000000
# 6 0.000000 0.000000 0.000000 -0.006011 0.000000 0.029048
#
#
# Mechanical properties :
#
#
# Convention : Reuss Voigt Hill
#
# Bulk Modulus (GPa) = 48.88145 55.46744 52.17444
# Shear Modulus (GPa) = 27.07802 33.63284 30.35543
#
# Velocity S-wave (km/s) = 3.63526 4.05143 3.84898
# Velocity P-wave (km/s) = 6.44020 6.99684 6.72428
#
# Compressibility (1/GPa) = 0.02045766
#
# Stress axis : x y z
#
# Youngs Moduli (GPa) = 106.82106 43.48128 44.20957
#
# Poissons Ratio (x) = 0.19930 0.01285
# Poissons Ratio (y) = 0.48963 0.54760
# Poissons Ratio (z) = 0.03105 0.53858
#
# Static dielectric constant tensor:
#      x y z
#    x 4.016850 0.000000 0.035010 
#    y 0.000000 3.972310 0.000000 
#    z 0.035010 0.000000 3.862430 
# 
# 
# High freq. dielectric constant tensor:
#      x y z
#    x 1.821020 0.000000 0.004730 
#    y 0.000000 1.808260 0.000000 
#    z 0.004730 0.000000 1.809200 
# 
# From -- ./inp_files/49157.got.cif
#   From: 2010.06.25/outbox.cif.g09.slc.cpg/sg11_25_cif.got.tgz:49157.got - 2010.06.27 23:14:04.
