data_PCOD8077405
_publ_section_title
;
Structure prediction by ZEFSAII (Michael W. Deem and Ramdas Pophale) SiO2 
 PCOD8077405
Probable space group: P 21/M
;
_chemical_formula_sum "Si O2"
_cell_formula_units_Z 24
_cell_length_a 14.970037
_cell_length_b 8.703291
_cell_length_c 14.682096
_cell_angle_alpha 90.000000
_cell_angle_beta 39.870223
_cell_angle_gamma 90.000000
_cell_volume 1226.272289
_symmetry_space_group_name_H-M "P 21/M"
_symmetry_group_IT_number 11
_symmetry_cell_setting 'monoclinic'
loop_
_space_group_symop_operation_xyz
x,y,z
-x,1/2+y,-z
-x,-y,-z
x,1/2-y,z
loop_
_atom_site_type_symbol
_atom_site_label
_atom_site_fract_x
_atom_site_fract_y
_atom_site_fract_z
Si Si1 0.845990 0.069606 0.338606
Si Si2 0.131188 0.927792 0.150904
Si Si3 0.314203 0.068801 0.368035
Si Si4 0.624607 0.428357 0.177176
Si Si5 0.643828 0.569437 0.352990
Si Si6 0.858129 0.430530 0.648227
O O1 0.821219 0.250000 0.356289
O O2 0.787599 0.002082 0.477683
O O3 0.771441 0.996055 0.310403
O O4 0.008986 0.030982 0.204470
O O5 0.087215 0.750000 0.177184
O O6 0.160694 0.973545 0.231738
O O7 0.271162 0.963761 0.986388
O O8 0.293965 0.250000 0.384804
O O9 0.471931 0.019899 0.264695
O O10 0.272743 0.003456 0.302056
O O11 0.625977 0.250000 0.204334
O O12 0.670340 0.528590 0.227490
O O13 0.500000 0.500000 0.500000
O O14 0.637122 0.750000 0.372338
O O15 0.860438 0.250000 0.629824
O O16 0.000000 0.500000 0.500000
#
# Coordination Sequence:
#
# PCOD8077405 Si02
#       6
#     4   4   4   4   4   4
#     4  12  24  39  64  94 124 163 210 257 307 371
#     4  10  23  43  64  90 127 167 208 258 313 366
#     4  11  22  38  63  92 125 163 207 259 310 368
#     4  10  23  43  65  91 126 166 208 257 312 369
#     4  12  24  40  65  94 125 163 207 257 309 370
#     4  11  22  37  62  92 125 164 210 259 307 368
#
# _framework density 19.57151
#
# number of rings (size 3 to 8) (size 9 to 14) (size 15 to 20)
#    0.000    1.000    3.333    4.000    0.000    3.333 
#    0.000    0.000    0.000    0.000    0.000    0.000 
#    0.000    0.000    0.000    0.000    0.000    0.000 
#
# Total GULP energy -297774.180499 kJ/mol
# GULP energy per Si atom -12407.257521 kJ/mol
# Density = 1.952696 g / cm^3
# Si number density = 19.571510 Si / 1000 Ang^3
#
#
#
# Elastic Constant Matrix: (Units=GPa)
#
#
# Indices 1 2 3 4 5 6 
#
# 1 147.5665 48.8256 32.5482 0.0000 8.2631 0.0000
# 2 48.8256 85.3207 9.3383 0.0000 7.6785 0.0000
# 3 32.5482 9.3383 82.6785 0.0000 10.5335 0.0000
# 4 0.0000 0.0000 0.0000 24.0459 0.0000 0.0201
# 5 8.2631 7.6785 10.5335 0.0000 33.1677 0.0000
# 6 0.0000 0.0000 0.0000 0.0201 0.0000 39.6488
#
#
#
# Elastic Compliance Matrix: (Units=1/GPa)
#
#
# Indices 1 2 3 4 5 6 
#
# 1 0.009046 -0.004832 -0.002992 0.000000 -0.000185 0.000000
# 2 -0.004832 0.014638 0.000550 0.000000 -0.002359 0.000000
# 3 -0.002992 0.000550 0.013686 0.000000 -0.003728 0.000000
# 4 0.000000 0.000000 0.000000 0.041587 0.000000 -0.000021
# 5 -0.000185 -0.002359 -0.003728 0.000000 0.031926 0.000000
# 6 0.000000 0.000000 0.000000 -0.000021 0.000000 0.025221
#
#
# Mechanical properties :
#
#
# Convention : Reuss Voigt Hill
#
# Bulk Modulus (GPa) = 43.82014 55.22108 49.52061
# Shear Modulus (GPa) = 31.59358 34.36273 32.97816
#
# Velocity S-wave (km/s) = 4.02215 4.19472 4.10934
# Velocity P-wave (km/s) = 6.63390 7.19285 6.91902
#
# Compressibility (1/GPa) = 0.02282056
#
# Stress axis : x y z
#
# Youngs Moduli (GPa) = 110.54925 68.31497 73.06895
#
# Poissons Ratio (x) = 0.33013 0.21860
# Poissons Ratio (y) = 0.53422 -0.04016
# Poissons Ratio (z) = 0.33073 -0.03755
#
# Static dielectric constant tensor:
#      x y z
#    x 3.889210 0.000000 0.055250 
#    y 0.000000 3.720840 0.000000 
#    z 0.055250 0.000000 3.548540 
# 
# 
# High freq. dielectric constant tensor:
#      x y z
#    x 1.780840 0.000000 0.000570 
#    y 0.000000 1.770110 0.000000 
#    z 0.000570 0.000000 1.758580 
# 
# From -- ./inp_files/51515.got.cif
#   From: 2010.06.25/outbox.cif.g09.slc.cpg/sg11_26_cif.got.tgz:51515.got - 2010.06.27 23:14:04.
