data_PCOD8077809
_publ_section_title
;
Structure prediction by ZEFSAII (Michael W. Deem and Ramdas Pophale) SiO2 
 PCOD8077809
Probable space group: P 21/M
;
_chemical_formula_sum "Si O2"
_cell_formula_units_Z 32
_cell_length_a 14.973980
_cell_length_b 8.542077
_cell_length_c 12.282171
_cell_angle_alpha 90.000000
_cell_angle_beta 92.153948
_cell_angle_gamma 90.000000
_cell_volume 1569.888869
_symmetry_space_group_name_H-M "P 21/M"
_symmetry_group_IT_number 11
_symmetry_cell_setting 'monoclinic'
loop_
_space_group_symop_operation_xyz
x,y,z
-x,1/2+y,-z
-x,-y,-z
x,1/2-y,z
loop_
_atom_site_type_symbol
_atom_site_label
_atom_site_fract_x
_atom_site_fract_y
_atom_site_fract_z
Si Si1 0.909141 0.933655 0.948033
Si Si2 0.523419 0.434515 0.331113
Si Si3 0.166250 0.431188 0.476291
Si Si4 0.124468 0.568441 0.702181
Si Si5 0.434181 0.936040 0.906471
Si Si6 0.368324 0.067092 0.477046
Si Si7 0.937204 0.068105 0.725523
Si Si8 0.758161 0.933432 0.114682
O O1 0.919758 0.750000 0.929423
O O2 0.886839 0.017120 0.832896
O O3 0.827977 0.974411 0.023480
O O4 0.000000 0.000000 0.000000
O O5 0.522054 0.250000 0.324540
O O6 0.533235 0.501463 0.209642
O O7 0.607771 0.486401 0.407428
O O8 0.431742 0.497548 0.382720
O O9 0.157245 0.250000 0.509697
O O10 0.139583 0.538181 0.576031
O O11 0.266502 0.472193 0.442197
O O12 0.099456 0.466732 0.375627
O O13 0.103564 0.750000 0.719898
O O14 0.212507 0.518069 0.772455
O O15 0.042259 0.466480 0.743900
O O16 0.433047 0.750000 0.909162
O O17 0.336332 0.000717 0.928173
O O18 0.500000 0.000000 0.000000
O O19 0.384343 0.250000 0.493629
O O20 0.920971 0.250000 0.701922
O O21 0.751718 0.750000 0.136861
#
# Coordination Sequence:
#
# PCOD8077809 Si02
#       8
#     4   4   4   4   4   4   4   4
#     4  11  23  41  66  92 122 160 206 259 311 369
#     4   9  19  37  60  86 117 153 196 245 299 357
#     4  11  23  39  59  87 124 162 204 251 309 371
#     4  12  24  40  63  89 122 161 205 254 308 370
#     4  11  24  41  62  90 126 165 206 257 312 370
#     4   9  19  36  60  87 115 152 195 244 299 361
#     4  12  25  41  61  88 123 161 204 254 310 370
#     4  11  24  42  66  94 124 162 208 257 312 375
#
# _framework density 20.383610000000001
#
# number of rings (size 3 to 8) (size 9 to 14) (size 15 to 20)
#    0.000    1.250    1.250    4.875    0.000    6.500 
#    0.000    2.500    0.000    0.000    0.000    0.000 
#    0.000    0.000    0.000    0.000    0.000    0.000 
#
# Total GULP energy -396998.911595 kJ/mol
# GULP energy per Si atom -12406.215987 kJ/mol
# Density = 2.033722 g / cm^3
# Si number density = 20.383610 Si / 1000 Ang^3
#
#
#
# Elastic Constant Matrix: (Units=GPa)
#
#
# Indices 1 2 3 4 5 6 
#
# 1 114.4062 32.2078 57.0366 0.0000 5.2054 0.0000
# 2 32.2078 70.1937 32.6240 0.0000 -6.3767 0.0000
# 3 57.0366 32.6240 135.9585 0.0000 0.7025 0.0000
# 4 0.0000 0.0000 0.0000 35.3740 0.0000 2.1343
# 5 5.2054 -6.3767 0.7025 0.0000 32.2765 0.0000
# 6 0.0000 0.0000 0.0000 2.1343 0.0000 31.7658
#
#
#
# Elastic Compliance Matrix: (Units=1/GPa)
#
#
# Indices 1 2 3 4 5 6 
#
# 1 0.011977 -0.003830 -0.004092 0.000000 -0.002599 0.000000
# 2 -0.003830 0.017608 -0.002640 0.000000 0.004154 0.000000
# 3 -0.004092 -0.002640 0.009706 0.000000 -0.000073 0.000000
# 4 0.000000 0.000000 0.000000 0.028384 0.000000 -0.001907
# 5 -0.002599 0.004154 -0.000073 0.000000 0.032224 0.000000
# 6 0.000000 0.000000 0.000000 -0.001907 0.000000 0.031609
#
#
# Mechanical properties :
#
#
# Convention : Reuss Voigt Hill
#
# Bulk Modulus (GPa) = 55.04483 62.69947 58.87215
# Shear Modulus (GPa) = 31.50846 33.12926 32.31886
#
# Velocity S-wave (km/s) = 3.93590 4.03586 3.98619
# Velocity P-wave (km/s) = 6.90783 7.24873 7.08033
#
# Compressibility (1/GPa) = 0.01816701
#
# Stress axis : x y z
#
# Youngs Moduli (GPa) = 83.49029 56.79271 103.03125
#
# Poissons Ratio (x) = 0.21751 0.42163
# Poissons Ratio (y) = 0.31976 0.27199
# Poissons Ratio (z) = 0.34167 0.14993
#
# Static dielectric constant tensor:
#      x y z
#    x 3.816130 0.000000 -0.215110 
#    y 0.000000 4.077010 0.000000 
#    z -0.215110 0.000000 3.861490 
# 
# 
# High freq. dielectric constant tensor:
#      x y z
#    x 1.800060 0.000000 -0.006150 
#    y 0.000000 1.800410 0.000000 
#    z -0.006150 0.000000 1.804740 
# 
# From -- ./inp_files/38059.got.cif
#   From: 2010.06.25/outbox.cif.g09.slc.cpg/sg11_20_cif.got.tgz:38059.got - 2010.06.27 23:14:04.
