data_PCOD8077355
_publ_section_title
;
Structure prediction by ZEFSAII (Michael W. Deem and Ramdas Pophale) SiO2 
 PCOD8077355
Probable space group: P 21/M
;
_chemical_formula_sum "Si O2"
_cell_formula_units_Z 20
_cell_length_a 10.500641
_cell_length_b 9.026276
_cell_length_c 21.889357
_cell_angle_alpha 90.000000
_cell_angle_beta 152.373738
_cell_angle_gamma 90.000000
_cell_volume 962.047614
_symmetry_space_group_name_H-M "P 21/M"
_symmetry_group_IT_number 11
_symmetry_cell_setting 'monoclinic'
loop_
_space_group_symop_operation_xyz
x,y,z
-x,1/2+y,-z
-x,-y,-z
x,1/2-y,z
loop_
_atom_site_type_symbol
_atom_site_label
_atom_site_fract_x
_atom_site_fract_y
_atom_site_fract_z
Si Si1 0.620628 0.582342 0.833880
Si Si2 0.044071 0.576556 0.113034
Si Si3 0.797355 0.572516 0.135528
Si Si4 0.220109 0.427898 0.404364
Si Si5 0.004770 0.916231 0.565084
O O1 0.706785 0.750000 0.857352
O O2 0.675270 0.495238 0.793418
O O3 0.308357 0.569020 0.722092
O O4 0.797011 0.517006 0.964987
O O5 0.077828 0.750000 0.122838
O O6 0.983790 0.529984 0.156462
O O7 0.768289 0.750000 0.131200
O O8 0.955184 0.499362 0.259247
O O9 0.500000 0.500000 0.000000
O O10 0.500000 0.500000 0.500000
O O11 0.220912 0.250000 0.395335
O O12 0.198417 0.469855 0.467294
O O13 0.928953 0.750000 0.515566
O O14 0.000000 0.000000 0.500000
#
# Coordination Sequence:
#
# PCOD8077355 Si02
#       5
#     4   4   4   4   4
#     4   9  18  35  57  84 116 152 196 248 306 363
#     4   9  19  35  57  85 119 154 194 249 307 363
#     4  11  23  40  64  93 127 167 214 264 320 382
#     4  11  25  45  66  93 132 172 215 268 322 383
#     4  10  23  41  62  87 120 161 208 260 311 368
#
# _framework density 20.788990999999999
#
# number of rings (size 3 to 8) (size 9 to 14) (size 15 to 20)
#    0.000    2.000    0.000    2.400    2.800    7.200 
#    0.000    4.000    0.000    0.000    0.000    0.000 
#    0.000    0.000    0.000    0.000    0.000    0.000 
#
# Total GULP energy -247922.148709 kJ/mol
# GULP energy per Si atom -12396.107435 kJ/mol
# Density = 2.074167 g / cm^3
# Si number density = 20.788991 Si / 1000 Ang^3
#
#
#
# Elastic Constant Matrix: (Units=GPa)
#
#
# Indices 1 2 3 4 5 6 
#
# 1 168.0985 70.6070 42.4922 0.0000 -6.6495 0.0000
# 2 70.6070 85.4181 40.2056 0.0000 -5.4506 0.0000
# 3 42.4922 40.2056 75.2347 0.0000 -5.1390 0.0000
# 4 0.0000 0.0000 0.0000 36.0513 0.0000 1.6136
# 5 -6.6495 -5.4506 -5.1390 0.0000 32.5113 0.0000
# 6 0.0000 0.0000 0.0000 1.6136 0.0000 38.9235
#
#
#
# Elastic Compliance Matrix: (Units=1/GPa)
#
#
# Indices 1 2 3 4 5 6 
#
# 1 0.009249 -0.006908 -0.001498 0.000000 0.000497 0.000000
# 2 -0.006908 0.020858 -0.007180 0.000000 0.000949 0.000000
# 3 -0.001498 -0.007180 0.018067 0.000000 0.001346 0.000000
# 4 0.000000 0.000000 0.000000 0.027790 0.000000 -0.001152
# 5 0.000497 0.000949 0.001346 0.000000 0.031232 0.000000
# 6 0.000000 0.000000 0.000000 -0.001152 0.000000 0.025739
#
#
# Mechanical properties :
#
#
# Convention : Reuss Voigt Hill
#
# Bulk Modulus (GPa) = 58.82025 70.59566 64.70795
# Shear Modulus (GPa) = 29.45105 33.19367 31.32236
#
# Velocity S-wave (km/s) = 3.76795 4.00020 3.88581
# Velocity P-wave (km/s) = 6.87643 7.44093 7.16424
#
# Compressibility (1/GPa) = 0.01700095
#
# Stress axis : x y z
#
# Youngs Moduli (GPa) = 108.11995 47.94401 55.35097
#
# Poissons Ratio (x) = 0.33122 0.08291
# Poissons Ratio (y) = 0.74694 0.39740
# Poissons Ratio (z) = 0.16196 0.34422
#
# Static dielectric constant tensor:
#      x y z
#    x 4.086020 0.000000 -0.060690 
#    y 0.000000 3.755760 0.000000 
#    z -0.060690 0.000000 3.918040 
# 
# 
# High freq. dielectric constant tensor:
#      x y z
#    x 1.828680 0.000000 0.002750 
#    y 0.000000 1.808540 0.000000 
#    z 0.002750 0.000000 1.813120 
# 
# From -- ./inp_files/63320.got.cif
#   From: 2010.06.25/outbox.cif.g09.slc.cpg/sg11_32_cif.got.tgz:63320.got - 2010.06.27 23:14:04.
