data_PCOD8077309
_publ_section_title
;
Structure prediction by ZEFSAII (Michael W. Deem and Ramdas Pophale) SiO2 
 PCOD8077309
Probable space group: P 21/M
;
_chemical_formula_sum "Si O2"
_cell_formula_units_Z 32
_cell_length_a 18.154747
_cell_length_b 14.202811
_cell_length_c 5.269590
_cell_angle_alpha 90.000000
_cell_angle_beta 88.584246
_cell_angle_gamma 90.000000
_cell_volume 1358.340781
_symmetry_space_group_name_H-M "P 21/M"
_symmetry_group_IT_number 11
_symmetry_cell_setting 'monoclinic'
loop_
_space_group_symop_operation_xyz
x,y,z
-x,1/2+y,-z
-x,-y,-z
x,1/2-y,z
loop_
_atom_site_type_symbol
_atom_site_label
_atom_site_fract_x
_atom_site_fract_y
_atom_site_fract_z
Si Si1 0.985416 0.859089 0.344196
Si Si2 0.536294 0.402077 0.042175
Si Si3 0.800497 0.491052 0.070019
Si Si4 0.344489 0.517012 0.669403
Si Si5 0.096698 0.362054 0.150036
Si Si6 0.871539 0.353516 0.395224
Si Si7 0.276114 0.854429 0.298492
Si Si8 0.459575 0.350750 0.564305
O O1 0.969813 0.750000 0.359078
O O2 0.959524 0.893152 0.069877
O O3 0.071682 0.882294 0.384006
O O4 0.937247 0.900482 0.583311
O O5 0.623482 0.420236 0.095281
O O6 0.501440 0.355946 0.294866
O O7 0.500000 0.500000 0.000000
O O8 0.520293 0.344942 0.786684
O O9 0.759291 0.408364 0.929933
O O10 0.736089 0.527917 0.266221
O O11 0.827548 0.579921 0.901862
O O12 0.870953 0.439934 0.195932
O O13 0.340862 0.584830 0.424134
O O14 0.401039 0.434028 0.598454
O O15 0.113602 0.250000 0.148133
O O16 0.897058 0.250000 0.279232
O O17 0.788854 0.341725 0.493037
O O18 0.304693 0.750000 0.215311
O O19 0.417563 0.250000 0.572665
#
# Coordination Sequence:
#
# PCOD8077309 Si02
#       8
#     4   4   4   4   4   4   4   4
#     4   9  20  39  63  88 121 164 209 266 328 379
#     4  10  22  43  69  96 133 173 213 270 319 369
#     4  11  24  38  63  89 127 169 214 260 318 381
#     4  10  24  42  64  93 132 174 211 261 322 381
#     4  10  23  41  61  90 125 163 211 263 320 385
#     4   9  20  39  60  87 122 161 211 272 327 378
#     4  10  23  41  61  89 124 167 220 266 319 385
#     4  11  24  43  71 106 136 171 219 266 319 383
#
# _framework density 23.558153000000001
#
# number of rings (size 3 to 8) (size 9 to 14) (size 15 to 20)
#    0.000    2.000    0.000    2.250   10.500    3.000 
#    0.000    0.625    0.000    0.000    0.000    0.000 
#    0.000    0.000    0.000    0.000    0.000    0.000 
#
# Total GULP energy -396460.317063 kJ/mol
# GULP energy per Si atom -12389.384908 kJ/mol
# Density = 2.350453 g / cm^3
# Si number density = 23.558153 Si / 1000 Ang^3
#
#
#
# Elastic Constant Matrix: (Units=GPa)
#
#
# Indices 1 2 3 4 5 6 
#
# 1 72.3995 25.4987 1.4589 0.0000 10.3833 0.0000
# 2 25.4987 102.3529 11.5565 0.0000 9.9406 0.0000
# 3 1.4589 11.5565 92.1851 0.0000 12.7263 0.0000
# 4 0.0000 0.0000 0.0000 -3.5194 0.0000 -8.0062
# 5 10.3833 9.9406 12.7263 0.0000 25.8330 0.0000
# 6 0.0000 0.0000 0.0000 -8.0062 0.0000 25.4769
#
#
#
# Elastic Compliance Matrix: (Units=1/GPa)
#
#
# Indices 1 2 3 4 5 6 
#
# 1 0.015816 -0.003516 0.000946 0.000000 -0.005470 0.000000
# 2 -0.003516 0.010984 -0.001001 0.000000 -0.002321 0.000000
# 3 0.000946 -0.001001 0.011757 0.000000 -0.005787 0.000000
# 4 0.000000 0.000000 0.000000 -0.165690 0.000000 -0.052069
# 5 -0.005470 -0.002321 -0.005787 0.000000 0.044653 0.000000
# 6 0.000000 0.000000 0.000000 -0.052069 0.000000 0.022888
#
#
# Mechanical properties :
#
#
# Convention : Reuss Voigt Hill
#
# Bulk Modulus (GPa) = 31.83171 38.21839 35.02505
# Shear Modulus (GPa) = -119.11147 24.78634 -47.16257
#
# Velocity S-wave (km/s) = -7.11831 3.24718 -4.47918
# Velocity P-wave (km/s) = 7.34978 5.50610 3.44253
#
# Compressibility (1/GPa) = 0.03141521
#
# Stress axis : x y z
#
# Youngs Moduli (GPa) = 63.22765 91.03857 85.05458
#
# Poissons Ratio (x) = 0.32006 -0.08043
# Poissons Ratio (y) = 0.22229 0.08514
# Poissons Ratio (z) = -0.05979 0.09113
#
# Static dielectric constant tensor:
#      x y z
#    x 4.738060 0.000000 0.664480 
#    y 0.000000 4.269980 0.000000 
#    z 0.664480 0.000000 4.749800 
# 
# 
# High freq. dielectric constant tensor:
#      x y z
#    x 1.924190 0.000000 0.005670 
#    y 0.000000 1.932410 0.000000 
#    z 0.005670 0.000000 1.937500 
# 
# From -- ./inp_files/8105.got.cif
#   From: 2010.06.25/outbox.cif.g09.slc.cpg/sg11_5_cif.got.tgz:8105.got - 2010.06.27 23:14:04.
