data_PCOD8077488
_publ_section_title
;
Structure prediction by ZEFSAII (Michael W. Deem and Ramdas Pophale) SiO2 
 PCOD8077488
Probable space group: P 21/M
;
_chemical_formula_sum "Si O2"
_cell_formula_units_Z 20
_cell_length_a 5.793396
_cell_length_b 20.512122
_cell_length_c 7.912691
_cell_angle_alpha 90.000000
_cell_angle_beta 114.760509
_cell_angle_gamma 90.000000
_cell_volume 853.857906
_symmetry_space_group_name_H-M "P 21/M"
_symmetry_group_IT_number 11
_symmetry_cell_setting 'monoclinic'
loop_
_space_group_symop_operation_xyz
x,y,z
-x,1/2+y,-z
-x,-y,-z
x,1/2-y,z
loop_
_atom_site_type_symbol
_atom_site_label
_atom_site_fract_x
_atom_site_fract_y
_atom_site_fract_z
Si Si1 0.574889 0.620352 0.652795
Si Si2 0.762010 0.484364 0.314334
Si Si3 0.334905 0.750000 0.528348
Si Si4 0.545002 0.882615 0.254982
Si Si5 0.718665 0.750000 0.316456
Si Si6 0.943256 0.427027 0.041134
O O1 0.436706 0.550907 0.625074
O O2 0.408308 0.683886 0.651346
O O3 0.649426 0.621988 0.478319
O O4 0.812447 0.618404 0.853780
O O5 0.659638 0.552477 0.203489
O O6 0.808204 0.433092 0.180393
O O7 0.000000 0.500000 0.500000
O O8 0.516581 0.750000 0.415642
O O9 0.026292 0.750000 0.427611
O O10 0.645620 0.816583 0.193767
O O11 0.238389 0.888746 0.146615
O O12 0.000000 0.500000 0.000000
#
# Coordination Sequence:
#
# PCOD8077488 Si02
#       6
#     4   4   2   4   2   4
#     4  11  24  44  67  98 134 185 226 293 348 421
#     4  12  22  40  69  98 134 181 230 294 348 411
#     4  10  24  45  73  98 143 181 243 282 355 425
#     4  11  23  44  69  97 140 178 236 287 354 418
#     4  10  24  47  69 104 135 191 229 292 349 427
#     4  12  25  41  66 105 139 175 240 290 354 417
#
# _framework density 23.423100999999999
#
# number of rings (size 3 to 8) (size 9 to 14) (size 15 to 20)
#    0.000    0.800    4.000    3.600    2.800    2.400 
#    0.000    1.000    0.000    0.000    0.000    0.000 
#    0.000    0.000    0.000    0.000    0.000    0.000 
#
# Total GULP energy -247776.615758 kJ/mol
# GULP energy per Si atom -12388.830788 kJ/mol
# Density = 2.336979 g / cm^3
# Si number density = 23.423101 Si / 1000 Ang^3
#
#
#
# Elastic Constant Matrix: (Units=GPa)
#
#
# Indices 1 2 3 4 5 6 
#
# 1 99.5034 48.0767 26.3297 0.0000 39.1444 0.0000
# 2 48.0767 193.5899 27.2022 0.0000 37.3538 0.0000
# 3 26.3297 27.2022 94.4562 0.0000 43.3973 0.0000
# 4 0.0000 0.0000 0.0000 26.4475 0.0000 21.8094
# 5 39.1444 37.3538 43.3973 0.0000 55.2579 0.0000
# 6 0.0000 0.0000 0.0000 21.8094 0.0000 37.3605
#
#
#
# Elastic Compliance Matrix: (Units=1/GPa)
#
#
# Indices 1 2 3 4 5 6 
#
# 1 0.014553 -0.001856 0.000998 0.000000 -0.009838 0.000000
# 2 -0.001856 0.006180 0.000083 0.000000 -0.002928 0.000000
# 3 0.000998 0.000083 0.016639 0.000000 -0.013831 0.000000
# 4 0.000000 0.000000 0.000000 0.072906 0.000000 -0.042559
# 5 -0.009838 -0.002928 -0.013831 0.000000 0.037908 0.000000
# 6 0.000000 0.000000 0.000000 -0.042559 0.000000 0.051610
#
#
# Mechanical properties :
#
#
# Convention : Reuss Voigt Hill
#
# Bulk Modulus (GPa) = 27.91596 65.64075 46.77836
# Shear Modulus (GPa) = 23.44254 42.87592 33.15923
#
# Velocity S-wave (km/s) = 3.16702 4.28307 3.76661
# Velocity P-wave (km/s) = 5.03164 7.24875 6.23946
#
# Compressibility (1/GPa) = 0.03582180
#
# Stress axis : x y z
#
# Youngs Moduli (GPa) = 68.71435 161.81856 60.09845
#
# Poissons Ratio (x) = 0.30034 -0.05998
# Poissons Ratio (y) = 0.12754 -0.00497
# Poissons Ratio (z) = -0.06858 -0.01339
#
# Static dielectric constant tensor:
#      x y z
#    x 4.355790 0.000000 0.186460 
#    y 0.000000 5.190670 0.000000 
#    z 0.186460 0.000000 4.213750 
# 
# 
# High freq. dielectric constant tensor:
#      x y z
#    x 1.920850 0.000000 0.022520 
#    y 0.000000 1.946080 0.000000 
#    z 0.022520 0.000000 1.908780 
# 
# From -- ./inp_files/2142.got.cif
#   From: 2010.06.25/outbox.cif.g09.slc.cpg/sg11_2_cif.got.tgz:2142.got - 2010.06.27 23:14:04.
