data_PCOD8077850
_publ_section_title
;
Structure prediction by ZEFSAII (Michael W. Deem and Ramdas Pophale) SiO2 
 PCOD8077850
Probable space group: P 21/M
;
_chemical_formula_sum "Si O2"
_cell_formula_units_Z 18
_cell_length_a 6.719845
_cell_length_b 18.306600
_cell_length_c 7.174528
_cell_angle_alpha 90.000000
_cell_angle_beta 61.307486
_cell_angle_gamma 90.000000
_cell_volume 774.218086
_symmetry_space_group_name_H-M "P 21/M"
_symmetry_group_IT_number 11
_symmetry_cell_setting 'monoclinic'
loop_
_space_group_symop_operation_xyz
x,y,z
-x,1/2+y,-z
-x,-y,-z
x,1/2-y,z
loop_
_atom_site_type_symbol
_atom_site_label
_atom_site_fract_x
_atom_site_fract_y
_atom_site_fract_z
Si Si1 0.470637 0.750000 0.999538
Si Si2 0.035747 0.250000 0.192031
Si Si3 0.116376 0.635066 0.026573
Si Si4 0.439175 0.750000 0.441605
Si Si5 0.679000 0.894079 0.419177
Si Si6 0.440006 0.512870 0.813886
O O1 0.523977 0.750000 0.194081
O O2 0.726945 0.750000 0.800177
O O3 0.336222 0.678413 0.999612
O O4 0.018994 0.177893 0.071988
O O5 0.833477 0.250000 0.432538
O O6 0.205400 0.558410 0.905353
O O7 0.946086 0.623316 0.277367
O O8 0.532289 0.820527 0.509207
O O9 0.642775 0.943462 0.618721
O O10 0.595288 0.935592 0.270341
O O11 0.500000 0.500000 0.000000
#
# Coordination Sequence:
#
# PCOD8077850 Si02
#       6
#     2   2   4   2   4   4
#     4  11  24  41  69 107 134 182 251 287 350 431
#     4  11  23  41  72  96 140 184 231 297 352 408
#     4  11  23  45  68  99 145 185 233 299 349 415
#     4  12  21  44  69 101 132 184 238 292 358 411
#     4  11  24  45  72 103 145 185 234 299 350 418
#     4  11  25  44  70 106 145 188 238 281 359 432
#
# _framework density 23.249265000000001
#
# number of rings (size 3 to 8) (size 9 to 14) (size 15 to 20)
#    0.000    0.889    4.444    2.667    0.000    2.667 
#    0.000    0.000    0.000    0.000    0.000    0.000 
#    0.000    0.000    0.000    0.000    0.000    0.000 
#
# Total GULP energy -223299.297352 kJ/mol
# GULP energy per Si atom -12405.516520 kJ/mol
# Density = 2.319635 g / cm^3
# Si number density = 23.249265 Si / 1000 Ang^3
#
#
#
# Elastic Constant Matrix: (Units=GPa)
#
#
# Indices 1 2 3 4 5 6 
#
# 1 110.8504 52.1683 45.1148 0.0000 -20.6461 0.0000
# 2 52.1683 138.9369 41.7368 0.0000 -8.4172 0.0000
# 3 45.1148 41.7368 123.2065 0.0000 -24.8989 0.0000
# 4 0.0000 0.0000 0.0000 31.7924 0.0000 -7.8791
# 5 -20.6461 -8.4172 -24.8989 0.0000 63.4654 0.0000
# 6 0.0000 0.0000 0.0000 -7.8791 0.0000 19.1940
#
#
#
# Elastic Compliance Matrix: (Units=1/GPa)
#
#
# Indices 1 2 3 4 5 6 
#
# 1 0.012323 -0.003642 -0.002787 0.000000 0.002432 0.000000
# 2 -0.003642 0.009090 -0.001891 0.000000 -0.000721 0.000000
# 3 -0.002787 -0.001891 0.010365 0.000000 0.002909 0.000000
# 4 0.000000 0.000000 0.000000 0.035016 0.000000 0.014374
# 5 0.002432 -0.000721 0.002909 0.000000 0.017594 0.000000
# 6 0.000000 0.000000 0.000000 0.014374 0.000000 0.058000
#
#
# Mechanical properties :
#
#
# Convention : Reuss Voigt Hill
#
# Bulk Modulus (GPa) = 66.06355 72.33707 69.20031
# Shear Modulus (GPa) = 30.47405 38.48861 34.48133
#
# Velocity S-wave (km/s) = 3.62436 4.07317 3.85530
# Velocity P-wave (km/s) = 6.78172 7.30083 7.04606
#
# Compressibility (1/GPa) = 0.01513694
#
# Stress axis : x y z
#
# Youngs Moduli (GPa) = 81.15205 110.01614 96.47430
#
# Poissons Ratio (x) = 0.40072 0.26885
# Poissons Ratio (y) = 0.29559 0.18245
# Poissons Ratio (z) = 0.22615 0.20806
#
# Static dielectric constant tensor:
#      x y z
#    x 3.753870 0.000000 -0.244120 
#    y 0.000000 4.480270 0.000000 
#    z -0.244120 0.000000 4.357440 
# 
# 
# High freq. dielectric constant tensor:
#      x y z
#    x 1.892250 0.000000 -0.016300 
#    y 0.000000 1.934430 0.000000 
#    z -0.016300 0.000000 1.938430 
# 
# From -- ./inp_files/10041.got.cif
#   From: 2010.06.25/outbox.cif.g09.slc.cpg/sg11_6_cif.got.tgz:10041.got - 2010.06.27 23:14:04.
