data_PCOD8077475
_publ_section_title
;
Structure prediction by ZEFSAII (Michael W. Deem and Ramdas Pophale) SiO2 
 PCOD8077475
Probable space group: P 21/M
;
_chemical_formula_sum "Si O2"
_cell_formula_units_Z 28
_cell_length_a 12.019244
_cell_length_b 8.546817
_cell_length_c 15.078674
_cell_angle_alpha 90.000000
_cell_angle_beta 120.021269
_cell_angle_gamma 90.000000
_cell_volume 1341.165034
_symmetry_space_group_name_H-M "P 21/M"
_symmetry_group_IT_number 11
_symmetry_cell_setting 'monoclinic'
loop_
_space_group_symop_operation_xyz
x,y,z
-x,1/2+y,-z
-x,-y,-z
x,1/2-y,z
loop_
_atom_site_type_symbol
_atom_site_label
_atom_site_fract_x
_atom_site_fract_y
_atom_site_fract_z
Si Si1 0.118863 0.566756 0.491165
Si Si2 0.983156 0.934470 0.715264
Si Si3 0.364026 0.428646 0.677974
Si Si4 0.085852 0.435445 0.115082
Si Si5 0.628339 0.931555 0.803975
Si Si6 0.389034 0.931072 0.015257
Si Si7 0.756799 0.571971 0.186922
O O1 0.098284 0.750000 0.474296
O O2 0.128416 0.488857 0.396656
O O3 0.256849 0.534904 0.589967
O O4 0.000000 0.500000 0.500000
O O5 0.998839 0.750000 0.717538
O O6 0.964412 0.991986 0.809051
O O7 0.105717 0.021304 0.720596
O O8 0.342214 0.250000 0.640017
O O9 0.508515 0.480996 0.708824
O O10 0.350859 0.446737 0.779506
O O11 0.083489 0.250000 0.105383
O O12 0.233101 0.496996 0.171579
O O13 0.000000 0.500000 0.000000
O O14 0.614161 0.750000 0.775851
O O15 0.624007 0.959087 0.906313
O O16 0.408749 0.750000 0.049730
O O17 0.263815 0.953892 0.903934
O O18 0.500000 0.000000 0.000000
O O19 0.757976 0.750000 0.153239
#
# Coordination Sequence:
#
# PCOD8077475 Si02
#       7
#     4   4   4   4   4   4   4
#     4  12  24  40  64  95 129 167 210 260 318 377
#     4  11  23  41  65  93 126 165 211 260 314 373
#     4  11  23  39  61  91 126 162 205 255 313 374
#     4  10  24  44  67  95 127 167 213 262 311 370
#     4  11  23  41  63  89 125 165 209 261 316 373
#     4  12  23  35  54  84 120 159 202 249 309 374
#     4  11  22  36  57  88 124 160 204 254 310 371
#
# _framework density 20.877369999999999
#
# number of rings (size 3 to 8) (size 9 to 14) (size 15 to 20)
#    0.000    0.857    2.857    5.143    0.000    5.714 
#    0.000    0.714    0.000    0.000    0.000    0.000 
#    0.000    0.000    0.000    0.000    0.000    0.000 
#
# Total GULP energy -347165.189138 kJ/mol
# GULP energy per Si atom -12398.756755 kJ/mol
# Density = 2.082985 g / cm^3
# Si number density = 20.877370 Si / 1000 Ang^3
#
#
#
# Elastic Constant Matrix: (Units=GPa)
#
#
# Indices 1 2 3 4 5 6 
#
# 1 111.6558 37.2852 37.5634 0.0000 17.2691 0.0000
# 2 37.2852 81.1228 26.3898 0.0000 -2.4807 0.0000
# 3 37.5634 26.3898 107.8633 0.0000 4.7587 0.0000
# 4 0.0000 0.0000 0.0000 39.2831 0.0000 5.4965
# 5 17.2691 -2.4807 4.7587 0.0000 33.7723 0.0000
# 6 0.0000 0.0000 0.0000 5.4965 0.0000 26.1055
#
#
#
# Elastic Compliance Matrix: (Units=1/GPa)
#
#
# Indices 1 2 3 4 5 6 
#
# 1 0.012600 -0.005054 -0.002869 0.000000 -0.006410 0.000000
# 2 -0.005054 0.015492 -0.002208 0.000000 0.004033 0.000000
# 3 -0.002869 -0.002208 0.010820 0.000000 -0.000220 0.000000
# 4 0.000000 0.000000 0.000000 0.026229 0.000000 -0.005522
# 5 -0.006410 0.004033 -0.000220 0.000000 0.033215 0.000000
# 6 0.000000 0.000000 0.000000 -0.005522 0.000000 0.039469
#
#
# Mechanical properties :
#
#
# Convention : Reuss Voigt Hill
#
# Bulk Modulus (GPa) = 53.61890 55.90206 54.76048
# Shear Modulus (GPa) = 30.43159 33.12576 31.77867
#
# Velocity S-wave (km/s) = 3.82204 3.98764 3.90572
# Velocity P-wave (km/s) = 6.72427 6.93082 6.82833
#
# Compressibility (1/GPa) = 0.01865014
#
# Stress axis : x y z
#
# Youngs Moduli (GPa) = 79.36313 64.55141 92.42193
#
# Poissons Ratio (x) = 0.32625 0.26513
# Poissons Ratio (y) = 0.40111 0.20407
# Poissons Ratio (z) = 0.22767 0.14253
#
# Static dielectric constant tensor:
#      x y z
#    x 3.761000 0.000000 0.029900 
#    y 0.000000 3.895520 0.000000 
#    z 0.029900 0.000000 4.286790 
# 
# 
# High freq. dielectric constant tensor:
#      x y z
#    x 1.806490 0.000000 0.018890 
#    y 0.000000 1.820670 0.000000 
#    z 0.018890 0.000000 1.825440 
# 
# From -- ./inp_files/37856.got.cif
#   From: 2010.06.25/outbox.cif.g09.slc.cpg/sg11_19_cif.got.tgz:37856.got - 2010.06.27 23:14:04.
