data_PCOD8077581
_publ_section_title
;
Structure prediction by ZEFSAII (Michael W. Deem and Ramdas Pophale) SiO2 
 PCOD8077581
Probable space group: P 21/M
;
_chemical_formula_sum "Si O2"
_cell_formula_units_Z 26
_cell_length_a 6.576538
_cell_length_b 22.425504
_cell_length_c 11.865288
_cell_angle_alpha 90.000000
_cell_angle_beta 43.355882
_cell_angle_gamma 90.000000
_cell_volume 1201.367792
_symmetry_space_group_name_H-M "P 21/M"
_symmetry_group_IT_number 11
_symmetry_cell_setting 'monoclinic'
loop_
_space_group_symop_operation_xyz
x,y,z
-x,1/2+y,-z
-x,-y,-z
x,1/2-y,z
loop_
_atom_site_type_symbol
_atom_site_label
_atom_site_fract_x
_atom_site_fract_y
_atom_site_fract_z
Si Si1 0.868882 0.250000 0.377651
Si Si2 0.083321 0.750000 0.366281
Si Si3 0.420088 0.555848 0.712358
Si Si4 0.717744 0.750000 0.987024
Si Si5 0.613004 0.655744 0.480912
Si Si6 0.804266 0.620202 0.976677
Si Si7 0.426715 0.940711 0.963010
Si Si8 0.268511 0.425951 0.762994
O O1 0.874696 0.250000 0.513041
O O2 0.691459 0.193048 0.398800
O O3 0.195952 0.250000 0.184405
O O4 0.897640 0.692588 0.404624
O O5 0.377153 0.750000 0.168589
O O6 0.626259 0.598078 0.555777
O O7 0.546925 0.555471 0.787556
O O8 0.420436 0.488165 0.664642
O O9 0.094634 0.582853 0.834832
O O10 0.868632 0.690121 0.976257
O O11 0.636090 0.630804 0.346354
O O12 0.585563 0.615705 0.957635
O O13 0.634423 0.589654 0.149313
O O14 0.081073 0.931319 0.100709
O O15 0.500000 0.000000 0.000000
#
# Coordination Sequence:
#
# PCOD8077581 Si02
#       8
#     2   2   4   2   4   4   4   4
#     4  11  25  49  72  96 139 182 225 290 337 415
#     4  11  27  49  66 104 139 174 237 286 333 409
#     4  11  22  39  65  97 131 178 219 271 342 407
#     4  12  24  44  76  96 130 186 230 276 344 406
#     4  11  25  45  65  99 140 172 225 283 342 406
#     4  11  22  41  65 100 128 173 233 273 336 405
#     4  11  20  39  65  95 135 170 224 282 326 403
#     4  11  22  40  66  96 135 175 218 281 341 405
#
# _framework density 21.641999999999999
#
# number of rings (size 3 to 8) (size 9 to 14) (size 15 to 20)
#    0.000    0.923    4.615    3.231    2.154    0.615 
#    0.000    5.385    0.000    0.000    0.000    0.000 
#    0.000    0.000    0.000    0.000    0.000    0.000 
#
# Total GULP energy -322210.232753 kJ/mol
# GULP energy per Si atom -12392.701260 kJ/mol
# Density = 2.159274 g / cm^3
# Si number density = 21.642000 Si / 1000 Ang^3
#
#
#
# Elastic Constant Matrix: (Units=GPa)
#
#
# Indices 1 2 3 4 5 6 
#
# 1 98.4234 21.6695 24.1121 0.0000 14.1130 0.0000
# 2 21.6695 124.6591 8.0323 0.0000 2.4363 0.0000
# 3 24.1121 8.0323 96.6436 0.0000 5.0072 0.0000
# 4 0.0000 0.0000 0.0000 32.7605 0.0000 7.9486
# 5 14.1130 2.4363 5.0072 0.0000 16.6901 0.0000
# 6 0.0000 0.0000 0.0000 7.9486 0.0000 29.3794
#
#
#
# Elastic Compliance Matrix: (Units=1/GPa)
#
#
# Indices 1 2 3 4 5 6 
#
# 1 0.012548 -0.001834 -0.002481 0.000000 -0.009599 0.000000
# 2 -0.001834 0.008349 -0.000258 0.000000 0.000409 0.000000
# 3 -0.002481 -0.000258 0.011049 0.000000 -0.001179 0.000000
# 4 0.000000 0.000000 0.000000 0.032669 0.000000 -0.008839
# 5 -0.009599 0.000409 -0.001179 0.000000 0.068326 0.000000
# 6 0.000000 0.000000 0.000000 -0.008839 0.000000 0.036429
#
#
# Mechanical properties :
#
#
# Convention : Reuss Voigt Hill
#
# Bulk Modulus (GPa) = 43.85695 47.48376 45.67035
# Shear Modulus (GPa) = 26.86506 33.49348 30.17927
#
# Velocity S-wave (km/s) = 3.52709 3.93824 3.73832
# Velocity P-wave (km/s) = 6.07420 6.53206 6.30729
#
# Compressibility (1/GPa) = 0.02280140
#
# Stress axis : x y z
#
# Youngs Moduli (GPa) = 79.69360 119.77134 90.50759
#
# Poissons Ratio (x) = 0.21963 0.22455
# Poissons Ratio (y) = 0.14614 0.02332
# Poissons Ratio (z) = 0.19772 0.03085
#
# Static dielectric constant tensor:
#      x y z
#    x 3.450590 0.000000 0.797090 
#    y 0.000000 3.921420 0.000000 
#    z 0.797090 0.000000 3.568710 
# 
# 
# High freq. dielectric constant tensor:
#      x y z
#    x 1.837570 0.000000 0.014690 
#    y 0.000000 1.873340 0.000000 
#    z 0.014690 0.000000 1.847170 
# 
# From -- ./inp_files/5441.got.cif
#   From: 2010.06.25/outbox.cif.g09.slc.cpg/sg11_3_cif.got.tgz:5441.got - 2010.06.27 23:14:04.
