data_PCOD8077382
_publ_section_title
;
Structure prediction by ZEFSAII (Michael W. Deem and Ramdas Pophale) SiO2 
 PCOD8077382
Probable space group: P 21/M
;
_chemical_formula_sum "Si O2"
_cell_formula_units_Z 20
_cell_length_a 4.815113
_cell_length_b 19.562206
_cell_length_c 10.201267
_cell_angle_alpha 90.000000
_cell_angle_beta 72.261877
_cell_angle_gamma 90.000000
_cell_volume 915.218320
_symmetry_space_group_name_H-M "P 21/M"
_symmetry_group_IT_number 11
_symmetry_cell_setting 'monoclinic'
loop_
_space_group_symop_operation_xyz
x,y,z
-x,1/2+y,-z
-x,-y,-z
x,1/2-y,z
loop_
_atom_site_type_symbol
_atom_site_label
_atom_site_fract_x
_atom_site_fract_y
_atom_site_fract_z
Si Si1 0.774491 0.061212 0.546847
Si Si2 0.296010 0.055162 0.099687
Si Si3 0.961040 0.326491 0.712251
Si Si4 0.662015 0.673125 0.101911
Si Si5 0.664088 0.037767 0.281633
O O1 0.938240 0.123607 0.591984
O O2 0.675372 0.082331 0.413887
O O3 0.494066 0.035393 0.669920
O O4 0.000000 0.000000 0.500000
O O5 0.470689 0.079677 0.204170
O O6 0.217101 0.120163 0.022023
O O7 0.500000 0.000000 0.000000
O O8 0.011879 0.979677 0.817975
O O9 0.989809 0.250000 0.650433
O O10 0.685445 0.332296 0.848372
O O11 0.234844 0.344920 0.764966
O O12 0.766502 0.750000 0.049466
#
# Coordination Sequence:
#
# PCOD8077382 Si02
#       5
#     4   4   4   4   4
#     4  11  24  41  67  90 136 164 215 268 320 366
#     4  12  24  39  64  94 131 164 213 260 320 383
#     4  10  23  42  66  92 121 168 220 261 315 380
#     4  10  23  42  65  92 126 168 212 265 318 377
#     4  11  25  40  60  98 124 170 206 259 326 375
#
# _framework density 21.852708
#
# number of rings (size 3 to 8) (size 9 to 14) (size 15 to 20)
#    0.000    1.200    2.000    3.000    8.400    0.000 
#    0.000    2.000    0.000    1.200    0.000    0.000 
#    0.000    0.000    0.000    0.000    0.000    0.000 
#
# Total GULP energy -248011.215288 kJ/mol
# GULP energy per Si atom -12400.560764 kJ/mol
# Density = 2.180297 g / cm^3
# Si number density = 21.852708 Si / 1000 Ang^3
#
#
#
# Elastic Constant Matrix: (Units=GPa)
#
#
# Indices 1 2 3 4 5 6 
#
# 1 110.1043 41.1272 34.8972 0.0000 0.5812 0.0000
# 2 41.1272 130.0846 76.9516 0.0000 16.0169 0.0000
# 3 34.8972 76.9516 113.5268 0.0000 24.5222 0.0000
# 4 0.0000 0.0000 0.0000 32.9359 0.0000 8.0363
# 5 0.5812 16.0169 24.5222 0.0000 53.2577 0.0000
# 6 0.0000 0.0000 0.0000 8.0363 0.0000 28.9167
#
#
#
# Elastic Compliance Matrix: (Units=1/GPa)
#
#
# Indices 1 2 3 4 5 6 
#
# 1 0.010583 -0.002361 -0.001978 0.000000 0.001505 0.000000
# 2 -0.002361 0.013361 -0.008293 0.000000 -0.000174 0.000000
# 3 -0.001978 -0.008293 0.016095 0.000000 -0.004895 0.000000
# 4 0.000000 0.000000 0.000000 0.032571 0.000000 -0.009052
# 5 0.001505 -0.000174 -0.004895 0.000000 0.021067 0.000000
# 6 0.000000 0.000000 0.000000 -0.009052 0.000000 0.037098
#
#
# Mechanical properties :
#
#
# Convention : Reuss Voigt Hill
#
# Bulk Modulus (GPa) = 67.68171 73.29638 70.48905
# Shear Modulus (GPa) = 31.06294 36.40471 33.73383
#
# Velocity S-wave (km/s) = 3.77433 4.08599 3.93325
# Velocity P-wave (km/s) = 7.07341 7.47491 7.27693
#
# Compressibility (1/GPa) = 0.01477504
#
# Stress axis : x y z
#
# Youngs Moduli (GPa) = 94.48906 74.84447 62.13080
#
# Poissons Ratio (x) = 0.17674 0.12288
# Poissons Ratio (y) = 0.22312 0.51525
# Poissons Ratio (z) = 0.18688 0.62069
#
# Static dielectric constant tensor:
#      x y z
#    x 4.351240 0.000000 0.294130 
#    y 0.000000 3.740960 0.000000 
#    z 0.294130 0.000000 4.196550 
# 
# 
# High freq. dielectric constant tensor:
#      x y z
#    x 1.887800 0.000000 0.014340 
#    y 0.000000 1.828210 0.000000 
#    z 0.014340 0.000000 1.853570 
# 
# From -- ./inp_files/2355.got.cif
#   From: 2010.06.25/outbox.cif.g09.slc.cpg/sg11_2_cif.got.tgz:2355.got - 2010.06.27 23:14:04.
