data_PCOD8077306
_publ_section_title
;
Structure prediction by ZEFSAII (Michael W. Deem and Ramdas Pophale) SiO2 
 PCOD8077306
Probable space group: P 21/M
;
_chemical_formula_sum "Si O2"
_cell_formula_units_Z 32
_cell_length_a 8.717746
_cell_length_b 25.236954
_cell_length_c 13.391974
_cell_angle_alpha 90.000000
_cell_angle_beta 149.276835
_cell_angle_gamma 90.000000
_cell_volume 1505.267165
_symmetry_space_group_name_H-M "P 21/M"
_symmetry_group_IT_number 11
_symmetry_cell_setting 'monoclinic'
loop_
_space_group_symop_operation_xyz
x,y,z
-x,1/2+y,-z
-x,-y,-z
x,1/2-y,z
loop_
_atom_site_type_symbol
_atom_site_label
_atom_site_fract_x
_atom_site_fract_y
_atom_site_fract_z
Si Si1 0.791875 0.689733 0.440179
Si Si2 0.782454 0.626955 0.106121
Si Si3 0.442839 0.423272 0.216474
Si Si4 0.883673 0.911633 0.368114
Si Si5 0.868327 0.606995 0.769447
Si Si6 0.755267 0.308970 0.129880
Si Si7 0.375379 0.878065 0.334200
Si Si8 0.302046 0.959111 0.126136
O O1 0.737429 0.750000 0.371798
O O2 0.852433 0.650420 0.381937
O O3 0.499936 0.670061 0.337648
O O4 0.078224 0.687015 0.671729
O O5 0.831460 0.583784 0.220541
O O6 0.109013 0.646747 0.251998
O O7 0.593771 0.599981 0.913301
O O8 0.588222 0.674796 0.042769
O O9 0.321730 0.383271 0.234815
O O10 0.259633 0.478743 0.126489
O O11 0.792372 0.434719 0.425301
O O12 0.648969 0.948317 0.294491
O O13 0.639533 0.596247 0.550164
O O14 0.082226 0.656636 0.864837
O O15 0.091683 0.557454 0.914378
O O16 0.758733 0.250000 0.088597
O O17 0.226385 0.923808 0.182093
#
# Coordination Sequence:
#
# PCOD8077306 Si02
#       8
#     4   4   4   4   4   4   4   4
#     4   9  20  42  67  89 122 164 204 261 322 369
#     4  12  23  40  62  95 127 163 210 259 307 372
#     4  12  25  41  63  91 134 167 210 269 305 370
#     4  11  23  42  62  92 127 164 213 259 313 380
#     4  11  22  43  64  91 129 164 210 264 311 374
#     4  10  22  43  68  91 123 165 206 256 322 380
#     4  10  23  39  65  91 128 162 213 261 304 385
#     4  11  24  42  63  92 125 175 214 252 323 372
#
# _framework density 21.258686000000001
#
# number of rings (size 3 to 8) (size 9 to 14) (size 15 to 20)
#    0.000    1.250    5.000    0.750    0.000    3.000 
#    0.000    1.250    0.000    0.000    0.000    0.000 
#    0.000    0.000    0.000    0.000    0.000    0.000 
#
# Total GULP energy -396819.190761 kJ/mol
# GULP energy per Si atom -12400.599711 kJ/mol
# Density = 2.121030 g / cm^3
# Si number density = 21.258686 Si / 1000 Ang^3
#
#
#
# Elastic Constant Matrix: (Units=GPa)
#
#
# Indices 1 2 3 4 5 6 
#
# 1 80.4024 16.8268 22.5907 0.0000 4.7243 0.0000
# 2 16.8268 93.4439 20.1302 0.0000 -0.2185 0.0000
# 3 22.5907 20.1302 94.2056 0.0000 4.0412 0.0000
# 4 0.0000 0.0000 0.0000 24.0143 0.0000 2.6245
# 5 4.7243 -0.2185 4.0412 0.0000 45.6108 0.0000
# 6 0.0000 0.0000 0.0000 2.6245 0.0000 25.1001
#
#
#
# Elastic Compliance Matrix: (Units=1/GPa)
#
#
# Indices 1 2 3 4 5 6 
#
# 1 0.013692 -0.001857 -0.002836 0.000000 -0.001176 0.000000
# 2 -0.001857 0.011473 -0.002025 0.000000 0.000427 0.000000
# 3 -0.002836 -0.002025 0.011760 0.000000 -0.000758 0.000000
# 4 0.000000 0.000000 0.000000 0.042123 0.000000 -0.004404
# 5 -0.001176 0.000427 -0.000758 0.000000 0.022116 0.000000
# 6 0.000000 0.000000 0.000000 -0.004404 0.000000 0.040301
#
#
# Mechanical properties :
#
#
# Convention : Reuss Voigt Hill
#
# Bulk Modulus (GPa) = 42.57196 43.01637 42.79416
# Shear Modulus (GPa) = 30.72553 32.84534 31.78543
#
# Velocity S-wave (km/s) = 3.80586 3.93495 3.87094
# Velocity P-wave (km/s) = 6.27550 6.39717 6.33663
#
# Compressibility (1/GPa) = 0.02348964
#
# Stress axis : x y z
#
# Youngs Moduli (GPa) = 73.03490 87.15958 85.03181
#
# Poissons Ratio (x) = 0.16189 0.24116
# Poissons Ratio (y) = 0.13565 0.17215
# Poissons Ratio (z) = 0.20713 0.17646
#
# Static dielectric constant tensor:
#      x y z
#    x 3.886310 0.000000 0.065080 
#    y 0.000000 3.592560 0.000000 
#    z 0.065080 0.000000 4.089630 
# 
# 
# High freq. dielectric constant tensor:
#      x y z
#    x 1.841710 0.000000 0.007300 
#    y 0.000000 1.800310 0.000000 
#    z 0.007300 0.000000 1.861880 
# 
# From -- ./inp_files/48485.got.cif
#   From: 2010.06.25/outbox.cif.g09.slc.cpg/sg11_25_cif.got.tgz:48485.got - 2010.06.27 23:14:04.
