data_PCOD8077624
_publ_section_title
;
Structure prediction by ZEFSAII (Michael W. Deem and Ramdas Pophale) SiO2 
 PCOD8077624
Probable space group: P 21/M
;
_chemical_formula_sum "Si O2"
_cell_formula_units_Z 20
_cell_length_a 21.645729
_cell_length_b 8.865055
_cell_length_c 10.332666
_cell_angle_alpha 90.000000
_cell_angle_beta 145.064069
_cell_angle_gamma 90.000000
_cell_volume 1135.436784
_symmetry_space_group_name_H-M "P 21/M"
_symmetry_group_IT_number 11
_symmetry_cell_setting 'monoclinic'
loop_
_space_group_symop_operation_xyz
x,y,z
-x,1/2+y,-z
-x,-y,-z
x,1/2-y,z
loop_
_atom_site_type_symbol
_atom_site_label
_atom_site_fract_x
_atom_site_fract_y
_atom_site_fract_z
Si Si1 0.043836 0.429681 0.445145
Si Si2 0.501912 0.426380 0.143054
Si Si3 0.289797 0.424815 0.479285
Si Si4 0.059736 0.072738 0.981288
Si Si5 0.268060 0.073458 0.731068
O O1 0.035547 0.250000 0.437459
O O2 0.167301 0.489061 0.640253
O O3 0.000000 0.500000 0.500000
O O4 0.973753 0.489376 0.206092
O O5 0.519983 0.250000 0.160715
O O6 0.602692 0.495589 0.396153
O O7 0.500000 0.500000 0.000000
O O8 0.382872 0.461453 0.999758
O O9 0.317750 0.250000 0.538256
O O10 0.265609 0.493577 0.580788
O O11 0.187971 0.454484 0.212997
O O12 0.032468 0.250000 0.928974
O O13 0.000000 0.000000 0.000000
O O14 0.249851 0.250000 0.684388
#
# Coordination Sequence:
#
# PCOD8077624 Si02
#       5
#     4   4   4   4   4
#     4  11  22  38  55  77 108 144 181 220 266 322
#     4   9  16  27  45  72 102 134 169 210 261 312
#     4   9  17  31  49  74 106 136 167 212 266 312
#     4  11  21  35  55  80 109 142 178 221 270 317
#     4   8  15  30  49  70 103 138 167 210 264 308
#
# _framework density 17.614367999999999
#
# number of rings (size 3 to 8) (size 9 to 14) (size 15 to 20)
#    0.000    2.400    2.000    3.000    0.000    1.600 
#    0.000    3.000    0.000    1.200    0.000    0.000 
#    0.000    0.000    0.000    0.000    0.000    0.000 
#
# Total GULP energy -247816.976498 kJ/mol
# GULP energy per Si atom -12390.848825 kJ/mol
# Density = 1.757428 g / cm^3
# Si number density = 17.614368 Si / 1000 Ang^3
#
#
#
# Elastic Constant Matrix: (Units=GPa)
#
#
# Indices 1 2 3 4 5 6 
#
# 1 115.0620 47.3556 80.4862 0.0000 19.1317 0.0000
# 2 47.3556 83.7319 56.3130 0.0000 13.7460 0.0000
# 3 80.4862 56.3130 115.0750 0.0000 24.9983 0.0000
# 4 0.0000 0.0000 0.0000 32.1532 0.0000 3.7315
# 5 19.1317 13.7460 24.9983 0.0000 37.2145 0.0000
# 6 0.0000 0.0000 0.0000 3.7315 0.0000 25.3062
#
#
#
# Elastic Compliance Matrix: (Units=1/GPa)
#
#
# Indices 1 2 3 4 5 6 
#
# 1 0.017369 -0.002443 -0.010783 0.000000 -0.000784 0.000000
# 2 -0.002443 0.018168 -0.007022 0.000000 -0.000738 0.000000
# 3 -0.010783 -0.007022 0.020959 0.000000 -0.005942 0.000000
# 4 0.000000 0.000000 0.000000 0.031643 0.000000 -0.004666
# 5 -0.000784 -0.000738 -0.005942 0.000000 0.031538 0.000000
# 6 0.000000 0.000000 0.000000 -0.004666 0.000000 0.040204
#
#
# Mechanical properties :
#
#
# Convention : Reuss Voigt Hill
#
# Bulk Modulus (GPa) = 62.49539 75.79759 69.14649
# Shear Modulus (GPa) = 24.30617 27.58239 25.94428
#
# Velocity S-wave (km/s) = 3.71874 3.96144 3.84201
# Velocity P-wave (km/s) = 7.34816 8.00307 7.68260
#
# Compressibility (1/GPa) = 0.01600118
#
# Stress axis : x y z
#
# Youngs Moduli (GPa) = 57.57288 55.04165 47.71319
#
# Poissons Ratio (x) = 0.13446 0.51448
# Poissons Ratio (y) = 0.14064 0.33503
# Poissons Ratio (z) = 0.62079 0.38649
#
# Static dielectric constant tensor:
#      x y z
#    x 3.387740 0.000000 0.570810 
#    y 0.000000 3.328590 0.000000 
#    z 0.570810 0.000000 3.514980 
# 
# 
# High freq. dielectric constant tensor:
#      x y z
#    x 1.655190 0.000000 0.041690 
#    y 0.000000 1.677120 0.000000 
#    z 0.041690 0.000000 1.678330 
# 
# From -- ./inp_files/23901.got.cif
#   From: 2010.06.25/outbox.cif.g09.slc.cpg/sg11_12_cif.got.tgz:23901.got - 2010.06.27 23:14:04.
