data_PCOD8077047
_publ_section_title
;
Structure prediction by ZEFSAII (Michael W. Deem and Ramdas Pophale) SiO2 
 PCOD8077047
Probable space group: P 21/M
;
_chemical_formula_sum "Si O2"
_cell_formula_units_Z 20
_cell_length_a 11.709856
_cell_length_b 13.321161
_cell_length_c 9.445809
_cell_angle_alpha 90.000000
_cell_angle_beta 37.590813
_cell_angle_gamma 90.000000
_cell_volume 898.825790
_symmetry_space_group_name_H-M "P 21/M"
_symmetry_group_IT_number 11
_symmetry_cell_setting 'monoclinic'
loop_
_space_group_symop_operation_xyz
x,y,z
-x,1/2+y,-z
-x,-y,-z
x,1/2-y,z
loop_
_atom_site_type_symbol
_atom_site_label
_atom_site_fract_x
_atom_site_fract_y
_atom_site_fract_z
Si Si1 0.444763 0.364459 0.215735
Si Si2 0.126132 0.138991 0.316924
Si Si3 0.303690 0.021829 0.620078
Si Si4 0.859991 0.431168 0.819886
Si Si5 0.035382 0.865371 0.968665
O O1 0.463662 0.250000 0.252584
O O2 0.334573 0.369208 0.176554
O O3 0.327813 0.428112 0.444617
O O4 0.644638 0.413328 0.994433
O O5 0.099622 0.250000 0.273151
O O6 0.978435 0.129147 0.588789
O O7 0.098163 0.051317 0.228737
O O8 0.176425 0.093897 0.845814
O O9 0.500000 0.000000 0.500000
O O10 0.185569 0.918937 0.717843
O O11 0.906173 0.388779 0.927786
O O12 0.044201 0.750000 0.923302
#
# Coordination Sequence:
#
# PCOD8077047 Si02
#       5
#     4   4   4   4   4
#     4  11  21  38  65  90 119 163 205 247 302 363
#     4  10  22  39  60  88 123 161 200 251 305 357
#     4  11  23  38  63  93 121 153 209 258 297 364
#     4  11  21  37  64  91 120 158 207 251 297 366
#     4  11  23  41  64  90 122 164 204 249 310 369
#
# _framework density 22.251252000000001
#
# number of rings (size 3 to 8) (size 9 to 14) (size 15 to 20)
#    0.000    1.200    4.000    3.000    0.000    0.800 
#    0.000    6.000    0.000    0.000    0.000    0.000 
#    0.000    0.000    0.000    0.000    0.000    0.000 
#
# Total GULP energy -247997.386066 kJ/mol
# GULP energy per Si atom -12399.869303 kJ/mol
# Density = 2.220061 g / cm^3
# Si number density = 22.251252 Si / 1000 Ang^3
#
#
#
# Elastic Constant Matrix: (Units=GPa)
#
#
# Indices 1 2 3 4 5 6 
#
# 1 33.3134 12.6841 21.5588 0.0000 -13.1944 0.0000
# 2 12.6841 190.2015 33.1642 0.0000 -12.5482 0.0000
# 3 21.5588 33.1642 94.3778 0.0000 -32.7357 0.0000
# 4 0.0000 0.0000 0.0000 23.3925 0.0000 0.1955
# 5 -13.1944 -12.5482 -32.7357 0.0000 34.2963 0.0000
# 6 0.0000 0.0000 0.0000 0.1955 0.0000 30.0383
#
#
#
# Elastic Compliance Matrix: (Units=1/GPa)
#
#
# Indices 1 2 3 4 5 6 
#
# 1 0.037268 -0.001012 -0.004952 0.000000 0.009240 0.000000
# 2 -0.001012 0.005630 -0.001746 0.000000 0.000004 0.000000
# 3 -0.004952 -0.001746 0.017129 0.000000 0.013806 0.000000
# 4 0.000000 0.000000 0.000000 0.042751 0.000000 -0.000278
# 5 0.009240 0.000004 0.013806 0.000000 0.045892 0.000000
# 6 0.000000 0.000000 0.000000 -0.000278 0.000000 0.033293
#
#
# Mechanical properties :
#
#
# Convention : Reuss Voigt Hill
#
# Bulk Modulus (GPa) = 22.41826 50.30075 36.35950
# Shear Modulus (GPa) = 23.55695 34.24443 28.90069
#
# Velocity S-wave (km/s) = 3.25727 3.92725 3.60784
# Velocity P-wave (km/s) = 4.92375 6.57414 5.80786
#
# Compressibility (1/GPa) = 0.04460649
#
# Stress axis : x y z
#
# Youngs Moduli (GPa) = 26.83256 177.62838 58.38048
#
# Poissons Ratio (x) = 0.17979 0.28912
# Poissons Ratio (y) = 0.02716 0.10191
# Poissons Ratio (z) = 0.13289 0.31007
#
# Static dielectric constant tensor:
#      x y z
#    x 3.804820 0.000000 -0.290460 
#    y 0.000000 4.292350 0.000000 
#    z -0.290460 0.000000 4.160510 
# 
# 
# High freq. dielectric constant tensor:
#      x y z
#    x 1.863200 0.000000 -0.021170 
#    y 0.000000 1.887450 0.000000 
#    z -0.021170 0.000000 1.882530 
# 
# From -- ./inp_files/39122.got.cif
#   From: 2010.06.25/outbox.cif.g09.slc.cpg/sg11_20_cif.got.tgz:39122.got - 2010.06.27 23:14:04.
