data_PCOD8077307
_publ_section_title
;
Structure prediction by ZEFSAII (Michael W. Deem and Ramdas Pophale) SiO2 
 PCOD8077307
Probable space group: P 21/M
;
_chemical_formula_sum "Si O2"
_cell_formula_units_Z 32
_cell_length_a 5.498500
_cell_length_b 24.201934
_cell_length_c 11.370649
_cell_angle_alpha 90.000000
_cell_angle_beta 67.679220
_cell_angle_gamma 90.000000
_cell_volume 1399.764930
_symmetry_space_group_name_H-M "P 21/M"
_symmetry_group_IT_number 11
_symmetry_cell_setting 'monoclinic'
loop_
_space_group_symop_operation_xyz
x,y,z
-x,1/2+y,-z
-x,-y,-z
x,1/2-y,z
loop_
_atom_site_type_symbol
_atom_site_label
_atom_site_fract_x
_atom_site_fract_y
_atom_site_fract_z
Si Si1 0.678274 0.124518 0.010174
Si Si2 0.051684 0.501648 0.352178
Si Si3 0.436991 0.810949 0.756922
Si Si4 0.421945 0.989606 0.881593
Si Si5 0.269083 0.103895 0.873292
Si Si6 0.257397 0.605487 0.612311
Si Si7 0.956679 0.687496 0.514976
Si Si8 0.741031 0.891645 0.379680
O O1 0.562482 0.176091 0.104177
O O2 0.678116 0.072892 0.101822
O O3 0.489896 0.119570 0.930181
O O4 0.987204 0.135042 0.927958
O O5 0.352535 0.496094 0.258623
O O6 0.000000 0.500000 0.500000
O O7 0.907044 0.448484 0.322396
O O8 0.955320 0.560125 0.319284
O O9 0.318373 0.750000 0.757662
O O10 0.252542 0.855209 0.726206
O O11 0.729634 0.813792 0.653962
O O12 0.210517 0.037470 0.889322
O O13 0.500000 0.000000 0.000000
O O14 0.390472 0.119848 0.723459
O O15 0.167187 0.642739 0.518539
O O16 0.542810 0.585116 0.515936
O O17 0.069576 0.750000 0.481386
O O18 0.858920 0.666290 0.405605
#
# Coordination Sequence:
#
# PCOD8077307 Si02
#       8
#     4   4   4   4   4   4   4   4
#     4  11  25  43  70  99 133 183 234 281 338 410
#     4  12  23  39  66 105 144 178 227 289 356 410
#     4  10  24  43  66  98 131 172 232 295 351 407
#     4  10  23  40  65  95 136 185 225 270 338 425
#     4  11  25  44  68  97 140 183 230 275 339 415
#     4  11  23  38  69  99 135 178 223 285 356 418
#     4  10  22  43  68  95 130 178 229 284 346 416
#     4  11  24  41  65  98 142 177 226 281 349 417
#
# _framework density 22.860983000000001
#
# number of rings (size 3 to 8) (size 9 to 14) (size 15 to 20)
#    0.000    1.250    1.250    4.125   10.500    0.500 
#    0.000    1.250    0.000    0.000    0.000    0.000 
#    0.000    0.000    0.000    0.000    0.000    0.000 
#
# Total GULP energy -396583.161077 kJ/mol
# GULP energy per Si atom -12393.223784 kJ/mol
# Density = 2.280895 g / cm^3
# Si number density = 22.860983 Si / 1000 Ang^3
#
#
#
# Elastic Constant Matrix: (Units=GPa)
#
#
# Indices 1 2 3 4 5 6 
#
# 1 76.3476 10.6289 21.6035 0.0000 7.3761 0.0000
# 2 10.6289 93.0001 24.4410 0.0000 -1.9351 0.0000
# 3 21.6035 24.4410 116.8533 0.0000 16.1400 0.0000
# 4 0.0000 0.0000 0.0000 25.0863 0.0000 1.7381
# 5 7.3761 -1.9351 16.1400 0.0000 26.4479 0.0000
# 6 0.0000 0.0000 0.0000 1.7381 0.0000 23.5148
#
#
#
# Elastic Compliance Matrix: (Units=1/GPa)
#
#
# Indices 1 2 3 4 5 6 
#
# 1 0.014088 -0.001149 -0.001977 0.000000 -0.002807 0.000000
# 2 -0.001149 0.011625 -0.002600 0.000000 0.002758 0.000000
# 3 -0.001977 -0.002600 0.010284 0.000000 -0.005915 0.000000
# 4 0.000000 0.000000 0.000000 0.040068 0.000000 -0.002962
# 5 -0.002807 0.002758 -0.005915 0.000000 0.042404 0.000000
# 6 0.000000 0.000000 0.000000 -0.002962 0.000000 0.042745
#
#
# Mechanical properties :
#
#
# Convention : Reuss Voigt Hill
#
# Bulk Modulus (GPa) = 40.73994 44.39420 42.56707
# Shear Modulus (GPa) = 27.64765 30.31165 28.97965
#
# Velocity S-wave (km/s) = 3.48139 3.64526 3.56427
# Velocity P-wave (km/s) = 5.83262 6.09742 5.96649
#
# Compressibility (1/GPa) = 0.02454594
#
# Stress axis : x y z
#
# Youngs Moduli (GPa) = 70.98010 86.02418 97.23935
#
# Poissons Ratio (x) = 0.09885 0.19220
# Poissons Ratio (y) = 0.08156 0.25281
# Poissons Ratio (z) = 0.14030 0.22365
#
# Static dielectric constant tensor:
#      x y z
#    x 3.724330 0.000000 0.158380 
#    y 0.000000 4.262150 0.000000 
#    z 0.158380 0.000000 4.088790 
# 
# 
# High freq. dielectric constant tensor:
#      x y z
#    x 1.889380 0.000000 0.007510 
#    y 0.000000 1.891180 0.000000 
#    z 0.007510 0.000000 1.911840 
# 
# From -- ./inp_files/30241.got.cif
#   From: 2010.06.25/outbox.cif.g09.slc.cpg/sg11_16_cif.got.tgz:30241.got - 2010.06.27 23:14:04.
