data_PCOD8077824
_publ_section_title
;
Structure prediction by ZEFSAII (Michael W. Deem and Ramdas Pophale) SiO2 
 PCOD8077824
Probable space group: P 21/M
;
_chemical_formula_sum "Si O2"
_cell_formula_units_Z 20
_cell_length_a 26.451234
_cell_length_b 8.860209
_cell_length_c 9.101515
_cell_angle_alpha 90.000000
_cell_angle_beta 150.799655
_cell_angle_gamma 90.000000
_cell_volume 1040.646386
_symmetry_space_group_name_H-M "P 21/M"
_symmetry_group_IT_number 11
_symmetry_cell_setting 'monoclinic'
loop_
_space_group_symop_operation_xyz
x,y,z
-x,1/2+y,-z
-x,-y,-z
x,1/2-y,z
loop_
_atom_site_type_symbol
_atom_site_label
_atom_site_fract_x
_atom_site_fract_y
_atom_site_fract_z
Si Si1 0.295103 0.925709 0.663382
Si Si2 0.724501 0.076425 0.727052
Si Si3 0.092977 0.929610 0.326099
Si Si4 0.092743 0.071521 0.644628
Si Si5 0.504381 0.923277 0.855207
O O1 0.314216 0.750000 0.727211
O O2 0.273966 0.969501 0.440458
O O3 0.199161 0.979918 0.517406
O O4 0.400056 0.004032 0.992519
O O5 0.761581 0.250000 0.839454
O O6 0.609405 0.055998 0.506052
O O7 0.799345 0.964103 0.002321
O O8 0.081147 0.750000 0.301705
O O9 0.092608 0.997322 0.485889
O O10 0.000000 0.000000 0.000000
O O11 0.077091 0.250000 0.591780
O O12 0.000000 0.000000 0.500000
O O13 0.530162 0.750000 0.944425
O O14 0.500000 0.000000 0.000000
#
# Coordination Sequence:
#
# PCOD8077824 Si02
#       5
#     4   4   4   4   4
#     4   9  19  35  57  84 114 146 183 228 277 328
#     4   9  18  35  57  84 115 146 184 231 277 326
#     4  11  23  40  61  85 114 148 185 231 282 335
#     4  12  25  40  59  83 111 147 189 234 283 337
#     4   9  17  30  53  82 113 147 184 226 272 324
#
# _framework density 19.218823
#
# number of rings (size 3 to 8) (size 9 to 14) (size 15 to 20)
#    0.000    2.000    0.000    5.400    0.000    7.200 
#    0.000    1.000    0.000    0.000    0.000    0.000 
#    0.000    0.000    0.000    0.000    0.000    0.000 
#
# Total GULP energy -247955.935467 kJ/mol
# GULP energy per Si atom -12397.796773 kJ/mol
# Density = 1.917508 g / cm^3
# Si number density = 19.218823 Si / 1000 Ang^3
#
#
#
# Elastic Constant Matrix: (Units=GPa)
#
#
# Indices 1 2 3 4 5 6 
#
# 1 135.5461 55.8052 77.3151 0.0000 24.5800 0.0000
# 2 55.8052 95.0701 60.7333 0.0000 20.4431 0.0000
# 3 77.3151 60.7333 131.2830 0.0000 28.4683 0.0000
# 4 0.0000 0.0000 0.0000 40.9284 0.0000 3.2805
# 5 24.5800 20.4431 28.4683 0.0000 31.9438 0.0000
# 6 0.0000 0.0000 0.0000 3.2805 0.0000 31.0956
#
#
#
# Elastic Compliance Matrix: (Units=1/GPa)
#
#
# Indices 1 2 3 4 5 6 
#
# 1 0.012085 -0.003320 -0.004990 0.000000 -0.002728 0.000000
# 2 -0.003320 0.016315 -0.004812 0.000000 -0.003598 0.000000
# 3 -0.004990 -0.004812 0.013984 0.000000 -0.005543 0.000000
# 4 0.000000 0.000000 0.000000 0.024641 0.000000 -0.002600
# 5 -0.002728 -0.003598 -0.005543 0.000000 0.040647 0.000000
# 6 0.000000 0.000000 0.000000 -0.002600 0.000000 0.032433
#
#
# Mechanical properties :
#
#
# Convention : Reuss Voigt Hill
#
# Bulk Modulus (GPa) = 61.95621 83.28960 72.62290
# Shear Modulus (GPa) = 29.11554 31.99660 30.55607
#
# Velocity S-wave (km/s) = 3.89646 4.08469 3.99169
# Velocity P-wave (km/s) = 7.24917 8.10419 7.68857
#
# Compressibility (1/GPa) = 0.01614043
#
# Stress axis : x y z
#
# Youngs Moduli (GPa) = 82.74587 61.29297 71.50949
#
# Poissons Ratio (x) = 0.20347 0.35683
# Poissons Ratio (y) = 0.27468 0.34413
# Poissons Ratio (z) = 0.41290 0.29497
#
# Static dielectric constant tensor:
#      x y z
#    x 4.635680 0.000000 -0.352300 
#    y 0.000000 3.814140 0.000000 
#    z -0.352300 0.000000 4.462220 
# 
# 
# High freq. dielectric constant tensor:
#      x y z
#    x 1.734380 0.000000 0.024090 
#    y 0.000000 1.754820 0.000000 
#    z 0.024090 0.000000 1.758120 
# 
# From -- ./inp_files/23909.got.cif
#   From: 2010.06.25/outbox.cif.g09.slc.cpg/sg11_12_cif.got.tgz:23909.got - 2010.06.27 23:14:04.
