data_PCOD8077374
_publ_section_title
;
Structure prediction by ZEFSAII (Michael W. Deem and Ramdas Pophale) SiO2 
 PCOD8077374
Probable space group: P 21/M
;
_chemical_formula_sum "Si O2"
_cell_formula_units_Z 32
_cell_length_a 23.565740
_cell_length_b 8.968381
_cell_length_c 14.856125
_cell_angle_alpha 90.000000
_cell_angle_beta 150.175067
_cell_angle_gamma 90.000000
_cell_volume 1561.579640
_symmetry_space_group_name_H-M "P 21/M"
_symmetry_group_IT_number 11
_symmetry_cell_setting 'monoclinic'
loop_
_space_group_symop_operation_xyz
x,y,z
-x,1/2+y,-z
-x,-y,-z
x,1/2-y,z
loop_
_atom_site_type_symbol
_atom_site_label
_atom_site_fract_x
_atom_site_fract_y
_atom_site_fract_z
Si Si1 0.934007 0.424206 0.988897
Si Si2 0.270462 0.413421 0.364448
Si Si3 0.243888 0.925712 0.006690
Si Si4 0.991868 0.576624 0.710789
Si Si5 0.380664 0.923582 0.679271
Si Si6 0.384734 0.085247 0.345861
Si Si7 0.239743 0.575038 0.662329
Si Si8 0.357663 0.426781 0.990701
O O1 0.933601 0.250000 0.975201
O O2 0.807643 0.484141 0.805363
O O3 0.000000 0.500000 0.000000
O O4 0.987817 0.469484 0.157974
O O5 0.216750 0.250000 0.313068
O O6 0.303904 0.487646 0.503606
O O7 0.374314 0.395531 0.439122
O O8 0.268063 0.750000 0.040086
O O9 0.286085 0.993704 0.159005
O O10 0.107286 0.955576 0.812287
O O11 0.313351 0.000594 0.021438
O O12 0.957753 0.750000 0.655656
O O13 0.889132 0.474385 0.535484
O O14 0.368371 0.750000 0.640577
O O15 0.329157 0.962481 0.705904
O O16 0.511994 0.975029 0.851602
O O17 0.391531 0.250000 0.310624
O O18 0.500000 0.000000 0.500000
O O19 0.239426 0.750000 0.683255
O O20 0.278601 0.484697 0.802388
O O21 0.346820 0.250000 0.983261
#
# Coordination Sequence:
#
# PCOD8077374 Si02
#       8
#     4   4   4   4   4   4   4   4
#     4  11  22  38  60  88 123 164 206 253 306 365
#     4  11  23  37  58  90 124 162 204 246 301 368
#     4  11  23  42  65  91 126 167 213 263 316 375
#     4  10  23  42  63  89 125 168 210 258 315 374
#     4  10  23  42  64  93 128 165 208 260 319 379
#     4  11  23  38  59  89 125 165 210 255 306 368
#     4  11  24  42  66  94 123 162 210 264 320 379
#     4  11  24  43  67  94 125 164 209 263 324 383
#
# _framework density 20.492069999999998
#
# number of rings (size 3 to 8) (size 9 to 14) (size 15 to 20)
#    0.000    1.250    1.250    4.125    0.000   10.000 
#    0.000    0.000    0.000    0.000    0.000    0.000 
#    0.000    0.000    0.000    0.000    0.000    0.000 
#
# Total GULP energy -396733.703028 kJ/mol
# GULP energy per Si atom -12397.928220 kJ/mol
# Density = 2.044543 g / cm^3
# Si number density = 20.492070 Si / 1000 Ang^3
#
#
#
# Elastic Constant Matrix: (Units=GPa)
#
#
# Indices 1 2 3 4 5 6 
#
# 1 90.9985 34.6402 18.0328 0.0000 3.2065 0.0000
# 2 34.6402 89.9830 40.5239 0.0000 -3.1806 0.0000
# 3 18.0328 40.5239 84.7924 0.0000 0.6367 0.0000
# 4 0.0000 0.0000 0.0000 30.6905 0.0000 4.7006
# 5 3.2065 -3.1806 0.6367 0.0000 37.5640 0.0000
# 6 0.0000 0.0000 0.0000 4.7006 0.0000 30.3428
#
#
#
# Elastic Compliance Matrix: (Units=1/GPa)
#
#
# Indices 1 2 3 4 5 6 
#
# 1 0.012976 -0.004856 -0.000427 0.000000 -0.001512 0.000000
# 2 -0.004856 0.016044 -0.006649 0.000000 0.001886 0.000000
# 3 -0.000427 -0.006649 0.015068 0.000000 -0.000782 0.000000
# 4 0.000000 0.000000 0.000000 0.033375 0.000000 -0.005170
# 5 -0.001512 0.001886 -0.000782 0.000000 0.026923 0.000000
# 6 0.000000 0.000000 0.000000 -0.005170 0.000000 0.033758
#
#
# Mechanical properties :
#
#
# Convention : Reuss Voigt Hill
#
# Bulk Modulus (GPa) = 49.45018 50.24086 49.84552
# Shear Modulus (GPa) = 29.62974 31.22458 30.42716
#
# Velocity S-wave (km/s) = 3.80664 3.90775 3.85752
# Velocity P-wave (km/s) = 6.59579 6.70306 6.64964
#
# Compressibility (1/GPa) = 0.02022237
#
# Stress axis : x y z
#
# Youngs Moduli (GPa) = 77.06704 62.32985 66.36602
#
# Poissons Ratio (x) = 0.30268 0.02836
# Poissons Ratio (y) = 0.37425 0.44127
# Poissons Ratio (z) = 0.03293 0.41443
#
# Static dielectric constant tensor:
#      x y z
#    x 3.728760 0.000000 0.003210 
#    y 0.000000 3.875370 0.000000 
#    z 0.003210 0.000000 4.032290 
# 
# 
# High freq. dielectric constant tensor:
#      x y z
#    x 1.814580 0.000000 0.005040 
#    y 0.000000 1.813160 0.000000 
#    z 0.005040 0.000000 1.802980 
# 
# From -- ./inp_files/55656.got.cif
#   From: 2010.06.25/outbox.cif.g09.slc.cpg/sg11_28_cif.got.tgz:55656.got - 2010.06.27 23:14:04.
