data_PCOD8077695
_publ_section_title
;
Structure prediction by ZEFSAII (Michael W. Deem and Ramdas Pophale) SiO2 
 PCOD8077695
Probable space group: P 21/M
;
_chemical_formula_sum "Si O2"
_cell_formula_units_Z 32
_cell_length_a 20.211391
_cell_length_b 9.377656
_cell_length_c 25.480217
_cell_angle_alpha 90.000000
_cell_angle_beta 20.042875
_cell_angle_gamma 90.000000
_cell_volume 1655.149260
_symmetry_space_group_name_H-M "P 21/M"
_symmetry_group_IT_number 11
_symmetry_cell_setting 'monoclinic'
loop_
_space_group_symop_operation_xyz
x,y,z
-x,1/2+y,-z
-x,-y,-z
x,1/2-y,z
loop_
_atom_site_type_symbol
_atom_site_label
_atom_site_fract_x
_atom_site_fract_y
_atom_site_fract_z
Si Si1 0.411040 0.088976 0.919668
Si Si2 0.382455 0.091841 0.818034
Si Si3 0.822050 0.415750 0.478474
Si Si4 0.155764 0.917312 0.417253
Si Si5 0.950139 0.079784 0.780252
Si Si6 0.358163 0.592180 0.659618
Si Si7 0.212192 0.417399 0.682375
Si Si8 0.154173 0.907709 0.914493
O O1 0.382558 0.250000 0.962627
O O2 0.365963 0.086357 0.892171
O O3 0.632174 0.037959 0.762124
O O4 0.267105 0.982120 0.056995
O O5 0.327824 0.250000 0.838410
O O6 0.595873 0.053463 0.638729
O O7 0.227791 0.978721 0.912863
O O8 0.869588 0.250000 0.431849
O O9 0.874153 0.456471 0.499457
O O10 0.941864 0.516147 0.350516
O O11 0.127850 0.750000 0.430003
O O12 0.000000 0.000000 0.500000
O O13 0.943309 0.250000 0.779900
O O14 0.059877 0.031958 0.751939
O O15 0.343064 0.750000 0.645942
O O16 0.191834 0.496106 0.754256
O O17 0.574371 0.531308 0.493712
O O18 0.330298 0.599643 0.742545
O O19 0.194128 0.250000 0.704538
O O20 0.075644 0.750000 0.986890
O O21 0.000000 0.000000 0.000000
#
# Coordination Sequence:
#
# PCOD8077695 Si02
#       8
#     4   4   4   4   4   4   4   4
#     4   9  20  38  58  82 115 150 185 225 275 335
#     4   9  19  37  58  78 103 141 189 233 277 335
#     4   9  19  37  60  85 113 148 185 221 271 333
#     4   9  19  38  64  91 117 148 185 224 267 325
#     4  11  22  34  53  84 116 144 185 235 278 321
#     4   9  19  35  50  67  93 132 178 220 272 332
#     4   9  19  34  51  71  99 131 170 225 276 321
#     4  11  23  35  49  71 102 137 180 232 282 330
#
# _framework density 19.333603
#
# number of rings (size 3 to 8) (size 9 to 14) (size 15 to 20)
#    0.000    2.500    0.000    3.000    1.750    5.000 
#    0.000    5.625    0.000    0.000    0.000    0.000 
#    0.000    0.000    0.000    0.000    0.000    0.000 
#
# Total GULP energy -396680.991785 kJ/mol
# GULP energy per Si atom -12396.280993 kJ/mol
# Density = 1.928960 g / cm^3
# Si number density = 19.333603 Si / 1000 Ang^3
#
#
#
# Elastic Constant Matrix: (Units=GPa)
#
#
# Indices 1 2 3 4 5 6 
#
# 1 66.6576 40.4914 23.7541 0.0000 -21.5101 0.0000
# 2 40.4914 95.9692 45.1769 0.0000 -15.1224 0.0000
# 3 23.7541 45.1769 81.3042 0.0000 -8.3237 0.0000
# 4 0.0000 0.0000 0.0000 29.5513 0.0000 -3.2806
# 5 -21.5101 -15.1224 -8.3237 0.0000 30.8772 0.0000
# 6 0.0000 0.0000 0.0000 -3.2806 0.0000 36.4600
#
#
#
# Elastic Compliance Matrix: (Units=1/GPa)
#
#
# Indices 1 2 3 4 5 6 
#
# 1 0.024233 -0.007437 -0.001637 0.000000 0.012798 0.000000
# 2 -0.007437 0.017164 -0.007234 0.000000 0.001275 0.000000
# 3 -0.001637 -0.007234 0.016781 0.000000 -0.000160 0.000000
# 4 0.000000 0.000000 0.000000 0.034181 0.000000 0.003076
# 5 0.012798 0.001275 -0.000160 0.000000 0.041883 0.000000
# 6 0.000000 0.000000 0.000000 0.003076 0.000000 0.027704
#
#
# Mechanical properties :
#
#
# Convention : Reuss Voigt Hill
#
# Bulk Modulus (GPa) = 39.12131 51.41955 45.27043
# Shear Modulus (GPa) = 24.62045 28.34494 26.48269
#
# Velocity S-wave (km/s) = 3.57242 3.83312 3.70506
# Velocity P-wave (km/s) = 6.10697 6.80030 6.46294
#
# Compressibility (1/GPa) = 0.02556151
#
# Stress axis : x y z
#
# Youngs Moduli (GPa) = 41.26619 58.26119 59.59104
#
# Poissons Ratio (x) = 0.43329 0.09757
# Poissons Ratio (y) = 0.30690 0.43108
# Poissons Ratio (z) = 0.06757 0.42146
#
# Static dielectric constant tensor:
#      x y z
#    x 3.605650 0.000000 0.041750 
#    y 0.000000 3.405560 0.000000 
#    z 0.041750 0.000000 3.700890 
# 
# 
# High freq. dielectric constant tensor:
#      x y z
#    x 1.735270 0.000000 0.005030 
#    y 0.000000 1.751060 0.000000 
#    z 0.005030 0.000000 1.757510 
# 
# From -- ./inp_files/72019.got.cif
#   From: 2010.06.25/outbox.cif.g09.slc.cpg/sg11_37_cif.got.tgz:72019.got - 2010.06.27 23:14:04.
