data_PCOD8077794
_publ_section_title
;
Structure prediction by ZEFSAII (Michael W. Deem and Ramdas Pophale) SiO2 
 PCOD8077794
Probable space group: P 21/M
;
_chemical_formula_sum "Si O2"
_cell_formula_units_Z 18
_cell_length_a 8.673562
_cell_length_b 18.834729
_cell_length_c 7.427515
_cell_angle_alpha 90.000000
_cell_angle_beta 50.591047
_cell_angle_gamma 90.000000
_cell_volume 937.506809
_symmetry_space_group_name_H-M "P 21/M"
_symmetry_group_IT_number 11
_symmetry_cell_setting 'monoclinic'
loop_
_space_group_symop_operation_xyz
x,y,z
-x,1/2+y,-z
-x,-y,-z
x,1/2-y,z
loop_
_atom_site_type_symbol
_atom_site_label
_atom_site_fract_x
_atom_site_fract_y
_atom_site_fract_z
Si Si1 0.321992 0.369766 0.063238
Si Si2 0.443265 0.250000 0.343133
Si Si3 0.229159 0.482769 0.833166
Si Si4 0.615464 0.250000 0.834962
Si Si5 0.447437 0.403105 0.371622
Si Si6 0.069464 0.250000 0.376050
O O1 0.376895 0.400820 0.218037
O O2 0.121892 0.321090 0.223375
O O3 0.287144 0.435213 0.959749
O O4 0.502734 0.321268 0.851163
O O5 0.476484 0.322664 0.429844
O O6 0.215032 0.250000 0.440994
O O7 0.602345 0.250000 0.061482
O O8 0.279513 0.443216 0.610375
O O9 0.343342 0.557084 0.764655
O O10 0.000000 0.500000 0.000000
O O11 0.840657 0.250000 0.601088
#
# Coordination Sequence:
#
# PCOD8077794 Si02
#       6
#     4   2   4   2   4   2
#     4   9  20  37  56  82 113 145 183 227 272 320
#     4   8  18  36  57  83 107 138 186 228 271 323
#     4  11  23  37  54  83 114 145 186 222 268 331
#     4   8  16  33  58  82 109 143 183 226 272 320
#     4   9  21  39  57  80 111 143 181 229 274 322
#     4   8  16  31  57  87 106 141 191 224 267 327
#
# _framework density 19.199863000000001
#
# number of rings (size 3 to 8) (size 9 to 14) (size 15 to 20)
#    0.000    3.556    0.000    0.667    0.000   13.333 
#    0.000    2.222    0.000    0.000    0.000    0.000 
#    0.000    0.000    0.000    0.000    0.000    0.000 
#
# Total GULP energy -223069.955843 kJ/mol
# GULP energy per Si atom -12392.775325 kJ/mol
# Density = 1.915616 g / cm^3
# Si number density = 19.199863 Si / 1000 Ang^3
#
#
#
# Elastic Constant Matrix: (Units=GPa)
#
#
# Indices 1 2 3 4 5 6 
#
# 1 69.8072 66.5967 67.4758 0.0000 -10.7308 0.0000
# 2 66.5967 170.6140 58.8285 0.0000 -14.3213 0.0000
# 3 67.4758 58.8285 126.3898 0.0000 -44.1659 0.0000
# 4 0.0000 0.0000 0.0000 -6.8405 0.0000 -18.8564
# 5 -10.7308 -14.3213 -44.1659 0.0000 39.7895 0.0000
# 6 0.0000 0.0000 0.0000 -18.8564 0.0000 4.8762
#
#
#
# Elastic Compliance Matrix: (Units=1/GPa)
#
#
# Indices 1 2 3 4 5 6 
#
# 1 0.050450 -0.011363 -0.029928 0.000000 -0.023704 0.000000
# 2 -0.011363 0.009620 0.002823 0.000000 0.003531 0.000000
# 3 -0.029928 0.002823 0.032854 0.000000 0.029412 0.000000
# 4 0.000000 0.000000 0.000000 -0.012538 0.000000 -0.048484
# 5 -0.023704 0.003531 0.029412 0.000000 0.052657 0.000000
# 6 0.000000 0.000000 0.000000 -0.048484 0.000000 0.017589
#
#
# Mechanical properties :
#
#
# Convention : Reuss Voigt Hill
#
# Bulk Modulus (GPa) = 62.55054 83.62366 73.08710
# Shear Modulus (GPa) = 21.46869 19.15903 20.31386
#
# Velocity S-wave (km/s) = 3.34753 3.16234 3.25625
# Velocity P-wave (km/s) = 6.89860 7.54869 7.23095
#
# Compressibility (1/GPa) = 0.01598707
#
# Stress axis : x y z
#
# Youngs Moduli (GPa) = 19.82149 103.95416 30.43799
#
# Poissons Ratio (x) = 1.18122 0.91095
# Poissons Ratio (y) = 0.22523 -0.08592
# Poissons Ratio (z) = 0.59322 -0.29344
#
# Static dielectric constant tensor:
#      x y z
#    x 3.267690 0.000000 -0.095130 
#    y 0.000000 3.963350 0.000000 
#    z -0.095130 0.000000 3.506060 
# 
# 
# High freq. dielectric constant tensor:
#      x y z
#    x 1.718600 0.000000 -0.000950 
#    y 0.000000 1.768480 0.000000 
#    z -0.000950 0.000000 1.743660 
# 
# From -- ./inp_files/4475.got.cif
#   From: 2010.06.25/outbox.cif.g09.slc.cpg/sg11_3_cif.got.tgz:4475.got - 2010.06.27 23:14:04.
