data_PCOD8077170
_publ_section_title
;
Structure prediction by ZEFSAII (Michael W. Deem and Ramdas Pophale) SiO2 
 PCOD8077170
Probable space group: P 21/M
;
_chemical_formula_sum "Si O2"
_cell_formula_units_Z 32
_cell_length_a 20.220240
_cell_length_b 8.907708
_cell_length_c 25.391920
_cell_angle_alpha 90.000000
_cell_angle_beta 157.679431
_cell_angle_gamma 90.000000
_cell_volume 1736.958254
_symmetry_space_group_name_H-M "P 21/M"
_symmetry_group_IT_number 11
_symmetry_cell_setting 'monoclinic'
loop_
_space_group_symop_operation_xyz
x,y,z
-x,1/2+y,-z
-x,-y,-z
x,1/2-y,z
loop_
_atom_site_type_symbol
_atom_site_label
_atom_site_fract_x
_atom_site_fract_y
_atom_site_fract_z
Si Si1 0.141193 0.576544 0.140958
Si Si2 0.646126 0.076700 0.141987
Si Si3 0.966309 0.571359 0.834755
Si Si4 0.359928 0.927944 0.130840
Si Si5 0.839651 0.074028 0.635036
Si Si6 0.477419 0.575381 0.106145
Si Si7 0.500355 0.423331 0.655025
Si Si8 0.872664 0.078101 0.215598
O O1 0.090870 0.750000 0.109848
O O2 0.330123 0.556953 0.255386
O O3 0.147696 0.498325 0.202484
O O4 0.000000 0.500000 0.000000
O O5 0.599984 0.250000 0.112251
O O6 0.828829 0.052961 0.245543
O O7 0.638729 0.006339 0.195214
O O8 0.500000 0.000000 0.000000
O O9 0.956408 0.750000 0.830695
O O10 0.888594 0.518695 0.722565
O O11 0.163171 0.509669 0.985447
O O12 0.345739 0.750000 0.118682
O O13 0.464756 0.985522 0.156648
O O14 0.459318 0.981183 0.256201
O O15 0.850316 0.250000 0.654461
O O16 0.645777 0.030771 0.475740
O O17 0.970319 0.031098 0.683974
O O18 0.519901 0.750000 0.135864
O O19 0.294681 0.539712 0.943269
O O20 0.438290 0.250000 0.609833
O O21 0.929510 0.250000 0.247358
#
# Coordination Sequence:
#
# PCOD8077170 Si02
#       8
#     4   4   4   4   4   4   4   4
#     4  11  22  38  62  90 116 147 188 233 283 336
#     4   9  17  28  45  74 110 145 182 223 274 329
#     4  11  21  39  63  85 113 150 189 233 281 338
#     4   9  17  34  59  84 108 144 190 226 273 336
#     4  12  25  38  55  85 117 147 189 239 285 333
#     4   9  16  29  52  81 111 140 180 230 276 330
#     4  10  22  41  61  81 111 153 190 224 276 344
#     4   9  17  32  53  75 108 152 186 222 277 339
#
# _framework density 18.423010999999999
#
# number of rings (size 3 to 8) (size 9 to 14) (size 15 to 20)
#    0.000    2.000    2.500    3.000    0.000    4.000 
#    0.000    0.625    0.000    0.750    0.000    0.000 
#    0.000    0.000    0.000    0.000    0.000    0.000 
#
# Total GULP energy -396759.282984 kJ/mol
# GULP energy per Si atom -12398.727593 kJ/mol
# Density = 1.838108 g / cm^3
# Si number density = 18.423011 Si / 1000 Ang^3
#
#
#
# Elastic Constant Matrix: (Units=GPa)
#
#
# Indices 1 2 3 4 5 6 
#
# 1 142.7090 48.2459 34.8351 0.0000 5.1655 0.0000
# 2 48.2459 89.6567 31.4734 0.0000 9.0588 0.0000
# 3 34.8351 31.4734 66.6039 0.0000 -1.9334 0.0000
# 4 0.0000 0.0000 0.0000 21.6039 0.0000 4.5061
# 5 5.1655 9.0588 -1.9334 0.0000 18.3806 0.0000
# 6 0.0000 0.0000 0.0000 4.5061 0.0000 32.7877
#
#
#
# Elastic Compliance Matrix: (Units=1/GPa)
#
#
# Indices 1 2 3 4 5 6 
#
# 1 0.009029 -0.003700 -0.003004 0.000000 -0.001030 0.000000
# 2 -0.003700 0.015934 -0.005810 0.000000 -0.007425 0.000000
# 3 -0.003004 -0.005810 0.019498 0.000000 0.005758 0.000000
# 4 0.000000 0.000000 0.000000 0.047654 0.000000 -0.006549
# 5 -0.001030 -0.007425 0.005758 0.000000 0.058959 0.000000
# 6 0.000000 0.000000 0.000000 -0.006549 0.000000 0.031399
#
#
# Mechanical properties :
#
#
# Convention : Reuss Voigt Hill
#
# Bulk Modulus (GPa) = 51.45780 58.67538 55.06659
# Shear Modulus (GPa) = 23.36681 26.84878 25.10779
#
# Velocity S-wave (km/s) = 3.56525 3.82167 3.69568
# Velocity P-wave (km/s) = 6.70373 7.16880 6.94016
#
# Compressibility (1/GPa) = 0.01943340
#
# Stress axis : x y z
#
# Youngs Moduli (GPa) = 110.75938 62.75702 51.28787
#
# Poissons Ratio (x) = 0.23220 0.15405
# Poissons Ratio (y) = 0.40981 0.29799
# Poissons Ratio (z) = 0.33268 0.36463
#
# Static dielectric constant tensor:
#      x y z
#    x 4.205100 0.000000 0.142890 
#    y 0.000000 3.440100 0.000000 
#    z 0.142890 0.000000 3.121260 
# 
# 
# High freq. dielectric constant tensor:
#      x y z
#    x 1.737390 0.000000 0.008130 
#    y 0.000000 1.706110 0.000000 
#    z 0.008130 0.000000 1.677640 
# 
# From -- ./inp_files/72128.got.cif
#   From: 2010.06.25/outbox.cif.g09.slc.cpg/sg11_37_cif.got.tgz:72128.got - 2010.06.27 23:14:04.
