data_PCOD8077409
_publ_section_title
;
Structure prediction by ZEFSAII (Michael W. Deem and Ramdas Pophale) SiO2 
 PCOD8077409
Probable space group: P 21/M
;
_chemical_formula_sum "Si O2"
_cell_formula_units_Z 28
_cell_length_a 9.749089
_cell_length_b 8.550872
_cell_length_c 29.051877
_cell_angle_alpha 90.000000
_cell_angle_beta 33.725922
_cell_angle_gamma 90.000000
_cell_volume 1344.665737
_symmetry_space_group_name_H-M "P 21/M"
_symmetry_group_IT_number 11
_symmetry_cell_setting 'monoclinic'
loop_
_space_group_symop_operation_xyz
x,y,z
-x,1/2+y,-z
-x,-y,-z
x,1/2-y,z
loop_
_atom_site_type_symbol
_atom_site_label
_atom_site_fract_x
_atom_site_fract_y
_atom_site_fract_z
Si Si1 0.451930 0.566358 0.107391
Si Si2 0.807348 0.569358 0.643194
Si Si3 0.498570 0.065425 0.359417
Si Si4 0.026174 0.066396 0.072122
Si Si5 0.017365 0.434284 0.816781
Si Si6 0.332488 0.432588 0.506212
Si Si7 0.532501 0.568341 0.186632
O O1 0.468592 0.750000 0.095923
O O2 0.405812 0.525415 0.173590
O O3 0.220702 0.500337 0.143861
O O4 0.707586 0.495336 0.016391
O O5 0.878079 0.750000 0.625673
O O6 0.716349 0.522827 0.617355
O O7 0.586656 0.534625 0.740073
O O8 0.045508 0.473098 0.592776
O O9 0.555021 0.250000 0.342113
O O10 0.415301 0.006261 0.432920
O O11 0.742886 0.968051 0.280428
O O12 0.007082 0.250000 0.067128
O O13 0.969439 0.034272 0.140987
O O14 0.820306 0.974811 0.100300
O O15 0.000974 0.250000 0.832134
O O16 0.500000 0.500000 0.500000
O O17 0.365520 0.250000 0.499592
O O18 0.502632 0.750000 0.207552
#
# Coordination Sequence:
#
# PCOD8077409 Si02
#       7
#     4   4   4   4   4   4   4
#     4   9  22  39  58  87 124 162 206 260 313 362
#     4  11  23  42  66  93 125 163 206 252 307 366
#     4  10  23  43  65  91 125 162 204 251 305 365
#     4  11  21  39  61  86 123 164 206 257 311 365
#     4  11  22  38  62  91 121 161 209 255 306 366
#     4  11  25  44  67  97 130 163 201 249 304 364
#     4  11  22  39  62  91 123 161 210 258 307 366
#
# _framework density 20.82302
#
# number of rings (size 3 to 8) (size 9 to 14) (size 15 to 20)
#    0.000    1.429    1.429    3.429    2.000    1.714 
#    0.000    6.429    0.000    0.000    0.000    0.000 
#    0.000    0.000    0.000    0.000    0.000    0.000 
#
# Total GULP energy -347306.744818 kJ/mol
# GULP energy per Si atom -12403.812315 kJ/mol
# Density = 2.077563 g / cm^3
# Si number density = 20.823020 Si / 1000 Ang^3
#
#
#
# Elastic Constant Matrix: (Units=GPa)
#
#
# Indices 1 2 3 4 5 6 
#
# 1 84.2710 16.2304 28.4025 0.0000 -20.9828 0.0000
# 2 16.2304 33.8953 15.0342 0.0000 1.5715 0.0000
# 3 28.4025 15.0342 92.1508 0.0000 -6.5019 0.0000
# 4 0.0000 0.0000 0.0000 29.5130 0.0000 -8.0566
# 5 -20.9828 1.5715 -6.5019 0.0000 32.4089 0.0000
# 6 0.0000 0.0000 0.0000 -8.0566 0.0000 24.9369
#
#
#
# Elastic Compliance Matrix: (Units=1/GPa)
#
#
# Indices 1 2 3 4 5 6 
#
# 1 0.017037 -0.007180 -0.003324 0.000000 0.010712 0.000000
# 2 -0.007180 0.035051 -0.004010 0.000000 -0.007153 0.000000
# 3 -0.003324 -0.004010 0.012570 0.000000 0.000564 0.000000
# 4 0.000000 0.000000 0.000000 0.037161 0.000000 0.012006
# 5 0.010712 -0.007153 0.000564 0.000000 0.038251 0.000000
# 6 0.000000 0.000000 0.000000 0.012006 0.000000 0.043980
#
#
# Mechanical properties :
#
#
# Convention : Reuss Voigt Hill
#
# Bulk Modulus (GPa) = 28.06637 36.62791 32.34714
# Shear Modulus (GPa) = 22.22672 27.41511 24.82092
#
# Velocity S-wave (km/s) = 3.27067 3.63240 3.45627
# Velocity P-wave (km/s) = 5.26980 5.93471 5.61211
#
# Compressibility (1/GPa) = 0.03562983
#
# Stress axis : x y z
#
# Youngs Moduli (GPa) = 58.69681 28.52980 79.55264
#
# Poissons Ratio (x) = 0.20485 0.26442
# Poissons Ratio (y) = 0.42145 0.31902
# Poissons Ratio (z) = 0.19510 0.11441
#
# Static dielectric constant tensor:
#      x y z
#    x 4.051180 0.000000 -0.055350 
#    y 0.000000 3.543860 0.000000 
#    z -0.055350 0.000000 3.835610 
# 
# 
# High freq. dielectric constant tensor:
#      x y z
#    x 1.830540 0.000000 -0.001290 
#    y 0.000000 1.803320 0.000000 
#    z -0.001290 0.000000 1.822470 
# 
# From -- ./inp_files/70829.got.cif
#   From: 2010.06.25/outbox.cif.g09.slc.cpg/sg11_36_cif.got.tgz:70829.got - 2010.06.27 23:14:04.
