data_PCOD8077015
_publ_section_title
;
Structure prediction by ZEFSAII (Michael W. Deem and Ramdas Pophale) SiO2 
 PCOD8077015
Probable space group: P 21/M
;
_chemical_formula_sum "Si O2"
_cell_formula_units_Z 22
_cell_length_a 13.602127
_cell_length_b 9.764098
_cell_length_c 7.962314
_cell_angle_alpha 90.000000
_cell_angle_beta 77.537593
_cell_angle_gamma 90.000000
_cell_volume 1032.577940
_symmetry_space_group_name_H-M "P 21/M"
_symmetry_group_IT_number 11
_symmetry_cell_setting 'monoclinic'
loop_
_space_group_symop_operation_xyz
x,y,z
-x,1/2+y,-z
-x,-y,-z
x,1/2-y,z
loop_
_atom_site_type_symbol
_atom_site_label
_atom_site_fract_x
_atom_site_fract_y
_atom_site_fract_z
Si Si1 0.574963 0.250000 0.479634
Si Si2 0.909124 0.599441 0.845646
Si Si3 0.077346 0.401994 0.772801
Si Si4 0.426657 0.750000 0.127951
Si Si5 0.712873 0.494719 0.781175
Si Si6 0.766706 0.100946 0.415829
Si Si7 0.421533 0.250000 0.231952
O O1 0.536856 0.250000 0.689384
O O2 0.645874 0.115079 0.424350
O O3 0.487485 0.250000 0.376637
O O4 0.915444 0.750000 0.756296
O O5 0.794349 0.545893 0.885914
O O6 0.986740 0.493620 0.727274
O O7 0.942259 0.615879 0.024487
O O8 0.080262 0.250000 0.687894
O O9 0.183476 0.479609 0.708060
O O10 0.359743 0.617401 0.108490
O O11 0.519591 0.750000 0.966518
O O12 0.779186 0.430226 0.607869
O O13 0.646895 0.617307 0.732804
O O14 0.818220 0.250000 0.358436
#
# Coordination Sequence:
#
# PCOD8077015 Si02
#       7
#     2   4   4   2   4   4   2
#     4   8  22  44  63  91 128 173 211 272 317 390
#     4  10  22  41  60  93 134 163 208 267 314 395
#     4  10  22  38  66  98 121 168 213 256 327 388
#     4  10  24  44  62  93 132 167 226 270 326 383
#     4  11  23  42  61  93 127 166 218 268 318 390
#     4   9  21  42  61  91 128 167 206 262 322 378
#     4  12  24  42  69  94 122 180 221 264 343 373
#
# _framework density 21.305899
#
# number of rings (size 3 to 8) (size 9 to 14) (size 15 to 20)
#    0.545    1.455    1.818    1.091    5.091    4.364 
#    3.273    0.000    0.000    0.000    0.000    0.000 
#    0.000    0.000    0.000    0.000    0.000    0.000 
#
# Total GULP energy -272626.651471 kJ/mol
# GULP energy per Si atom -12392.120521 kJ/mol
# Density = 2.125741 g / cm^3
# Si number density = 21.305899 Si / 1000 Ang^3
#
#
#
# Elastic Constant Matrix: (Units=GPa)
#
#
# Indices 1 2 3 4 5 6 
#
# 1 107.3005 46.1607 23.0535 0.0000 16.6808 0.0000
# 2 46.1607 163.8730 16.8545 0.0000 2.3338 0.0000
# 3 23.0535 16.8545 53.7579 0.0000 -1.4972 0.0000
# 4 0.0000 0.0000 0.0000 26.4975 0.0000 -11.5609
# 5 16.6808 2.3338 -1.4972 0.0000 18.6072 0.0000
# 6 0.0000 0.0000 0.0000 -11.5609 0.0000 42.6442
#
#
#
# Elastic Compliance Matrix: (Units=1/GPa)
#
#
# Indices 1 2 3 4 5 6 
#
# 1 0.013715 -0.003149 -0.005237 0.000000 -0.012322 0.000000
# 2 -0.003149 0.007046 -0.000806 0.000000 0.001875 0.000000
# 3 -0.005237 -0.000806 0.021282 0.000000 0.006509 0.000000
# 4 0.000000 0.000000 0.000000 0.042802 0.000000 0.011604
# 5 -0.012322 0.001875 0.006509 0.000000 0.065077 0.000000
# 6 0.000000 0.000000 0.000000 0.011604 0.000000 0.026596
#
#
# Mechanical properties :
#
#
# Convention : Reuss Voigt Hill
#
# Bulk Modulus (GPa) = 42.27081 55.22987 48.75034
# Shear Modulus (GPa) = 24.65614 33.47396 29.06505
#
# Velocity S-wave (km/s) = 3.40552 3.96803 3.69749
# Velocity P-wave (km/s) = 5.94529 6.85363 6.41556
#
# Compressibility (1/GPa) = 0.02365699
#
# Stress axis : x y z
#
# Youngs Moduli (GPa) = 72.91188 141.93249 46.98806
#
# Poissons Ratio (x) = 0.44698 0.24610
# Poissons Ratio (y) = 0.22962 0.03788
# Poissons Ratio (z) = 0.38187 0.11444
#
# Static dielectric constant tensor:
#      x y z
#    x 3.657250 0.000000 -0.089680 
#    y 0.000000 4.333440 0.000000 
#    z -0.089680 0.000000 3.448160 
# 
# 
# High freq. dielectric constant tensor:
#      x y z
#    x 1.824900 0.000000 -0.005600 
#    y 0.000000 1.853550 0.000000 
#    z -0.005600 0.000000 1.810760 
# 
# From -- ./inp_files/20438.got.cif
#   From: 2010.06.25/outbox.cif.g09.slc.cpg/sg11_11_cif.got.tgz:20438.got - 2010.06.27 23:14:04.
