data_PCOD8077808
_publ_section_title
;
Structure prediction by ZEFSAII (Michael W. Deem and Ramdas Pophale) SiO2 
 PCOD8077808
Probable space group: P 21/M
;
_chemical_formula_sum "Si O2"
_cell_formula_units_Z 28
_cell_length_a 25.325233
_cell_length_b 8.290234
_cell_length_c 9.082903
_cell_angle_alpha 90.000000
_cell_angle_beta 44.369468
_cell_angle_gamma 90.000000
_cell_volume 1333.514005
_symmetry_space_group_name_H-M "P 21/M"
_symmetry_group_IT_number 11
_symmetry_cell_setting 'monoclinic'
loop_
_space_group_symop_operation_xyz
x,y,z
-x,1/2+y,-z
-x,-y,-z
x,1/2-y,z
loop_
_atom_site_type_symbol
_atom_site_label
_atom_site_fract_x
_atom_site_fract_y
_atom_site_fract_z
Si Si1 0.866331 0.063696 0.931176
Si Si2 0.272805 0.063902 0.626673
Si Si3 0.584654 0.060158 0.168050
Si Si4 0.721046 0.437733 0.705033
Si Si5 0.855344 0.562951 0.625030
Si Si6 0.005161 0.937038 0.825322
Si Si7 0.417228 0.060479 0.511788
O O1 0.890415 0.250000 0.886885
O O2 0.866687 0.001476 0.765433
O O3 0.924794 0.958543 0.908024
O O4 0.784232 0.044684 0.166687
O O5 0.257087 0.250000 0.695995
O O6 0.357876 0.013525 0.503400
O O7 0.262310 0.037004 0.474976
O O8 0.586178 0.250000 0.151052
O O9 0.500327 0.991343 0.303434
O O10 0.611303 0.013350 0.278156
O O11 0.644396 0.991206 0.930968
O O12 0.713575 0.250000 0.680218
O O13 0.789455 0.460888 0.680979
O O14 0.832792 0.750000 0.672372
O O15 0.932774 0.540998 0.383030
O O16 0.028371 0.750000 0.777725
O O17 0.000000 0.000000 0.000000
O O18 0.423319 0.250000 0.522469
#
# Coordination Sequence:
#
# PCOD8077808 Si02
#       7
#     4   4   4   4   4   4   4
#     4  12  25  43  65  91 122 158 200 245 295 351
#     4  11  23  39  59  86 120 158 200 247 300 355
#     4   9  19  36  58  84 115 152 196 245 297 354
#     4  11  23  39  59  86 120 158 200 247 300 355
#     4  12  25  43  65  91 122 158 200 245 295 351
#     4  12  25  44  67  94 126 160 198 242 295 350
#     4   9  19  36  58  84 115 152 196 245 297 354
#
# _framework density 20.997154999999999
#
# number of rings (size 3 to 8) (size 9 to 14) (size 15 to 20)
#    0.000    1.143    0.000    6.857    0.000    5.143 
#    0.000    0.000    0.000    0.000    0.000    0.000 
#    0.000    0.000    0.000    0.000    0.000    0.000 
#
# Total GULP energy -347361.220234 kJ/mol
# GULP energy per Si atom -12405.757865 kJ/mol
# Density = 2.094936 g / cm^3
# Si number density = 20.997155 Si / 1000 Ang^3
#
#
#
# Elastic Constant Matrix: (Units=GPa)
#
#
# Indices 1 2 3 4 5 6 
#
# 1 122.7957 5.2863 56.6148 0.0000 5.7871 0.0000
# 2 5.2863 59.4159 17.5300 0.0000 0.4566 0.0000
# 3 56.6148 17.5300 141.1254 0.0000 10.8073 0.0000
# 4 0.0000 0.0000 0.0000 33.2873 0.0000 2.5055
# 5 5.7871 0.4566 10.8073 0.0000 37.1222 0.0000
# 6 0.0000 0.0000 0.0000 2.5055 0.0000 24.4578
#
#
#
# Elastic Compliance Matrix: (Units=1/GPa)
#
#
# Indices 1 2 3 4 5 6 
#
# 1 0.010003 0.000299 -0.004020 0.000000 -0.000393 0.000000
# 2 0.000299 0.017486 -0.002324 0.000000 0.000415 0.000000
# 3 -0.004020 -0.002324 0.009141 0.000000 -0.002006 0.000000
# 4 0.000000 0.000000 0.000000 0.030275 0.000000 -0.003101
# 5 -0.000393 0.000415 -0.002006 0.000000 0.027578 0.000000
# 6 0.000000 0.000000 0.000000 -0.003101 0.000000 0.041205
#
#
# Mechanical properties :
#
#
# Convention : Reuss Voigt Hill
#
# Bulk Modulus (GPa) = 40.74879 53.57770 47.16324
# Shear Modulus (GPa) = 32.06022 35.23384 33.64703
#
# Velocity S-wave (km/s) = 3.91178 4.10082 4.00741
# Velocity P-wave (km/s) = 6.31281 6.92779 6.62744
#
# Compressibility (1/GPa) = 0.02454061
#
# Stress axis : x y z
#
# Youngs Moduli (GPa) = 99.97450 57.18748 109.40015
#
# Poissons Ratio (x) = -0.01710 0.43976
# Poissons Ratio (y) = -0.02990 0.25423
# Poissons Ratio (z) = 0.40187 0.13289
#
# Static dielectric constant tensor:
#      x y z
#    x 3.772400 0.000000 -0.256300 
#    y 0.000000 3.711870 0.000000 
#    z -0.256300 0.000000 4.022050 
# 
# 
# High freq. dielectric constant tensor:
#      x y z
#    x 1.831460 0.000000 -0.004820 
#    y 0.000000 1.823880 0.000000 
#    z -0.004820 0.000000 1.833730 
# 
# From -- ./inp_files/28420.got.cif
#   From: 2010.06.25/outbox.cif.g09.slc.cpg/sg11_15_cif.got.tgz:28420.got - 2010.06.27 23:14:04.
