data_PCOD8077938
_publ_section_title
;
Structure prediction by ZEFSAII (Michael W. Deem and Ramdas Pophale) SiO2 
 PCOD8077938
Probable space group: P 21/M
;
_chemical_formula_sum "Si O2"
_cell_formula_units_Z 28
_cell_length_a 9.705201
_cell_length_b 9.468686
_cell_length_c 30.321432
_cell_angle_alpha 90.000000
_cell_angle_beta 143.143941
_cell_angle_gamma 90.000000
_cell_volume 1671.303459
_symmetry_space_group_name_H-M "P 21/M"
_symmetry_group_IT_number 11
_symmetry_cell_setting 'monoclinic'
loop_
_space_group_symop_operation_xyz
x,y,z
-x,1/2+y,-z
-x,-y,-z
x,1/2-y,z
loop_
_atom_site_type_symbol
_atom_site_label
_atom_site_fract_x
_atom_site_fract_y
_atom_site_fract_z
Si Si1 0.448480 0.916883 0.942813
Si Si2 0.963960 0.405687 0.219909
Si Si3 0.288318 0.905280 0.349649
Si Si4 0.361223 0.907284 0.779094
Si Si5 0.335423 0.417515 0.490722
Si Si6 0.232279 0.084893 0.056149
Si Si7 0.972034 0.911021 0.354855
O O1 0.449948 0.750000 0.952020
O O2 0.196791 0.964965 0.860598
O O3 0.640409 0.958228 0.956253
O O4 0.500000 0.000000 0.000000
O O5 0.049401 0.250000 0.229391
O O6 0.813899 0.402038 0.225353
O O7 0.195698 0.494853 0.287061
O O8 0.273115 0.750000 0.325402
O O9 0.552452 0.937904 0.431760
O O10 0.132913 0.915280 0.353391
O O11 0.375039 0.750000 0.761714
O O12 0.609383 0.954462 0.861132
O O13 0.273918 0.018996 0.720201
O O14 0.500000 0.500000 0.500000
O O15 0.319913 0.250000 0.474727
O O16 0.087134 0.493601 0.423239
O O17 0.176640 0.250000 0.042105
O O18 0.000000 0.000000 0.000000
O O19 0.934855 0.750000 0.361647
#
# Coordination Sequence:
#
# PCOD8077938 Si02
#       7
#     4   4   4   4   4   4   4
#     4   9  18  31  45  64  87 112 144 180 217 260
#     4   8  14  24  37  51  70  97 129 164 202 243
#     4   8  14  21  29  44  65  90 124 161 195 235
#     4   8  14  25  38  51  71 100 130 164 204 245
#     4   9  15  21  28  41  63  91 124 161 197 236
#     4   9  18  31  46  65  88 113 145 181 219 262
#     4   9  15  21  30  46  66  91 126 163 197 239
#
# _framework density 16.75339
#
# number of rings (size 3 to 8) (size 9 to 14) (size 15 to 20)
#    0.000    3.429    0.000    3.429    0.000    5.714 
#    0.000    2.857    0.000    0.000    0.000    0.000 
#    0.000    0.000    0.000    1.286    0.000   18.286 
#
# Total GULP energy -346874.934228 kJ/mol
# GULP energy per Si atom -12388.390508 kJ/mol
# Density = 1.671526 g / cm^3
# Si number density = 16.753390 Si / 1000 Ang^3
#
#
#
# Elastic Constant Matrix: (Units=GPa)
#
#
# Indices 1 2 3 4 5 6 
#
# 1 18.9977 22.4317 30.6978 0.0000 -0.8118 0.0000
# 2 22.4317 115.4115 99.3801 0.0000 -1.4734 0.0000
# 3 30.6978 99.3801 180.6667 0.0000 -1.1102 0.0000
# 4 0.0000 0.0000 0.0000 40.0569 0.0000 -0.3619
# 5 -0.8118 -1.4734 -1.1102 0.0000 13.3796 0.0000
# 6 0.0000 0.0000 0.0000 -0.3619 0.0000 13.4554
#
#
#
# Elastic Compliance Matrix: (Units=1/GPa)
#
#
# Indices 1 2 3 4 5 6 
#
# 1 0.075453 -0.006845 -0.009037 0.000000 0.003075 0.000000
# 2 -0.006845 0.017098 -0.008237 0.000000 0.000784 0.000000
# 3 -0.009037 -0.008237 0.011599 0.000000 -0.000493 0.000000
# 4 0.000000 0.000000 0.000000 0.024971 0.000000 0.000672
# 5 0.003075 0.000784 -0.000493 0.000000 0.074973 0.000000
# 6 0.000000 0.000000 0.000000 0.000672 0.000000 0.074338
#
#
# Mechanical properties :
#
#
# Convention : Reuss Voigt Hill
#
# Bulk Modulus (GPa) = 17.88508 68.89945 43.39226
# Shear Modulus (GPa) = 14.47991 24.21612 19.34801
#
# Velocity S-wave (km/s) = 2.94308 3.80603 3.40203
# Velocity P-wave (km/s) = 4.71674 7.78006 6.43339
#
# Compressibility (1/GPa) = 0.05591254
#
# Stress axis : x y z
#
# Youngs Moduli (GPa) = 13.25329 58.48554 86.21665
#
# Poissons Ratio (x) = 0.40031 0.77910
# Poissons Ratio (y) = 0.09071 0.71021
# Poissons Ratio (z) = 0.11976 0.48177
#
# Static dielectric constant tensor:
#      x y z
#    x 2.380740 0.000000 -0.001090 
#    y 0.000000 3.349460 0.000000 
#    z -0.001090 0.000000 3.721950 
# 
# 
# High freq. dielectric constant tensor:
#      x y z
#    x 1.549470 0.000000 -0.000330 
#    y 0.000000 1.652400 0.000000 
#    z -0.000330 0.000000 1.670110 
# 
# From -- ./inp_files/43643.got.cif
#   From: 2010.06.25/outbox.cif.g09.slc.cpg/sg11_22_cif.got.tgz:43643.got - 2010.06.27 23:14:04.
