data_PCOD8077245
_publ_section_title
;
Structure prediction by ZEFSAII (Michael W. Deem and Ramdas Pophale) SiO2 
 PCOD8077245
Probable space group: P 21/M
;
_chemical_formula_sum "Si O2"
_cell_formula_units_Z 26
_cell_length_a 18.275444
_cell_length_b 15.545349
_cell_length_c 7.297341
_cell_angle_alpha 90.000000
_cell_angle_beta 35.795638
_cell_angle_gamma 90.000000
_cell_volume 1212.583490
_symmetry_space_group_name_H-M "P 21/M"
_symmetry_group_IT_number 11
_symmetry_cell_setting 'monoclinic'
loop_
_space_group_symop_operation_xyz
x,y,z
-x,1/2+y,-z
-x,-y,-z
x,1/2-y,z
loop_
_atom_site_type_symbol
_atom_site_label
_atom_site_fract_x
_atom_site_fract_y
_atom_site_fract_z
Si Si1 0.180207 0.349800 0.149666
Si Si2 0.024013 0.901509 0.162238
Si Si3 0.791001 0.250000 0.135770
Si Si4 0.858621 0.918413 0.162321
Si Si5 0.417408 0.083048 0.209688
Si Si6 0.390501 0.750000 0.797080
Si Si7 0.446015 0.093440 0.572150
Si Si8 0.441845 0.750000 0.124757
O O1 0.176900 0.250000 0.213695
O O2 0.075290 0.402428 0.471274
O O3 0.157151 0.355047 0.977893
O O4 0.313210 0.391290 0.941829
O O5 0.957501 0.878929 0.104436
O O6 0.129834 0.833693 0.987892
O O7 0.092467 0.992221 0.016563
O O8 0.748619 0.250000 0.007273
O O9 0.676225 0.250000 0.506425
O O10 0.728719 0.931907 0.540220
O O11 0.419544 0.105898 0.415483
O O12 0.475397 0.166215 0.991399
O O13 0.500000 0.000000 0.000000
O O14 0.455383 0.666470 0.574164
O O15 0.391634 0.750000 0.015589
O O16 0.500000 0.000000 0.500000
#
# Coordination Sequence:
#
# PCOD8077245 Si02
#       8
#     4   4   2   4   4   2   4   2
#     4  11  23  43  70  95 130 171 222 269 326 397
#     4  11  25  45  62  99 126 179 222 264 321 399
#     4  12  26  40  68  92 134 168 223 263 324 387
#     4  10  25  43  68  90 139 168 220 273 323 390
#     4  10  22  41  67  98 128 169 214 269 338 385
#     4  10  24  43  61  95 135 166 211 271 333 387
#     4  10  23  41  66  98 130 167 214 272 335 392
#     4  10  24  43  63  99 131 164 216 270 335 396
#
# _framework density 21.441822999999999
#
# number of rings (size 3 to 8) (size 9 to 14) (size 15 to 20)
#    0.000    1.538    1.538    1.385   12.923    1.231 
#    2.769    0.000    0.000    0.000    0.000    0.000 
#    0.000    0.000    0.000    0.000    0.000    0.000 
#
# Total GULP energy -322383.003761 kJ/mol
# GULP energy per Si atom -12399.346298 kJ/mol
# Density = 2.139302 g / cm^3
# Si number density = 21.441823 Si / 1000 Ang^3
#
#
#
# Elastic Constant Matrix: (Units=GPa)
#
#
# Indices 1 2 3 4 5 6 
#
# 1 74.9516 20.2607 20.2973 0.0000 -16.9586 0.0000
# 2 20.2607 130.6834 43.6187 0.0000 -20.4549 0.0000
# 3 20.2973 43.6187 135.7960 0.0000 -12.8713 0.0000
# 4 0.0000 0.0000 0.0000 41.6987 0.0000 -10.7045
# 5 -16.9586 -20.4549 -12.8713 0.0000 34.9817 0.0000
# 6 0.0000 0.0000 0.0000 -10.7045 0.0000 34.6129
#
#
#
# Elastic Compliance Matrix: (Units=1/GPa)
#
#
# Indices 1 2 3 4 5 6 
#
# 1 0.015423 -0.000918 -0.001402 0.000000 0.006425 0.000000
# 2 -0.000918 0.009247 -0.002448 0.000000 0.004061 0.000000
# 3 -0.001402 -0.002448 0.008455 0.000000 0.001000 0.000000
# 4 0.000000 0.000000 0.000000 0.026050 0.000000 0.008056
# 5 0.006425 0.004061 0.001000 0.000000 0.034444 0.000000
# 6 0.000000 0.000000 0.000000 0.008056 0.000000 0.031382
#
#
# Mechanical properties :
#
#
# Convention : Reuss Voigt Hill
#
# Bulk Modulus (GPa) = 42.39065 56.64271 49.51668
# Shear Modulus (GPa) = 35.11261 39.40896 37.26078
#
# Velocity S-wave (km/s) = 4.05109 4.29178 4.17317
# Velocity P-wave (km/s) = 6.45715 7.14377 6.80912
#
# Compressibility (1/GPa) = 0.02359011
#
# Stress axis : x y z
#
# Youngs Moduli (GPa) = 64.83739 108.14086 118.27876
#
# Poissons Ratio (x) = 0.09925 0.16577
# Poissons Ratio (y) = 0.05951 0.28956
# Poissons Ratio (z) = 0.09087 0.26474
#
# Static dielectric constant tensor:
#      x y z
#    x 3.994460 0.000000 -0.153100 
#    y 0.000000 4.293000 0.000000 
#    z -0.153100 0.000000 4.225280 
# 
# 
# High freq. dielectric constant tensor:
#      x y z
#    x 1.846120 0.000000 -0.004700 
#    y 0.000000 1.846410 0.000000 
#    z -0.004700 0.000000 1.852560 
# 
# From -- ./inp_files/26789.got.cif
#   From: 2010.06.25/outbox.cif.g09.slc.cpg/sg11_14_cif.got.tgz:26789.got - 2010.06.27 23:14:04.
