data_PCOD8077793
_publ_section_title
;
Structure prediction by ZEFSAII (Michael W. Deem and Ramdas Pophale) SiO2 
 PCOD8077793
Probable space group: P 21/M
;
_chemical_formula_sum "Si O2"
_cell_formula_units_Z 16
_cell_length_a 21.335219
_cell_length_b 9.207508
_cell_length_c 9.080125
_cell_angle_alpha 90.000000
_cell_angle_beta 151.661833
_cell_angle_gamma 90.000000
_cell_volume 846.695113
_symmetry_space_group_name_H-M "P 21/M"
_symmetry_group_IT_number 11
_symmetry_cell_setting 'monoclinic'
loop_
_space_group_symop_operation_xyz
x,y,z
-x,1/2+y,-z
-x,-y,-z
x,1/2-y,z
loop_
_atom_site_type_symbol
_atom_site_label
_atom_site_fract_x
_atom_site_fract_y
_atom_site_fract_z
Si Si1 0.279224 0.418057 0.205257
Si Si2 0.967090 0.082833 0.284060
Si Si3 0.467700 0.920241 0.083076
Si Si4 0.746451 0.584317 0.187897
O O1 0.242979 0.250000 0.149180
O O2 0.419170 0.457082 0.564969
O O3 0.165003 0.508816 0.055488
O O4 0.283639 0.461599 0.042724
O O5 0.936711 0.250000 0.256217
O O6 0.097155 0.068840 0.450341
O O7 0.000000 0.000000 0.500000
O O8 0.455495 0.750000 0.027615
O O9 0.500000 0.000000 0.000000
O O10 0.329789 0.978086 0.860649
O O11 0.699911 0.750000 0.117714
#
# Coordination Sequence:
#
# PCOD8077793 Si02
#       4
#     4   4   4   4
#     4   9  19  35  55  80 107 135 172 217 260 306
#     4   9  17  30  52  81 109 135 167 211 260 308
#     4  11  23  37  53  75 105 141 178 216 260 309
#     4   9  18  34  55  80 107 133 168 214 260 309
#
# _framework density 18.897003000000002
#
# number of rings (size 3 to 8) (size 9 to 14) (size 15 to 20)
#    0.000    2.500    0.000    3.750    0.000    7.000 
#    0.000    1.250    0.000    0.000    0.000    0.000 
#    0.000    0.000    0.000    0.000    0.000    0.000 
#
# Total GULP energy -198352.834060 kJ/mol
# GULP energy per Si atom -12397.052129 kJ/mol
# Density = 1.885399 g / cm^3
# Si number density = 18.897003 Si / 1000 Ang^3
#
#
#
# Elastic Constant Matrix: (Units=GPa)
#
#
# Indices 1 2 3 4 5 6 
#
# 1 103.8813 61.2377 42.0980 0.0000 20.4089 0.0000
# 2 61.2377 106.6859 41.3207 0.0000 21.8962 0.0000
# 3 42.0980 41.3207 39.3158 0.0000 25.8564 0.0000
# 4 0.0000 0.0000 0.0000 33.7284 0.0000 8.8683
# 5 20.4089 21.8962 25.8564 0.0000 27.4454 0.0000
# 6 0.0000 0.0000 0.0000 8.8683 0.0000 35.9370
#
#
#
# Elastic Compliance Matrix: (Units=1/GPa)
#
#
# Indices 1 2 3 4 5 6 
#
# 1 0.019683 -0.004325 -0.024114 0.000000 0.011532 0.000000
# 2 -0.004325 0.017455 -0.017536 0.000000 0.005811 0.000000
# 3 -0.024114 -0.017536 0.127997 0.000000 -0.088665 0.000000
# 4 0.000000 0.000000 0.000000 0.031706 0.000000 -0.007824
# 5 0.011532 0.005811 -0.088665 0.000000 0.106756 0.000000
# 6 0.000000 0.000000 0.000000 -0.007824 0.000000 0.029757
#
#
# Mechanical properties :
#
#
# Convention : Reuss Voigt Hill
#
# Bulk Modulus (GPa) = 13.66401 59.91066 36.78733
# Shear Modulus (GPa) = 11.11855 26.43726 18.77790
#
# Velocity S-wave (km/s) = 2.42828 3.74440 3.15572
# Velocity P-wave (km/s) = 3.88697 7.10399 5.72605
#
# Compressibility (1/GPa) = 0.07318496
#
# Stress axis : x y z
#
# Youngs Moduli (GPa) = 50.80645 57.29020 7.81267
#
# Poissons Ratio (x) = 0.24778 0.18840
# Poissons Ratio (y) = 0.21973 0.13700
# Poissons Ratio (z) = 1.22516 1.00462
#
# Static dielectric constant tensor:
#      x y z
#    x 3.437930 0.000000 0.413830 
#    y 0.000000 3.632180 0.000000 
#    z 0.413830 0.000000 3.923640 
# 
# 
# High freq. dielectric constant tensor:
#      x y z
#    x 1.710160 0.000000 0.028720 
#    y 0.000000 1.743110 0.000000 
#    z 0.028720 0.000000 1.731800 
# 
# From -- ./inp_files/11155.got.cif
#   From: 2010.06.25/outbox.cif.g09.slc.cpg/sg11_6_cif.got.tgz:11155.got - 2010.06.27 23:14:04.
