data_PCOD8077269
_publ_section_title
;
Structure prediction by ZEFSAII (Michael W. Deem and Ramdas Pophale) SiO2 
 PCOD8077269
Probable space group: P 21/M
;
_chemical_formula_sum "Si O2"
_cell_formula_units_Z 32
_cell_length_a 15.508606
_cell_length_b 17.079691
_cell_length_c 12.806143
_cell_angle_alpha 90.000000
_cell_angle_beta 27.997893
_cell_angle_gamma 90.000000
_cell_volume 1592.393412
_symmetry_space_group_name_H-M "P 21/M"
_symmetry_group_IT_number 11
_symmetry_cell_setting 'monoclinic'
loop_
_space_group_symop_operation_xyz
x,y,z
-x,1/2+y,-z
-x,-y,-z
x,1/2-y,z
loop_
_atom_site_type_symbol
_atom_site_label
_atom_site_fract_x
_atom_site_fract_y
_atom_site_fract_z
Si Si1 0.744896 0.440188 0.814683
Si Si2 0.897681 0.412961 0.426170
Si Si3 0.712352 0.611732 0.944328
Si Si4 0.615114 0.157835 0.575526
Si Si5 0.972523 0.953786 0.181267
Si Si6 0.300869 0.971659 0.676098
Si Si7 0.406701 0.164138 0.140537
Si Si8 0.021135 0.160033 0.654672
O O1 0.821266 0.448988 0.615681
O O2 0.875453 0.386440 0.742702
O O3 0.718885 0.522969 0.897024
O O4 0.545560 0.402206 0.026556
O O5 0.749141 0.357249 0.530496
O O6 0.959466 0.484380 0.288345
O O7 0.080024 0.361029 0.251963
O O8 0.585884 0.623264 0.181820
O O9 0.625954 0.666722 0.948567
O O10 0.607953 0.250000 0.557355
O O11 0.685535 0.111467 0.398239
O O12 0.972876 0.867762 0.231386
O O13 0.796320 0.963534 0.294146
O O14 0.168597 0.962619 0.916163
O O15 0.500000 0.000000 0.500000
O O16 0.479980 0.250000 0.094959
O O17 0.219211 0.143164 0.396811
O O18 0.964290 0.250000 0.712675
#
# Coordination Sequence:
#
# PCOD8077269 Si02
#       8
#     4   4   4   4   4   4   4   4
#     4  12  23  37  62  91 129 178 219 250 304 374
#     4  11  22  39  65  92 127 170 214 257 306 372
#     4  12  22  36  62  89 124 170 214 257 302 373
#     4  11  26  42  63  97 130 162 208 263 326 380
#     4  10  22  42  64  94 119 151 215 258 315 380
#     4  10  23  44  70  91 118 158 203 269 323 380
#     4  11  24  37  53  87 131 171 214 259 304 359
#     4  11  24  40  61  91 133 171 212 263 308 366
#
# _framework density 20.095537
#
# number of rings (size 3 to 8) (size 9 to 14) (size 15 to 20)
#    0.000    1.000    3.750    3.000    3.500    2.000 
#    0.000    0.625    0.000    0.000    0.000    0.000 
#    0.000    0.000    0.000    0.000    0.000    0.000 
#
# Total GULP energy -396853.350396 kJ/mol
# GULP energy per Si atom -12401.667200 kJ/mol
# Density = 2.004980 g / cm^3
# Si number density = 20.095537 Si / 1000 Ang^3
#
#
#
# Elastic Constant Matrix: (Units=GPa)
#
#
# Indices 1 2 3 4 5 6 
#
# 1 86.2023 35.1706 31.1686 0.0000 -15.1241 0.0000
# 2 35.1706 88.7703 40.1584 0.0000 -8.8230 0.0000
# 3 31.1686 40.1584 50.4898 0.0000 -34.6800 0.0000
# 4 0.0000 0.0000 0.0000 13.2087 0.0000 6.4112
# 5 -15.1241 -8.8230 -34.6800 0.0000 24.6638 0.0000
# 6 0.0000 0.0000 0.0000 6.4112 0.0000 41.3782
#
#
#
# Elastic Compliance Matrix: (Units=1/GPa)
#
#
# Indices 1 2 3 4 5 6 
#
# 1 0.015017 -0.005391 0.000528 0.000000 0.008022 0.000000
# 2 -0.005391 -0.000837 0.044397 0.000000 0.058822 0.000000
# 3 0.000528 0.044397 -0.137528 0.000000 -0.177174 0.000000
# 4 0.000000 0.000000 0.000000 0.081864 0.000000 -0.012684
# 5 0.008022 0.058822 -0.177174 0.000000 -0.182619 0.000000
# 6 0.000000 0.000000 0.000000 -0.012684 0.000000 0.026133
#
#
# Mechanical properties :
#
#
# Convention : Reuss Voigt Hill
#
# Bulk Modulus (GPa) = -22.58310 48.71749 13.06720
# Shear Modulus (GPa) = -17.13512 23.78111 3.32300
#
# Velocity S-wave (km/s) = -2.92324 3.44379 1.28732
# Velocity P-wave (km/s) = 4.75984 6.33313 2.95402
#
# Compressibility (1/GPa) = -0.04428091
#
# Stress axis : x y z
#
# Youngs Moduli (GPa) = 66.59200 -1194.32076 -7.27126
#
# Poissons Ratio (x) = -6.43858 0.00384
# Poissons Ratio (y) = 0.35900 0.32282
# Poissons Ratio (z) = -0.03513 53.02434
#
# Static dielectric constant tensor:
#      x y z
#    x 3.958580 0.000000 -0.084370 
#    y 0.000000 3.799550 0.000000 
#    z -0.084370 0.000000 3.871500 
# 
# 
# High freq. dielectric constant tensor:
#      x y z
#    x 1.785710 0.000000 -0.009000 
#    y 0.000000 1.777230 0.000000 
#    z -0.009000 0.000000 1.800630 
# 
# From -- ./inp_files/39983.got.cif
#   From: 2010.06.25/outbox.cif.g09.slc.cpg/sg11_20_cif.got.tgz:39983.got - 2010.06.27 23:14:04.
