data_PCOD8077856
_publ_section_title
;
Structure prediction by ZEFSAII (Michael W. Deem and Ramdas Pophale) SiO2 
 PCOD8077856
Probable space group: P 21/M
;
_chemical_formula_sum "Si O2"
_cell_formula_units_Z 20
_cell_length_a 8.806692
_cell_length_b 19.148094
_cell_length_c 5.295472
_cell_angle_alpha 90.000000
_cell_angle_beta 78.241223
_cell_angle_gamma 90.000000
_cell_volume 874.242781
_symmetry_space_group_name_H-M "P 21/M"
_symmetry_group_IT_number 11
_symmetry_cell_setting 'monoclinic'
loop_
_space_group_symop_operation_xyz
x,y,z
-x,1/2+y,-z
-x,-y,-z
x,1/2-y,z
loop_
_atom_site_type_symbol
_atom_site_label
_atom_site_fract_x
_atom_site_fract_y
_atom_site_fract_z
Si Si1 0.629172 0.521062 0.647594
Si Si2 0.625018 0.398121 0.003057
Si Si3 0.481210 0.750000 0.087700
Si Si4 0.314295 0.250000 0.477353
Si Si5 0.896729 0.883741 0.456941
Si Si6 0.941060 0.422529 0.081334
O O1 0.500000 0.500000 0.500000
O O2 0.549790 0.580774 0.851876
O O3 0.782453 0.549768 0.459230
O O4 0.683514 0.452264 0.773019
O O5 0.624609 0.319609 0.892989
O O6 0.755254 0.410100 0.177362
O O7 0.572197 0.750000 0.320449
O O8 0.590722 0.750000 0.810563
O O9 0.206736 0.316190 0.514044
O O10 0.011743 0.877671 0.181741
O O11 0.982888 0.891379 0.693876
O O12 0.000000 0.500000 0.000000
#
# Coordination Sequence:
#
# PCOD8077856 Si02
#       6
#     4   4   2   2   4   4
#     4  11  23  42  72 101 133 189 239 291 340 425
#     4  11  26  42  70 103 141 183 238 292 358 412
#     4  12  26  46  70 106 140 185 235 308 348 422
#     4  12  26  48  72 102 144 187 241 290 354 432
#     4  12  26  45  73 100 142 191 233 287 360 420
#     4  12  26  46  71 107 145 184 233 301 353 424
#
# _framework density 22.876940000000001
#
# number of rings (size 3 to 8) (size 9 to 14) (size 15 to 20)
#    0.000    0.400    4.000    4.200    5.600    1.600 
#    0.000    0.000    0.000    0.000    0.000    0.000 
#    0.000    0.000    0.000    0.000    0.000    0.000 
#
# Total GULP energy -247987.636050 kJ/mol
# GULP energy per Si atom -12399.381802 kJ/mol
# Density = 2.282487 g / cm^3
# Si number density = 22.876940 Si / 1000 Ang^3
#
#
#
# Elastic Constant Matrix: (Units=GPa)
#
#
# Indices 1 2 3 4 5 6 
#
# 1 128.5952 46.5258 43.7857 0.0000 37.8182 0.0000
# 2 46.5258 138.2824 19.3025 0.0000 24.1662 0.0000
# 3 43.7857 19.3025 133.8696 0.0000 31.1835 0.0000
# 4 0.0000 0.0000 0.0000 45.2579 0.0000 -11.0784
# 5 37.8182 24.1662 31.1835 0.0000 59.4232 0.0000
# 6 0.0000 0.0000 0.0000 -11.0784 0.0000 57.9985
#
#
#
# Elastic Compliance Matrix: (Units=1/GPa)
#
#
# Indices 1 2 3 4 5 6 
#
# 1 0.010785 -0.002509 -0.002056 0.000000 -0.004765 0.000000
# 2 -0.002509 0.008391 0.000038 0.000000 -0.001836 0.000000
# 3 -0.002056 0.000038 0.008927 0.000000 -0.003392 0.000000
# 4 0.000000 0.000000 0.000000 0.023179 0.000000 0.004428
# 5 -0.004765 -0.001836 -0.003392 0.000000 0.022387 0.000000
# 6 0.000000 0.000000 0.000000 0.004428 0.000000 0.018088
#
#
# Mechanical properties :
#
#
# Convention : Reuss Voigt Hill
#
# Bulk Modulus (GPa) = 52.49285 68.88612 60.68948
# Shear Modulus (GPa) = 46.65857 51.94479 49.30168
#
# Velocity S-wave (km/s) = 4.52103 4.77027 4.64732
# Velocity P-wave (km/s) = 7.08862 7.77931 7.44198
#
# Compressibility (1/GPa) = 0.01905022
#
# Stress axis : x y z
#
# Youngs Moduli (GPa) = 92.71755 119.17154 112.02019
#
# Poissons Ratio (x) = 0.29902 0.23031
# Poissons Ratio (y) = 0.23264 -0.00430
# Poissons Ratio (z) = 0.19063 -0.00458
#
# Static dielectric constant tensor:
#      x y z
#    x 4.559120 0.000000 -0.780710 
#    y 0.000000 4.485950 0.000000 
#    z -0.780710 0.000000 4.656230 
# 
# 
# High freq. dielectric constant tensor:
#      x y z
#    x 1.916810 0.000000 0.004210 
#    y 0.000000 1.906130 0.000000 
#    z 0.004210 0.000000 1.910030 
# 
# From -- ./inp_files/1906.got.cif
#   From: 2010.06.25/outbox.cif.g09.slc.cpg/sg11_1_cif.got.tgz:1906.got - 2010.06.27 23:14:04.
