data_PCOD8077729
_publ_section_title
;
Structure prediction by ZEFSAII (Michael W. Deem and Ramdas Pophale) SiO2 
 PCOD8077729
Probable space group: P 21/M
;
_chemical_formula_sum "Si O2"
_cell_formula_units_Z 24
_cell_length_a 22.938089
_cell_length_b 8.834547
_cell_length_c 11.319432
_cell_angle_alpha 90.000000
_cell_angle_beta 30.831774
_cell_angle_gamma 90.000000
_cell_volume 1175.645093
_symmetry_space_group_name_H-M "P 21/M"
_symmetry_group_IT_number 11
_symmetry_cell_setting 'monoclinic'
loop_
_space_group_symop_operation_xyz
x,y,z
-x,1/2+y,-z
-x,-y,-z
x,1/2-y,z
loop_
_atom_site_type_symbol
_atom_site_label
_atom_site_fract_x
_atom_site_fract_y
_atom_site_fract_z
Si Si1 0.374539 0.928964 0.719972
Si Si2 0.831409 0.570504 0.334392
Si Si3 0.183455 0.428932 0.905804
Si Si4 0.613924 0.576628 0.838081
Si Si5 0.265437 0.076090 0.132870
Si Si6 0.960296 0.928456 0.335478
O O1 0.387188 0.750000 0.686387
O O2 0.500000 0.000000 0.500000
O O3 0.301420 0.993103 0.737841
O O4 0.303637 0.969181 0.960387
O O5 0.824919 0.750000 0.354358
O O6 0.847550 0.515927 0.172658
O O7 0.713350 0.501474 0.587347
O O8 0.929314 0.516881 0.255248
O O9 0.198227 0.250000 0.891502
O O10 0.076166 0.485036 0.171610
O O11 0.602267 0.750000 0.824658
O O12 0.640079 0.555896 0.930675
O O13 0.500000 0.500000 0.000000
O O14 0.261714 0.250000 0.095398
O O15 0.141192 0.027624 0.397971
O O16 0.982244 0.750000 0.301712
#
# Coordination Sequence:
#
# PCOD8077729 Si02
#       6
#     4   4   4   4   4   4
#     4  12  27  45  63  84 115 155 201 248 298 354
#     4   8  17  34  56  85 122 157 190 235 292 348
#     4  11  22  37  60  90 123 159 199 241 291 352
#     4   9  18  33  55  84 115 151 194 240 293 347
#     4   9  20  40  62  85 118 155 197 247 296 347
#     4   9  18  37  63  90 122 157 194 242 295 347
#
# _framework density 20.414324000000001
#
# number of rings (size 3 to 8) (size 9 to 14) (size 15 to 20)
#    0.000    2.333    0.000    4.500    2.333    2.000 
#    0.000    4.167    0.000    0.000    0.000    0.000 
#    0.000    0.000    0.000    0.000    0.000    0.000 
#
# Total GULP energy -297495.979908 kJ/mol
# GULP energy per Si atom -12395.665829 kJ/mol
# Density = 2.036786 g / cm^3
# Si number density = 20.414324 Si / 1000 Ang^3
#
#
#
# Elastic Constant Matrix: (Units=GPa)
#
#
# Indices 1 2 3 4 5 6 
#
# 1 69.9809 40.3838 59.7638 0.0000 -12.1377 0.0000
# 2 40.3838 88.0051 46.0276 0.0000 -4.7969 0.0000
# 3 59.7638 46.0276 110.2474 0.0000 -17.2570 0.0000
# 4 0.0000 0.0000 0.0000 35.5376 0.0000 -5.9577
# 5 -12.1377 -4.7969 -17.2570 0.0000 39.1236 0.0000
# 6 0.0000 0.0000 0.0000 -5.9577 0.0000 31.8737
#
#
#
# Elastic Compliance Matrix: (Units=1/GPa)
#
#
# Indices 1 2 3 4 5 6 
#
# 1 0.029571 -0.006729 -0.012797 0.000000 0.002704 0.000000
# 2 -0.006729 0.016102 -0.003322 0.000000 -0.001579 0.000000
# 3 -0.012797 -0.003322 0.017949 0.000000 0.003539 0.000000
# 4 0.000000 0.000000 0.000000 0.029050 0.000000 0.005430
# 5 0.002704 -0.001579 0.003539 0.000000 0.027767 0.000000
# 6 0.000000 0.000000 0.000000 0.005430 0.000000 0.032389
#
#
# Mechanical properties :
#
#
# Convention : Reuss Voigt Hill
#
# Bulk Modulus (GPa) = 55.78773 62.28711 59.03742
# Shear Modulus (GPa) = 24.45015 29.44418 26.94716
#
# Velocity S-wave (km/s) = 3.46453 3.80192 3.63714
# Velocity P-wave (km/s) = 6.58719 7.06049 6.82794
#
# Compressibility (1/GPa) = 0.01792509
#
# Stress axis : x y z
#
# Youngs Moduli (GPa) = 33.81740 62.10365 55.71414
#
# Poissons Ratio (x) = 0.41788 0.71299
# Poissons Ratio (y) = 0.22755 0.18508
# Poissons Ratio (z) = 0.43277 0.20631
#
# Static dielectric constant tensor:
#      x y z
#    x 3.807220 0.000000 0.006450 
#    y 0.000000 3.302580 0.000000 
#    z 0.006450 0.000000 3.548650 
# 
# 
# High freq. dielectric constant tensor:
#      x y z
#    x 1.801130 0.000000 -0.007610 
#    y 0.000000 1.774670 0.000000 
#    z -0.007610 0.000000 1.809030 
# 
# From -- ./inp_files/43893.got.cif
#   From: 2010.06.25/outbox.cif.g09.slc.cpg/sg11_22_cif.got.tgz:43893.got - 2010.06.27 23:14:04.
