data_PCOD8077348
_publ_section_title
;
Structure prediction by ZEFSAII (Michael W. Deem and Ramdas Pophale) SiO2 
 PCOD8077348
Probable space group: P 21/M
;
_chemical_formula_sum "Si O2"
_cell_formula_units_Z 24
_cell_length_a 23.591836
_cell_length_b 8.759291
_cell_length_c 12.268268
_cell_angle_alpha 90.000000
_cell_angle_beta 150.064578
_cell_angle_gamma 90.000000
_cell_volume 1265.129617
_symmetry_space_group_name_H-M "P 21/M"
_symmetry_group_IT_number 11
_symmetry_cell_setting 'monoclinic'
loop_
_space_group_symop_operation_xyz
x,y,z
-x,1/2+y,-z
-x,-y,-z
x,1/2-y,z
loop_
_atom_site_type_symbol
_atom_site_label
_atom_site_fract_x
_atom_site_fract_y
_atom_site_fract_z
Si Si1 0.614382 0.070357 0.738319
Si Si2 0.244175 0.429677 0.203633
Si Si3 0.636848 0.074228 0.395385
Si Si4 0.616088 0.924753 0.970349
Si Si5 0.774349 0.928063 0.431552
Si Si6 0.001225 0.571765 0.120821
O O1 0.613622 0.250000 0.716220
O O2 0.500000 0.000000 0.500000
O O3 0.722368 0.993844 0.858949
O O4 0.625561 0.037643 0.884705
O O5 0.267009 0.250000 0.248573
O O6 0.323929 0.513655 0.422732
O O7 0.113293 0.470723 0.006320
O O8 0.672886 0.250000 0.442751
O O9 0.501898 0.052283 0.162346
O O10 0.694699 0.978191 0.397429
O O11 0.626470 0.750000 0.946964
O O12 0.716096 0.968328 0.220037
O O13 0.795976 0.750000 0.481364
O O14 0.894964 0.011391 0.634351
O O15 0.014377 0.750000 0.126223
O O16 0.000000 0.500000 0.000000
#
# Coordination Sequence:
#
# PCOD8077348 Si02
#       6
#     4   4   4   4   4   4
#     4  12  24  39  63  90 120 158 200 247 297 356
#     4  11  23  39  61  90 121 155 200 251 299 349
#     4  11  21  35  60  90 123 160 199 245 298 359
#     4  10  23  41  60  87 123 162 201 246 300 356
#     4  11  23  39  60  88 125 162 199 247 302 357
#     4  11  23  39  62  88 119 158 201 249 298 356
#
# _framework density 18.970386999999999
#
# number of rings (size 3 to 8) (size 9 to 14) (size 15 to 20)
#    0.000    1.000    3.333    4.000    0.000    4.000 
#    0.000    0.833    0.000    0.000    0.000    0.000 
#    0.000    0.000    0.000    0.000    0.000    0.000 
#
# Total GULP energy -297752.276481 kJ/mol
# GULP energy per Si atom -12406.344853 kJ/mol
# Density = 1.892721 g / cm^3
# Si number density = 18.970387 Si / 1000 Ang^3
#
#
#
# Elastic Constant Matrix: (Units=GPa)
#
#
# Indices 1 2 3 4 5 6 
#
# 1 90.4546 19.4553 38.4786 0.0000 13.1641 0.0000
# 2 19.4553 52.5033 40.4288 0.0000 17.2843 0.0000
# 3 38.4786 40.4288 124.0397 0.0000 12.9011 0.0000
# 4 0.0000 0.0000 0.0000 31.2577 0.0000 -1.2219
# 5 13.1641 17.2843 12.9011 0.0000 28.6228 0.0000
# 6 0.0000 0.0000 0.0000 -1.2219 0.0000 35.2403
#
#
#
# Elastic Compliance Matrix: (Units=1/GPa)
#
#
# Indices 1 2 3 4 5 6 
#
# 1 0.013289 -0.001014 -0.003378 0.000000 -0.003977 0.000000
# 2 -0.001014 0.030330 -0.008094 0.000000 -0.014201 0.000000
# 3 -0.003378 -0.008094 0.011623 0.000000 0.001203 0.000000
# 4 0.000000 0.000000 0.000000 0.032036 0.000000 0.001111
# 5 -0.003977 -0.014201 0.001203 0.000000 0.044799 0.000000
# 6 0.000000 0.000000 0.000000 0.001111 0.000000 0.028415
#
#
# Mechanical properties :
#
#
# Convention : Reuss Voigt Hill
#
# Bulk Modulus (GPa) = 33.03647 51.52479 42.28063
# Shear Modulus (GPa) = 25.56838 30.26648 27.91743
#
# Velocity S-wave (km/s) = 3.67523 3.99865 3.84035
# Velocity P-wave (km/s) = 5.95502 6.96696 6.48077
#
# Compressibility (1/GPa) = 0.03026957
#
# Stress axis : x y z
#
# Youngs Moduli (GPa) = 75.24882 32.97113 86.03622
#
# Poissons Ratio (x) = 0.03342 0.29067
# Poissons Ratio (y) = 0.07627 0.69638
# Poissons Ratio (z) = 0.25422 0.26687
#
# Static dielectric constant tensor:
#      x y z
#    x 3.540260 0.000000 0.103080 
#    y 0.000000 3.624630 0.000000 
#    z 0.103080 0.000000 3.583560 
# 
# 
# High freq. dielectric constant tensor:
#      x y z
#    x 1.739280 0.000000 0.006000 
#    y 0.000000 1.753050 0.000000 
#    z 0.006000 0.000000 1.736470 
# 
# From -- ./inp_files/33703.got.cif
#   From: 2010.06.25/outbox.cif.g09.slc.cpg/sg11_17_cif.got.tgz:33703.got - 2010.06.27 23:14:04.
