data_PCOD8077389
_publ_section_title
;
Structure prediction by ZEFSAII (Michael W. Deem and Ramdas Pophale) SiO2 
 PCOD8077389
Probable space group: P 21/M
;
_chemical_formula_sum "Si O2"
_cell_formula_units_Z 20
_cell_length_a 12.499835
_cell_length_b 8.418645
_cell_length_c 12.265270
_cell_angle_alpha 90.000000
_cell_angle_beta 48.310235
_cell_angle_gamma 90.000000
_cell_volume 963.835446
_symmetry_space_group_name_H-M "P 21/M"
_symmetry_group_IT_number 11
_symmetry_cell_setting 'monoclinic'
loop_
_space_group_symop_operation_xyz
x,y,z
-x,1/2+y,-z
-x,-y,-z
x,1/2-y,z
loop_
_atom_site_type_symbol
_atom_site_label
_atom_site_fract_x
_atom_site_fract_y
_atom_site_fract_z
Si Si1 0.779734 0.933588 0.322746
Si Si2 0.102180 0.564033 0.148877
Si Si3 0.146125 0.064889 0.351478
Si Si4 0.337775 0.933013 0.814068
Si Si5 0.640205 0.432564 0.627556
O O1 0.770759 0.750000 0.294899
O O2 0.943225 0.990247 0.223599
O O3 0.702994 0.037860 0.283363
O O4 0.698313 0.957852 0.491232
O O5 0.105741 0.750000 0.175289
O O6 0.153568 0.465337 0.218011
O O7 0.204448 0.518514 0.979749
O O8 0.157436 0.250000 0.369440
O O9 0.279748 0.975871 0.315203
O O10 0.000000 0.000000 0.500000
O O11 0.379034 0.750000 0.801602
O O12 0.472168 0.038553 0.758803
O O13 0.668541 0.250000 0.578720
#
# Coordination Sequence:
#
# PCOD8077389 Si02
#       5
#     4   4   4   4   4
#     4  11  22  40  66  94 127 167 212 261 311 373
#     4  10  23  42  66  94 127 167 211 258 311 372
#     4  12  24  41  67  95 125 162 208 259 312 373
#     4  11  24  42  63  93 131 168 209 260 315 372
#     4  12  25  42  65  93 126 168 213 260 313 371
#
# _framework density 20.750429
#
# number of rings (size 3 to 8) (size 9 to 14) (size 15 to 20)
#    0.000    0.800    2.000    6.000    0.000    3.200 
#    0.000    0.000    0.000    0.000    0.000    0.000 
#    0.000    0.000    0.000    0.000    0.000    0.000 
#
# Total GULP energy -248196.566565 kJ/mol
# GULP energy per Si atom -12409.828328 kJ/mol
# Density = 2.070320 g / cm^3
# Si number density = 20.750429 Si / 1000 Ang^3
#
#
#
# Elastic Constant Matrix: (Units=GPa)
#
#
# Indices 1 2 3 4 5 6 
#
# 1 138.2100 28.7493 27.3126 0.0000 -9.3763 0.0000
# 2 28.7493 71.5429 21.8495 0.0000 -1.1686 0.0000
# 3 27.3126 21.8495 61.2420 0.0000 -16.0252 0.0000
# 4 0.0000 0.0000 0.0000 28.8921 0.0000 0.0928
# 5 -9.3763 -1.1686 -16.0252 0.0000 33.8907 0.0000
# 6 0.0000 0.0000 0.0000 0.0928 0.0000 33.0031
#
#
#
# Elastic Compliance Matrix: (Units=1/GPa)
#
#
# Indices 1 2 3 4 5 6 
#
# 1 0.008339 -0.002559 -0.002540 0.000000 0.001018 0.000000
# 2 -0.002559 0.016645 -0.005515 0.000000 -0.002742 0.000000
# 3 -0.002540 -0.005515 0.021906 0.000000 0.009465 0.000000
# 4 0.000000 0.000000 0.000000 0.034612 0.000000 -0.000097
# 5 0.001018 -0.002742 0.009465 0.000000 0.034169 0.000000
# 6 0.000000 0.000000 0.000000 -0.000097 0.000000 0.030300
#
#
# Mechanical properties :
#
#
# Convention : Reuss Voigt Hill
#
# Bulk Modulus (GPa) = 38.96631 47.42420 43.19525
# Shear Modulus (GPa) = 28.44922 32.02941 30.23931
#
# Velocity S-wave (km/s) = 3.70674 3.93307 3.82158
# Velocity P-wave (km/s) = 6.09420 6.59769 6.35094
#
# Compressibility (1/GPa) = 0.02566319
#
# Stress axis : x y z
#
# Youngs Moduli (GPa) = 119.92559 60.07710 45.65034
#
# Poissons Ratio (x) = 0.15371 0.11593
# Poissons Ratio (y) = 0.30684 0.25176
# Poissons Ratio (z) = 0.30457 0.33132
#
# Static dielectric constant tensor:
#      x y z
#    x 3.884820 0.000000 -0.041490 
#    y 0.000000 3.729020 0.000000 
#    z -0.041490 0.000000 3.728600 
# 
# 
# High freq. dielectric constant tensor:
#      x y z
#    x 1.825970 0.000000 -0.002420 
#    y 0.000000 1.817630 0.000000 
#    z -0.002420 0.000000 1.813150 
# 
# From -- ./inp_files/15933.got.cif
#   From: 2010.06.25/outbox.cif.g09.slc.cpg/sg11_8_cif.got.tgz:15933.got - 2010.06.27 23:14:04.
