data_PCOD8077891
_publ_section_title
;
Structure prediction by ZEFSAII (Michael W. Deem and Ramdas Pophale) SiO2 
 PCOD8077891
Probable space group: P 21/M
;
_chemical_formula_sum "Si O2"
_cell_formula_units_Z 16
_cell_length_a 9.971975
_cell_length_b 13.575825
_cell_length_c 12.740719
_cell_angle_alpha 90.000000
_cell_angle_beta 20.966805
_cell_angle_gamma 90.000000
_cell_volume 617.183727
_symmetry_space_group_name_H-M "P 21/M"
_symmetry_group_IT_number 11
_symmetry_cell_setting 'monoclinic'
loop_
_space_group_symop_operation_xyz
x,y,z
-x,1/2+y,-z
-x,-y,-z
x,1/2-y,z
loop_
_atom_site_type_symbol
_atom_site_label
_atom_site_fract_x
_atom_site_fract_y
_atom_site_fract_z
Si Si1 0.138912 0.856063 0.598303
Si Si2 0.798381 0.568181 0.230084
Si Si3 0.379717 0.863501 0.974221
Si Si4 0.364360 0.929448 0.214025
O O1 0.947514 0.750000 0.752743
O O2 0.545402 0.852556 0.354410
O O3 0.198099 0.869904 0.431426
O O4 0.827030 0.930023 0.874745
O O5 0.500000 0.500000 0.500000
O O6 0.063081 0.625435 0.117381
O O7 0.000000 0.500000 0.000000
O O8 0.529555 0.750000 0.857683
O O9 0.219652 0.884312 0.208753
O O10 0.705521 0.949976 0.718582
#
# Coordination Sequence:
#
# PCOD8077891 Si02
#       4
#     4   4   4   4
#     4  12  23  45  71  99 137 183 226 278 343 404
#     4  12  24  45  66 100 138 180 226 283 337 400
#     4  11  24  46  72 103 139 183 226 282 346 405
#     4  11  26  45  71 103 139 174 230 286 333 409
#
# _framework density 25.924209000000001
#
# number of rings (size 3 to 8) (size 9 to 14) (size 15 to 20)
#    0.000    0.500    5.000    3.000    0.000    6.000 
#    0.000   12.500    0.000    0.000    0.000    0.000 
#    0.000    0.000    0.000    0.000    0.000    0.000 
#
# Total GULP energy -198227.916962 kJ/mol
# GULP energy per Si atom -12389.244810 kJ/mol
# Density = 2.586520 g / cm^3
# Si number density = 25.924209 Si / 1000 Ang^3
#
#
#
# Elastic Constant Matrix: (Units=GPa)
#
#
# Indices 1 2 3 4 5 6 
#
# 1 154.3029 50.7805 15.3507 0.0000 -46.8604 0.0000
# 2 50.7805 181.5071 28.5686 0.0000 4.3417 0.0000
# 3 15.3507 28.5686 57.6880 0.0000 2.0775 0.0000
# 4 0.0000 0.0000 0.0000 27.4809 0.0000 4.7146
# 5 -46.8604 4.3417 2.0775 0.0000 57.6799 0.0000
# 6 0.0000 0.0000 0.0000 4.7146 0.0000 28.3536
#
#
#
# Elastic Compliance Matrix: (Units=1/GPa)
#
#
# Indices 1 2 3 4 5 6 
#
# 1 0.010143 -0.002785 -0.001626 0.000000 0.008509 0.000000
# 2 -0.002785 0.006747 -0.002503 0.000000 -0.002681 0.000000
# 3 -0.001626 -0.002503 0.019073 0.000000 -0.001820 0.000000
# 4 0.000000 0.000000 0.000000 0.037458 0.000000 -0.006228
# 5 0.008509 -0.002681 -0.001820 0.000000 0.024517 0.000000
# 6 0.000000 0.000000 0.000000 -0.006228 0.000000 0.036305
#
#
# Mechanical properties :
#
#
# Convention : Reuss Voigt Hill
#
# Bulk Modulus (GPa) = 45.18195 64.76639 54.97417
# Shear Modulus (GPa) = 32.16479 42.62277 37.39378
#
# Velocity S-wave (km/s) = 3.52621 4.05919 3.80205
# Velocity P-wave (km/s) = 5.83483 6.85613 6.36599
#
# Compressibility (1/GPa) = 0.02213273
#
# Stress axis : x y z
#
# Youngs Moduli (GPa) = 98.58791 148.21719 52.43105
#
# Poissons Ratio (x) = 0.41284 0.08526
# Poissons Ratio (y) = 0.27460 0.13126
# Poissons Ratio (z) = 0.16032 0.37106
#
# Static dielectric constant tensor:
#      x y z
#    x 4.987180 0.000000 0.067240 
#    y 0.000000 4.800370 0.000000 
#    z 0.067240 0.000000 4.291040 
# 
# 
# High freq. dielectric constant tensor:
#      x y z
#    x 2.062910 0.000000 -0.015880 
#    y 0.000000 2.049050 0.000000 
#    z -0.015880 0.000000 2.048760 
# 
# From -- ./inp_files/50145.got.cif
#   From: 2010.06.25/outbox.cif.g09.slc.cpg/sg11_26_cif.got.tgz:50145.got - 2010.06.27 23:14:04.
