data_PCOD8077515
_publ_section_title
;
Structure prediction by ZEFSAII (Michael W. Deem and Ramdas Pophale) SiO2 
 PCOD8077515
Probable space group: P 21/M
;
_chemical_formula_sum "Si O2"
_cell_formula_units_Z 28
_cell_length_a 9.781267
_cell_length_b 13.541741
_cell_length_c 11.918308
_cell_angle_alpha 90.000000
_cell_angle_beta 64.912423
_cell_angle_gamma 90.000000
_cell_volume 1429.715976
_symmetry_space_group_name_H-M "P 21/M"
_symmetry_group_IT_number 11
_symmetry_cell_setting 'monoclinic'
loop_
_space_group_symop_operation_xyz
x,y,z
-x,1/2+y,-z
-x,-y,-z
x,1/2-y,z
loop_
_atom_site_type_symbol
_atom_site_label
_atom_site_fract_x
_atom_site_fract_y
_atom_site_fract_z
Si Si1 0.864934 0.863482 0.224822
Si Si2 0.128742 0.504190 0.225304
Si Si3 0.913483 0.863667 0.952301
Si Si4 0.930604 0.140014 0.413391
Si Si5 0.238909 0.640183 0.756530
Si Si6 0.432443 0.033225 0.640960
Si Si7 0.304437 0.634927 0.314498
O O1 0.898193 0.750000 0.236382
O O2 0.707254 0.894145 0.335685
O O3 0.855582 0.887504 0.095967
O O4 0.997677 0.921954 0.236275
O O5 0.174831 0.434105 0.104551
O O6 0.272596 0.569071 0.214470
O O7 0.068302 0.435839 0.348717
O O8 0.882628 0.750000 0.929093
O O9 0.093629 0.884922 0.883851
O O10 0.999907 0.250000 0.387623
O O11 0.808930 0.129241 0.356306
O O12 0.845161 0.121052 0.558992
O O13 0.299919 0.750000 0.761520
O O14 0.373224 0.562464 0.731373
O O15 0.550051 0.092805 0.674642
O O16 0.500000 0.000000 0.500000
O O17 0.332557 0.750000 0.274594
#
# Coordination Sequence:
#
# PCOD8077515 Si02
#       7
#     4   4   4   4   4   4   4
#     4  11  22  36  60  88 114 147 199 245 279 334
#     4  11  19  35  57  86 111 149 195 238 287 340
#     4   9  19  37  63  88 110 144 194 252 294 326
#     4   9  17  33  56  79 109 149 191 234 282 335
#     4   9  17  33  58  83 106 142 193 241 283 327
#     4  12  22  37  57  84 114 156 191 228 280 344
#     4  11  23  36  51  79 124 159 182 227 295 347
#
# _framework density 19.584309000000001
#
# number of rings (size 3 to 8) (size 9 to 14) (size 15 to 20)
#    0.000    1.714    4.286    3.000    0.000    0.571 
#    0.000    2.143    0.000    0.000    0.000    0.000 
#    0.000    0.000    0.000    0.000    0.000    0.000 
#
# Total GULP energy -347156.327460 kJ/mol
# GULP energy per Si atom -12398.440266 kJ/mol
# Density = 1.953973 g / cm^3
# Si number density = 19.584309 Si / 1000 Ang^3
#
#
#
# Elastic Constant Matrix: (Units=GPa)
#
#
# Indices 1 2 3 4 5 6 
#
# 1 74.1983 44.1736 11.4096 0.0000 7.8826 0.0000
# 2 44.1736 140.8796 25.6240 0.0000 2.0019 0.0000
# 3 11.4096 25.6240 64.5023 0.0000 -6.4893 0.0000
# 4 0.0000 0.0000 0.0000 30.7311 0.0000 0.1588
# 5 7.8826 2.0019 -6.4893 0.0000 14.3370 0.0000
# 6 0.0000 0.0000 0.0000 0.1588 0.0000 31.3666
#
#
#
# Elastic Compliance Matrix: (Units=1/GPa)
#
#
# Indices 1 2 3 4 5 6 
#
# 1 0.017908 -0.005077 -0.002169 0.000000 -0.010119 0.000000
# 2 -0.005077 0.009181 -0.002721 0.000000 0.000278 0.000000
# 3 -0.002169 -0.002721 0.017943 0.000000 0.009694 0.000000
# 4 0.000000 0.000000 0.000000 0.032541 0.000000 -0.000165
# 5 -0.010119 0.000278 0.009694 0.000000 0.079662 0.000000
# 6 0.000000 0.000000 0.000000 -0.000165 0.000000 0.031882
#
#
# Mechanical properties :
#
#
# Convention : Reuss Voigt Hill
#
# Bulk Modulus (GPa) = 39.84298 49.11051 44.47674
# Shear Modulus (GPa) = 22.99712 28.51183 25.75447
#
# Velocity S-wave (km/s) = 3.43047 3.81970 3.63030
# Velocity P-wave (km/s) = 6.00661 6.67715 6.35074
#
# Compressibility (1/GPa) = 0.02509853
#
# Stress axis : x y z
#
# Youngs Moduli (GPa) = 55.83941 108.91808 55.73103
#
# Poissons Ratio (x) = 0.55298 0.12088
# Poissons Ratio (y) = 0.28350 0.15166
# Poissons Ratio (z) = 0.12111 0.29640
#
# Static dielectric constant tensor:
#      x y z
#    x 3.203200 0.000000 -0.003020 
#    y 0.000000 4.139000 0.000000 
#    z -0.003020 0.000000 3.606120 
# 
# 
# High freq. dielectric constant tensor:
#      x y z
#    x 1.717280 0.000000 -0.001650 
#    y 0.000000 1.793590 0.000000 
#    z -0.001650 0.000000 1.751990 
# 
# From -- ./inp_files/31670.got.cif
#   From: 2010.06.25/outbox.cif.g09.slc.cpg/sg11_16_cif.got.tgz:31670.got - 2010.06.27 23:14:04.
