data_PCOD8077127
_publ_section_title
;
Structure prediction by ZEFSAII (Michael W. Deem and Ramdas Pophale) SiO2 
 PCOD8077127
Probable space group: P 21/M
;
_chemical_formula_sum "Si O2"
_cell_formula_units_Z 24
_cell_length_a 14.307807
_cell_length_b 10.039055
_cell_length_c 14.307756
_cell_angle_alpha 90.000000
_cell_angle_beta 144.334194
_cell_angle_gamma 90.000000
_cell_volume 1198.251667
_symmetry_space_group_name_H-M "P 21/M"
_symmetry_group_IT_number 11
_symmetry_cell_setting 'monoclinic'
loop_
_space_group_symop_operation_xyz
x,y,z
-x,1/2+y,-z
-x,-y,-z
x,1/2-y,z
loop_
_atom_site_type_symbol
_atom_site_label
_atom_site_fract_x
_atom_site_fract_y
_atom_site_fract_z
Si Si1 0.781926 0.598398 0.367825
Si Si2 0.867825 0.098398 0.281924
Si Si3 0.530121 0.250000 0.607367
Si Si4 0.462785 0.016086 0.678535
Si Si5 0.178542 0.516085 0.962792
Si Si6 0.107374 0.750000 0.030127
Si Si7 0.002066 0.250000 0.858516
Si Si8 0.641493 0.250000 0.497940
O O1 0.781334 0.750000 0.330046
O O2 0.770579 0.499998 0.270580
O O3 0.627657 0.575769 0.306131
O O4 0.942292 0.568671 0.557710
O O5 0.830044 0.250000 0.281329
O O6 0.806126 0.075763 0.127652
O O7 0.442906 0.118453 0.576010
O O8 0.711070 0.250000 0.788924
O O9 0.518370 0.250000 0.485473
O O10 0.384450 0.877507 0.587058
O O11 0.646726 0.993189 0.853267
O O12 0.087066 0.377506 0.884460
O O13 0.076017 0.618453 0.942912
O O14 0.985474 0.750000 0.018366
O O15 0.819941 0.250000 0.680066
#
# Coordination Sequence:
#
# PCOD8077127 Si02
#       8
#     4   4   2   4   4   2   2   2
#     4  10  22  40  62  89 120 158 200 243 294 357
#     4  10  22  40  62  89 120 158 200 243 294 357
#     4   9  20  39  62  87 122 159 200 249 300 355
#     4  11  22  40  62  90 124 159 199 251 305 355
#     4  11  22  40  62  90 124 159 199 251 305 355
#     4   9  20  39  62  87 122 159 200 249 300 355
#     4  11  23  39  60  89 122 163 206 247 294 357
#     4  11  23  39  60  89 122 163 206 247 294 357
#
# _framework density 20.029181999999999
#
# number of rings (size 3 to 8) (size 9 to 14) (size 15 to 20)
#    0.000    1.667    1.667    2.500    2.333    0.667 
#    0.000    5.000    0.000    0.000    0.000    0.000 
#    0.000    0.000    0.000    0.000    0.000    0.000 
#
# Total GULP energy -297730.487706 kJ/mol
# GULP energy per Si atom -12405.436988 kJ/mol
# Density = 1.998359 g / cm^3
# Si number density = 20.029182 Si / 1000 Ang^3
#
#
#
# Elastic Constant Matrix: (Units=GPa)
#
#
# Indices 1 2 3 4 5 6 
#
# 1 89.3446 36.8257 16.0759 0.0000 -3.6851 0.0000
# 2 36.8257 149.0391 27.5094 0.0000 -3.9083 0.0000
# 3 16.0759 27.5094 60.2020 0.0000 -8.5418 0.0000
# 4 0.0000 0.0000 0.0000 21.5830 0.0000 -7.7475
# 5 -3.6851 -3.9083 -8.5418 0.0000 30.2041 0.0000
# 6 0.0000 0.0000 0.0000 -7.7475 0.0000 40.0486
#
#
#
# Elastic Compliance Matrix: (Units=1/GPa)
#
#
# Indices 1 2 3 4 5 6 
#
# 1 0.012720 -0.002748 -0.002054 0.000000 0.000616 0.000000
# 2 -0.002748 0.007921 -0.002905 0.000000 -0.000132 0.000000
# 3 -0.002054 -0.002905 0.019167 0.000000 0.004794 0.000000
# 4 0.000000 0.000000 0.000000 0.049790 0.000000 0.009632
# 5 0.000616 -0.000132 0.004794 0.000000 0.034522 0.000000
# 6 0.000000 0.000000 0.000000 0.009632 0.000000 0.026833
#
#
# Mechanical properties :
#
#
# Convention : Reuss Voigt Hill
#
# Bulk Modulus (GPa) = 40.99068 51.04531 46.01799
# Shear Modulus (GPa) = 28.65374 32.91212 30.78293
#
# Velocity S-wave (km/s) = 3.78643 4.05805 3.92459
# Velocity P-wave (km/s) = 6.29492 6.89187 6.60014
#
# Compressibility (1/GPa) = 0.02439579
#
# Stress axis : x y z
#
# Youngs Moduli (GPa) = 78.61573 126.24270 52.17409
#
# Poissons Ratio (x) = 0.34688 0.10715
# Poissons Ratio (y) = 0.21602 0.15154
# Poissons Ratio (z) = 0.16146 0.36668
#
# Static dielectric constant tensor:
#      x y z
#    x 3.648100 0.000000 -0.083260 
#    y 0.000000 3.813130 0.000000 
#    z -0.083260 0.000000 3.449560 
# 
# 
# High freq. dielectric constant tensor:
#      x y z
#    x 1.782210 0.000000 -0.006030 
#    y 0.000000 1.800360 0.000000 
#    z -0.006030 0.000000 1.767830 
# 
# From -- ./inp_files/51862.got.cif
#   From: 2010.06.25/outbox.cif.g09.slc.cpg/sg11_26_cif.got.tgz:51862.got - 2010.06.27 23:14:04.
