data_PCOD8077222
_publ_section_title
;
Structure prediction by ZEFSAII (Michael W. Deem and Ramdas Pophale) SiO2 
 PCOD8077222
Probable space group: P 21/M
;
_chemical_formula_sum "Si O2"
_cell_formula_units_Z 32
_cell_length_a 11.814450
_cell_length_b 8.854004
_cell_length_c 28.616418
_cell_angle_alpha 90.000000
_cell_angle_beta 31.146130
_cell_angle_gamma 90.000000
_cell_volume 1548.267339
_symmetry_space_group_name_H-M "P 21/M"
_symmetry_group_IT_number 11
_symmetry_cell_setting 'monoclinic'
loop_
_space_group_symop_operation_xyz
x,y,z
-x,1/2+y,-z
-x,-y,-z
x,1/2-y,z
loop_
_atom_site_type_symbol
_atom_site_label
_atom_site_fract_x
_atom_site_fract_y
_atom_site_fract_z
Si Si1 0.109585 0.925929 0.824837
Si Si2 0.187499 0.923035 0.321951
Si Si3 0.269134 0.073773 0.470367
Si Si4 0.132934 0.426899 0.995368
Si Si5 0.596828 0.576513 0.837226
Si Si6 0.393817 0.072209 0.583057
Si Si7 0.024531 0.076120 0.230521
Si Si8 0.569813 0.076526 0.671132
O O1 0.174423 0.750000 0.804784
O O2 0.978561 0.962955 0.823490
O O3 0.323790 0.026456 0.749376
O O4 0.964651 0.975441 0.920216
O O5 0.184420 0.750000 0.305371
O O6 0.374690 0.946840 0.294358
O O7 0.954417 0.969022 0.425399
O O8 0.234734 0.036766 0.263494
O O9 0.320798 0.250000 0.456272
O O10 0.469432 0.979695 0.420604
O O11 0.261294 0.023634 0.419051
O O12 0.119669 0.250000 0.992177
O O13 0.385103 0.473572 0.906862
O O14 0.000000 0.500000 0.000000
O O15 0.524179 0.750000 0.858921
O O16 0.727961 0.544818 0.839060
O O17 0.399481 0.250000 0.574634
O O18 0.500000 0.000000 0.500000
O O19 0.143594 0.022780 0.679559
O O20 0.959881 0.250000 0.261836
O O21 0.599848 0.250000 0.645897
#
# Coordination Sequence:
#
# PCOD8077222 Si02
#       8
#     4   4   4   4   4   4   4   4
#     4  10  22  41  65  90 122 165 209 254 314 375
#     4  10  23  40  59  86 123 165 209 259 311 370
#     4  11  22  38  59  86 122 164 207 256 314 373
#     4  11  24  43  68  97 127 164 207 256 313 378
#     4  11  24  41  64  93 124 161 205 256 314 373
#     4  12  24  38  59  88 122 165 214 262 312 367
#     4  10  22  42  64  89 124 163 208 260 311 370
#     4  11  22  37  59  90 123 159 207 258 310 370
#
# _framework density 20.668264000000001
#
# number of rings (size 3 to 8) (size 9 to 14) (size 15 to 20)
#    0.000    1.250    1.250    4.500    0.000    8.500 
#    0.000    0.000    0.000    0.000    0.000    0.000 
#    0.000    0.000    0.000    0.000    0.000    0.000 
#
# Total GULP energy -396939.513110 kJ/mol
# GULP energy per Si atom -12404.359785 kJ/mol
# Density = 2.062122 g / cm^3
# Si number density = 20.668264 Si / 1000 Ang^3
#
#
#
# Elastic Constant Matrix: (Units=GPa)
#
#
# Indices 1 2 3 4 5 6 
#
# 1 116.9853 46.7107 51.4112 0.0000 -3.8780 0.0000
# 2 46.7107 91.0780 42.4812 0.0000 3.3496 0.0000
# 3 51.4112 42.4812 110.4915 0.0000 5.3385 0.0000
# 4 0.0000 0.0000 0.0000 31.9050 0.0000 1.9891
# 5 -3.8780 3.3496 5.3385 0.0000 37.4877 0.0000
# 6 0.0000 0.0000 0.0000 1.9891 0.0000 29.0666
#
#
#
# Elastic Compliance Matrix: (Units=1/GPa)
#
#
# Indices 1 2 3 4 5 6 
#
# 1 0.012181 -0.004430 -0.004073 0.000000 0.002236 0.000000
# 2 -0.004430 0.014998 -0.003643 0.000000 -0.001279 0.000000
# 3 -0.004073 -0.003643 0.012436 0.000000 -0.001867 0.000000
# 4 0.000000 0.000000 0.000000 0.031477 0.000000 -0.002154
# 5 0.002236 -0.001279 -0.001867 0.000000 0.027287 0.000000
# 6 0.000000 0.000000 0.000000 -0.002154 0.000000 0.034551
#
#
# Mechanical properties :
#
#
# Convention : Reuss Voigt Hill
#
# Bulk Modulus (GPa) = 65.25838 66.64012 65.94925
# Shear Modulus (GPa) = 30.80158 31.55531 31.17844
#
# Velocity S-wave (km/s) = 3.86461 3.91161 3.88818
# Velocity P-wave (km/s) = 7.18027 7.26041 7.22045
#
# Compressibility (1/GPa) = 0.01532370
#
# Stress axis : x y z
#
# Youngs Moduli (GPa) = 82.09726 66.67619 80.40934
#
# Poissons Ratio (x) = 0.29536 0.32747
# Poissons Ratio (y) = 0.36367 0.29296
# Poissons Ratio (z) = 0.33434 0.24292
#
# Static dielectric constant tensor:
#      x y z
#    x 4.070710 0.000000 0.125900 
#    y 0.000000 3.713280 0.000000 
#    z 0.125900 0.000000 3.744650 
# 
# 
# High freq. dielectric constant tensor:
#      x y z
#    x 1.824330 0.000000 0.002110 
#    y 0.000000 1.810510 0.000000 
#    z 0.002110 0.000000 1.807710 
# 
# From -- ./inp_files/73085.got.cif
#   From: 2010.06.25/outbox.cif.g09.slc.cpg/sg11_37_cif.got.tgz:73085.got - 2010.06.27 23:14:04.
