data_PCOD8077297
_publ_section_title
;
Structure prediction by ZEFSAII (Michael W. Deem and Ramdas Pophale) SiO2 
 PCOD8077297
Probable space group: P 21/M
;
_chemical_formula_sum "Si O2"
_cell_formula_units_Z 32
_cell_length_a 9.331601
_cell_length_b 22.766747
_cell_length_c 16.659381
_cell_angle_alpha 90.000000
_cell_angle_beta 153.573290
_cell_angle_gamma 90.000000
_cell_volume 1575.170011
_symmetry_space_group_name_H-M "P 21/M"
_symmetry_group_IT_number 11
_symmetry_cell_setting 'monoclinic'
loop_
_space_group_symop_operation_xyz
x,y,z
-x,1/2+y,-z
-x,-y,-z
x,1/2-y,z
loop_
_atom_site_type_symbol
_atom_site_label
_atom_site_fract_x
_atom_site_fract_y
_atom_site_fract_z
Si Si1 0.871509 0.482039 0.686386
Si Si2 0.243530 0.405923 0.755013
Si Si3 0.407645 0.317156 0.473293
Si Si4 0.265768 0.817115 0.533645
Si Si5 0.774798 0.898555 0.857573
Si Si6 0.628049 0.514913 0.318842
Si Si7 0.893157 0.398777 0.146892
Si Si8 0.737825 0.402797 0.757573
O O1 0.500000 0.500000 0.500000
O O2 0.948863 0.439762 0.800140
O O3 0.959261 0.445469 0.650738
O O4 0.090041 0.539717 0.797642
O O5 0.452300 0.445162 0.798423
O O6 0.072912 0.351029 0.625872
O O7 0.514902 0.381844 0.952453
O O8 0.335819 0.250000 0.459021
O O9 0.631588 0.322870 0.507553
O O10 0.584706 0.346189 0.637901
O O11 0.067120 0.348318 0.285345
O O12 0.216119 0.750000 0.534490
O O13 0.525039 0.844876 0.724570
O O14 0.941917 0.907694 0.856309
O O15 0.595009 0.957802 0.793768
O O16 0.035560 0.881785 0.055919
O O17 0.550498 0.554414 0.357726
O O18 0.000000 0.500000 0.500000
#
# Coordination Sequence:
#
# PCOD8077297 Si02
#       8
#     4   4   4   4   4   4   4   4
#     4  12  21  39  64  94 128 166 205 255 315 379
#     4  12  23  39  62  99 124 165 209 255 314 377
#     4  10  23  43  66  88 119 170 218 256 306 367
#     4  10  22  43  65  87 121 168 216 257 306 373
#     4  11  22  40  63  93 127 167 203 250 323 379
#     4  12  23  38  64  95 136 162 198 254 325 379
#     4  11  22  39  64  93 129 164 207 253 315 380
#     4  12  22  40  66  92 131 162 202 264 311 373
#
# _framework density 20.315266999999999
#
# number of rings (size 3 to 8) (size 9 to 14) (size 15 to 20)
#    0.000    0.750    6.250    3.000    0.000    1.000 
#    0.000    0.625    0.000    0.000    0.000    0.000 
#    0.000    0.000    0.000    0.000    0.000    0.000 
#
# Total GULP energy -396852.136009 kJ/mol
# GULP energy per Si atom -12401.629250 kJ/mol
# Density = 2.026903 g / cm^3
# Si number density = 20.315267 Si / 1000 Ang^3
#
#
#
# Elastic Constant Matrix: (Units=GPa)
#
#
# Indices 1 2 3 4 5 6 
#
# 1 57.2880 37.8094 13.1403 0.0000 -3.0128 0.0000
# 2 37.8094 169.6713 72.3070 0.0000 -2.2055 0.0000
# 3 13.1403 72.3070 141.8775 0.0000 5.1828 0.0000
# 4 0.0000 0.0000 0.0000 20.7309 0.0000 -6.9571
# 5 -3.0128 -2.2055 5.1828 0.0000 32.7536 0.0000
# 6 0.0000 0.0000 0.0000 -6.9571 0.0000 24.3353
#
#
#
# Elastic Compliance Matrix: (Units=1/GPa)
#
#
# Indices 1 2 3 4 5 6 
#
# 1 0.020571 -0.004764 0.000468 0.000000 0.001497 0.000000
# 2 -0.004764 0.008673 -0.004008 0.000000 0.000780 0.000000
# 3 0.000468 -0.004008 0.009108 0.000000 -0.001668 0.000000
# 4 0.000000 0.000000 0.000000 0.053356 0.000000 0.015254
# 5 0.001497 0.000780 -0.001668 0.000000 0.030985 0.000000
# 6 0.000000 0.000000 0.000000 0.015254 0.000000 0.045453
#
#
# Mechanical properties :
#
#
# Convention : Reuss Voigt Hill
#
# Bulk Modulus (GPa) = 45.98597 68.37225 57.17911
# Shear Modulus (GPa) = 26.04114 31.93595 28.98855
#
# Velocity S-wave (km/s) = 3.58418 3.96917 3.78158
# Velocity P-wave (km/s) = 6.30981 7.39827 6.87561
#
# Compressibility (1/GPa) = 0.02174576
#
# Stress axis : x y z
#
# Youngs Moduli (GPa) = 48.61140 115.29520 109.78914
#
# Poissons Ratio (x) = 0.54928 -0.05138
# Poissons Ratio (y) = 0.23159 0.43999
# Poissons Ratio (z) = -0.02275 0.46206
#
# Static dielectric constant tensor:
#      x y z
#    x 3.752460 0.000000 -0.062620 
#    y 0.000000 3.732040 0.000000 
#    z -0.062620 0.000000 3.792040 
# 
# 
# High freq. dielectric constant tensor:
#      x y z
#    x 1.781940 0.000000 -0.001330 
#    y 0.000000 1.784970 0.000000 
#    z -0.001330 0.000000 1.803990 
# 
# From -- ./inp_files/48472.got.cif
#   From: 2010.06.25/outbox.cif.g09.slc.cpg/sg11_25_cif.got.tgz:48472.got - 2010.06.27 23:14:04.
