data_PCOD8077966
_publ_section_title
;
Structure prediction by ZEFSAII (Michael W. Deem and Ramdas Pophale) SiO2 
 PCOD8077966
Probable space group: P 21/M
;
_chemical_formula_sum "Si O2"
_cell_formula_units_Z 32
_cell_length_a 20.903150
_cell_length_b 17.749544
_cell_length_c 10.480208
_cell_angle_alpha 90.000000
_cell_angle_beta 149.034306
_cell_angle_gamma 90.000000
_cell_volume 2000.668392
_symmetry_space_group_name_H-M "P 21/M"
_symmetry_group_IT_number 11
_symmetry_cell_setting 'monoclinic'
loop_
_space_group_symop_operation_xyz
x,y,z
-x,1/2+y,-z
-x,-y,-z
x,1/2-y,z
loop_
_atom_site_type_symbol
_atom_site_label
_atom_site_fract_x
_atom_site_fract_y
_atom_site_fract_z
Si Si1 0.263344 0.666558 0.111074
Si Si2 0.128902 0.982136 0.878166
Si Si3 0.385147 0.063156 0.934865
Si Si4 0.638142 0.558030 0.621185
Si Si5 0.285459 0.665763 0.855449
Si Si6 0.525641 0.593521 0.176863
Si Si7 0.501856 0.099609 0.383997
Si Si8 0.147442 0.517520 0.610823
O O1 0.207004 0.750000 0.035703
O O2 0.381842 0.656202 0.405880
O O3 0.156060 0.605619 0.956856
O O4 0.313362 0.655304 0.052976
O O5 0.153584 0.998314 0.771892
O O6 0.988621 0.001227 0.677774
O O7 0.218181 0.035618 0.113697
O O8 0.402128 0.109073 0.832050
O O9 0.241454 0.039934 0.703702
O O10 0.429050 0.115863 0.127557
O O11 0.470404 0.989777 0.080903
O O12 0.622833 0.601520 0.460441
O O13 0.593377 0.611223 0.661051
O O14 0.550738 0.485338 0.470284
O O15 0.235558 0.750000 0.739652
O O16 0.182392 0.604280 0.637739
O O17 0.414300 0.653303 0.001265
#
# Coordination Sequence:
#
# PCOD8077966 Si02
#       8
#     4   4   4   4   4   4   4   4
#     4   9  16  26  43  66  89 113 147 191 231 272
#     4   9  16  26  44  66  88 120 157 188 223 267
#     4   9  16  26  42  65  90 111 138 186 222 261
#     4   9  14  24  42  64  84 109 143 182 218 259
#     4   9  16  27  44  64  88 116 148 188 230 275
#     4   9  16  26  42  65  88 111 142 177 228 266
#     4   9  14  24  42  62  86 109 138 178 227 261
#     4   9  16  27  43  66  89 118 158 189 222 267
#
# _framework density 15.994656000000001
#
# number of rings (size 3 to 8) (size 9 to 14) (size 15 to 20)
#    0.000    3.000    2.500    0.000    0.000    0.000 
#    0.000    1.250    0.000    3.000    0.000    0.000 
#    0.000    0.000    0.000    0.000    0.000    0.000 
#
# Total GULP energy -396636.291138 kJ/mol
# GULP energy per Si atom -12394.884098 kJ/mol
# Density = 1.595825 g / cm^3
# Si number density = 15.994656 Si / 1000 Ang^3
#
#
#
# Elastic Constant Matrix: (Units=GPa)
#
#
# Indices 1 2 3 4 5 6 
#
# 1 88.7292 28.5947 63.6752 0.0000 5.1706 0.0000
# 2 28.5947 63.2397 36.4251 0.0000 10.5518 0.0000
# 3 63.6752 36.4251 109.0304 0.0000 8.2174 0.0000
# 4 0.0000 0.0000 0.0000 11.3518 0.0000 1.6518
# 5 5.1706 10.5518 8.2174 0.0000 24.9438 0.0000
# 6 0.0000 0.0000 0.0000 1.6518 0.0000 11.9232
#
#
#
# Elastic Compliance Matrix: (Units=1/GPa)
#
#
# Indices 1 2 3 4 5 6 
#
# 1 0.019814 -0.002939 -0.010638 0.000000 0.000641 0.000000
# 2 -0.002939 0.021027 -0.004803 0.000000 -0.006703 0.000000
# 3 -0.010638 -0.004803 0.017094 0.000000 -0.001394 0.000000
# 4 0.000000 0.000000 0.000000 0.089904 0.000000 -0.012455
# 5 0.000641 -0.006703 -0.001394 0.000000 0.043252 0.000000
# 6 0.000000 0.000000 0.000000 -0.012455 0.000000 0.085596
#
#
# Mechanical properties :
#
#
# Convention : Reuss Voigt Hill
#
# Bulk Modulus (GPa) = 47.22544 57.59879 52.41212
# Shear Modulus (GPa) = 15.60032 18.46406 17.03219
#
# Velocity S-wave (km/s) = 3.12644 3.40132 3.26677
# Velocity P-wave (km/s) = 6.52861 7.17738 6.86066
#
# Compressibility (1/GPa) = 0.02117503
#
# Stress axis : x y z
#
# Youngs Moduli (GPa) = 50.46822 47.55867 58.49838
#
# Poissons Ratio (x) = 0.13976 0.62233
# Poissons Ratio (y) = 0.14831 0.28098
# Poissons Ratio (z) = 0.53690 0.22843
#
# Static dielectric constant tensor:
#      x y z
#    x 3.032510 0.000000 -0.156930 
#    y 0.000000 2.757650 0.000000 
#    z -0.156930 0.000000 3.041000 
# 
# 
# High freq. dielectric constant tensor:
#      x y z
#    x 1.593990 0.000000 -0.003830 
#    y 0.000000 1.579610 0.000000 
#    z -0.003830 0.000000 1.602660 
# 
# From -- ./inp_files/27114.got.cif
#   From: 2010.06.25/outbox.cif.g09.slc.cpg/sg11_14_cif.got.tgz:27114.got - 2010.06.27 23:14:04.
