data_PCOD8077012
_publ_section_title
;
Structure prediction by ZEFSAII (Michael W. Deem and Ramdas Pophale) SiO2 
 PCOD8077012
Probable space group: P 21/M
;
_chemical_formula_sum "Si O2"
_cell_formula_units_Z 32
_cell_length_a 11.424755
_cell_length_b 25.661534
_cell_length_c 5.118638
_cell_angle_alpha 90.000000
_cell_angle_beta 70.791932
_cell_angle_gamma 90.000000
_cell_volume 1417.123621
_symmetry_space_group_name_H-M "P 21/M"
_symmetry_group_IT_number 11
_symmetry_cell_setting 'monoclinic'
loop_
_space_group_symop_operation_xyz
x,y,z
-x,1/2+y,-z
-x,-y,-z
x,1/2-y,z
loop_
_atom_site_type_symbol
_atom_site_label
_atom_site_fract_x
_atom_site_fract_y
_atom_site_fract_z
Si Si1 0.162688 0.912083 0.475018
Si Si2 0.433202 0.616407 0.297897
Si Si3 0.115217 0.192992 0.133898
Si Si4 0.790979 0.616053 0.550219
Si Si5 0.463836 0.950250 0.767905
Si Si6 0.986211 0.115179 0.919659
Si Si7 0.294332 0.010845 0.204870
Si Si8 0.368741 0.190829 0.648826
O O1 0.284685 0.876804 0.441216
O O2 0.103392 0.886722 0.261525
O O3 0.193241 0.972781 0.404473
O O4 0.072576 0.914532 0.790571
O O5 0.475875 0.573947 0.476032
O O6 0.506562 0.670410 0.298531
O O7 0.464406 0.595400 0.986916
O O8 0.075567 0.250000 0.257946
O O9 0.110629 0.154023 0.381073
O O10 0.256525 0.192903 0.933292
O O11 0.016153 0.174704 0.988005
O O12 0.753578 0.570188 0.778711
O O13 0.670604 0.649164 0.547290
O O14 0.875722 0.591850 0.252817
O O15 0.582613 0.988204 0.703861
O O16 0.339111 0.985851 0.895041
O O17 0.392422 0.250000 0.522635
#
# Coordination Sequence:
#
# PCOD8077012 Si02
#       8
#     4   4   4   4   4   4   4   4
#     4  11  24  43  63  93 138 179 218 260 316 386
#     4  11  22  43  67  94 137 172 214 271 318 395
#     4  10  22  44  73  96 125 168 218 277 331 383
#     4  11  21  43  68 100 131 169 218 275 325 389
#     4  10  22  40  62  98 132 178 221 251 318 405
#     4  11  24  46  63  95 131 175 222 269 315 382
#     4  10  22  38  65 100 132 178 214 263 326 392
#     4  10  22  39  67 103 130 160 210 279 344 380
#
# _framework density 22.580952
#
# number of rings (size 3 to 8) (size 9 to 14) (size 15 to 20)
#    0.000    1.500    2.500    2.625    0.000    7.000 
#   13.500    1.250    0.000    0.000    0.000    0.000 
#    0.000    0.000    0.000    0.000    0.000    0.000 
#
# Total GULP energy -396478.525926 kJ/mol
# GULP energy per Si atom -12389.953935 kJ/mol
# Density = 2.252956 g / cm^3
# Si number density = 22.580952 Si / 1000 Ang^3
#
#
#
# Elastic Constant Matrix: (Units=GPa)
#
#
# Indices 1 2 3 4 5 6 
#
# 1 75.3231 59.3942 17.1799 0.0000 13.2785 0.0000
# 2 59.3942 138.9258 31.4893 0.0000 -7.8691 0.0000
# 3 17.1799 31.4893 80.4643 0.0000 3.2061 0.0000
# 4 0.0000 0.0000 0.0000 21.9081 0.0000 2.7149
# 5 13.2785 -7.8691 3.2061 0.0000 29.4650 0.0000
# 6 0.0000 0.0000 0.0000 2.7149 0.0000 27.7482
#
#
#
# Elastic Compliance Matrix: (Units=1/GPa)
#
#
# Indices 1 2 3 4 5 6 
#
# 1 0.024767 -0.011324 -0.000292 0.000000 -0.014154 0.000000
# 2 -0.011324 0.013257 -0.003128 0.000000 0.008984 0.000000
# 3 -0.000292 -0.003128 0.013802 0.000000 -0.002206 0.000000
# 4 0.000000 0.000000 0.000000 0.046206 0.000000 -0.004521
# 5 -0.014154 0.008984 -0.002206 0.000000 0.042956 0.000000
# 6 0.000000 0.000000 0.000000 -0.004521 0.000000 0.036481
#
#
# Mechanical properties :
#
#
# Convention : Reuss Voigt Hill
#
# Bulk Modulus (GPa) = 44.76816 56.76001 50.76409
# Shear Modulus (GPa) = 23.32028 28.26756 25.79392
#
# Velocity S-wave (km/s) = 3.21712 3.54196 3.38344
# Velocity P-wave (km/s) = 5.80245 6.47442 6.14762
#
# Compressibility (1/GPa) = 0.02233730
#
# Stress axis : x y z
#
# Youngs Moduli (GPa) = 40.37572 75.42959 72.45079
#
# Poissons Ratio (x) = 0.85417 0.02119
# Poissons Ratio (y) = 0.45722 0.22665
# Poissons Ratio (z) = 0.01181 0.23597
#
# Static dielectric constant tensor:
#      x y z
#    x 4.184580 0.000000 -0.113360 
#    y 0.000000 4.064170 0.000000 
#    z -0.113360 0.000000 4.127500 
# 
# 
# High freq. dielectric constant tensor:
#      x y z
#    x 1.882990 0.000000 -0.002870 
#    y 0.000000 1.871400 0.000000 
#    z -0.002870 0.000000 1.897350 
# 
# From -- ./inp_files/5455.got.cif
#   From: 2010.06.25/outbox.cif.g09.slc.cpg/sg11_3_cif.got.tgz:5455.got - 2010.06.27 23:14:04.
