data_PCOD8077626
_publ_section_title
;
Structure prediction by ZEFSAII (Michael W. Deem and Ramdas Pophale) SiO2 
 PCOD8077626
Probable space group: P 21/M
;
_chemical_formula_sum "Si O2"
_cell_formula_units_Z 20
_cell_length_a 20.090049
_cell_length_b 8.407786
_cell_length_c 8.837657
_cell_angle_alpha 90.000000
_cell_angle_beta 140.900293
_cell_angle_gamma 90.000000
_cell_volume 941.462934
_symmetry_space_group_name_H-M "P 21/M"
_symmetry_group_IT_number 11
_symmetry_cell_setting 'monoclinic'
loop_
_space_group_symop_operation_xyz
x,y,z
-x,1/2+y,-z
-x,-y,-z
x,1/2-y,z
loop_
_atom_site_type_symbol
_atom_site_label
_atom_site_fract_x
_atom_site_fract_y
_atom_site_fract_z
Si Si1 0.424242 0.063489 0.178206
Si Si2 0.221991 0.935549 0.715140
Si Si3 0.153840 0.432557 0.911890
Si Si4 0.028647 0.063862 0.213704
Si Si5 0.646959 0.069286 0.635582
O O1 0.409455 0.250000 0.191639
O O2 0.547164 0.029966 0.347894
O O3 0.397361 0.954216 0.274095
O O4 0.339971 0.009703 0.902165
O O5 0.224833 0.750000 0.684316
O O6 0.176648 0.964275 0.803408
O O7 0.149444 0.021694 0.463070
O O8 0.150271 0.250000 0.856825
O O9 0.042684 0.479856 0.785770
O O10 0.248457 0.461261 0.202078
O O11 0.008981 0.250000 0.185226
O O12 0.000000 0.000000 0.000000
O O13 0.683776 0.250000 0.677740
#
# Coordination Sequence:
#
# PCOD8077626 Si02
#       5
#     4   4   4   4   4
#     4   9  16  27  46  75 109 142 176 217 265 314
#     4  11  21  35  56  83 112 144 182 223 268 316
#     4  11  21  35  56  83 112 144 182 223 268 316
#     4  12  25  42  59  78 106 140 180 224 273 326
#     4   9  16  27  46  75 109 142 176 217 265 314
#
# _framework density 21.243532999999999
#
# number of rings (size 3 to 8) (size 9 to 14) (size 15 to 20)
#    0.000    1.600    0.000    9.600    0.000    2.400 
#    0.000    0.000    0.000    1.200    0.000    0.000 
#    0.000    0.000    0.000    0.000    0.000    0.000 
#
# Total GULP energy -247897.150419 kJ/mol
# GULP energy per Si atom -12394.857521 kJ/mol
# Density = 2.119518 g / cm^3
# Si number density = 21.243533 Si / 1000 Ang^3
#
#
#
# Elastic Constant Matrix: (Units=GPa)
#
#
# Indices 1 2 3 4 5 6 
#
# 1 7.7797 9.0960 21.0581 0.0000 -0.5022 0.0000
# 2 9.0960 85.2322 19.1922 0.0000 8.3288 0.0000
# 3 21.0581 19.1922 158.2416 0.0000 23.6531 0.0000
# 4 0.0000 0.0000 0.0000 38.5577 0.0000 6.8108
# 5 -0.5022 8.3288 23.6531 0.0000 25.7445 0.0000
# 6 0.0000 0.0000 0.0000 6.8108 0.0000 23.0110
#
#
#
# Elastic Compliance Matrix: (Units=1/GPa)
#
#
# Indices 1 2 3 4 5 6 
#
# 1 0.270341 -0.024658 -0.040532 0.000000 0.050490 0.000000
# 2 -0.024658 0.014510 0.002661 0.000000 -0.007620 0.000000
# 3 -0.040532 0.002661 0.013490 0.000000 -0.014046 0.000000
# 4 0.000000 0.000000 0.000000 0.027366 0.000000 -0.008100
# 5 0.050490 -0.007620 -0.014046 0.000000 0.055198 0.000000
# 6 0.000000 0.000000 0.000000 -0.008100 0.000000 0.045855
#
#
# Mechanical properties :
#
#
# Convention : Reuss Voigt Hill
#
# Bulk Modulus (GPa) = 5.77096 38.88291 22.32693
# Shear Modulus (GPa) = 8.20238 30.92311 19.56275
#
# Velocity S-wave (km/s) = 1.96711 3.81944 3.03789
# Velocity P-wave (km/s) = 2.80746 6.14768 4.77890
#
# Compressibility (1/GPa) = 0.17328140
#
# Stress axis : x y z
#
# Youngs Moduli (GPa) = 3.69903 68.91965 74.12862
#
# Poissons Ratio (x) = 1.69942 3.00459
# Poissons Ratio (y) = 0.09121 -0.19722
# Poissons Ratio (z) = 0.14993 -0.18336
#
# Static dielectric constant tensor:
#      x y z
#    x 3.377390 0.000000 0.669500 
#    y 0.000000 3.829390 0.000000 
#    z 0.669500 0.000000 4.669910 
# 
# 
# High freq. dielectric constant tensor:
#      x y z
#    x 1.770420 0.000000 0.043800 
#    y 0.000000 1.844910 0.000000 
#    z 0.043800 0.000000 1.854260 
# 
# From -- ./inp_files/26000.got.cif
#   From: 2010.06.25/outbox.cif.g09.slc.cpg/sg11_13_cif.got.tgz:26000.got - 2010.06.27 23:14:04.
