data_PCOD8077638
_publ_section_title
;
Structure prediction by ZEFSAII (Michael W. Deem and Ramdas Pophale) SiO2 
 PCOD8077638
Probable space group: P 21/M
;
_chemical_formula_sum "Si O2"
_cell_formula_units_Z 32
_cell_length_a 26.219383
_cell_length_b 9.179159
_cell_length_c 20.948935
_cell_angle_alpha 90.000000
_cell_angle_beta 159.004095
_cell_angle_gamma 90.000000
_cell_volume 1806.490167
_symmetry_space_group_name_H-M "P 21/M"
_symmetry_group_IT_number 11
_symmetry_cell_setting 'monoclinic'
loop_
_space_group_symop_operation_xyz
x,y,z
-x,1/2+y,-z
-x,-y,-z
x,1/2-y,z
loop_
_atom_site_type_symbol
_atom_site_label
_atom_site_fract_x
_atom_site_fract_y
_atom_site_fract_z
Si Si1 0.404248 0.578817 0.439680
Si Si2 0.108350 0.077640 0.080621
Si Si3 0.393464 0.920731 0.960552
Si Si4 0.016659 0.078229 0.327127
Si Si5 0.283981 0.578312 0.968808
Si Si6 0.911181 0.582975 0.087396
Si Si7 0.388536 0.084343 0.206672
Si Si8 0.700857 0.579368 0.272143
O O1 0.500000 0.500000 0.500000
O O2 0.389967 0.750000 0.406247
O O3 0.255897 0.498728 0.267237
O O4 0.470592 0.557484 0.587475
O O5 0.120190 0.250000 0.107636
O O6 0.055482 0.047252 0.946970
O O7 0.000000 0.000000 0.000000
O O8 0.366408 0.750000 0.921354
O O9 0.333409 0.979552 0.957582
O O10 0.304549 1.000000 0.801885
O O11 0.561316 0.957978 0.151166
O O12 0.020142 0.250000 0.323400
O O13 0.878430 0.028138 0.206581
O O14 0.159485 0.021369 0.528165
O O15 0.012171 0.011914 0.250954
O O16 0.298718 0.750000 0.989312
O O17 0.391429 0.514344 0.147008
O O18 0.942926 0.750000 0.140496
O O19 0.746187 0.543965 0.906503
O O20 0.378277 0.250000 0.171336
O O21 0.712057 0.750000 0.271563
#
# Coordination Sequence:
#
# PCOD8077638 Si02
#       8
#     4   4   4   4   4   4   4   4
#     4  11  21  36  59  84 110 144 186 230 274 327
#     4  11  23  40  57  80 112 146 184 230 280 330
#     4   9  18  33  51  71 100 132 164 205 252 301
#     4   9  18  32  51  75 100 130 170 209 251 306
#     4   9  18  32  50  74 102 132 167 210 255 302
#     4   9  18  35  55  75 105 139 173 216 264 315
#     4   9  18  34  54  78 106 136 173 218 264 313
#     4   9  18  33  51  71  99 132 167 205 248 303
#
# _framework density 17.713906999999999
#
# number of rings (size 3 to 8) (size 9 to 14) (size 15 to 20)
#    0.000    2.500    1.250    0.750    0.000    3.500 
#    2.250    0.000    0.000    0.000    0.000    0.000 
#    0.000    0.000    0.000    0.000    0.000    0.000 
#
# Total GULP energy -396809.625783 kJ/mol
# GULP energy per Si atom -12400.300806 kJ/mol
# Density = 1.767359 g / cm^3
# Si number density = 17.713907 Si / 1000 Ang^3
#
#
#
# Elastic Constant Matrix: (Units=GPa)
#
#
# Indices 1 2 3 4 5 6 
#
# 1 142.4309 57.3016 74.1693 0.0000 -8.7691 0.0000
# 2 57.3016 64.7342 56.7499 0.0000 -5.8800 0.0000
# 3 74.1693 56.7499 133.9617 0.0000 -9.9690 0.0000
# 4 0.0000 0.0000 0.0000 31.5785 0.0000 -5.9461
# 5 -8.7691 -5.8800 -9.9690 0.0000 23.8265 0.0000
# 6 0.0000 0.0000 0.0000 -5.9461 0.0000 31.7803
#
#
#
# Elastic Compliance Matrix: (Units=1/GPa)
#
#
# Indices 1 2 3 4 5 6 
#
# 1 0.011807 -0.007464 -0.003291 0.000000 0.001126 0.000000
# 2 -0.007464 0.029364 -0.008228 0.000000 0.001057 0.000000
# 3 -0.003291 -0.008228 0.012934 0.000000 0.002170 0.000000
# 4 0.000000 0.000000 0.000000 0.032824 0.000000 0.006141
# 5 0.001126 0.001057 0.002170 0.000000 0.043553 0.000000
# 6 0.000000 0.000000 0.000000 0.006141 0.000000 0.032615
#
#
# Mechanical properties :
#
#
# Convention : Reuss Voigt Hill
#
# Bulk Modulus (GPa) = 61.96386 79.72981 70.84684
# Shear Modulus (GPa) = 24.21968 27.63078 25.92523
#
# Velocity S-wave (km/s) = 3.70167 3.95376 3.82979
# Velocity P-wave (km/s) = 7.30247 8.12098 7.72258
#
# Compressibility (1/GPa) = 0.01613844
#
# Stress axis : x y z
#
# Youngs Moduli (GPa) = 84.69585 34.05536 77.31284
#
# Poissons Ratio (x) = 0.25417 0.25447
# Poissons Ratio (y) = 0.63213 0.63617
# Poissons Ratio (z) = 0.27877 0.28022
#
# Static dielectric constant tensor:
#      x y z
#    x 3.318470 0.000000 -0.073200 
#    y 0.000000 3.864350 0.000000 
#    z -0.073200 0.000000 3.317550 
# 
# 
# High freq. dielectric constant tensor:
#      x y z
#    x 1.681920 0.000000 -0.007280 
#    y 0.000000 1.685270 0.000000 
#    z -0.007280 0.000000 1.684120 
# 
# From -- ./inp_files/67148.got.cif
#   From: 2010.06.25/outbox.cif.g09.slc.cpg/sg11_34_cif.got.tgz:67148.got - 2010.06.27 23:14:04.
