data_PCOD8077174
_publ_section_title
;
Structure prediction by ZEFSAII (Michael W. Deem and Ramdas Pophale) SiO2 
 PCOD8077174
Probable space group: P 21/M
;
_chemical_formula_sum "Si O2"
_cell_formula_units_Z 32
_cell_length_a 20.986954
_cell_length_b 8.870968
_cell_length_c 14.150385
_cell_angle_alpha 90.000000
_cell_angle_beta 36.178734
_cell_angle_gamma 90.000000
_cell_volume 1555.127356
_symmetry_space_group_name_H-M "P 21/M"
_symmetry_group_IT_number 11
_symmetry_cell_setting 'monoclinic'
loop_
_space_group_symop_operation_xyz
x,y,z
-x,1/2+y,-z
-x,-y,-z
x,1/2-y,z
loop_
_atom_site_type_symbol
_atom_site_label
_atom_site_fract_x
_atom_site_fract_y
_atom_site_fract_z
Si Si1 0.737031 0.413589 0.877901
Si Si2 0.556404 0.930754 0.637797
Si Si3 0.936139 0.571302 0.297821
Si Si4 0.330721 0.426744 0.862912
Si Si5 0.223352 0.924134 0.656611
Si Si6 0.080932 0.927865 0.476782
Si Si7 0.837782 0.076844 0.062088
Si Si8 0.503006 0.911728 0.901051
O O1 0.782824 0.250000 0.858054
O O2 0.802280 0.466353 0.707439
O O3 0.741793 0.531284 0.958382
O O4 0.616428 0.390273 0.991727
O O5 0.555083 0.750000 0.632328
O O6 0.565868 0.985348 0.736930
O O7 0.446783 0.991598 0.721353
O O8 0.660323 0.000043 0.462615
O O9 0.924539 0.750000 0.313358
O O10 0.837953 0.505372 0.354993
O O11 0.929625 0.508143 0.410750
O O12 0.049568 0.520008 0.116640
O O13 0.351615 0.250000 0.835921
O O14 0.261711 0.476445 0.855123
O O15 0.240017 0.750000 0.609872
O O16 0.154088 0.942618 0.834896
O O17 0.060567 0.750000 0.513621
O O18 0.000000 0.000000 0.500000
O O19 0.815337 0.250000 0.061147
O O20 0.555483 0.750000 0.861608
O O21 0.500000 0.000000 0.000000
#
# Coordination Sequence:
#
# PCOD8077174 Si02
#       8
#     4   4   4   4   4   4   4   4
#     4   9  20  38  56  79 117 160 196 237 297 355
#     4  10  22  41  61  87 125 165 202 248 309 368
#     4  11  24  42  64  91 125 164 205 254 313 371
#     4  11  22  37  63  95 123 158 206 258 307 363
#     4  11  24  42  65  92 122 160 208 258 308 366
#     4  11  23  39  60  89 123 162 205 251 301 358
#     4  10  23  43  65  88 120 163 206 254 313 372
#     4   9  19  34  54  80 110 150 192 233 283 345
#
# _framework density 20.577092
#
# number of rings (size 3 to 8) (size 9 to 14) (size 15 to 20)
#    0.000    1.750    0.000    4.500    1.750    9.000 
#    0.000    0.000    0.000    0.000    0.000    0.000 
#    0.000    0.000    0.000    0.000    0.000    0.000 
#
# Total GULP energy -396728.097003 kJ/mol
# GULP energy per Si atom -12397.753031 kJ/mol
# Density = 2.053026 g / cm^3
# Si number density = 20.577092 Si / 1000 Ang^3
#
#
#
# Elastic Constant Matrix: (Units=GPa)
#
#
# Indices 1 2 3 4 5 6 
#
# 1 101.1707 48.2141 35.2370 0.0000 7.0773 0.0000
# 2 48.2141 110.7175 40.7011 0.0000 -2.8315 0.0000
# 3 35.2370 40.7011 119.6282 0.0000 2.1019 0.0000
# 4 0.0000 0.0000 0.0000 30.6519 0.0000 1.7796
# 5 7.0773 -2.8315 2.1019 0.0000 28.1570 0.0000
# 6 0.0000 0.0000 0.0000 1.7796 0.0000 32.7001
#
#
#
# Elastic Compliance Matrix: (Units=1/GPa)
#
#
# Indices 1 2 3 4 5 6 
#
# 1 0.013319 -0.005116 -0.002117 0.000000 -0.003704 0.000000
# 2 -0.005116 0.012336 -0.002738 0.000000 0.002731 0.000000
# 3 -0.002117 -0.002738 0.009923 0.000000 -0.000484 0.000000
# 4 0.000000 0.000000 0.000000 0.032728 0.000000 -0.001781
# 5 -0.003704 0.002731 -0.000484 0.000000 0.036757 0.000000
# 6 0.000000 0.000000 0.000000 -0.001781 0.000000 0.030678
#
#
# Mechanical properties :
#
#
# Convention : Reuss Voigt Hill
#
# Bulk Modulus (GPa) = 63.96017 64.42452 64.19235
# Shear Modulus (GPa) = 31.07579 32.12607 31.60093
#
# Velocity S-wave (km/s) = 3.89036 3.95556 3.92309
# Velocity P-wave (km/s) = 7.16453 7.22764 7.19615
#
# Compressibility (1/GPa) = 0.01563473
#
# Stress axis : x y z
#
# Youngs Moduli (GPa) = 75.07962 81.06042 100.77587
#
# Poissons Ratio (x) = 0.41474 0.21338
# Poissons Ratio (y) = 0.38414 0.27594
# Poissons Ratio (z) = 0.15897 0.22196
#
# Static dielectric constant tensor:
#      x y z
#    x 3.422860 0.000000 -0.082400 
#    y 0.000000 3.798620 0.000000 
#    z -0.082400 0.000000 4.223160 
# 
# 
# High freq. dielectric constant tensor:
#      x y z
#    x 1.802130 0.000000 0.003600 
#    y 0.000000 1.807010 0.000000 
#    z 0.003600 0.000000 1.816240 
# 
# From -- ./inp_files/54294.got.cif
#   From: 2010.06.25/outbox.cif.g09.slc.cpg/sg11_28_cif.got.tgz:54294.got - 2010.06.27 23:14:04.
