data_PCOD8077875
_publ_section_title
;
Structure prediction by ZEFSAII (Michael W. Deem and Ramdas Pophale) SiO2 
 PCOD8077875
Probable space group: P 21/M
;
_chemical_formula_sum "Si O2"
_cell_formula_units_Z 20
_cell_length_a 6.680231
_cell_length_b 13.532244
_cell_length_c 10.420749
_cell_angle_alpha 90.000000
_cell_angle_beta 76.794611
_cell_angle_gamma 90.000000
_cell_volume 917.110799
_symmetry_space_group_name_H-M "P 21/M"
_symmetry_group_IT_number 11
_symmetry_cell_setting 'monoclinic'
loop_
_space_group_symop_operation_xyz
x,y,z
-x,1/2+y,-z
-x,-y,-z
x,1/2-y,z
loop_
_atom_site_type_symbol
_atom_site_label
_atom_site_fract_x
_atom_site_fract_y
_atom_site_fract_z
Si Si1 0.166505 0.250000 0.028080
Si Si2 0.514399 0.589427 0.093083
Si Si3 0.943017 0.250000 0.568535
Si Si4 0.834374 0.250000 0.863057
Si Si5 0.470754 0.942123 0.687852
Si Si6 0.715707 0.750000 0.706638
Si Si7 0.205667 0.553418 0.506252
O O1 0.138383 0.250000 0.187881
O O2 0.287243 0.152997 0.968492
O O3 0.951942 0.250000 0.982325
O O4 0.305994 0.652533 0.120981
O O5 0.552675 0.538895 0.223210
O O6 0.500000 0.500000 0.000000
O O7 0.144558 0.250000 0.444440
O O8 0.990496 0.250000 0.716041
O O9 0.793870 0.157505 0.566399
O O10 0.562128 0.843773 0.740946
O O11 0.249121 0.922748 0.651186
O O12 0.630152 0.971766 0.555666
O O13 0.000000 0.500000 0.500000
#
# Coordination Sequence:
#
# PCOD8077875 Si02
#       7
#     2   4   2   2   4   2   4
#     4  11  27  45  69 104 138 178 234 279 345 406
#     4  11  24  46  71  96 135 184 232 275 340 412
#     4  12  24  43  70  97 143 171 229 280 340 415
#     4  11  27  45  69 105 140 181 225 287 340 405
#     4  11  24  42  68  94 136 174 224 279 338 398
#     4  12  24  45  68 104 135 180 228 284 345 404
#     4  11  24  42  64 101 132 175 220 277 342 404
#
# _framework density 21.807614000000001
#
# number of rings (size 3 to 8) (size 9 to 14) (size 15 to 20)
#    0.000    0.800    6.000    0.600    2.800    2.400 
#    0.000    0.000    0.000    0.000    0.000    0.000 
#    0.000    0.000    0.000    0.000    0.000    0.000 
#
# Total GULP energy -247783.598647 kJ/mol
# GULP energy per Si atom -12389.179932 kJ/mol
# Density = 2.175798 g / cm^3
# Si number density = 21.807614 Si / 1000 Ang^3
#
#
#
# Elastic Constant Matrix: (Units=GPa)
#
#
# Indices 1 2 3 4 5 6 
#
# 1 93.3951 36.4192 53.1314 0.0000 27.3482 0.0000
# 2 36.4192 151.6809 35.0875 0.0000 13.7641 0.0000
# 3 53.1314 35.0875 122.9369 0.0000 26.6598 0.0000
# 4 0.0000 0.0000 0.0000 39.3477 0.0000 5.4233
# 5 27.3482 13.7641 26.6598 0.0000 46.3720 0.0000
# 6 0.0000 0.0000 0.0000 5.4233 0.0000 18.1173
#
#
#
# Elastic Compliance Matrix: (Units=1/GPa)
#
#
# Indices 1 2 3 4 5 6 
#
# 1 0.016198 -0.002170 -0.005083 0.000000 -0.005987 0.000000
# 2 -0.002170 0.007396 -0.001113 0.000000 -0.000275 0.000000
# 3 -0.005083 -0.001113 0.011341 0.000000 -0.003192 0.000000
# 4 0.000000 0.000000 0.000000 0.026508 0.000000 -0.007935
# 5 -0.005987 -0.000275 -0.003192 0.000000 0.027012 0.000000
# 6 0.000000 0.000000 0.000000 -0.007935 0.000000 0.057571
#
#
# Mechanical properties :
#
#
# Convention : Reuss Voigt Hill
#
# Bulk Modulus (GPa) = 54.93756 68.58767 61.76261
# Shear Modulus (GPa) = 29.61605 36.99238 33.30422
#
# Velocity S-wave (km/s) = 3.68918 4.12309 3.91216
# Velocity P-wave (km/s) = 6.58737 7.36112 6.98496
#
# Compressibility (1/GPa) = 0.01820248
#
# Stress axis : x y z
#
# Youngs Moduli (GPa) = 61.73578 135.20090 88.17588
#
# Poissons Ratio (x) = 0.29341 0.44819
# Poissons Ratio (y) = 0.13398 0.09817
# Poissons Ratio (z) = 0.31380 0.15053
#
# Static dielectric constant tensor:
#      x y z
#    x 3.526090 0.000000 0.482490 
#    y 0.000000 8.408600 0.000000 
#    z 0.482490 0.000000 4.589580 
# 
# 
# High freq. dielectric constant tensor:
#      x y z
#    x 1.842040 0.000000 0.018400 
#    y 0.000000 1.882360 0.000000 
#    z 0.018400 0.000000 1.862890 
# 
# From -- ./inp_files/29643.got.cif
#   From: 2010.06.25/outbox.cif.g09.slc.cpg/sg11_15_cif.got.tgz:29643.got - 2010.06.27 23:14:04.
