data_PCOD8077134
_publ_section_title
;
Structure prediction by ZEFSAII (Michael W. Deem and Ramdas Pophale) SiO2 
 PCOD8077134
Probable space group: P 21/M
;
_chemical_formula_sum "Si O2"
_cell_formula_units_Z 20
_cell_length_a 5.618855
_cell_length_b 12.435615
_cell_length_c 11.322940
_cell_angle_alpha 90.000000
_cell_angle_beta 86.550381
_cell_angle_gamma 90.000000
_cell_volume 789.744635
_symmetry_space_group_name_H-M "P 21/M"
_symmetry_group_IT_number 11
_symmetry_cell_setting 'monoclinic'
loop_
_space_group_symop_operation_xyz
x,y,z
-x,1/2+y,-z
-x,-y,-z
x,1/2-y,z
loop_
_atom_site_type_symbol
_atom_site_label
_atom_site_fract_x
_atom_site_fract_y
_atom_site_fract_z
Si Si1 0.115094 0.875921 0.576743
Si Si2 0.068918 0.466729 0.189465
Si Si3 0.628346 0.626291 0.475678
Si Si4 0.421027 0.867181 0.242529
Si Si5 0.219084 0.131075 0.958191
O O1 0.130237 0.750000 0.548298
O O2 0.374263 0.927940 0.530653
O O3 0.089721 0.894732 0.718350
O O4 0.880151 0.923783 0.514448
O O5 0.231975 0.539443 0.269116
O O6 0.922458 0.541787 0.107665
O O7 0.227459 0.391024 0.098451
O O8 0.621467 0.750000 0.519615
O O9 0.632851 0.617593 0.332450
O O10 0.301310 0.750000 0.268993
O O11 0.515670 0.871857 0.104860
O O12 0.107700 0.250000 0.940814
#
# Coordination Sequence:
#
# PCOD8077134 Si02
#       5
#     4   4   4   4   4
#     4  10  22  41  64  96 133 172 212 262 318 376
#     4  11  23  38  66  91 124 162 217 265 318 382
#     4   9  21  40  64  93 133 174 211 257 318 379
#     4  10  22  40  63  90 126 167 209 262 318 382
#     4  10  23  43  62  89 123 164 213 267 325 381
#
# _framework density 25.324642000000001
#
# number of rings (size 3 to 8) (size 9 to 14) (size 15 to 20)
#    0.000    2.000    0.000    1.800    5.600    1.600 
#    0.000    0.000    0.000    0.000    0.000    0.000 
#    0.000    0.000    0.000    0.000    0.000    0.000 
#
# Total GULP energy -247921.383016 kJ/mol
# GULP energy per Si atom -12396.069151 kJ/mol
# Density = 2.526700 g / cm^3
# Si number density = 25.324642 Si / 1000 Ang^3
#
#
#
# Elastic Constant Matrix: (Units=GPa)
#
#
# Indices 1 2 3 4 5 6 
#
# 1 145.8113 55.8485 57.4600 0.0000 -7.9996 0.0000
# 2 55.8485 44.1787 17.9240 0.0000 -5.7383 0.0000
# 3 57.4600 17.9240 131.4637 0.0000 -22.9207 0.0000
# 4 0.0000 0.0000 0.0000 49.3110 0.0000 -6.1613
# 5 -7.9996 -5.7383 -22.9207 0.0000 40.8523 0.0000
# 6 0.0000 0.0000 0.0000 -6.1613 0.0000 46.3766
#
#
#
# Elastic Compliance Matrix: (Units=1/GPa)
#
#
# Indices 1 2 3 4 5 6 
#
# 1 0.015439 -0.017895 -0.004677 0.000000 -0.002114 0.000000
# 2 -0.017895 0.044808 0.002437 0.000000 0.004157 0.000000
# 3 -0.004677 0.002437 0.010218 0.000000 0.005160 0.000000
# 4 0.000000 0.000000 0.000000 0.020622 0.000000 0.002740
# 5 -0.002114 0.004157 0.005160 0.000000 0.027543 0.000000
# 6 0.000000 0.000000 0.000000 0.002740 0.000000 0.021927
#
#
# Mechanical properties :
#
#
# Convention : Reuss Voigt Hill
#
# Bulk Modulus (GPa) = 33.11684 64.87985 48.99834
# Shear Modulus (GPa) = 26.19286 39.98939 33.09112
#
# Velocity S-wave (km/s) = 3.21952 3.97806 3.61872
# Velocity P-wave (km/s) = 5.18900 6.83921 6.07044
#
# Compressibility (1/GPa) = 0.03019612
#
# Stress axis : x y z
#
# Youngs Moduli (GPa) = 64.77007 22.31741 97.86466
#
# Poissons Ratio (x) = 0.39936 0.45772
# Poissons Ratio (y) = 1.15903 -0.23849
# Poissons Ratio (z) = 0.30293 -0.05439
#
# Static dielectric constant tensor:
#      x y z
#    x 4.526660 0.000000 -0.300420 
#    y 0.000000 4.907730 0.000000 
#    z -0.300420 0.000000 4.654820 
# 
# 
# High freq. dielectric constant tensor:
#      x y z
#    x 1.993710 0.000000 -0.016520 
#    y 0.000000 2.044320 0.000000 
#    z -0.016520 0.000000 2.009270 
# 
# From -- ./inp_files/4163.got.cif
#   From: 2010.06.25/outbox.cif.g09.slc.cpg/sg11_3_cif.got.tgz:4163.got - 2010.06.27 23:14:04.
