data_PCOD8077884
_publ_section_title
;
Structure prediction by ZEFSAII (Michael W. Deem and Ramdas Pophale) SiO2 
 PCOD8077884
Probable space group: P 21/M
;
_chemical_formula_sum "Si O2"
_cell_formula_units_Z 20
_cell_length_a 4.963410
_cell_length_b 25.038381
_cell_length_c 7.740041
_cell_angle_alpha 90.000000
_cell_angle_beta 122.641566
_cell_angle_gamma 90.000000
_cell_volume 809.978280
_symmetry_space_group_name_H-M "P 21/M"
_symmetry_group_IT_number 11
_symmetry_cell_setting 'monoclinic'
loop_
_space_group_symop_operation_xyz
x,y,z
-x,1/2+y,-z
-x,-y,-z
x,1/2-y,z
loop_
_atom_site_type_symbol
_atom_site_label
_atom_site_fract_x
_atom_site_fract_y
_atom_site_fract_z
Si Si1 0.561903 0.853459 0.563705
Si Si2 0.790917 0.987539 0.261644
Si Si3 0.608806 0.384136 0.860597
Si Si4 0.241715 0.689125 0.782568
Si Si5 0.200918 0.449100 0.159615
O O1 0.415633 0.849502 0.322172
O O2 0.303295 0.833988 0.613183
O O3 0.864855 0.814693 0.686418
O O4 0.652284 0.915607 0.629845
O O5 0.679014 0.926741 0.229141
O O6 0.015220 0.998481 0.171096
O O7 0.494006 0.029737 0.141673
O O8 0.000000 0.000000 0.500000
O O9 0.564597 0.345583 0.009984
O O10 0.960186 0.410366 0.975401
O O11 0.355282 0.750000 0.837810
#
# Coordination Sequence:
#
# PCOD8077884 Si02
#       5
#     4   4   4   4   4
#     4  11  25  46  74 102 143 186 238 300 366 432
#     4  12  24  42  69 106 157 198 234 287 356 432
#     4  11  26  46  77 105 145 198 246 289 371 437
#     4  11  27  49  71 104 139 179 247 318 370 432
#     4  11  24  44  66 107 150 190 237 289 343 435
#
# _framework density 24.692017
#
# number of rings (size 3 to 8) (size 9 to 14) (size 15 to 20)
#    0.000    0.800    2.000    4.800    0.000    9.600 
#    0.000    0.000    0.000    0.000    0.000    0.000 
#    0.000    0.000    0.000    0.000    0.000    0.000 
#
# Total GULP energy -248182.945526 kJ/mol
# GULP energy per Si atom -12409.147276 kJ/mol
# Density = 2.463582 g / cm^3
# Si number density = 24.692017 Si / 1000 Ang^3
#
#
#
# Elastic Constant Matrix: (Units=GPa)
#
#
# Indices 1 2 3 4 5 6 
#
# 1 128.4018 37.5545 31.5460 0.0000 -21.7037 0.0000
# 2 37.5545 141.6012 47.5913 0.0000 -11.8768 0.0000
# 3 31.5460 47.5913 122.1978 0.0000 -28.7031 0.0000
# 4 0.0000 0.0000 0.0000 21.8526 0.0000 -3.2922
# 5 -21.7037 -11.8768 -28.7031 0.0000 43.9212 0.0000
# 6 0.0000 0.0000 0.0000 -3.2922 0.0000 33.6220
#
#
#
# Elastic Compliance Matrix: (Units=1/GPa)
#
#
# Indices 1 2 3 4 5 6 
#
# 1 0.009117 -0.001852 -0.000817 0.000000 0.003470 0.000000
# 2 -0.001852 0.008503 -0.002963 0.000000 -0.000552 0.000000
# 3 -0.000817 -0.002963 0.010946 0.000000 0.005948 0.000000
# 4 0.000000 0.000000 0.000000 0.046446 0.000000 0.004548
# 5 0.003470 -0.000552 0.005948 0.000000 0.028221 0.000000
# 6 0.000000 0.000000 0.000000 0.004548 0.000000 0.030188
#
#
# Mechanical properties :
#
#
# Convention : Reuss Voigt Hill
#
# Bulk Modulus (GPa) = 57.80164 69.50939 63.65552
# Shear Modulus (GPa) = 33.23316 38.24644 35.73980
#
# Velocity S-wave (km/s) = 3.67264 3.93993 3.80863
# Velocity P-wave (km/s) = 6.43772 6.99350 6.72136
#
# Compressibility (1/GPa) = 0.01730055
#
# Stress axis : x y z
#
# Youngs Moduli (GPa) = 109.68347 117.60708 91.36139
#
# Poissons Ratio (x) = 0.21784 0.07465
# Poissons Ratio (y) = 0.20317 0.27072
# Poissons Ratio (z) = 0.08962 0.34849
#
# Static dielectric constant tensor:
#      x y z
#    x 4.468940 0.000000 -0.003110 
#    y 0.000000 4.301050 0.000000 
#    z -0.003110 0.000000 4.708430 
# 
# 
# High freq. dielectric constant tensor:
#      x y z
#    x 1.995560 0.000000 -0.009480 
#    y 0.000000 1.962200 0.000000 
#    z -0.009480 0.000000 2.005780 
# 
# From -- ./inp_files/10557.got.cif
#   From: 2010.06.25/outbox.cif.g09.slc.cpg/sg11_6_cif.got.tgz:10557.got - 2010.06.27 23:14:04.
