data_PCOD8077912
_publ_section_title
;
Structure prediction by ZEFSAII (Michael W. Deem and Ramdas Pophale) SiO2 
 PCOD8077912
Probable space group: P 21/M
;
_chemical_formula_sum "Si O2"
_cell_formula_units_Z 16
_cell_length_a 9.531043
_cell_length_b 5.176855
_cell_length_c 13.800160
_cell_angle_alpha 90.000000
_cell_angle_beta 91.055872
_cell_angle_gamma 90.000000
_cell_volume 680.795698
_symmetry_space_group_name_H-M "P 21/M"
_symmetry_group_IT_number 11
_symmetry_cell_setting 'monoclinic'
loop_
_space_group_symop_operation_xyz
x,y,z
-x,1/2+y,-z
-x,-y,-z
x,1/2-y,z
loop_
_atom_site_type_symbol
_atom_site_label
_atom_site_fract_x
_atom_site_fract_y
_atom_site_fract_z
Si Si1 0.093780 0.250000 0.496285
Si Si2 0.273780 0.250000 0.688846
Si Si3 0.845875 0.750000 0.707523
Si Si4 0.474479 0.750000 0.433552
Si Si5 0.089079 0.750000 0.976131
Si Si6 0.850632 0.250000 0.238658
Si Si7 0.697723 0.250000 0.751407
Si Si8 0.581742 0.250000 0.957124
O O1 0.192496 0.250000 0.588576
O O2 0.201592 0.250000 0.405870
O O3 0.000000 0.500000 0.500000
O O4 0.433764 0.250000 0.662244
O O5 0.245774 0.501615 0.751132
O O6 0.793421 0.503189 0.767496
O O7 0.014135 0.750000 0.690041
O O8 0.500000 0.500000 0.500000
O O9 0.334559 0.750000 0.366267
O O10 0.081415 0.750000 0.862843
O O11 0.251652 0.750000 0.014177
O O12 0.000000 0.500000 0.000000
O O13 0.579925 0.250000 0.837382
O O14 0.500000 0.500000 0.000000
#
# Coordination Sequence:
#
# PCOD8077912 Si02
#       8
#     2   2   2   2   2   2   2   2
#     4  12  21  38  60  96 135 176 220 281 338 413
#     4  12  24  42  65 100 136 176 231 279 348 410
#     4  12  23  43  68 102 139 181 230 280 349 411
#     4  12  27  47  68  97 138 186 233 281 340 414
#     4  12  26  49  77 108 147 187 244 305 368 438
#     4  12  25  41  71 103 136 177 224 291 351 420
#     4  12  26  45  73  99 141 185 232 285 343 424
#     4  12  28  49  78 111 148 194 246 304 373 436
#
# _framework density 23.501909999999999
#
# number of rings (size 3 to 8) (size 9 to 14) (size 15 to 20)
#    0.000    0.000    2.500    8.250    3.500    0.000 
#    0.000    0.000    0.000    0.000    0.000    0.000 
#    0.000    0.000    0.000    0.000    0.000    0.000 
#
# Total GULP energy -198231.406169 kJ/mol
# GULP energy per Si atom -12389.462886 kJ/mol
# Density = 2.344842 g / cm^3
# Si number density = 23.501910 Si / 1000 Ang^3
#
#
#
# Elastic Constant Matrix: (Units=GPa)
#
#
# Indices 1 2 3 4 5 6 
#
# 1 88.5054 48.1247 9.2266 0.0000 -15.4658 0.0000
# 2 48.1247 240.3833 65.4338 0.0000 -34.1365 0.0000
# 3 9.2266 65.4338 136.0481 0.0000 -29.1599 0.0000
# 4 0.0000 0.0000 0.0000 48.5814 0.0000 -18.5332
# 5 -15.4658 -34.1365 -29.1599 0.0000 47.7297 0.0000
# 6 0.0000 0.0000 0.0000 -18.5332 0.0000 40.3491
#
#
#
# Elastic Compliance Matrix: (Units=1/GPa)
#
#
# Indices 1 2 3 4 5 6 
#
# 1 0.013061 -0.002436 0.000943 0.000000 0.003066 0.000000
# 2 -0.002436 0.005475 -0.002069 0.000000 0.001863 0.000000
# 3 0.000943 -0.002069 0.009240 0.000000 0.004471 0.000000
# 4 0.000000 0.000000 0.000000 0.024957 0.000000 0.011463
# 5 0.003066 0.001863 0.004471 0.000000 0.026008 0.000000
# 6 0.000000 0.000000 0.000000 0.011463 0.000000 0.030049
#
#
# Mechanical properties :
#
#
# Convention : Reuss Voigt Hill
#
# Bulk Modulus (GPa) = 48.42191 78.94523 63.68357
# Shear Modulus (GPa) = 40.71713 50.14217 45.42965
#
# Velocity S-wave (km/s) = 4.16685 4.62403 4.40138
# Velocity P-wave (km/s) = 6.61803 7.88497 7.27912
#
# Compressibility (1/GPa) = 0.02065181
#
# Stress axis : x y z
#
# Youngs Moduli (GPa) = 76.56499 182.63382 108.22818
#
# Poissons Ratio (x) = 0.44491 -0.10206
# Poissons Ratio (y) = 0.18652 0.22393
# Poissons Ratio (z) = -0.07220 0.37787
#
# Static dielectric constant tensor:
#      x y z
#    x 3.627290 0.000000 -0.009590 
#    y 0.000000 4.129250 0.000000 
#    z -0.009590 0.000000 4.546180 
# 
# 
# High freq. dielectric constant tensor:
#      x y z
#    x 1.930690 0.000000 -0.004360 
#    y 0.000000 1.948550 0.000000 
#    z -0.004360 0.000000 1.954650 
# 
# From -- ./inp_files/46365.got.cif
#   From: 2010.06.25/outbox.cif.g09.slc.cpg/sg11_24_cif.got.tgz:46365.got - 2010.06.27 23:14:04.
