data_PCOD8077407
_publ_section_title
;
Structure prediction by ZEFSAII (Michael W. Deem and Ramdas Pophale) SiO2 
 PCOD8077407
Probable space group: P 21/M
;
_chemical_formula_sum "Si O2"
_cell_formula_units_Z 32
_cell_length_a 11.852356
_cell_length_b 8.741686
_cell_length_c 15.373567
_cell_angle_alpha 90.000000
_cell_angle_beta 90.788193
_cell_angle_gamma 90.000000
_cell_volume 1592.698020
_symmetry_space_group_name_H-M "P 21/M"
_symmetry_group_IT_number 11
_symmetry_cell_setting 'monoclinic'
loop_
_space_group_symop_operation_xyz
x,y,z
-x,1/2+y,-z
-x,-y,-z
x,1/2-y,z
loop_
_atom_site_type_symbol
_atom_site_label
_atom_site_fract_x
_atom_site_fract_y
_atom_site_fract_z
Si Si1 0.624106 0.068643 0.497272
Si Si2 0.264661 0.076987 0.156167
Si Si3 0.732380 0.928449 0.153554
Si Si4 0.765779 0.078597 0.332597
Si Si5 0.513942 0.077456 0.091351
Si Si6 0.775082 0.430246 0.660867
Si Si7 0.875415 0.431224 0.999950
Si Si8 0.986905 0.921188 0.590896
O O1 0.616287 0.250000 0.499011
O O2 0.686161 0.015011 0.409290
O O3 0.696379 0.010436 0.580826
O O4 0.500000 0.000000 0.500000
O O5 0.217371 0.250000 0.155492
O O6 0.395710 0.074606 0.137274
O O7 0.261785 0.006605 0.250868
O O8 0.192503 0.981337 0.086402
O O9 0.744016 0.750000 0.133424
O O10 0.766567 0.963119 0.252319
O O11 0.603097 0.979980 0.146508
O O12 0.810793 0.016248 0.085849
O O13 0.725920 0.250000 0.304641
O O14 0.893199 0.086116 0.363561
O O15 0.559054 0.250000 0.080204
O O16 0.500000 0.000000 0.000000
O O17 0.766309 0.250000 0.670214
O O18 0.903895 0.477301 0.647538
O O19 0.885024 0.250000 0.000442
O O20 0.000000 0.500000 0.000000
O O21 0.937870 0.750000 0.579234
O O22 0.000000 0.000000 0.500000
#
# Coordination Sequence:
#
# PCOD8077407 Si02
#       8
#     4   4   4   4   4   4   4   4
#     4  10  23  43  64  91 129 169 212 263 319 377
#     4  11  25  44  67  98 131 170 217 266 322 386
#     4  12  26  43  66  98 132 170 218 267 323 388
#     4  10  23  44  65  91 128 170 214 267 322 379
#     4  11  23  42  69  96 129 168 215 269 323 383
#     4  11  24  43  65  95 131 169 214 267 324 383
#     4  12  26  46  70  95 131 173 215 267 324 386
#     4  11  22  41  68  94 126 166 214 268 324 384
#
# _framework density 20.091692999999999
#
# number of rings (size 3 to 8) (size 9 to 14) (size 15 to 20)
#    0.000    1.000    2.500    3.750    3.500    4.000 
#    0.000    0.000    0.000    0.000    0.000    0.000 
#    0.000    0.000    0.000    0.000    0.000    0.000 
#
# Total GULP energy -396894.397169 kJ/mol
# GULP energy per Si atom -12402.949912 kJ/mol
# Density = 2.004596 g / cm^3
# Si number density = 20.091693 Si / 1000 Ang^3
#
#
#
# Elastic Constant Matrix: (Units=GPa)
#
#
# Indices 1 2 3 4 5 6 
#
# 1 106.7779 50.3507 38.0363 0.0000 -0.6766 0.0000
# 2 50.3507 131.6223 63.6861 0.0000 -3.3421 0.0000
# 3 38.0363 63.6861 137.5283 0.0000 -3.8627 0.0000
# 4 0.0000 0.0000 0.0000 33.8388 0.0000 -0.3135
# 5 -0.6766 -3.3421 -3.8627 0.0000 28.8986 0.0000
# 6 0.0000 0.0000 0.0000 -0.3135 0.0000 36.9952
#
#
#
# Elastic Compliance Matrix: (Units=1/GPa)
#
#
# Indices 1 2 3 4 5 6 
#
# 1 0.011664 -0.003744 -0.001502 0.000000 -0.000361 0.000000
# 2 -0.003744 0.011001 -0.004041 0.000000 0.000645 0.000000
# 3 -0.001502 -0.004041 0.009580 0.000000 0.000778 0.000000
# 4 0.000000 0.000000 0.000000 0.029554 0.000000 0.000250
# 5 -0.000361 0.000645 0.000778 0.000000 0.034774 0.000000
# 6 0.000000 0.000000 0.000000 0.000250 0.000000 0.027033
#
#
# Mechanical properties :
#
#
# Convention : Reuss Voigt Hill
#
# Bulk Modulus (GPa) = 73.15038 75.56385 74.35711
# Shear Modulus (GPa) = 34.07476 34.87022 34.47249
#
# Velocity S-wave (km/s) = 4.12267 4.17052 4.14667
# Velocity P-wave (km/s) = 7.69085 7.80270 7.74698
#
# Compressibility (1/GPa) = 0.01367047
#
# Stress axis : x y z
#
# Youngs Moduli (GPa) = 85.73719 90.89828 104.38709
#
# Poissons Ratio (x) = 0.34033 0.15680
# Poissons Ratio (y) = 0.32101 0.42181
# Poissons Ratio (z) = 0.12879 0.36730
#
# Static dielectric constant tensor:
#      x y z
#    x 3.805200 0.000000 -0.224440 
#    y 0.000000 3.958850 0.000000 
#    z -0.224440 0.000000 4.208030 
# 
# 
# High freq. dielectric constant tensor:
#      x y z
#    x 1.797190 0.000000 -0.002270 
#    y 0.000000 1.795190 0.000000 
#    z -0.002270 0.000000 1.796340 
# 
# From -- ./inp_files/49320.got.cif
#   From: 2010.06.25/outbox.cif.g09.slc.cpg/sg11_25_cif.got.tgz:49320.got - 2010.06.27 23:14:04.
