data_PCOD8077159
_publ_section_title
;
Structure prediction by ZEFSAII (Michael W. Deem and Ramdas Pophale) SiO2 
 PCOD8077159
Probable space group: P 21/M
;
_chemical_formula_sum "Si O2"
_cell_formula_units_Z 24
_cell_length_a 15.930325
_cell_length_b 16.226981
_cell_length_c 7.629634
_cell_angle_alpha 90.000000
_cell_angle_beta 35.885164
_cell_angle_gamma 90.000000
_cell_volume 1156.070087
_symmetry_space_group_name_H-M "P 21/M"
_symmetry_group_IT_number 11
_symmetry_cell_setting 'monoclinic'
loop_
_space_group_symop_operation_xyz
x,y,z
-x,1/2+y,-z
-x,-y,-z
x,1/2-y,z
loop_
_atom_site_type_symbol
_atom_site_label
_atom_site_fract_x
_atom_site_fract_y
_atom_site_fract_z
Si Si1 0.334270 0.151442 0.549882
Si Si2 0.923415 0.424538 0.725243
Si Si3 0.407069 0.946684 0.032736
Si Si4 0.660585 0.976091 0.185906
Si Si5 0.051908 0.091903 0.871220
Si Si6 0.148834 0.658337 0.505522
O O1 0.323574 0.250000 0.571124
O O2 0.493818 0.122013 0.228892
O O3 0.303033 0.114491 0.798420
O O4 0.221535 0.109267 0.606438
O O5 0.898569 0.357146 0.615851
O O6 0.000000 0.500000 0.500000
O O7 0.775495 0.457203 0.064780
O O8 0.014051 0.386127 0.733083
O O9 0.329485 0.014857 0.040132
O O10 0.278268 0.900618 0.348709
O O11 0.500000 0.000000 0.000000
O O12 0.500000 0.000000 0.500000
O O13 0.978559 0.150629 0.139259
O O14 0.000000 0.000000 0.000000
O O15 0.208372 0.750000 0.412219
#
# Coordination Sequence:
#
# PCOD8077159 Si02
#       6
#     4   4   4   4   4   4
#     4  11  22  39  61  92 126 157 204 265 313 357
#     4  11  22  39  65  92 120 166 212 249 304 381
#     4  10  22  40  67  85 120 163 210 248 307 381
#     4   9  20  37  62  88 114 160 205 245 309 366
#     4  12  22  39  67  91 126 169 212 248 307 380
#     4  11  24  41  62  93 128 159 205 267 311 355
#
# _framework density 20.759986999999999
#
# number of rings (size 3 to 8) (size 9 to 14) (size 15 to 20)
#    0.000    1.333    3.333    2.000    4.667    1.333 
#    0.000    1.667    0.000    0.000    0.000    0.000 
#    0.000    0.000    0.000    0.000    0.000    0.000 
#
# Total GULP energy -297373.069654 kJ/mol
# GULP energy per Si atom -12390.544569 kJ/mol
# Density = 2.071274 g / cm^3
# Si number density = 20.759987 Si / 1000 Ang^3
#
#
#
# Elastic Constant Matrix: (Units=GPa)
#
#
# Indices 1 2 3 4 5 6 
#
# 1 126.2708 44.4195 19.5316 0.0000 -4.8863 0.0000
# 2 44.4195 100.3496 1.3196 0.0000 7.1426 0.0000
# 3 19.5316 1.3196 72.6393 0.0000 -5.4368 0.0000
# 4 0.0000 0.0000 0.0000 25.2473 0.0000 -6.4216
# 5 -4.8863 7.1426 -5.4368 0.0000 32.1393 0.0000
# 6 0.0000 0.0000 0.0000 -6.4216 0.0000 23.9223
#
#
#
# Elastic Compliance Matrix: (Units=1/GPa)
#
#
# Indices 1 2 3 4 5 6 
#
# 1 0.009973 -0.004533 -0.002441 0.000000 0.002111 0.000000
# 2 -0.004533 0.012195 0.000752 0.000000 -0.003272 0.000000
# 3 -0.002441 0.000752 0.014553 0.000000 0.001924 0.000000
# 4 0.000000 0.000000 0.000000 0.042511 0.000000 0.011411
# 5 0.002111 -0.003272 0.001924 0.000000 0.032488 0.000000
# 6 0.000000 0.000000 0.000000 0.011411 0.000000 0.044865
#
#
# Mechanical properties :
#
#
# Convention : Reuss Voigt Hill
#
# Bulk Modulus (GPa) = 41.18999 47.75569 44.47284
# Shear Modulus (GPa) = 28.22924 31.86105 30.04515
#
# Velocity S-wave (km/s) = 3.69153 3.92182 3.80842
# Velocity P-wave (km/s) = 6.16879 6.60009 6.38808
#
# Compressibility (1/GPa) = 0.02427774
#
# Stress axis : x y z
#
# Youngs Moduli (GPa) = 100.26732 82.00353 68.71250
#
# Poissons Ratio (x) = 0.37171 0.16775
# Poissons Ratio (y) = 0.45449 -0.05170
# Poissons Ratio (z) = 0.24479 -0.06170
#
# Static dielectric constant tensor:
#      x y z
#    x 5.094250 0.000000 1.194940 
#    y 0.000000 0.552440 0.000000 
#    z 1.194940 0.000000 5.570330 
# 
# 
# High freq. dielectric constant tensor:
#      x y z
#    x 1.821780 0.000000 -0.015980 
#    y 0.000000 1.787390 0.000000 
#    z -0.015980 0.000000 1.824250 
# 
# From -- ./inp_files/25092.got.cif
#   From: 2010.06.25/outbox.cif.g09.slc.cpg/sg11_13_cif.got.tgz:25092.got - 2010.06.27 23:14:04.
