data_PCOD8077347
_publ_section_title
;
Structure prediction by ZEFSAII (Michael W. Deem and Ramdas Pophale) SiO2 
 PCOD8077347
Probable space group: P 21/M
;
_chemical_formula_sum "Si O2"
_cell_formula_units_Z 28
_cell_length_a 22.312434
_cell_length_b 8.742546
_cell_length_c 8.913119
_cell_angle_alpha 90.000000
_cell_angle_beta 53.228528
_cell_angle_gamma 90.000000
_cell_volume 1392.717737
_symmetry_space_group_name_H-M "P 21/M"
_symmetry_group_IT_number 11
_symmetry_cell_setting 'monoclinic'
loop_
_space_group_symop_operation_xyz
x,y,z
-x,1/2+y,-z
-x,-y,-z
x,1/2-y,z
loop_
_atom_site_type_symbol
_atom_site_label
_atom_site_fract_x
_atom_site_fract_y
_atom_site_fract_z
Si Si1 0.140444 0.427009 0.465112
Si Si2 0.709915 0.072371 0.258241
Si Si3 0.567779 0.071605 0.988336
Si Si4 0.148864 0.071019 0.104707
Si Si5 0.429871 0.070043 0.689352
Si Si6 0.278970 0.925610 0.409780
Si Si7 0.001578 0.928913 0.834763
O O1 0.121517 0.250000 0.516595
O O2 0.146543 0.470272 0.282478
O O3 0.218351 0.464078 0.427538
O O4 0.074931 0.524321 0.635626
O O5 0.691447 0.250000 0.257170
O O6 0.715027 0.034281 0.425176
O O7 0.645177 0.969208 0.286504
O O8 0.787798 0.030950 0.065225
O O9 0.552902 0.250000 0.033675
O O10 0.576109 0.993496 0.135367
O O11 0.642060 0.038990 0.783421
O O12 0.500000 0.000000 0.000000
O O13 0.165381 0.250000 0.053037
O O14 0.070781 0.018504 0.149736
O O15 0.440615 0.250000 0.681135
O O16 0.500000 0.000000 0.500000
O O17 0.254848 0.750000 0.420977
O O18 0.002274 0.750000 0.855256
O O19 0.000000 0.000000 0.000000
#
# Coordination Sequence:
#
# PCOD8077347 Si02
#       7
#     4   4   4   4   4   4   4
#     4  11  23  39  61  88 119 156 201 248 298 355
#     4  11  23  40  63  91 122 158 201 249 302 362
#     4  11  23  41  65  93 126 164 206 253 306 364
#     4  10  23  41  60  87 121 159 201 247 299 358
#     4  12  25  42  64  91 124 161 205 255 307 366
#     4  10  23  41  61  88 122 159 200 246 299 359
#     4  11  23  40  62  88 121 157 198 246 299 358
#
# _framework density 20.104575000000001
#
# number of rings (size 3 to 8) (size 9 to 14) (size 15 to 20)
#    0.000    1.143    0.000    6.000    0.000   10.286 
#    0.000    0.000    0.000    0.000    0.000    0.000 
#    0.000    0.000    0.000    0.000    0.000    0.000 
#
# Total GULP energy -347408.981728 kJ/mol
# GULP energy per Si atom -12407.463633 kJ/mol
# Density = 2.005882 g / cm^3
# Si number density = 20.104575 Si / 1000 Ang^3
#
#
#
# Elastic Constant Matrix: (Units=GPa)
#
#
# Indices 1 2 3 4 5 6 
#
# 1 149.6024 54.0888 73.5858 0.0000 1.9729 0.0000
# 2 54.0888 89.9390 56.3896 0.0000 -1.0504 0.0000
# 3 73.5858 56.3896 146.2111 0.0000 10.1906 0.0000
# 4 0.0000 0.0000 0.0000 36.4358 0.0000 -3.1215
# 5 1.9729 -1.0504 10.1906 0.0000 37.9175 0.0000
# 6 0.0000 0.0000 0.0000 -3.1215 0.0000 36.6712
#
#
#
# Elastic Compliance Matrix: (Units=1/GPa)
#
#
# Indices 1 2 3 4 5 6 
#
# 1 0.009725 -0.003642 -0.003513 0.000000 0.000337 0.000000
# 2 -0.003642 0.016173 -0.004534 0.000000 0.001856 0.000000
# 3 -0.003513 -0.004534 0.010550 0.000000 -0.002778 0.000000
# 4 0.000000 0.000000 0.000000 0.027647 0.000000 0.002353
# 5 0.000337 0.001856 -0.002778 0.000000 0.027154 0.000000
# 6 0.000000 0.000000 0.000000 0.002353 0.000000 0.027470
#
#
# Mechanical properties :
#
#
# Convention : Reuss Voigt Hill
#
# Bulk Modulus (GPa) = 76.51333 83.76453 80.13893
# Shear Modulus (GPa) = 34.14067 35.65080 34.89573
#
# Velocity S-wave (km/s) = 4.12534 4.21559 4.17071
# Velocity P-wave (km/s) = 7.79946 8.09010 7.94611
#
# Compressibility (1/GPa) = 0.01306962
#
# Stress axis : x y z
#
# Youngs Moduli (GPa) = 102.83094 61.83072 94.78725
#
# Poissons Ratio (x) = 0.22517 0.33302
# Poissons Ratio (y) = 0.37448 0.42978
# Poissons Ratio (z) = 0.36128 0.28035
#
# Static dielectric constant tensor:
#      x y z
#    x 3.980000 0.000000 0.135810 
#    y 0.000000 3.846130 0.000000 
#    z 0.135810 0.000000 3.825430 
# 
# 
# High freq. dielectric constant tensor:
#      x y z
#    x 1.804500 0.000000 0.002100 
#    y 0.000000 1.794010 0.000000 
#    z 0.002100 0.000000 1.805920 
# 
# From -- ./inp_files/26109.got.cif
#   From: 2010.06.25/outbox.cif.g09.slc.cpg/sg11_14_cif.got.tgz:26109.got - 2010.06.27 23:14:04.
