data_PCOD8077331
_publ_section_title
;
Structure prediction by ZEFSAII (Michael W. Deem and Ramdas Pophale) SiO2 
 PCOD8077331
Probable space group: P 21/M
;
_chemical_formula_sum "Si O2"
_cell_formula_units_Z 28
_cell_length_a 9.010753
_cell_length_b 8.962958
_cell_length_c 28.620627
_cell_angle_alpha 90.000000
_cell_angle_beta 141.004979
_cell_angle_gamma 90.000000
_cell_volume 1454.510245
_symmetry_space_group_name_H-M "P 21/M"
_symmetry_group_IT_number 11
_symmetry_cell_setting 'monoclinic'
loop_
_space_group_symop_operation_xyz
x,y,z
-x,1/2+y,-z
-x,-y,-z
x,1/2-y,z
loop_
_atom_site_type_symbol
_atom_site_label
_atom_site_fract_x
_atom_site_fract_y
_atom_site_fract_z
Si Si1 0.577566 0.926196 0.794021
Si Si2 0.876068 0.424784 0.787495
Si Si3 0.333640 0.921083 0.495792
Si Si4 0.042924 0.923288 0.646216
Si Si5 0.583537 0.924027 0.067352
Si Si6 0.749466 0.427144 0.930036
Si Si7 0.733305 0.578899 0.660017
O O1 0.603402 0.750000 0.808818
O O2 0.313645 0.971568 0.715128
O O3 0.751784 0.976851 0.796187
O O4 0.639330 0.013566 0.855683
O O5 0.834243 0.250000 0.786722
O O6 0.772462 0.466929 0.711962
O O7 0.149988 0.468106 0.855452
O O8 0.312604 0.750000 0.476599
O O9 0.458796 0.939075 0.576957
O O10 0.500000 0.000000 0.500000
O O11 0.074130 0.993983 0.427333
O O12 0.013977 0.750000 0.629351
O O13 0.911504 0.967389 0.662106
O O14 0.555935 0.750000 0.052744
O O15 0.421322 0.978842 0.070128
O O16 0.500000 0.000000 0.000000
O O17 0.776667 0.250000 0.933918
O O18 0.000000 0.500000 0.000000
O O19 0.781683 0.750000 0.687152
#
# Coordination Sequence:
#
# PCOD8077331 Si02
#       7
#     4   4   4   4   4   4   4
#     4  11  23  39  58  82 113 149 186 230 281 331
#     4  11  23  38  56  81 111 146 187 229 273 328
#     4   9  17  30  52  81 112 144 183 230 280 333
#     4   9  19  35  56  82 111 144 186 232 281 334
#     4  10  23  40  59  84 113 144 181 224 270 321
#     4  11  23  40  61  87 116 147 185 228 275 329
#     4   9  18  34  55  81 110 142 181 227 277 330
#
# _framework density 19.250467
#
# number of rings (size 3 to 8) (size 9 to 14) (size 15 to 20)
#    0.000    2.000    0.000    4.286    0.000    8.571 
#    0.000    0.714    0.000    0.000    0.000    0.000 
#    0.000    0.000    0.000    0.000    0.000    0.000 
#
# Total GULP energy -347211.439178 kJ/mol
# GULP energy per Si atom -12400.408542 kJ/mol
# Density = 1.920665 g / cm^3
# Si number density = 19.250467 Si / 1000 Ang^3
#
#
#
# Elastic Constant Matrix: (Units=GPa)
#
#
# Indices 1 2 3 4 5 6 
#
# 1 115.8164 38.8445 69.6385 0.0000 10.9516 0.0000
# 2 38.8445 70.0530 63.4427 0.0000 7.0549 0.0000
# 3 69.6385 63.4427 151.4912 0.0000 8.1178 0.0000
# 4 0.0000 0.0000 0.0000 42.9201 0.0000 -2.1938
# 5 10.9516 7.0549 8.1178 0.0000 28.1818 0.0000
# 6 0.0000 0.0000 0.0000 -2.1938 0.0000 30.1188
#
#
#
# Elastic Compliance Matrix: (Units=1/GPa)
#
#
# Indices 1 2 3 4 5 6 
#
# 1 0.012476 -0.002533 -0.004518 0.000000 -0.002913 0.000000
# 2 -0.002533 0.023769 -0.008657 0.000000 -0.002472 0.000000
# 3 -0.004518 -0.008657 0.012283 0.000000 0.000385 0.000000
# 4 0.000000 0.000000 0.000000 0.023386 0.000000 0.001703
# 5 -0.002913 -0.002472 0.000385 0.000000 0.037124 0.000000
# 6 0.000000 0.000000 0.000000 0.001703 0.000000 0.033326
#
#
# Mechanical properties :
#
#
# Convention : Reuss Voigt Hill
#
# Bulk Modulus (GPa) = 58.44173 75.69023 67.06598
# Shear Modulus (GPa) = 27.85766 31.27314 29.56540
#
# Velocity S-wave (km/s) = 3.80822 4.03493 3.92322
# Velocity P-wave (km/s) = 7.05417 7.81739 7.44556
#
# Compressibility (1/GPa) = 0.01711106
#
# Stress axis : x y z
#
# Youngs Moduli (GPa) = 80.15372 42.07220 81.41322
#
# Poissons Ratio (x) = 0.10655 0.36785
# Poissons Ratio (y) = 0.20300 0.70482
# Poissons Ratio (z) = 0.36216 0.36423
#
# Static dielectric constant tensor:
#      x y z
#    x 3.154390 0.000000 -0.042060 
#    y 0.000000 3.611160 0.000000 
#    z -0.042060 0.000000 3.796670 
# 
# 
# High freq. dielectric constant tensor:
#      x y z
#    x 1.734590 0.000000 0.006470 
#    y 0.000000 1.755420 0.000000 
#    z 0.006470 0.000000 1.769200 
# 
# From -- ./inp_files/28335.got.cif
#   From: 2010.06.25/outbox.cif.g09.slc.cpg/sg11_15_cif.got.tgz:28335.got - 2010.06.27 23:14:04.
