data_PCOD8077444
_publ_section_title
;
Structure prediction by ZEFSAII (Michael W. Deem and Ramdas Pophale) SiO2 
 PCOD8077444
Probable space group: P 21/M
;
_chemical_formula_sum "Si O2"
_cell_formula_units_Z 22
_cell_length_a 7.506667
_cell_length_b 22.539545
_cell_length_c 5.432156
_cell_angle_alpha 90.000000
_cell_angle_beta 64.707606
_cell_angle_gamma 90.000000
_cell_volume 830.997779
_symmetry_space_group_name_H-M "P 21/M"
_symmetry_group_IT_number 11
_symmetry_cell_setting 'monoclinic'
loop_
_space_group_symop_operation_xyz
x,y,z
-x,1/2+y,-z
-x,-y,-z
x,1/2-y,z
loop_
_atom_site_type_symbol
_atom_site_label
_atom_site_fract_x
_atom_site_fract_y
_atom_site_fract_z
Si Si1 0.711105 0.471591 0.826986
Si Si2 0.424916 0.626743 0.392587
Si Si3 0.218295 0.250000 0.324470
Si Si4 0.133285 0.953449 0.756933
Si Si5 0.159671 0.148374 0.003675
Si Si6 0.927879 0.250000 0.874328
Si Si7 0.411715 0.750000 0.591429
O O1 0.669164 0.401124 0.804727
O O2 0.821817 0.495350 0.510765
O O3 0.500000 0.500000 0.000000
O O4 0.866038 0.484868 0.966062
O O5 0.333461 0.587068 0.668898
O O6 0.352421 0.694278 0.458933
O O7 0.661350 0.622091 0.263794
O O8 0.355549 0.250000 0.486734
O O9 0.260114 0.189485 0.153632
O O10 0.988341 0.250000 0.550667
O O11 0.951212 0.908666 0.817672
O O12 0.015289 0.189553 0.934963
O O13 0.697225 0.250000 0.077618
#
# Coordination Sequence:
#
# PCOD8077444 Si02
#       7
#     4   4   2   4   4   2   2
#     4  10  23  46  70  97 132 175 223 277 334 388
#     4  10  24  39  66  92 135 174 216 278 325 402
#     4  11  26  35  62  88 141 176 213 273 312 406
#     4  10  24  42  69  95 125 175 211 277 327 390
#     4  11  23  40  56 100 124 175 223 268 329 389
#     4  11  21  37  58  81 135 170 218 265 316 406
#     4  12  21  42  58  97 128 176 217 258 344 386
#
# _framework density 26.4742
#
# number of rings (size 3 to 8) (size 9 to 14) (size 15 to 20)
#    1.091    0.364    3.636    1.091    5.091    1.455 
#    0.000    2.727    0.000    0.000    0.000    0.000 
#    0.000    0.000    0.000    0.000    0.000    0.000 
#
# Total GULP energy -272542.338459 kJ/mol
# GULP energy per Si atom -12388.288112 kJ/mol
# Density = 2.641394 g / cm^3
# Si number density = 26.474200 Si / 1000 Ang^3
#
#
#
# Elastic Constant Matrix: (Units=GPa)
#
#
# Indices 1 2 3 4 5 6 
#
# 1 84.3665 15.8354 25.9876 0.0000 5.9116 0.0000
# 2 15.8354 93.3668 27.3764 0.0000 11.7721 0.0000
# 3 25.9876 27.3764 147.7726 0.0000 -10.9120 0.0000
# 4 0.0000 0.0000 0.0000 35.1452 0.0000 -9.2137
# 5 5.9116 11.7721 -10.9120 0.0000 54.3985 0.0000
# 6 0.0000 0.0000 0.0000 -9.2137 0.0000 27.6553
#
#
#
# Elastic Compliance Matrix: (Units=1/GPa)
#
#
# Indices 1 2 3 4 5 6 
#
# 1 0.012871 -0.001368 -0.002123 0.000000 -0.001529 0.000000
# 2 -0.001368 0.011945 -0.002185 0.000000 -0.002875 0.000000
# 3 -0.002123 -0.002185 0.007711 0.000000 0.002250 0.000000
# 4 0.000000 0.000000 0.000000 0.031176 0.000000 0.010387
# 5 -0.001529 -0.002875 0.002250 0.000000 0.019622 0.000000
# 6 0.000000 0.000000 0.000000 0.010387 0.000000 0.039620
#
#
# Mechanical properties :
#
#
# Convention : Reuss Voigt Hill
#
# Bulk Modulus (GPa) = 47.22156 51.54498 49.38327
# Shear Modulus (GPa) = 35.37158 40.52691 37.94924
#
# Velocity S-wave (km/s) = 3.65920 3.91680 3.79019
# Velocity P-wave (km/s) = 5.97734 6.32196 6.15207
#
# Compressibility (1/GPa) = 0.02117677
#
# Stress axis : x y z
#
# Youngs Moduli (GPa) = 77.69515 83.71378 129.67766
#
# Poissons Ratio (x) = 0.11450 0.27530
# Poissons Ratio (y) = 0.10627 0.28332
# Poissons Ratio (z) = 0.16494 0.18289
#
# Static dielectric constant tensor:
#      x y z
#    x 4.384920 0.000000 -0.433360 
#    y 0.000000 4.882590 0.000000 
#    z -0.433360 0.000000 5.166400 
# 
# 
# High freq. dielectric constant tensor:
#      x y z
#    x 2.050230 0.000000 -0.037080 
#    y 0.000000 2.062390 0.000000 
#    z -0.037080 0.000000 2.078830 
# 
# From -- ./inp_files/2895.got.cif
#   From: 2010.06.25/outbox.cif.g09.slc.cpg/sg11_2_cif.got.tgz:2895.got - 2010.06.27 23:14:04.
