data_PCOD8077505
_publ_section_title
;
Structure prediction by ZEFSAII (Michael W. Deem and Ramdas Pophale) SiO2 
 PCOD8077505
Probable space group: P 21/M
;
_chemical_formula_sum "Si O2"
_cell_formula_units_Z 24
_cell_length_a 5.002830
_cell_length_b 20.245798
_cell_length_c 11.704648
_cell_angle_alpha 90.000000
_cell_angle_beta 126.982409
_cell_angle_gamma 90.000000
_cell_volume 947.017629
_symmetry_space_group_name_H-M "P 21/M"
_symmetry_group_IT_number 11
_symmetry_cell_setting 'monoclinic'
loop_
_space_group_symop_operation_xyz
x,y,z
-x,1/2+y,-z
-x,-y,-z
x,1/2-y,z
loop_
_atom_site_type_symbol
_atom_site_label
_atom_site_fract_x
_atom_site_fract_y
_atom_site_fract_z
Si Si1 0.289239 0.750000 0.660003
Si Si2 0.637237 0.328019 0.741428
Si Si3 0.238315 0.889877 0.871370
Si Si4 0.718355 0.448092 0.895106
Si Si5 0.506547 0.437793 0.295236
Si Si6 0.964045 0.250000 0.165269
Si Si7 0.120011 0.639232 0.442279
O O1 0.673258 0.750000 0.800423
O O2 0.233510 0.686378 0.571242
O O3 0.016183 0.750000 0.690776
O O4 0.701225 0.250000 0.786559
O O5 0.862079 0.380056 0.872675
O O6 0.677498 0.342339 0.618772
O O7 0.268204 0.351724 0.684916
O O8 0.413628 0.891358 0.793823
O O9 0.864435 0.918792 0.758889
O O10 0.237488 0.815391 0.921143
O O11 0.442742 0.929606 0.022642
O O12 0.465942 0.485952 0.743329
O O13 0.000000 0.500000 0.000000
O O14 0.759062 0.430453 0.469397
#
# Coordination Sequence:
#
# PCOD8077505 Si02
#       7
#     2   4   4   4   4   2   4
#     4  12  20  38  62 102 144 162 220 270 342 404
#     4  12  26  44  70 102 138 176 218 281 345 400
#     4  11  22  39  66  97 133 172 230 276 331 385
#     4  10  27  49  69  95 138 185 233 275 330 401
#     4  11  23  42  68  98 131 180 220 276 330 401
#     4  12  20  34  66 102 128 180 220 280 334 398
#     4  12  23  41  69 101 137 172 220 278 342 406
#
# _framework density 25.342715999999999
#
# number of rings (size 3 to 8) (size 9 to 14) (size 15 to 20)
#    0.000    0.667    5.000    2.500    1.167    6.667 
#    0.000    0.000    0.000    0.000    0.000    0.000 
#    0.000    0.000    0.000    0.000    0.000    0.000 
#
# Total GULP energy -297334.477069 kJ/mol
# GULP energy per Si atom -12388.936545 kJ/mol
# Density = 2.528503 g / cm^3
# Si number density = 25.342716 Si / 1000 Ang^3
#
#
#
# Elastic Constant Matrix: (Units=GPa)
#
#
# Indices 1 2 3 4 5 6 
#
# 1 71.5527 15.3319 6.6938 0.0000 -4.9582 0.0000
# 2 15.3319 156.2411 62.6850 0.0000 1.7411 0.0000
# 3 6.6938 62.6850 69.1825 0.0000 -6.2716 0.0000
# 4 0.0000 0.0000 0.0000 111.1159 0.0000 -18.0793
# 5 -4.9582 1.7411 -6.2716 0.0000 16.8170 0.0000
# 6 0.0000 0.0000 0.0000 -18.0793 0.0000 30.6879
#
#
#
# Elastic Compliance Matrix: (Units=1/GPa)
#
#
# Indices 1 2 3 4 5 6 
#
# 1 0.014615 -0.001713 0.000563 0.000000 0.004697 0.000000
# 2 -0.001713 0.010612 -0.009930 0.000000 -0.005307 0.000000
# 3 0.000563 -0.009930 0.024329 0.000000 0.010267 0.000000
# 4 0.000000 0.000000 0.000000 0.009954 0.000000 0.005864
# 5 0.004697 -0.005307 0.010267 0.000000 0.065227 0.000000
# 6 0.000000 0.000000 0.000000 0.005864 0.000000 0.036041
#
#
# Mechanical properties :
#
#
# Convention : Reuss Voigt Hill
#
# Bulk Modulus (GPa) = 36.50125 51.82198 44.16161
# Shear Modulus (GPa) = 26.03236 45.87519 35.95378
#
# Velocity S-wave (km/s) = 3.20849 4.25925 3.77065
# Velocity P-wave (km/s) = 5.30662 6.68440 6.03496
#
# Compressibility (1/GPa) = 0.02739633
#
# Stress axis : x y z
#
# Youngs Moduli (GPa) = 68.42091 94.23528 41.10388
#
# Poissons Ratio (x) = 0.16138 -0.02316
# Poissons Ratio (y) = 0.11717 0.40818
# Poissons Ratio (z) = -0.03854 0.93580
#
# Static dielectric constant tensor:
#      x y z
#    x 4.520990 0.000000 -0.091360 
#    y 0.000000 5.392390 0.000000 
#    z -0.091360 0.000000 4.671870 
# 
# 
# High freq. dielectric constant tensor:
#      x y z
#    x 1.999010 0.000000 -0.022520 
#    y 0.000000 2.032940 0.000000 
#    z -0.022520 0.000000 2.001200 
# 
# From -- ./inp_files/29923.got.cif
#   From: 2010.06.25/outbox.cif.g09.slc.cpg/sg11_15_cif.got.tgz:29923.got - 2010.06.27 23:14:04.
