data_PCOD8077186
_publ_section_title
;
Structure prediction by ZEFSAII (Michael W. Deem and Ramdas Pophale) SiO2 
 PCOD8077186
Probable space group: P 21/M
;
_chemical_formula_sum "Si O2"
_cell_formula_units_Z 24
_cell_length_a 13.467122
_cell_length_b 8.918494
_cell_length_c 13.352819
_cell_angle_alpha 90.000000
_cell_angle_beta 133.208722
_cell_angle_gamma 90.000000
_cell_volume 1168.923330
_symmetry_space_group_name_H-M "P 21/M"
_symmetry_group_IT_number 11
_symmetry_cell_setting 'monoclinic'
loop_
_space_group_symop_operation_xyz
x,y,z
-x,1/2+y,-z
-x,-y,-z
x,1/2-y,z
loop_
_atom_site_type_symbol
_atom_site_label
_atom_site_fract_x
_atom_site_fract_y
_atom_site_fract_z
Si Si1 0.865971 0.915439 0.382518
Si Si2 0.369467 0.574412 0.669689
Si Si3 0.357380 0.573460 0.431969
Si Si4 0.071325 0.926084 0.144714
Si Si5 0.837195 0.914333 0.130995
Si Si6 0.435591 0.925581 0.054627
O O1 0.856828 0.750000 0.426899
O O2 0.867793 0.893916 0.266825
O O3 0.746315 0.022060 0.335051
O O4 0.000000 0.000000 0.500000
O O5 0.393587 0.750000 0.699426
O O6 0.331340 0.532301 0.529916
O O7 0.502903 0.487578 0.799267
O O8 0.500000 0.500000 0.500000
O O9 0.373059 0.750000 0.428437
O O10 0.225999 0.515244 0.276520
O O11 0.079300 0.750000 0.130936
O O12 0.975703 0.966502 0.172709
O O13 0.000000 0.000000 0.000000
O O14 0.790186 0.750000 0.056306
O O15 0.723223 0.040961 0.040433
O O16 0.462810 0.750000 0.063984
O O17 0.500000 0.000000 0.000000
#
# Coordination Sequence:
#
# PCOD8077186 Si02
#       6
#     4   4   4   4   4   4
#     4  11  22  37  61  90 123 164 208 259 321 386
#     4  11  23  41  64  91 127 167 212 265 323 383
#     4  10  24  45  68  95 129 170 216 270 327 389
#     4  10  23  44  67  94 128 168 216 269 324 386
#     4  10  22  41  63  88 126 168 211 261 319 382
#     4  12  24  39  62  95 131 169 213 260 317 386
#
# _framework density 20.531713
#
# number of rings (size 3 to 8) (size 9 to 14) (size 15 to 20)
#    0.000    1.333    1.667    3.500    2.333    6.000 
#    0.000    1.667    0.000    0.000    0.000    0.000 
#    0.000    0.000    0.000    0.000    0.000    0.000 
#
# Total GULP energy -297501.969856 kJ/mol
# GULP energy per Si atom -12395.915411 kJ/mol
# Density = 2.048498 g / cm^3
# Si number density = 20.531713 Si / 1000 Ang^3
#
#
#
# Elastic Constant Matrix: (Units=GPa)
#
#
# Indices 1 2 3 4 5 6 
#
# 1 121.7363 38.4095 54.6189 0.0000 11.6840 0.0000
# 2 38.4095 103.6831 60.3302 0.0000 2.9813 0.0000
# 3 54.6189 60.3302 157.0040 0.0000 13.4546 0.0000
# 4 0.0000 0.0000 0.0000 37.4184 0.0000 4.1715
# 5 11.6840 2.9813 13.4546 0.0000 35.7287 0.0000
# 6 0.0000 0.0000 0.0000 4.1715 0.0000 31.1229
#
#
#
# Elastic Compliance Matrix: (Units=1/GPa)
#
#
# Indices 1 2 3 4 5 6 
#
# 1 0.010273 -0.002284 -0.002505 0.000000 -0.002225 0.000000
# 2 -0.002284 0.012951 -0.004292 0.000000 0.001282 0.000000
# 3 -0.002505 -0.004292 0.009082 0.000000 -0.002243 0.000000
# 4 0.000000 0.000000 0.000000 0.027130 0.000000 -0.003636
# 5 -0.002225 0.001282 -0.002243 0.000000 0.029454 0.000000
# 6 0.000000 0.000000 0.000000 -0.003636 0.000000 0.032618
#
#
# Mechanical properties :
#
#
# Convention : Reuss Voigt Hill
#
# Bulk Modulus (GPa) = 70.70202 76.57116 73.63659
# Shear Modulus (GPa) = 34.62942 36.12497 35.37719
#
# Velocity S-wave (km/s) = 4.11132 4.19916 4.15547
# Velocity P-wave (km/s) = 7.55298 7.80292 7.67897
#
# Compressibility (1/GPa) = 0.01414387
#
# Stress axis : x y z
#
# Youngs Moduli (GPa) = 97.34524 77.21200 110.10366
#
# Poissons Ratio (x) = 0.17633 0.27586
# Poissons Ratio (y) = 0.22231 0.47258
# Poissons Ratio (z) = 0.24390 0.33140
#
# Static dielectric constant tensor:
#      x y z
#    x 3.789260 0.000000 0.055970 
#    y 0.000000 3.897350 0.000000 
#    z 0.055970 0.000000 3.938980 
# 
# 
# High freq. dielectric constant tensor:
#      x y z
#    x 1.804780 0.000000 0.005970 
#    y 0.000000 1.802640 0.000000 
#    z 0.005970 0.000000 1.814770 
# 
# From -- ./inp_files/51823.got.cif
#   From: 2010.06.25/outbox.cif.g09.slc.cpg/sg11_26_cif.got.tgz:51823.got - 2010.06.27 23:14:04.
