data_PCOD8077325
_publ_section_title
;
Structure prediction by ZEFSAII (Michael W. Deem and Ramdas Pophale) SiO2 
 PCOD8077325
Probable space group: P 21/M
;
_chemical_formula_sum "Si O2"
_cell_formula_units_Z 32
_cell_length_a 15.350500
_cell_length_b 22.037542
_cell_length_c 9.917990
_cell_angle_alpha 90.000000
_cell_angle_beta 152.303096
_cell_angle_gamma 90.000000
_cell_volume 1559.444947
_symmetry_space_group_name_H-M "P 21/M"
_symmetry_group_IT_number 11
_symmetry_cell_setting 'monoclinic'
loop_
_space_group_symop_operation_xyz
x,y,z
-x,1/2+y,-z
-x,-y,-z
x,1/2-y,z
loop_
_atom_site_type_symbol
_atom_site_label
_atom_site_fract_x
_atom_site_fract_y
_atom_site_fract_z
Si Si1 0.875710 0.453188 0.598368
Si Si2 0.289147 0.098638 0.116412
Si Si3 0.896219 0.063334 0.094762
Si Si4 0.611014 0.883425 0.454226
Si Si5 0.098737 0.180156 0.333425
Si Si6 0.227538 0.606181 0.806688
Si Si7 0.632858 0.475511 0.505667
Si Si8 0.133452 0.181385 0.685639
O O1 0.750772 0.432560 0.300452
O O2 0.753858 0.436095 0.563501
O O3 0.909233 0.525952 0.650139
O O4 0.082723 0.423529 0.878918
O O5 0.388150 0.128568 0.383270
O O6 0.419356 0.045994 0.231314
O O7 0.276545 0.146494 0.978267
O O8 0.840034 0.058454 0.173706
O O9 0.922513 0.133767 0.086718
O O10 0.732375 0.031470 0.785990
O O11 0.764461 0.840390 0.597390
O O12 0.639421 0.954943 0.467862
O O13 0.418688 0.863016 0.119528
O O14 0.033524 0.250000 0.220287
O O15 0.193911 0.173459 0.611810
O O16 0.078984 0.659698 0.582406
O O17 0.142088 0.250000 0.744367
#
# Coordination Sequence:
#
# PCOD8077325 Si02
#       8
#     4   4   4   4   4   4   4   4
#     4  11  22  38  61  93 129 170 206 247 322 385
#     4  11  23  40  65  95 130 163 209 259 315 384
#     4  11  19  41  61  88 129 170 204 259 322 379
#     4  12  22  39  61  98 130 162 205 261 323 377
#     4  10  23  40  63  88 120 165 217 263 310 374
#     4  10  23  36  62  95 126 162 209 266 312 376
#     4  12  23  38  63  97 136 163 205 262 323 384
#     4   9  22  46  65  84 123 173 214 260 317 370
#
# _framework density 20.520122000000001
#
# number of rings (size 3 to 8) (size 9 to 14) (size 15 to 20)
#    0.000    1.250    3.750    2.625    1.750    3.500 
#    0.000    0.625    0.000    0.000    0.000    0.000 
#    0.000    0.000    0.000    0.000    0.000    0.000 
#
# Total GULP energy -396655.659256 kJ/mol
# GULP energy per Si atom -12395.489352 kJ/mol
# Density = 2.047342 g / cm^3
# Si number density = 20.520122 Si / 1000 Ang^3
#
#
#
# Elastic Constant Matrix: (Units=GPa)
#
#
# Indices 1 2 3 4 5 6 
#
# 1 98.0812 19.2771 15.8091 0.0000 -4.7528 0.0000
# 2 19.2771 93.8505 14.5823 0.0000 -9.5325 0.0000
# 3 15.8091 14.5823 73.4539 0.0000 -10.8518 0.0000
# 4 0.0000 0.0000 0.0000 21.8310 0.0000 -2.2303
# 5 -4.7528 -9.5325 -10.8518 0.0000 26.5029 0.0000
# 6 0.0000 0.0000 0.0000 -2.2303 0.0000 28.4419
#
#
#
# Elastic Compliance Matrix: (Units=1/GPa)
#
#
# Indices 1 2 3 4 5 6 
#
# 1 0.010897 -0.001893 -0.001896 0.000000 0.000497 0.000000
# 2 -0.001893 0.011594 -0.001414 0.000000 0.003252 0.000000
# 3 -0.001896 -0.001414 0.015090 0.000000 0.005330 0.000000
# 4 0.000000 0.000000 0.000000 0.046176 0.000000 0.003621
# 5 0.000497 0.003252 0.005330 0.000000 0.041173 0.000000
# 6 0.000000 0.000000 0.000000 0.003621 0.000000 0.035443
#
#
# Mechanical properties :
#
#
# Convention : Reuss Voigt Hill
#
# Bulk Modulus (GPa) = 36.79812 40.52472 38.66142
# Shear Modulus (GPa) = 27.80260 29.73629 28.76945
#
# Velocity S-wave (km/s) = 3.68488 3.81087 3.74841
# Velocity P-wave (km/s) = 6.00634 6.25742 6.13316
#
# Compressibility (1/GPa) = 0.02717530
#
# Stress axis : x y z
#
# Youngs Moduli (GPa) = 91.76462 86.25092 66.26807
#
# Poissons Ratio (x) = 0.16330 0.12565
# Poissons Ratio (y) = 0.17374 0.09369
# Poissons Ratio (z) = 0.17400 0.12194
#
# Static dielectric constant tensor:
#      x y z
#    x 3.893890 0.000000 -0.093080 
#    y 0.000000 3.674600 0.000000 
#    z -0.093080 0.000000 3.752330 
# 
# 
# High freq. dielectric constant tensor:
#      x y z
#    x 1.814030 0.000000 -0.009810 
#    y 0.000000 1.780320 0.000000 
#    z -0.009810 0.000000 1.794890 
# 
# From -- ./inp_files/23355.got.cif
#   From: 2010.06.25/outbox.cif.g09.slc.cpg/sg11_12_cif.got.tgz:23355.got - 2010.06.27 23:14:04.
