data_PCOD8077415
_publ_section_title
;
Structure prediction by ZEFSAII (Michael W. Deem and Ramdas Pophale) SiO2 
 PCOD8077415
Probable space group: P 21/M
;
_chemical_formula_sum "Si O2"
_cell_formula_units_Z 32
_cell_length_a 16.118915
_cell_length_b 18.553208
_cell_length_c 12.091032
_cell_angle_alpha 90.000000
_cell_angle_beta 154.123831
_cell_angle_gamma 90.000000
_cell_volume 1578.085012
_symmetry_space_group_name_H-M "P 21/M"
_symmetry_group_IT_number 11
_symmetry_cell_setting 'monoclinic'
loop_
_space_group_symop_operation_xyz
x,y,z
-x,1/2+y,-z
-x,-y,-z
x,1/2-y,z
loop_
_atom_site_type_symbol
_atom_site_label
_atom_site_fract_x
_atom_site_fract_y
_atom_site_fract_z
Si Si1 0.149480 0.425765 0.790996
Si Si2 0.973621 0.924766 0.603814
Si Si3 0.421813 0.831309 0.434161
Si Si4 0.296197 0.415181 0.516321
Si Si5 0.164594 0.168778 0.156366
Si Si6 0.894317 0.333771 0.633070
Si Si7 0.674565 0.165817 0.926872
Si Si8 0.589300 0.421155 0.369133
O O1 0.135135 0.429233 0.642169
O O2 0.074629 0.499869 0.755256
O O3 0.024491 0.360392 0.688361
O O4 0.366674 0.413674 0.082600
O O5 0.816508 0.905541 0.505595
O O6 0.133677 0.863281 0.788275
O O7 0.369674 0.750000 0.409302
O O8 0.646213 0.839426 0.688529
O O9 0.316906 0.850642 0.193894
O O10 0.352806 0.886394 0.444117
O O11 0.164125 0.385156 0.259238
O O12 0.491678 0.371313 0.762507
O O13 0.343662 0.497290 0.547922
O O14 0.148972 0.250000 0.184770
O O15 0.992735 0.150504 0.869015
O O16 0.852916 0.250000 0.564009
O O17 0.696541 0.377863 0.399496
O O18 0.655727 0.250000 0.928080
#
# Coordination Sequence:
#
# PCOD8077415 Si02
#       8
#     4   4   4   4   4   4   4   4
#     4  11  25  46  66  90 128 171 219 268 320 379
#     4  11  25  45  68  90 125 175 218 264 323 382
#     4   9  19  37  61  91 133 171 202 256 325 387
#     4  11  23  39  65 101 128 166 217 268 320 385
#     4   9  20  39  62  90 135 172 201 263 326 383
#     4  11  24  42  64  96 132 170 215 264 324 384
#     4  10  23  43  65  96 133 170 212 265 327 383
#     4  12  23  38  66  99 127 171 215 264 323 386
#
# _framework density 20.277740000000001
#
# number of rings (size 3 to 8) (size 9 to 14) (size 15 to 20)
#    0.000    1.500    3.750    1.500    1.750    7.000 
#    0.000    0.000    0.000    0.000    0.000    0.000 
#    0.000    0.000    0.000    0.000    0.000    0.000 
#
# Total GULP energy -396940.558405 kJ/mol
# GULP energy per Si atom -12404.392450 kJ/mol
# Density = 2.023159 g / cm^3
# Si number density = 20.277740 Si / 1000 Ang^3
#
#
#
# Elastic Constant Matrix: (Units=GPa)
#
#
# Indices 1 2 3 4 5 6 
#
# 1 104.3172 51.7927 28.6121 0.0000 16.2199 0.0000
# 2 51.7927 127.7072 25.8783 0.0000 8.7883 0.0000
# 3 28.6121 25.8783 47.4580 0.0000 8.7693 0.0000
# 4 0.0000 0.0000 0.0000 27.9340 0.0000 -1.6373
# 5 16.2199 8.7883 8.7693 0.0000 23.0711 0.0000
# 6 0.0000 0.0000 0.0000 -1.6373 0.0000 22.7231
#
#
#
# Elastic Compliance Matrix: (Units=1/GPa)
#
#
# Indices 1 2 3 4 5 6 
#
# 1 0.014053 -0.004252 -0.004977 0.000000 -0.006368 0.000000
# 2 -0.004252 0.010148 -0.003020 0.000000 0.000272 0.000000
# 3 -0.004977 -0.003020 0.026737 0.000000 -0.005514 0.000000
# 4 0.000000 0.000000 0.000000 0.035950 0.000000 0.002590
# 5 -0.006368 0.000272 -0.005514 0.000000 0.049813 0.000000
# 6 0.000000 0.000000 0.000000 0.002590 0.000000 0.044195
#
#
# Mechanical properties :
#
#
# Convention : Reuss Voigt Hill
#
# Bulk Modulus (GPa) = 37.82220 54.67207 46.24714
# Shear Modulus (GPa) = 23.34169 26.29225 24.81697
#
# Velocity S-wave (km/s) = 3.39647 3.60475 3.50216
# Velocity P-wave (km/s) = 5.83728 6.65926 6.26177
#
# Compressibility (1/GPa) = 0.02643950
#
# Stress axis : x y z
#
# Youngs Moduli (GPa) = 71.16108 98.53834 37.40084
#
# Poissons Ratio (x) = 0.41903 0.18613
# Poissons Ratio (y) = 0.30261 0.11296
# Poissons Ratio (z) = 0.35415 0.29761
#
# Static dielectric constant tensor:
#      x y z
#    x 3.583320 0.000000 0.127400 
#    y 0.000000 3.771160 0.000000 
#    z 0.127400 0.000000 3.661320 
# 
# 
# High freq. dielectric constant tensor:
#      x y z
#    x 1.790800 0.000000 0.013760 
#    y 0.000000 1.800330 0.000000 
#    z 0.013760 0.000000 1.790850 
# 
# From -- ./inp_files/40021.got.cif
#   From: 2010.06.25/outbox.cif.g09.slc.cpg/sg11_21_cif.got.tgz:40021.got - 2010.06.27 23:14:04.
