data_PCOD8077810
_publ_section_title
;
Structure prediction by ZEFSAII (Michael W. Deem and Ramdas Pophale) SiO2 
 PCOD8077810
Probable space group: P 21/M
;
_chemical_formula_sum "Si O2"
_cell_formula_units_Z 32
_cell_length_a 29.274672
_cell_length_b 8.518438
_cell_length_c 12.094884
_cell_angle_alpha 90.000000
_cell_angle_beta 31.126625
_cell_angle_gamma 90.000000
_cell_volume 1559.144750
_symmetry_space_group_name_H-M "P 21/M"
_symmetry_group_IT_number 11
_symmetry_cell_setting 'monoclinic'
loop_
_space_group_symop_operation_xyz
x,y,z
-x,1/2+y,-z
-x,-y,-z
x,1/2-y,z
loop_
_atom_site_type_symbol
_atom_site_label
_atom_site_fract_x
_atom_site_fract_y
_atom_site_fract_z
Si Si1 0.020842 0.935509 0.629210
Si Si2 0.870641 0.435647 0.804765
Si Si3 0.928173 0.436920 0.233265
Si Si4 0.636636 0.570567 0.037715
Si Si5 0.452461 0.068105 0.372097
Si Si6 0.410719 0.933921 0.236422
Si Si7 0.327979 0.568134 0.805859
Si Si8 0.737014 0.931778 0.610391
O O1 0.020278 0.750000 0.632461
O O2 0.088930 0.999523 0.394955
O O3 0.048264 0.999885 0.692597
O O4 0.922856 0.994956 0.801320
O O5 0.877737 0.250000 0.792606
O O6 0.769710 0.491163 0.023562
O O7 0.924204 0.250000 0.238027
O O8 0.835352 0.507501 0.387702
O O9 0.000000 0.500000 0.000000
O O10 0.637553 0.750000 0.077273
O O11 0.541705 0.532387 0.182740
O O12 0.657048 0.453622 0.095217
O O13 0.711056 0.541551 0.791563
O O14 0.477210 0.250000 0.314186
O O15 0.393408 0.015875 0.390358
O O16 0.398872 0.036006 0.594826
O O17 0.421184 0.750000 0.231806
O O18 0.327192 0.967856 0.333321
O O19 0.500000 0.000000 0.000000
O O20 0.341419 0.750000 0.747945
O O21 0.729289 0.750000 0.593029
#
# Coordination Sequence:
#
# PCOD8077810 Si02
#       8
#     4   4   4   4   4   4   4   4
#     4   9  19  37  61  87 117 154 197 248 304 364
#     4   9  19  36  60  88 116 153 197 246 303 365
#     4  11  24  42  63  90 127 166 208 259 317 378
#     4  11  23  40  63  90 123 160 206 258 312 377
#     4  12  25  41  62  88 123 165 207 255 313 370
#     4  12  24  42  67  94 125 162 208 259 313 372
#     4  11  23  39  59  87 126 164 206 255 310 375
#     4  11  24  42  67  96 125 163 212 262 315 378
#
# _framework density 20.524073999999999
#
# number of rings (size 3 to 8) (size 9 to 14) (size 15 to 20)
#    0.000    1.250    1.250    4.875    0.000    5.500 
#    0.000    5.000    0.000    0.000    0.000    0.000 
#    0.000    0.000    0.000    0.000    0.000    0.000 
#
# Total GULP energy -397005.725098 kJ/mol
# GULP energy per Si atom -12406.428909 kJ/mol
# Density = 2.047736 g / cm^3
# Si number density = 20.524074 Si / 1000 Ang^3
#
#
#
# Elastic Constant Matrix: (Units=GPa)
#
#
# Indices 1 2 3 4 5 6 
#
# 1 101.4729 13.0847 36.1760 0.0000 -9.9471 0.0000
# 2 13.0847 55.5834 29.4657 0.0000 -0.8180 0.0000
# 3 36.1760 29.4657 114.9415 0.0000 -13.5061 0.0000
# 4 0.0000 0.0000 0.0000 28.8160 0.0000 -0.3360
# 5 -9.9471 -0.8180 -13.5061 0.0000 29.0634 0.0000
# 6 0.0000 0.0000 0.0000 -0.3360 0.0000 37.5605
#
#
#
# Elastic Compliance Matrix: (Units=1/GPa)
#
#
# Indices 1 2 3 4 5 6 
#
# 1 0.011298 -0.001031 -0.003005 0.000000 0.002442 0.000000
# 2 -0.001031 0.021025 -0.005328 0.000000 -0.002237 0.000000
# 3 -0.003005 -0.005328 0.011501 0.000000 0.004166 0.000000
# 4 0.000000 0.000000 0.000000 0.034707 0.000000 0.000310
# 5 0.002442 -0.002237 0.004166 0.000000 0.037116 0.000000
# 6 0.000000 0.000000 0.000000 0.000310 0.000000 0.026627
#
#
# Mechanical properties :
#
#
# Convention : Reuss Voigt Hill
#
# Bulk Modulus (GPa) = 39.84549 47.71673 43.78111
# Shear Modulus (GPa) = 29.52147 31.97274 30.74710
#
# Velocity S-wave (km/s) = 3.79672 3.95120 3.87473
# Velocity P-wave (km/s) = 6.21902 6.64196 6.43397
#
# Compressibility (1/GPa) = 0.02509694
#
# Stress axis : x y z
#
# Youngs Moduli (GPa) = 88.50841 47.56156 86.94660
#
# Poissons Ratio (x) = 0.04903 0.26126
# Poissons Ratio (y) = 0.09124 0.46328
# Poissons Ratio (z) = 0.26595 0.25343
#
# Static dielectric constant tensor:
#      x y z
#    x 3.892990 0.000000 -0.015180 
#    y 0.000000 3.664530 0.000000 
#    z -0.015180 0.000000 3.762790 
# 
# 
# High freq. dielectric constant tensor:
#      x y z
#    x 1.812090 0.000000 -0.002080 
#    y 0.000000 1.806390 0.000000 
#    z -0.002080 0.000000 1.802620 
# 
# From -- ./inp_files/45213.got.cif
#   From: 2010.06.25/outbox.cif.g09.slc.cpg/sg11_23_cif.got.tgz:45213.got - 2010.06.27 23:14:04.
