data_PCOD8077519
_publ_section_title
;
Structure prediction by ZEFSAII (Michael W. Deem and Ramdas Pophale) SiO2 
 PCOD8077519
Probable space group: P 21/M
;
_chemical_formula_sum "Si O2"
_cell_formula_units_Z 32
_cell_length_a 12.460686
_cell_length_b 14.520316
_cell_length_c 19.401065
_cell_angle_alpha 90.000000
_cell_angle_beta 26.509168
_cell_angle_gamma 90.000000
_cell_volume 1566.788518
_symmetry_space_group_name_H-M "P 21/M"
_symmetry_group_IT_number 11
_symmetry_cell_setting 'monoclinic'
loop_
_space_group_symop_operation_xyz
x,y,z
-x,1/2+y,-z
-x,-y,-z
x,1/2-y,z
loop_
_atom_site_type_symbol
_atom_site_label
_atom_site_fract_x
_atom_site_fract_y
_atom_site_fract_z
Si Si1 0.776418 0.519086 0.211193
Si Si2 0.120261 0.143090 0.978494
Si Si3 0.436645 0.897833 0.187669
Si Si4 0.273375 0.021739 0.474070
Si Si5 0.573786 0.903415 0.759252
Si Si6 0.856076 0.353419 0.770095
Si Si7 0.920157 0.349983 0.489441
Si Si8 0.114275 0.851436 0.092588
O O1 0.766209 0.588205 0.151283
O O2 0.500715 0.501405 0.392435
O O3 0.916066 0.570959 0.191589
O O4 0.892114 0.418268 0.131751
O O5 0.048652 0.250000 0.002181
O O6 0.318905 0.148154 0.925107
O O7 0.378749 0.869068 0.142560
O O8 0.206830 0.868789 0.364864
O O9 0.460740 0.006648 0.174542
O O10 0.388461 0.072633 0.342091
O O11 0.082074 0.083070 0.622853
O O12 0.141218 0.927359 0.530345
O O13 0.796208 0.845474 0.659548
O O14 0.323674 0.849840 0.914098
O O15 0.949127 0.250000 0.706679
O O16 0.776214 0.371752 0.894727
O O17 0.840173 0.250000 0.506706
O O18 0.993610 0.750000 0.160024
#
# Coordination Sequence:
#
# PCOD8077519 Si02
#       8
#     4   4   4   4   4   4   4   4
#     4  11  22  39  59  85 122 161 202 245 290 349
#     4  11  21  36  61  92 122 155 198 252 301 346
#     4  11  19  37  62  89 121 153 194 247 303 352
#     4  11  22  38  62  89 118 153 204 247 293 346
#     4  11  19  38  62  90 118 151 194 253 301 346
#     4  11  24  41  62  88 121 159 197 242 301 364
#     4  11  20  33  59  94 123 150 190 249 306 350
#     4  11  25  42  60  87 122 162 199 238 299 363
#
# _framework density 20.423943000000001
#
# number of rings (size 3 to 8) (size 9 to 14) (size 15 to 20)
#    0.000    1.000    6.250    3.375    0.000    2.500 
#    0.000    0.000    0.000    0.750    0.000    0.000 
#    0.000    0.000    0.000    0.000    0.000    0.000 
#
# Total GULP energy -396712.454311 kJ/mol
# GULP energy per Si atom -12397.264197 kJ/mol
# Density = 2.037746 g / cm^3
# Si number density = 20.423943 Si / 1000 Ang^3
#
#
#
# Elastic Constant Matrix: (Units=GPa)
#
#
# Indices 1 2 3 4 5 6 
#
# 1 90.0796 24.6475 21.6719 0.0000 -14.0806 0.0000
# 2 24.6475 124.1007 17.5209 0.0000 -0.3909 0.0000
# 3 21.6719 17.5209 45.8947 0.0000 -11.1061 0.0000
# 4 0.0000 0.0000 0.0000 24.2564 0.0000 -4.2080
# 5 -14.0806 -0.3909 -11.1061 0.0000 32.8051 0.0000
# 6 0.0000 0.0000 0.0000 -4.2080 0.0000 27.9860
#
#
#
# Elastic Compliance Matrix: (Units=1/GPa)
#
#
# Indices 1 2 3 4 5 6 
#
# 1 0.013399 -0.002006 -0.004548 0.000000 0.004187 0.000000
# 2 -0.002006 0.008853 -0.002849 0.000000 -0.001720 0.000000
# 3 -0.004548 -0.002849 0.026734 0.000000 0.007065 0.000000
# 4 0.000000 0.000000 0.000000 0.042330 0.000000 0.006365
# 5 0.004187 -0.001720 0.007065 0.000000 0.034652 0.000000
# 6 0.000000 0.000000 0.000000 0.006365 0.000000 0.036689
#
#
# Mechanical properties :
#
#
# Convention : Reuss Voigt Hill
#
# Bulk Modulus (GPa) = 33.13402 43.08396 38.10899
# Shear Modulus (GPa) = 26.10661 30.09183 28.09922
#
# Velocity S-wave (km/s) = 3.57912 3.84260 3.71320
# Velocity P-wave (km/s) = 5.77395 6.38969 6.08960
#
# Compressibility (1/GPa) = 0.03018046
#
# Stress axis : x y z
#
# Youngs Moduli (GPa) = 74.63320 112.95431 37.40588
#
# Poissons Ratio (x) = 0.22657 0.17012
# Poissons Ratio (y) = 0.14970 0.10656
# Poissons Ratio (z) = 0.33943 0.32179
#
# Static dielectric constant tensor:
#      x y z
#    x 3.693200 0.000000 -0.239280 
#    y 0.000000 5.257560 0.000000 
#    z -0.239280 0.000000 3.508690 
# 
# 
# High freq. dielectric constant tensor:
#      x y z
#    x 1.789420 0.000000 -0.024470 
#    y 0.000000 1.814390 0.000000 
#    z -0.024470 0.000000 1.769060 
# 
# From -- ./inp_files/59474.got.cif
#   From: 2010.06.25/outbox.cif.g09.slc.cpg/sg11_30_cif.got.tgz:59474.got - 2010.06.27 23:14:04.
