data_PCOD8077885
_publ_section_title
;
Structure prediction by ZEFSAII (Michael W. Deem and Ramdas Pophale) SiO2 
 PCOD8077885
Probable space group: P 21/M
;
_chemical_formula_sum "Si O2"
_cell_formula_units_Z 20
_cell_length_a 24.048292
_cell_length_b 8.354923
_cell_length_c 7.808736
_cell_angle_alpha 90.000000
_cell_angle_beta 36.589585
_cell_angle_gamma 90.000000
_cell_volume 935.214434
_symmetry_space_group_name_H-M "P 21/M"
_symmetry_group_IT_number 11
_symmetry_cell_setting 'monoclinic'
loop_
_space_group_symop_operation_xyz
x,y,z
-x,1/2+y,-z
-x,-y,-z
x,1/2-y,z
loop_
_atom_site_type_symbol
_atom_site_label
_atom_site_fract_x
_atom_site_fract_y
_atom_site_fract_z
Si Si1 0.100101 0.936013 0.303460
Si Si2 0.715022 0.936004 0.290553
Si Si3 0.723476 0.435166 0.625355
Si Si4 0.604369 0.939898 0.230396
Si Si5 0.094384 0.063964 0.686020
O O1 0.108517 0.750000 0.238683
O O2 0.118538 0.964811 0.457174
O O3 0.000000 0.000000 0.500000
O O4 0.175561 0.031169 0.006124
O O5 0.696697 0.750000 0.363122
O O6 0.658154 0.000150 0.266996
O O7 0.679233 0.027384 0.548728
O O8 0.748288 0.250000 0.580490
O O9 0.818958 0.537268 0.401508
O O10 0.649845 0.482441 0.951454
O O11 0.610108 0.750000 0.199409
O O12 0.500000 0.000000 0.500000
O O13 0.083432 0.250000 0.668280
O O14 0.000000 0.000000 0.000000
#
# Coordination Sequence:
#
# PCOD8077885 Si02
#       5
#     4   4   4   4   4
#     4  12  24  40  63  94 133 177 224 275 333 398
#     4  11  24  44  69  98 135 178 224 277 337 400
#     4  12  25  43  69 100 136 177 224 279 339 403
#     4  11  25  46  73 101 135 177 226 283 343 404
#     4  12  24  41  63  93 133 177 225 276 333 399
#
# _framework density 21.385469000000001
#
# number of rings (size 3 to 8) (size 9 to 14) (size 15 to 20)
#    0.000    0.400    2.000    7.800    0.000    3.200 
#    0.000    0.000    0.000    0.000    0.000    0.000 
#    0.000    0.000    0.000    0.000    0.000    0.000 
#
# Total GULP energy -248164.530719 kJ/mol
# GULP energy per Si atom -12408.226536 kJ/mol
# Density = 2.133679 g / cm^3
# Si number density = 21.385469 Si / 1000 Ang^3
#
#
#
# Elastic Constant Matrix: (Units=GPa)
#
#
# Indices 1 2 3 4 5 6 
#
# 1 126.9821 23.8718 67.7877 0.0000 14.6160 0.0000
# 2 23.8718 81.2037 25.0173 0.0000 1.7906 0.0000
# 3 67.7877 25.0173 145.1130 0.0000 3.7704 0.0000
# 4 0.0000 0.0000 0.0000 40.2533 0.0000 2.7664
# 5 14.6160 1.7906 3.7704 0.0000 44.5359 0.0000
# 6 0.0000 0.0000 0.0000 2.7664 0.0000 32.7847
#
#
#
# Elastic Compliance Matrix: (Units=1/GPa)
#
#
# Indices 1 2 3 4 5 6 
#
# 1 0.011140 -0.001718 -0.004825 0.000000 -0.003178 0.000000
# 2 -0.001718 0.013275 -0.001490 0.000000 0.000156 0.000000
# 3 -0.004825 -0.001490 0.009380 0.000000 0.000849 0.000000
# 4 0.000000 0.000000 0.000000 0.024988 0.000000 -0.002108
# 5 -0.003178 0.000156 0.000849 0.000000 0.023419 0.000000
# 6 0.000000 0.000000 0.000000 -0.002108 0.000000 0.030680
#
#
# Mechanical properties :
#
#
# Convention : Reuss Voigt Hill
#
# Bulk Modulus (GPa) = 56.40625 65.18358 60.79492
# Shear Modulus (GPa) = 37.07619 39.28957 38.18288
#
# Velocity S-wave (km/s) = 4.16830 4.29092 4.23005
# Velocity P-wave (km/s) = 7.04269 7.42265 7.23517
#
# Compressibility (1/GPa) = 0.01772853
#
# Stress axis : x y z
#
# Youngs Moduli (GPa) = 89.76878 75.32701 106.61058
#
# Poissons Ratio (x) = 0.12943 0.51439
# Poissons Ratio (y) = 0.15424 0.15886
# Poissons Ratio (z) = 0.43313 0.11224
#
# Static dielectric constant tensor:
#      x y z
#    x 4.167710 0.000000 0.128910 
#    y 0.000000 4.007400 0.000000 
#    z 0.128910 0.000000 3.734010 
# 
# 
# High freq. dielectric constant tensor:
#      x y z
#    x 1.850870 0.000000 0.009590 
#    y 0.000000 1.850960 0.000000 
#    z 0.009590 0.000000 1.843210 
# 
# From -- ./inp_files/27978.got.cif
#   From: 2010.06.25/outbox.cif.g09.slc.cpg/sg11_14_cif.got.tgz:27978.got - 2010.06.27 23:14:04.
