data_PCOD8077366
_publ_section_title
;
Structure prediction by ZEFSAII (Michael W. Deem and Ramdas Pophale) SiO2 
 PCOD8077366
Probable space group: P 21/M
;
_chemical_formula_sum "Si O2"
_cell_formula_units_Z 32
_cell_length_a 14.628167
_cell_length_b 17.551646
_cell_length_c 12.267516
_cell_angle_alpha 90.000000
_cell_angle_beta 27.868583
_cell_angle_gamma 90.000000
_cell_volume 1472.295724
_symmetry_space_group_name_H-M "P 21/M"
_symmetry_group_IT_number 11
_symmetry_cell_setting 'monoclinic'
loop_
_space_group_symop_operation_xyz
x,y,z
-x,1/2+y,-z
-x,-y,-z
x,1/2-y,z
loop_
_atom_site_type_symbol
_atom_site_label
_atom_site_fract_x
_atom_site_fract_y
_atom_site_fract_z
Si Si1 0.780816 0.468154 0.715944
Si Si2 0.948125 0.419293 0.334352
Si Si3 0.665508 0.610169 0.953662
Si Si4 0.620678 0.162802 0.572222
Si Si5 0.017043 0.953980 0.094433
Si Si6 0.341629 0.834031 0.713219
Si Si7 0.526566 0.165327 0.047915
Si Si8 0.304218 0.164803 0.496973
O O1 0.770987 0.451998 0.596758
O O2 0.634153 0.531541 0.918509
O O3 0.000000 0.500000 0.500000
O O4 0.718381 0.389193 0.841160
O O5 0.846482 0.358308 0.361581
O O6 0.111569 0.378943 0.238842
O O7 0.046507 0.486763 0.161850
O O8 0.594966 0.671057 0.938022
O O9 0.531204 0.611240 0.201843
O O10 0.583303 0.250000 0.642452
O O11 0.580191 0.145227 0.489111
O O12 0.833128 0.900237 0.309955
O O13 0.201891 0.899769 0.901788
O O14 0.000000 0.000000 0.000000
O O15 0.239058 0.750000 0.816651
O O16 0.517987 0.830631 0.608780
O O17 0.606587 0.250000 0.989653
O O18 0.378248 0.139319 0.299524
O O19 0.207018 0.250000 0.593536
#
# Coordination Sequence:
#
# PCOD8077366 Si02
#       8
#     4   4   4   4   4   4   4   4
#     4  10  23  41  65  95 134 176 213 270 339 391
#     4  11  25  42  63 100 132 173 216 272 336 389
#     4  11  24  41  68  96 133 177 216 270 340 401
#     4  11  24  42  65  97 134 174 221 272 332 397
#     4  12  25  41  67  99 132 174 227 274 329 396
#     4  10  24  45  68  94 133 179 220 274 335 392
#     4  11  23  43  70  99 132 179 230 278 332 399
#     4  10  25  46  70  96 132 178 224 278 333 392
#
# _framework density 21.734764999999999
#
# number of rings (size 3 to 8) (size 9 to 14) (size 15 to 20)
#    0.000    1.250    2.500    1.875    7.000    1.500 
#    0.000    3.750    0.000    0.000    0.000    0.000 
#    0.000    0.000    0.000    0.000    0.000    0.000 
#
# Total GULP energy -396608.730494 kJ/mol
# GULP energy per Si atom -12394.022828 kJ/mol
# Density = 2.168530 g / cm^3
# Si number density = 21.734765 Si / 1000 Ang^3
#
#
#
# Elastic Constant Matrix: (Units=GPa)
#
#
# Indices 1 2 3 4 5 6 
#
# 1 73.6684 13.5525 30.6599 0.0000 15.1478 0.0000
# 2 13.5525 91.3480 62.7736 0.0000 6.0553 0.0000
# 3 30.6599 62.7736 121.0152 0.0000 22.3593 0.0000
# 4 0.0000 0.0000 0.0000 50.6773 0.0000 8.5607
# 5 15.1478 6.0553 22.3593 0.0000 35.0392 0.0000
# 6 0.0000 0.0000 0.0000 8.5607 0.0000 33.0551
#
#
#
# Elastic Compliance Matrix: (Units=1/GPa)
#
#
# Indices 1 2 3 4 5 6 
#
# 1 0.015877 0.000179 -0.003221 0.000000 -0.004839 0.000000
# 2 0.000179 0.017306 -0.009585 0.000000 0.003049 0.000000
# 3 -0.003221 -0.009585 0.015291 0.000000 -0.006709 0.000000
# 4 0.000000 0.000000 0.000000 0.020635 0.000000 -0.005344
# 5 -0.004839 0.003049 -0.006709 0.000000 0.034386 0.000000
# 6 0.000000 0.000000 0.000000 -0.005344 0.000000 0.031637
#
#
# Mechanical properties :
#
#
# Convention : Reuss Voigt Hill
#
# Bulk Modulus (GPa) = 43.06949 55.55596 49.31273
# Shear Modulus (GPa) = 29.73950 35.69070 32.71510
#
# Velocity S-wave (km/s) = 3.70306 4.05668 3.88390
# Velocity P-wave (km/s) = 6.17596 6.89627 6.54603
#
# Compressibility (1/GPa) = 0.02321829
#
# Stress axis : x y z
#
# Youngs Moduli (GPa) = 62.98373 57.78497 65.39692
#
# Poissons Ratio (x) = -0.01033 0.21066
# Poissons Ratio (y) = -0.01126 0.62686
# Poissons Ratio (z) = 0.20288 0.55389
#
# Static dielectric constant tensor:
#      x y z
#    x 3.911100 0.000000 0.238640 
#    y 0.000000 4.388960 0.000000 
#    z 0.238640 0.000000 3.871870 
# 
# 
# High freq. dielectric constant tensor:
#      x y z
#    x 1.857940 0.000000 0.017660 
#    y 0.000000 1.859590 0.000000 
#    z 0.017660 0.000000 1.857490 
# 
# From -- ./inp_files/39982.got.cif
#   From: 2010.06.25/outbox.cif.g09.slc.cpg/sg11_20_cif.got.tgz:39982.got - 2010.06.27 23:14:04.
