data_PCOD8077653
_publ_section_title
;
Structure prediction by ZEFSAII (Michael W. Deem and Ramdas Pophale) SiO2 
 PCOD8077653
Probable space group: P 21/M
;
_chemical_formula_sum "Si O2"
_cell_formula_units_Z 32
_cell_length_a 25.871992
_cell_length_b 8.392737
_cell_length_c 20.074490
_cell_angle_alpha 90.000000
_cell_angle_beta 21.229214
_cell_angle_gamma 90.000000
_cell_volume 1578.361228
_symmetry_space_group_name_H-M "P 21/M"
_symmetry_group_IT_number 11
_symmetry_cell_setting 'monoclinic'
loop_
_space_group_symop_operation_xyz
x,y,z
-x,1/2+y,-z
-x,-y,-z
x,1/2-y,z
loop_
_atom_site_type_symbol
_atom_site_label
_atom_site_fract_x
_atom_site_fract_y
_atom_site_fract_z
Si Si1 0.633995 0.938708 0.051369
Si Si2 0.158046 0.436907 0.310741
Si Si3 0.207469 0.566190 0.872136
Si Si4 0.344300 0.561790 0.203882
Si Si5 0.306508 0.064798 0.617382
Si Si6 0.613747 0.935099 0.224850
Si Si7 0.893957 0.439415 0.251976
Si Si8 0.669194 0.438566 0.629868
O O1 0.625481 0.750000 0.053369
O O2 0.670890 0.983919 0.083017
O O3 0.480820 0.012522 0.214783
O O4 0.753906 0.009692 0.857667
O O5 0.154576 0.250000 0.307775
O O6 0.229431 0.483390 0.294132
O O7 0.000000 0.500000 0.500000
O O8 0.213025 0.750000 0.844056
O O9 0.273704 0.459276 0.734368
O O10 0.303098 0.542904 0.822644
O O11 0.047244 0.515050 0.080322
O O12 0.340855 0.750000 0.199856
O O13 0.301625 0.508093 0.329591
O O14 0.500000 0.500000 0.000000
O O15 0.333556 0.250000 0.570906
O O16 0.444716 0.964813 0.430348
O O17 0.170688 0.001777 0.739579
O O18 0.643464 0.750000 0.204065
O O19 0.907509 0.250000 0.233091
O O20 0.795706 0.501105 0.430753
O O21 0.661029 0.250000 0.634352
#
# Coordination Sequence:
#
# PCOD8077653 Si02
#       8
#     4   4   4   4   4   4   4   4
#     4   9  18  37  64  89 118 160 203 247 300 367
#     4  11  23  41  62  90 127 164 206 250 303 363
#     4  12  26  43  60  88 128 163 199 251 308 362
#     4  11  21  37  62  92 123 160 204 249 299 356
#     4  12  24  41  64  93 124 160 202 249 305 363
#     4  11  22  41  67  92 118 159 210 253 301 362
#     4  11  22  41  66  91 119 159 207 253 303 363
#     4   9  18  36  63  91 119 157 204 249 300 366
#
# _framework density 20.274193
#
# number of rings (size 3 to 8) (size 9 to 14) (size 15 to 20)
#    0.000    1.250    2.500    4.500    0.000    1.000 
#    0.000   11.250    0.000    0.000    0.000    0.000 
#    0.000    0.000    0.000    0.000    0.000    0.000 
#
# Total GULP energy -396940.325005 kJ/mol
# GULP energy per Si atom -12404.385156 kJ/mol
# Density = 2.022805 g / cm^3
# Si number density = 20.274193 Si / 1000 Ang^3
#
#
#
# Elastic Constant Matrix: (Units=GPa)
#
#
# Indices 1 2 3 4 5 6 
#
# 1 105.5467 15.3554 50.4739 0.0000 6.4938 0.0000
# 2 15.3554 55.6540 17.7344 0.0000 0.5443 0.0000
# 3 50.4739 17.7344 114.2485 0.0000 1.8732 0.0000
# 4 0.0000 0.0000 0.0000 28.7921 0.0000 -5.1005
# 5 6.4938 0.5443 1.8732 0.0000 37.6543 0.0000
# 6 0.0000 0.0000 0.0000 -5.1005 0.0000 32.4677
#
#
#
# Elastic Compliance Matrix: (Units=1/GPa)
#
#
# Indices 1 2 3 4 5 6 
#
# 1 0.012295 -0.001739 -0.005132 0.000000 -0.001840 0.000000
# 2 -0.001739 0.019150 -0.002206 0.000000 0.000133 0.000000
# 3 -0.005132 -0.002206 0.011357 0.000000 0.000352 0.000000
# 4 0.000000 0.000000 0.000000 0.035726 0.000000 0.005612
# 5 -0.001840 0.000133 0.000352 0.000000 0.026855 0.000000
# 6 0.000000 0.000000 0.000000 0.005612 0.000000 0.031682
#
#
# Mechanical properties :
#
#
# Convention : Reuss Voigt Hill
#
# Bulk Modulus (GPa) = 40.57283 49.17517 44.87400
# Shear Modulus (GPa) = 30.59347 32.57518 31.58432
#
# Velocity S-wave (km/s) = 3.88878 4.01275 3.95125
# Velocity P-wave (km/s) = 6.34184 6.76589 6.55730
#
# Compressibility (1/GPa) = 0.02464704
#
# Stress axis : x y z
#
# Youngs Moduli (GPa) = 81.33616 52.21998 88.05412
#
# Poissons Ratio (x) = 0.09081 0.45185
# Poissons Ratio (y) = 0.14145 0.19429
# Poissons Ratio (z) = 0.41738 0.11522
#
# Static dielectric constant tensor:
#      x y z
#    x 3.669910 0.000000 0.172600 
#    y 0.000000 3.510020 0.000000 
#    z 0.172600 0.000000 4.033180 
# 
# 
# High freq. dielectric constant tensor:
#      x y z
#    x 1.805190 0.000000 0.005990 
#    y 0.000000 1.778800 0.000000 
#    z 0.005990 0.000000 1.799470 
# 
# From -- ./inp_files/66947.got.cif
#   From: 2010.06.25/outbox.cif.g09.slc.cpg/sg11_34_cif.got.tgz:66947.got - 2010.06.27 23:14:04.
