data_PCOD8077634
_publ_section_title
;
Structure prediction by ZEFSAII (Michael W. Deem and Ramdas Pophale) SiO2 
 PCOD8077634
Probable space group: P 21/M
;
_chemical_formula_sum "Si O2"
_cell_formula_units_Z 24
_cell_length_a 9.600724
_cell_length_b 8.412180
_cell_length_c 20.095136
_cell_angle_alpha 90.000000
_cell_angle_beta 49.243322
_cell_angle_gamma 90.000000
_cell_volume 1229.361940
_symmetry_space_group_name_H-M "P 21/M"
_symmetry_group_IT_number 11
_symmetry_cell_setting 'monoclinic'
loop_
_space_group_symop_operation_xyz
x,y,z
-x,1/2+y,-z
-x,-y,-z
x,1/2-y,z
loop_
_atom_site_type_symbol
_atom_site_label
_atom_site_fract_x
_atom_site_fract_y
_atom_site_fract_z
Si Si1 0.843892 0.064673 0.596195
Si Si2 0.134528 0.433912 0.267958
Si Si3 0.100378 0.437215 0.775282
Si Si4 0.521170 0.564554 0.136698
Si Si5 0.452589 0.563453 0.726901
Si Si6 0.884875 0.437280 0.974241
O O1 0.812582 0.250000 0.593757
O O2 0.900277 0.036034 0.654957
O O3 0.656552 0.972200 0.636741
O O4 0.000000 0.000000 0.500000
O O5 0.126222 0.250000 0.290093
O O6 0.334796 0.473400 0.175039
O O7 0.977560 0.474387 0.264545
O O8 0.092290 0.250000 0.766331
O O9 0.309442 0.494873 0.718222
O O10 0.983453 0.490181 0.875837
O O11 0.482615 0.750000 0.141984
O O12 0.583564 0.524668 0.192128
O O13 0.681935 0.513015 0.036432
O O14 0.424338 0.750000 0.746112
O O15 0.867792 0.250000 0.985436
O O16 0.000000 0.500000 0.000000
#
# Coordination Sequence:
#
# PCOD8077634 Si02
#       6
#     4   4   4   4   4   4
#     4  11  22  41  67  93 120 151 191 236 287 350
#     4  11  23  40  61  87 119 155 195 242 297 351
#     4  11  23  39  58  85 120 159 197 243 299 348
#     4  11  21  36  57  82 115 157 202 247 293 344
#     4  11  21  36  60  88 118 154 197 240 290 348
#     4  11  22  35  56  83 116 155 204 250 293 344
#
# _framework density 19.522321999999999
#
# number of rings (size 3 to 8) (size 9 to 14) (size 15 to 20)
#    0.000    1.000    1.667    9.000    0.000    2.667 
#    0.000    0.833    0.000    0.000    0.000    0.000 
#    0.000    0.000    0.000    0.000    0.000    0.000 
#
# Total GULP energy -297760.048399 kJ/mol
# GULP energy per Si atom -12406.668683 kJ/mol
# Density = 1.947789 g / cm^3
# Si number density = 19.522322 Si / 1000 Ang^3
#
#
#
# Elastic Constant Matrix: (Units=GPa)
#
#
# Indices 1 2 3 4 5 6 
#
# 1 121.4265 8.3824 31.7239 0.0000 -7.9296 0.0000
# 2 8.3824 86.8929 12.4857 0.0000 0.5803 0.0000
# 3 31.7239 12.4857 103.4141 0.0000 -14.2333 0.0000
# 4 0.0000 0.0000 0.0000 31.6835 0.0000 -3.4466
# 5 -7.9296 0.5803 -14.2333 0.0000 20.0211 0.0000
# 6 0.0000 0.0000 0.0000 -3.4466 0.0000 35.5173
#
#
#
# Elastic Compliance Matrix: (Units=1/GPa)
#
#
# Indices 1 2 3 4 5 6 
#
# 1 0.009034 -0.000531 -0.002452 0.000000 0.001850 0.000000
# 2 -0.000531 0.011783 -0.001480 0.000000 -0.001604 0.000000
# 3 -0.002452 -0.001480 0.011609 0.000000 0.007325 0.000000
# 4 0.000000 0.000000 0.000000 0.031899 0.000000 0.003095
# 5 0.001850 -0.001604 0.007325 0.000000 0.055934 0.000000
# 6 0.000000 0.000000 0.000000 0.003095 0.000000 0.028456
#
#
# Mechanical properties :
#
#
# Convention : Reuss Voigt Hill
#
# Bulk Modulus (GPa) = 42.55829 46.32415 44.44122
# Shear Modulus (GPa) = 30.21604 34.72049 32.46826
#
# Velocity S-wave (km/s) = 3.93844 4.22180 4.08258
# Velocity P-wave (km/s) = 6.52141 6.89530 6.71096
#
# Compressibility (1/GPa) = 0.02349718
#
# Stress axis : x y z
#
# Youngs Moduli (GPa) = 110.69726 84.86712 86.13971
#
# Poissons Ratio (x) = 0.04510 0.21125
# Poissons Ratio (y) = 0.05883 0.12752
# Poissons Ratio (z) = 0.27148 0.12564
#
# Static dielectric constant tensor:
#      x y z
#    x 3.546810 0.000000 -0.243390 
#    y 0.000000 3.741750 0.000000 
#    z -0.243390 0.000000 3.555580 
# 
# 
# High freq. dielectric constant tensor:
#      x y z
#    x 1.758970 0.000000 -0.015670 
#    y 0.000000 1.780810 0.000000 
#    z -0.015670 0.000000 1.748070 
# 
# From -- ./inp_files/63162.got.cif
#   From: 2010.06.25/outbox.cif.g09.slc.cpg/sg11_32_cif.got.tgz:63162.got - 2010.06.27 23:14:04.
