data_PCOD8077142
_publ_section_title
;
Structure prediction by ZEFSAII (Michael W. Deem and Ramdas Pophale) SiO2 
 PCOD8077142
Probable space group: P 21/M
;
_chemical_formula_sum "Si O2"
_cell_formula_units_Z 28
_cell_length_a 12.324324
_cell_length_b 8.497179
_cell_length_c 15.317979
_cell_angle_alpha 90.000000
_cell_angle_beta 52.832712
_cell_angle_gamma 90.000000
_cell_volume 1278.290412
_symmetry_space_group_name_H-M "P 21/M"
_symmetry_group_IT_number 11
_symmetry_cell_setting 'monoclinic'
loop_
_space_group_symop_operation_xyz
x,y,z
-x,1/2+y,-z
-x,-y,-z
x,1/2-y,z
loop_
_atom_site_type_symbol
_atom_site_label
_atom_site_fract_x
_atom_site_fract_y
_atom_site_fract_z
Si Si1 0.563823 0.065247 0.197353
Si Si2 0.138786 0.932959 0.251635
Si Si3 0.750860 0.932298 0.961290
Si Si4 0.825616 0.934095 0.404875
Si Si5 0.248706 0.434641 0.369343
Si Si6 0.016800 0.068207 0.898104
Si Si7 0.717189 0.430160 0.294033
O O1 0.596814 0.250000 0.174543
O O2 0.405946 0.027088 0.275758
O O3 0.630083 0.996864 0.255617
O O4 0.621425 0.980021 0.082480
O O5 0.167450 0.750000 0.223581
O O6 0.981767 0.975392 0.301217
O O7 0.156885 0.975175 0.344026
O O8 0.253885 0.033462 0.140871
O O9 0.783532 0.750000 0.963288
O O10 0.871781 0.052683 0.923984
O O11 0.807182 0.750000 0.418987
O O12 0.792431 0.004318 0.516277
O O13 0.706821 0.992004 0.395294
O O14 0.218805 0.250000 0.377226
O O15 0.065255 0.250000 0.872425
O O16 0.124589 0.954549 0.801510
O O17 0.000000 0.000000 0.000000
O O18 0.676137 0.250000 0.323487
#
# Coordination Sequence:
#
# PCOD8077142 Si02
#       7
#     4   4   4   4   4   4   4
#     4  10  23  42  62  88 127 167 206 254 305 366
#     4  11  23  40  64  93 124 159 203 261 317 366
#     4  12  24  38  62  93 124 162 205 251 308 373
#     4  10  22  40  64  92 124 160 204 261 315 363
#     4  10  23  44  65  87 120 166 213 258 309 364
#     4  12  22  35  57  89 126 162 201 251 308 364
#     4  11  22  36  60  92 125 163 205 250 304 366
#
# _framework density 21.904257000000001
#
# number of rings (size 3 to 8) (size 9 to 14) (size 15 to 20)
#    0.000    1.143    2.857    3.857    0.000    3.429 
#    0.000    0.000    0.000    0.000    0.000    0.000 
#    0.000    0.000    0.000    0.000    0.000    0.000 
#
# Total GULP energy -347009.110085 kJ/mol
# GULP energy per Si atom -12393.182503 kJ/mol
# Density = 2.185440 g / cm^3
# Si number density = 21.904257 Si / 1000 Ang^3
#
#
#
# Elastic Constant Matrix: (Units=GPa)
#
#
# Indices 1 2 3 4 5 6 
#
# 1 50.4944 18.8652 8.1116 0.0000 11.3166 0.0000
# 2 18.8652 60.7492 30.6809 0.0000 1.2254 0.0000
# 3 8.1116 30.6809 104.4998 0.0000 20.5029 0.0000
# 4 0.0000 0.0000 0.0000 32.1641 0.0000 7.7662
# 5 11.3166 1.2254 20.5029 0.0000 37.3263 0.0000
# 6 0.0000 0.0000 0.0000 7.7662 0.0000 26.0322
#
#
#
# Elastic Compliance Matrix: (Units=1/GPa)
#
#
# Indices 1 2 3 4 5 6 
#
# 1 0.024534 -0.008594 0.002267 0.000000 -0.008401 0.000000
# 2 -0.008594 0.022599 -0.007099 0.000000 0.005763 0.000000
# 3 0.002267 -0.007099 0.012964 0.000000 -0.007575 0.000000
# 4 0.000000 0.000000 0.000000 0.033504 0.000000 -0.009995
# 5 -0.008401 0.005763 -0.007575 0.000000 0.033310 0.000000
# 6 0.000000 0.000000 0.000000 -0.009995 0.000000 0.041396
#
#
# Mechanical properties :
#
#
# Convention : Reuss Voigt Hill
#
# Bulk Modulus (GPa) = 30.07960 36.78431 33.43195
# Shear Modulus (GPa) = 24.24375 29.64356 26.94366
#
# Velocity S-wave (km/s) = 3.33048 3.68275 3.51103
# Velocity P-wave (km/s) = 5.34337 5.90874 5.63315
#
# Compressibility (1/GPa) = 0.03324513
#
# Stress axis : x y z
#
# Youngs Moduli (GPa) = 40.76016 44.25010 77.13813
#
# Poissons Ratio (x) = 0.38030 -0.17489
# Poissons Ratio (y) = 0.35031 0.54757
# Poissons Ratio (z) = -0.09241 0.31411
#
# Static dielectric constant tensor:
#      x y z
#    x 3.902320 0.000000 0.315170 
#    y 0.000000 3.688130 0.000000 
#    z 0.315170 0.000000 4.311220 
# 
# 
# High freq. dielectric constant tensor:
#      x y z
#    x 1.853440 0.000000 0.022930 
#    y 0.000000 1.846210 0.000000 
#    z 0.022930 0.000000 1.878980 
# 
# From -- ./inp_files/49165.got.cif
#   From: 2010.06.25/outbox.cif.g09.slc.cpg/sg11_25_cif.got.tgz:49165.got - 2010.06.27 23:14:04.
