data_PCOD8077578
_publ_section_title
;
Structure prediction by ZEFSAII (Michael W. Deem and Ramdas Pophale) SiO2 
 PCOD8077578
Probable space group: P 21/M
;
_chemical_formula_sum "Si O2"
_cell_formula_units_Z 28
_cell_length_a 9.193730
_cell_length_b 14.534016
_cell_length_c 13.819977
_cell_angle_alpha 90.000000
_cell_angle_beta 43.278948
_cell_angle_gamma 90.000000
_cell_volume 1265.972894
_symmetry_space_group_name_H-M "P 21/M"
_symmetry_group_IT_number 11
_symmetry_cell_setting 'monoclinic'
loop_
_space_group_symop_operation_xyz
x,y,z
-x,1/2+y,-z
-x,-y,-z
x,1/2-y,z
loop_
_atom_site_type_symbol
_atom_site_label
_atom_site_fract_x
_atom_site_fract_y
_atom_site_fract_z
Si Si1 0.904527 0.897943 0.718578
Si Si2 0.039837 0.603457 0.249971
Si Si3 0.840551 0.646635 0.539228
Si Si4 0.635204 0.855875 0.322070
Si Si5 0.576641 0.146118 0.062506
Si Si6 0.285736 0.849471 0.645558
Si Si7 0.417975 0.538721 0.749203
O O1 0.956152 0.891656 0.579146
O O2 0.661865 0.872436 0.857972
O O3 0.063404 0.831831 0.698743
O O4 0.966888 0.996138 0.729531
O O5 0.000722 0.652056 0.371948
O O6 0.869734 0.634964 0.252657
O O7 0.271737 0.633429 0.102399
O O8 0.756437 0.750000 0.601963
O O9 0.647924 0.578109 0.607733
O O10 0.601031 0.750000 0.303265
O O11 0.465099 0.885867 0.485083
O O12 0.599875 0.927299 0.249512
O O13 0.595228 0.250000 0.093805
O O14 0.641047 0.072903 0.114680
O O15 0.359839 0.750000 0.649966
O O16 0.255294 0.919723 0.749176
#
# Coordination Sequence:
#
# PCOD8077578 Si02
#       7
#     4   4   4   4   4   4   4
#     4  11  23  41  64  96 130 170 220 263 320 377
#     4  12  23  42  65  94 130 176 214 265 319 385
#     4  11  22  40  69 101 131 168 217 265 318 386
#     4  11  23  39  64  98 132 167 215 271 324 376
#     4  11  25  44  67  95 131 173 217 263 320 392
#     4  11  20  37  66  99 134 165 210 270 324 377
#     4  11  21  40  67  97 126 171 218 262 317 383
#
# _framework density 22.117374999999999
#
# number of rings (size 3 to 8) (size 9 to 14) (size 15 to 20)
#    0.000    0.857    2.857    6.857    0.000    1.714 
#    0.000    0.000    0.000   12.000    0.000    0.000 
#    0.000    0.000    0.000    0.000    0.000    0.000 
#
# Total GULP energy -347173.678744 kJ/mol
# GULP energy per Si atom -12399.059955 kJ/mol
# Density = 2.206704 g / cm^3
# Si number density = 22.117375 Si / 1000 Ang^3
#
#
#
# Elastic Constant Matrix: (Units=GPa)
#
#
# Indices 1 2 3 4 5 6 
#
# 1 106.8735 29.8260 38.9825 0.0000 -4.6309 0.0000
# 2 29.8260 148.8823 15.8916 0.0000 7.9488 0.0000
# 3 38.9825 15.8916 123.6037 0.0000 4.6062 0.0000
# 4 0.0000 0.0000 0.0000 14.3943 0.0000 -8.4309
# 5 -4.6309 7.9488 4.6062 0.0000 23.4908 0.0000
# 6 0.0000 0.0000 0.0000 -8.4309 0.0000 27.9094
#
#
#
# Elastic Compliance Matrix: (Units=1/GPa)
#
#
# Indices 1 2 3 4 5 6 
#
# 1 0.011358 -0.002101 -0.003447 0.000000 0.003626 0.000000
# 2 -0.002101 0.007308 -0.000171 0.000000 -0.002854 0.000000
# 3 -0.003447 -0.000171 0.009290 0.000000 -0.002443 0.000000
# 4 0.000000 0.000000 0.000000 0.084407 0.000000 0.025498
# 5 0.003626 -0.002854 -0.002443 0.000000 0.044729 0.000000
# 6 0.000000 0.000000 0.000000 0.025498 0.000000 0.043533
#
#
# Mechanical properties :
#
#
# Convention : Reuss Voigt Hill
#
# Bulk Modulus (GPa) = 60.53611 60.97329 60.75470
# Shear Modulus (GPa) = 22.98129 32.80287 27.89208
#
# Velocity S-wave (km/s) = 3.22694 3.85532 3.55504
# Velocity P-wave (km/s) = 6.42760 6.88809 6.66183
#
# Compressibility (1/GPa) = 0.01651907
#
# Stress axis : x y z
#
# Youngs Moduli (GPa) = 88.04677 136.83309 107.63692
#
# Poissons Ratio (x) = 0.28748 0.37102
# Poissons Ratio (y) = 0.18498 0.01837
# Poissons Ratio (z) = 0.30350 0.02335
#
# Static dielectric constant tensor:
#      x y z
#    x 3.903780 0.000000 -0.082460 
#    y 0.000000 4.251080 0.000000 
#    z -0.082460 0.000000 3.875860 
# 
# 
# High freq. dielectric constant tensor:
#      x y z
#    x 1.862390 0.000000 -0.007430 
#    y 0.000000 1.890220 0.000000 
#    z -0.007430 0.000000 1.849280 
# 
# From -- ./inp_files/47751.got.cif
#   From: 2010.06.25/outbox.cif.g09.slc.cpg/sg11_24_cif.got.tgz:47751.got - 2010.06.27 23:14:04.
