data_PCOD8077743
_publ_section_title
;
Structure prediction by ZEFSAII (Michael W. Deem and Ramdas Pophale) SiO2 
 PCOD8077743
Probable space group: P 21/M
;
_chemical_formula_sum "Si O2"
_cell_formula_units_Z 28
_cell_length_a 9.351788
_cell_length_b 20.713832
_cell_length_c 13.796360
_cell_angle_alpha 90.000000
_cell_angle_beta 147.160735
_cell_angle_gamma 90.000000
_cell_volume 1449.260691
_symmetry_space_group_name_H-M "P 21/M"
_symmetry_group_IT_number 11
_symmetry_cell_setting 'monoclinic'
loop_
_space_group_symop_operation_xyz
x,y,z
-x,1/2+y,-z
-x,-y,-z
x,1/2-y,z
loop_
_atom_site_type_symbol
_atom_site_label
_atom_site_fract_x
_atom_site_fract_y
_atom_site_fract_z
Si Si1 0.326413 0.325496 0.005612
Si Si2 0.053738 0.918480 0.937577
Si Si3 0.824904 0.383446 0.631124
Si Si4 0.323807 0.538978 0.275689
Si Si5 0.344778 0.932579 0.914814
Si Si6 0.911588 0.501701 0.560193
Si Si7 0.371119 0.324369 0.253294
O O1 0.398179 0.250000 0.031254
O O2 0.507880 0.371278 0.044796
O O3 0.372696 0.347610 0.142673
O O4 0.024921 0.337424 0.802726
O O5 0.862760 0.857596 0.820603
O O6 0.285174 0.914553 0.991241
O O7 0.881566 0.982039 0.821463
O O8 0.197433 0.915412 0.122760
O O9 0.642094 0.421750 0.604811
O O10 0.984444 0.434161 0.654540
O O11 0.648940 0.339702 0.461049
O O12 0.599107 0.511535 0.393546
O O13 0.069514 0.940315 0.700644
O O14 0.500000 0.000000 0.000000
O O15 0.000000 0.500000 0.500000
O O16 0.309368 0.250000 0.223836
#
# Coordination Sequence:
#
# PCOD8077743 Si02
#       7
#     4   4   4   4   4   4   4
#     4  11  25  45  65  92 132 174 217 266 322 390
#     4  11  22  39  64  91 133 165 212 261 326 378
#     4  12  21  42  67  95 125 170 215 262 327 384
#     4  11  22  38  63  97 127 166 203 272 320 381
#     4  12  23  39  62  95 128 171 211 267 326 382
#     4  12  23  35  61  98 133 159 210 268 325 384
#     4  11  24  42  66  93 126 170 221 266 316 387
#
# _framework density 19.320194000000001
#
# number of rings (size 3 to 8) (size 9 to 14) (size 15 to 20)
#    0.000    0.571    5.714    3.429    2.000    0.571 
#    0.000    0.000    0.000    0.857    0.000    0.000 
#    0.000    0.000    0.000    0.000    0.000    0.000 
#
# Total GULP energy -347297.461337 kJ/mol
# GULP energy per Si atom -12403.480762 kJ/mol
# Density = 1.927622 g / cm^3
# Si number density = 19.320194 Si / 1000 Ang^3
#
#
#
# Elastic Constant Matrix: (Units=GPa)
#
#
# Indices 1 2 3 4 5 6 
#
# 1 144.3590 48.4543 34.0202 0.0000 -3.5655 0.0000
# 2 48.4543 72.0957 17.4600 0.0000 -3.8479 0.0000
# 3 34.0202 17.4600 93.7536 0.0000 -16.4880 0.0000
# 4 0.0000 0.0000 0.0000 31.6584 0.0000 0.1985
# 5 -3.5655 -3.8479 -16.4880 0.0000 31.3159 0.0000
# 6 0.0000 0.0000 0.0000 0.1985 0.0000 26.4460
#
#
#
# Elastic Compliance Matrix: (Units=1/GPa)
#
#
# Indices 1 2 3 4 5 6 
#
# 1 0.009438 -0.005785 -0.002516 0.000000 -0.000961 0.000000
# 2 -0.005785 0.018076 -0.001094 0.000000 0.000987 0.000000
# 3 -0.002516 -0.001094 0.012904 0.000000 0.006373 0.000000
# 4 0.000000 0.000000 0.000000 0.031589 0.000000 -0.000237
# 5 -0.000961 0.000987 0.006373 0.000000 0.035300 0.000000
# 6 0.000000 0.000000 0.000000 -0.000237 0.000000 0.037815
#
#
# Mechanical properties :
#
#
# Convention : Reuss Voigt Hill
#
# Bulk Modulus (GPa) = 46.23705 56.67526 51.45615
# Shear Modulus (GPa) = 29.21907 31.90233 30.56070
#
# Velocity S-wave (km/s) = 3.89312 4.06796 3.98150
# Velocity P-wave (km/s) = 6.64774 7.17376 6.91575
#
# Compressibility (1/GPa) = 0.02162768
#
# Stress axis : x y z
#
# Youngs Moduli (GPa) = 105.95160 55.32183 77.49610
#
# Poissons Ratio (x) = 0.32005 0.19502
# Poissons Ratio (y) = 0.61295 0.08475
# Poissons Ratio (z) = 0.26663 0.06050
#
# Static dielectric constant tensor:
#      x y z
#    x 3.612340 0.000000 -0.188550 
#    y 0.000000 3.388490 0.000000 
#    z -0.188550 0.000000 3.745780 
# 
# 
# High freq. dielectric constant tensor:
#      x y z
#    x 1.759550 0.000000 -0.011390 
#    y 0.000000 1.736110 0.000000 
#    z -0.011390 0.000000 1.768370 
# 
# From -- ./inp_files/23169.got.cif
#   From: 2010.06.25/outbox.cif.g09.slc.cpg/sg11_12_cif.got.tgz:23169.got - 2010.06.27 23:14:04.
