data_PCOD8077322
_publ_section_title
;
Structure prediction by ZEFSAII (Michael W. Deem and Ramdas Pophale) SiO2 
 PCOD8077322
Probable space group: P 21/M
;
_chemical_formula_sum "Si O2"
_cell_formula_units_Z 24
_cell_length_a 5.163195
_cell_length_b 24.271992
_cell_length_c 9.069302
_cell_angle_alpha 90.000000
_cell_angle_beta 108.055604
_cell_angle_gamma 90.000000
_cell_volume 1080.604985
_symmetry_space_group_name_H-M "P 21/M"
_symmetry_group_IT_number 11
_symmetry_cell_setting 'monoclinic'
loop_
_space_group_symop_operation_xyz
x,y,z
-x,1/2+y,-z
-x,-y,-z
x,1/2-y,z
loop_
_atom_site_type_symbol
_atom_site_label
_atom_site_fract_x
_atom_site_fract_y
_atom_site_fract_z
Si Si1 0.929581 0.250000 0.934471
Si Si2 0.678287 0.750000 0.277107
Si Si3 0.856144 0.857233 0.915932
Si Si4 0.217881 0.135604 0.548144
Si Si5 0.390403 0.618765 0.650601
Si Si6 0.722283 0.570081 0.151756
Si Si7 0.779106 0.050099 0.130937
O O1 0.633897 0.250000 0.818064
O O2 0.145944 0.250000 0.840137
O O3 0.962723 0.302726 0.046147
O O4 0.724625 0.696328 0.383088
O O5 0.561003 0.841641 0.793752
O O6 0.979633 0.905251 0.833875
O O7 0.843798 0.879908 0.079577
O O8 0.443280 0.115806 0.471199
O O9 0.248031 0.088189 0.675213
O O10 0.913806 0.140034 0.430466
O O11 0.377100 0.560858 0.740207
O O12 0.887951 0.512827 0.153921
O O13 0.411719 0.558915 0.046372
#
# Coordination Sequence:
#
# PCOD8077322 Si02
#       7
#     2   2   4   4   4   4   4
#     4  12  26  42  79  99 132 175 232 284 329 402
#     4  12  26  46  69 107 130 177 228 288 333 402
#     4  11  23  46  68 104 136 178 232 277 341 402
#     4  12  25  46  68 101 138 181 225 279 344 402
#     4  11  26  45  67 100 143 176 222 278 342 415
#     4  10  23  40  75  97 137 183 229 292 331 396
#     4  10  22  46  67 105 135 182 232 282 340 403
#
# _framework density 22.209782000000001
#
# number of rings (size 3 to 8) (size 9 to 14) (size 15 to 20)
#    0.000    1.000    3.333    2.500    4.667    2.667 
#    0.000    0.833    0.000    0.000    0.000    0.000 
#    0.000    0.000    0.000    0.000    0.000    0.000 
#
# Total GULP energy -297463.495562 kJ/mol
# GULP energy per Si atom -12394.312315 kJ/mol
# Density = 2.215923 g / cm^3
# Si number density = 22.209782 Si / 1000 Ang^3
#
#
#
# Elastic Constant Matrix: (Units=GPa)
#
#
# Indices 1 2 3 4 5 6 
#
# 1 107.3876 11.2262 33.6901 0.0000 20.5257 0.0000
# 2 11.2262 107.3862 36.1383 0.0000 30.3005 0.0000
# 3 33.6901 36.1383 106.5374 0.0000 17.6833 0.0000
# 4 0.0000 0.0000 0.0000 15.0435 0.0000 5.3374
# 5 20.5257 30.3005 17.6833 0.0000 46.9932 0.0000
# 6 0.0000 0.0000 0.0000 5.3374 0.0000 26.1509
#
#
#
# Elastic Compliance Matrix: (Units=1/GPa)
#
#
# Indices 1 2 3 4 5 6 
#
# 1 0.011013 0.001137 -0.003145 0.000000 -0.004360 0.000000
# 2 0.001137 0.012354 -0.003355 0.000000 -0.007200 0.000000
# 3 -0.003145 -0.003355 0.011660 0.000000 -0.000851 0.000000
# 4 0.000000 0.000000 0.000000 0.071663 0.000000 -0.014626
# 5 -0.004360 -0.007200 -0.000851 0.000000 0.028147 0.000000
# 6 0.000000 0.000000 0.000000 -0.014626 0.000000 0.041225
#
#
# Mechanical properties :
#
#
# Convention : Reuss Voigt Hill
#
# Bulk Modulus (GPa) = 41.14879 53.71339 47.43109
# Shear Modulus (GPa) = 25.65580 33.65464 29.65522
#
# Velocity S-wave (km/s) = 3.40245 3.89692 3.65805
# Velocity P-wave (km/s) = 5.83122 6.66971 6.26451
#
# Compressibility (1/GPa) = 0.02430205
#
# Stress axis : x y z
#
# Youngs Moduli (GPa) = 90.80057 80.94597 85.76250
#
# Poissons Ratio (x) = -0.09206 0.26970
# Poissons Ratio (y) = -0.10326 0.28774
# Poissons Ratio (z) = 0.28554 0.27158
#
# Static dielectric constant tensor:
#      x y z
#    x 4.069840 0.000000 0.020450 
#    y 0.000000 4.015720 0.000000 
#    z 0.020450 0.000000 4.131070 
# 
# 
# High freq. dielectric constant tensor:
#      x y z
#    x 1.876720 0.000000 0.003050 
#    y 0.000000 1.867080 0.000000 
#    z 0.003050 0.000000 1.888000 
# 
# From -- ./inp_files/10474.got.cif
#   From: 2010.06.25/outbox.cif.g09.slc.cpg/sg11_6_cif.got.tgz:10474.got - 2010.06.27 23:14:04.
