data_PCOD8077878
_publ_section_title
;
Structure prediction by ZEFSAII (Michael W. Deem and Ramdas Pophale) SiO2 
 PCOD8077878
Probable space group: P 21/M
;
_chemical_formula_sum "Si O2"
_cell_formula_units_Z 24
_cell_length_a 14.697192
_cell_length_b 13.711097
_cell_length_c 9.207398
_cell_angle_alpha 90.000000
_cell_angle_beta 37.049039
_cell_angle_gamma 90.000000
_cell_volume 1117.890713
_symmetry_space_group_name_H-M "P 21/M"
_symmetry_group_IT_number 11
_symmetry_cell_setting 'monoclinic'
loop_
_space_group_symop_operation_xyz
x,y,z
-x,1/2+y,-z
-x,-y,-z
x,1/2-y,z
loop_
_atom_site_type_symbol
_atom_site_label
_atom_site_fract_x
_atom_site_fract_y
_atom_site_fract_z
Si Si1 0.520134 0.518446 0.761781
Si Si2 0.642831 0.639164 0.857673
Si Si3 0.246651 0.643463 0.006698
Si Si4 0.975254 0.612340 0.549493
Si Si5 0.000504 0.139164 0.142326
Si Si6 0.781915 0.481554 0.238219
O O1 0.635779 0.575835 0.719452
O O2 0.606632 0.500000 0.500000
O O3 0.469728 0.412940 0.885325
O O4 0.372866 0.584040 0.931468
O O5 0.585528 0.750000 0.906096
O O6 0.812648 0.643551 0.698733
O O7 0.309549 0.750000 0.880903
O O8 0.104219 0.663825 0.291562
O O9 0.195667 0.584040 0.931468
O O10 0.988619 0.643551 0.698733
O O11 0.000000 0.500000 0.500000
O O12 0.991624 0.250000 0.093903
O O13 0.855231 0.075835 0.280546
O O14 0.144948 0.087060 0.885324
#
# Coordination Sequence:
#
# PCOD8077878 Si02
#       6
#     4   4   4   4   4   4
#     4  11  25  44  65  97 137 172 215 271 327 389
#     4  11  24  42  68  99 132 174 219 268 327 386
#     4  12  25  43  70  99 131 174 220 269 326 387
#     4  12  22  45  70  98 129 172 224 274 318 385
#     4  11  24  42  68  99 132 174 219 268 327 386
#     4  11  25  44  65  97 137 172 215 271 327 389
#
# _framework density 21.469004999999999
#
# number of rings (size 3 to 8) (size 9 to 14) (size 15 to 20)
#    0.000    0.667    3.333    4.000    4.667    2.667 
#    0.000    0.000    0.000    0.000    0.000    0.000 
#    0.000    0.000    0.000    0.000    0.000    0.000 
#
# Total GULP energy -297652.450983 kJ/mol
# GULP energy per Si atom -12402.185458 kJ/mol
# Density = 2.142014 g / cm^3
# Si number density = 21.469005 Si / 1000 Ang^3
#
#
#
# Elastic Constant Matrix: (Units=GPa)
#
#
# Indices 1 2 3 4 5 6 
#
# 1 117.5366 18.5438 42.4299 0.0000 2.6742 0.0000
# 2 18.5438 171.7901 44.2497 0.0000 -1.3635 0.0000
# 3 42.4299 44.2497 139.2139 0.0000 -3.8225 0.0000
# 4 0.0000 0.0000 0.0000 14.0477 0.0000 -0.9207
# 5 2.6742 -1.3635 -3.8225 0.0000 12.7009 0.0000
# 6 0.0000 0.0000 0.0000 -0.9207 0.0000 -3.3195
#
#
#
# Elastic Compliance Matrix: (Units=1/GPa)
#
#
# Indices 1 2 3 4 5 6 
#
# 1 0.009683 -0.000313 -0.002933 0.000000 -0.002955 0.000000
# 2 -0.000313 0.006350 -0.001918 0.000000 0.000170 0.000000
# 3 -0.002933 -0.001918 0.008771 0.000000 0.003051 0.000000
# 4 0.000000 0.000000 0.000000 0.069915 0.000000 -0.019391
# 5 -0.002955 0.000170 0.003051 0.000000 0.080293 0.000000
# 6 0.000000 0.000000 0.000000 -0.019391 0.000000 -0.295872
#
#
# Mechanical properties :
#
#
# Convention : Reuss Voigt Hill
#
# Bulk Modulus (GPa) = 69.08285 70.99862 70.04074
# Shear Modulus (GPa) = -47.30126 26.24030 -10.53048
#
# Velocity S-wave (km/s) = -4.69896 3.49985 -2.21712
# Velocity P-wave (km/s) = 1.67558 7.03378 5.11281
#
# Compressibility (1/GPa) = 0.01447537
#
# Stress axis : x y z
#
# Youngs Moduli (GPa) = 103.26953 157.47169 114.01708
#
# Poissons Ratio (x) = 0.04933 0.33440
# Poissons Ratio (y) = 0.03235 0.21872
# Poissons Ratio (z) = 0.30288 0.30208
#
# Static dielectric constant tensor:
#      x y z
#    x 3.989350 0.000000 -0.006700 
#    y 0.000000 3.992440 0.000000 
#    z -0.006700 0.000000 4.115480 
# 
# 
# High freq. dielectric constant tensor:
#      x y z
#    x 1.847840 0.000000 0.000520 
#    y 0.000000 1.864110 0.000000 
#    z 0.000520 0.000000 1.838110 
# 
# From -- ./inp_files/21995.got.cif
#   From: 2010.06.25/outbox.cif.g09.slc.cpg/sg11_11_cif.got.tgz:21995.got - 2010.06.27 23:14:04.
