data_PCOD8077258
_publ_section_title
;
Structure prediction by ZEFSAII (Michael W. Deem and Ramdas Pophale) SiO2 
 PCOD8077258
Probable space group: P 21/M
;
_chemical_formula_sum "Si O2"
_cell_formula_units_Z 32
_cell_length_a 15.477955
_cell_length_b 8.415127
_cell_length_c 12.110377
_cell_angle_alpha 90.000000
_cell_angle_beta 89.478833
_cell_angle_gamma 90.000000
_cell_volume 1577.298719
_symmetry_space_group_name_H-M "P 21/M"
_symmetry_group_IT_number 11
_symmetry_cell_setting 'monoclinic'
loop_
_space_group_symop_operation_xyz
x,y,z
-x,1/2+y,-z
-x,-y,-z
x,1/2-y,z
loop_
_atom_site_type_symbol
_atom_site_label
_atom_site_fract_x
_atom_site_fract_y
_atom_site_fract_z
Si Si1 0.660673 0.938298 0.728249
Si Si2 0.000915 0.438436 0.625273
Si Si3 0.148069 0.062330 0.214586
Si Si4 0.165777 0.066605 0.768989
Si Si5 0.347748 0.933483 0.722164
Si Si6 0.594459 0.565222 0.501925
Si Si7 0.094261 0.935056 0.987974
Si Si8 0.502425 0.561824 0.876282
O O1 0.654732 0.750000 0.730056
O O2 0.757398 0.993494 0.750236
O O3 0.641092 0.010030 0.607797
O O4 0.589484 0.004221 0.816241
O O5 0.989087 0.250000 0.627628
O O6 0.922033 0.517595 0.692072
O O7 0.000000 0.500000 0.500000
O O8 0.091186 0.486940 0.683398
O O9 0.141523 0.250000 0.191255
O O10 0.138779 0.961391 0.104168
O O11 0.190090 0.250000 0.748770
O O12 0.249847 0.957056 0.760474
O O13 0.136362 0.043081 0.894134
O O14 0.367326 0.750000 0.699892
O O15 0.417316 0.998994 0.810659
O O16 0.353824 0.027210 0.608357
O O17 0.500000 0.500000 0.500000
O O18 0.589499 0.750000 0.519980
O O19 0.096588 0.750000 0.954633
O O20 0.000000 0.000000 0.000000
O O21 0.502323 0.750000 0.879626
O O22 0.500000 0.500000 0.000000
#
# Coordination Sequence:
#
# PCOD8077258 Si02
#       8
#     4   4   4   4   4   4   4   4
#     4   9  21  41  63  89 125 165 205 253 310 368
#     4  11  25  44  65  91 128 169 211 262 317 378
#     4  11  23  41  67  95 126 168 212 260 316 375
#     4  11  25  44  66  93 126 168 213 259 315 379
#     4  11  24  42  64  94 128 163 207 263 317 372
#     4  11  21  40  66  92 124 164 211 261 312 374
#     4  12  24  42  67  95 127 164 210 264 317 375
#     4  10  22  42  62  88 126 166 206 255 309 369
#
# _framework density 20.287851
#
# number of rings (size 3 to 8) (size 9 to 14) (size 15 to 20)
#    0.000    1.250    2.500    3.000    3.500    2.500 
#    0.000    2.500    0.000    0.000    0.000    0.000 
#    0.000    0.000    0.000    0.000    0.000    0.000 
#
# Total GULP energy -396792.222592 kJ/mol
# GULP energy per Si atom -12399.756956 kJ/mol
# Density = 2.024167 g / cm^3
# Si number density = 20.287851 Si / 1000 Ang^3
#
#
#
# Elastic Constant Matrix: (Units=GPa)
#
#
# Indices 1 2 3 4 5 6 
#
# 1 160.5411 20.0091 66.1595 0.0000 11.8830 0.0000
# 2 20.0091 51.9136 13.6646 0.0000 9.2435 0.0000
# 3 66.1595 13.6646 164.2592 0.0000 11.1778 0.0000
# 4 0.0000 0.0000 0.0000 36.0076 0.0000 -2.0267
# 5 11.8830 9.2435 11.1778 0.0000 36.1623 0.0000
# 6 0.0000 0.0000 0.0000 -2.0267 0.0000 30.8066
#
#
#
# Elastic Compliance Matrix: (Units=1/GPa)
#
#
# Indices 1 2 3 4 5 6 
#
# 1 0.007751 -0.002028 -0.002876 0.000000 -0.001140 0.000000
# 2 -0.002028 0.021012 -0.000624 0.000000 -0.004512 0.000000
# 3 -0.002876 -0.000624 0.007378 0.000000 -0.001176 0.000000
# 4 0.000000 0.000000 0.000000 0.027875 0.000000 0.001834
# 5 -0.001140 -0.004512 -0.001176 0.000000 0.029544 0.000000
# 6 0.000000 0.000000 0.000000 0.001834 0.000000 0.032581
#
#
# Mechanical properties :
#
#
# Convention : Reuss Voigt Hill
#
# Bulk Modulus (GPa) = 39.86289 64.04225 51.95257
# Shear Modulus (GPa) = 34.35029 39.05401 36.70215
#
# Velocity S-wave (km/s) = 4.11925 4.39224 4.25793
# Velocity P-wave (km/s) = 6.50504 7.57348 7.05951
#
# Compressibility (1/GPa) = 0.02508599
#
# Stress axis : x y z
#
# Youngs Moduli (GPa) = 129.01389 47.59205 135.53505
#
# Poissons Ratio (x) = 0.09650 0.38976
# Poissons Ratio (y) = 0.26159 0.08461
# Poissons Ratio (z) = 0.37101 0.02971
#
# Static dielectric constant tensor:
#      x y z
#    x 3.913690 0.000000 0.119720 
#    y 0.000000 3.564960 0.000000 
#    z 0.119720 0.000000 3.783300 
# 
# 
# High freq. dielectric constant tensor:
#      x y z
#    x 1.806920 0.000000 0.001860 
#    y 0.000000 1.785010 0.000000 
#    z 0.001860 0.000000 1.808990 
# 
# From -- ./inp_files/38274.got.cif
#   From: 2010.06.25/outbox.cif.g09.slc.cpg/sg11_20_cif.got.tgz:38274.got - 2010.06.27 23:14:04.
