data_PCOD8077668
_publ_section_title
;
Structure prediction by ZEFSAII (Michael W. Deem and Ramdas Pophale) SiO2 
 PCOD8077668
Probable space group: P 21/M
;
_chemical_formula_sum "Si O2"
_cell_formula_units_Z 32
_cell_length_a 15.536067
_cell_length_b 17.467890
_cell_length_c 11.940205
_cell_angle_alpha 90.000000
_cell_angle_beta 152.696481
_cell_angle_gamma 90.000000
_cell_volume 1486.366704
_symmetry_space_group_name_H-M "P 21/M"
_symmetry_group_IT_number 11
_symmetry_cell_setting 'monoclinic'
loop_
_space_group_symop_operation_xyz
x,y,z
-x,1/2+y,-z
-x,-y,-z
x,1/2-y,z
loop_
_atom_site_type_symbol
_atom_site_label
_atom_site_fract_x
_atom_site_fract_y
_atom_site_fract_z
Si Si1 0.110259 0.080640 0.817553
Si Si2 0.472737 0.902162 0.641334
Si Si3 0.381106 0.071673 0.580406
Si Si4 0.158108 0.338407 0.640986
Si Si5 0.750824 0.339053 0.417626
Si Si6 0.369182 0.661135 0.288774
Si Si7 0.525707 0.084520 0.983545
Si Si8 0.984661 0.409733 0.236673
O O1 0.119884 0.106348 0.700427
O O2 0.949098 0.130107 0.693575
O O3 0.052994 0.992652 0.755720
O O4 0.302647 0.095489 0.105510
O O5 0.415582 0.860543 0.690225
O O6 0.393200 0.852342 0.448176
O O7 0.386904 0.986885 0.535654
O O8 0.444988 0.131216 0.559616
O O9 0.532784 0.078198 0.857207
O O10 0.171564 0.090375 0.376900
O O11 0.149289 0.250000 0.668740
O O12 0.361276 0.357861 0.827361
O O13 0.007568 0.352846 0.368280
O O14 0.761629 0.250000 0.409859
O O15 0.714428 0.379764 0.254743
O O16 0.343161 0.750000 0.233855
O O17 0.185718 0.616121 0.037413
O O18 0.500000 0.000000 0.000000
#
# Coordination Sequence:
#
# PCOD8077668 Si02
#       8
#     4   4   4   4   4   4   4   4
#     4  12  24  42  71 104 137 184 235 281 340 419
#     4  12  25  49  72 100 140 184 237 287 341 418
#     4  11  24  46  75 102 134 185 236 284 344 415
#     4  11  23  40  66 100 145 182 221 283 353 410
#     4  12  25  41  68 106 146 184 226 286 357 409
#     4  12  29  47  71 103 140 185 234 291 347 405
#     4  11  21  41  67 101 139 179 228 280 344 417
#     4  11  25  45  73 102 139 182 235 285 338 416
#
# _framework density 21.529007
#
# number of rings (size 3 to 8) (size 9 to 14) (size 15 to 20)
#    0.000    0.500    5.000    3.000    1.750    6.000 
#    0.000    0.000    0.000    0.000    0.000    0.000 
#    0.000    0.000    0.000    0.000    0.000    0.000 
#
# Total GULP energy -396973.011952 kJ/mol
# GULP energy per Si atom -12405.406623 kJ/mol
# Density = 2.148001 g / cm^3
# Si number density = 21.529007 Si / 1000 Ang^3
#
#
#
# Elastic Constant Matrix: (Units=GPa)
#
#
# Indices 1 2 3 4 5 6 
#
# 1 63.4463 28.3907 29.3242 0.0000 -1.7653 0.0000
# 2 28.3907 149.5447 27.0903 0.0000 4.9161 0.0000
# 3 29.3242 27.0903 93.8791 0.0000 5.9942 0.0000
# 4 0.0000 0.0000 0.0000 28.0228 0.0000 -3.8501
# 5 -1.7653 4.9161 5.9942 0.0000 30.8754 0.0000
# 6 0.0000 0.0000 0.0000 -3.8501 0.0000 33.9569
#
#
#
# Elastic Compliance Matrix: (Units=1/GPa)
#
#
# Indices 1 2 3 4 5 6 
#
# 1 0.019633 -0.002820 -0.005487 0.000000 0.002637 0.000000
# 2 -0.002820 0.007477 -0.001206 0.000000 -0.001118 0.000000
# 3 -0.005487 -0.001206 0.012881 0.000000 -0.002623 0.000000
# 4 0.000000 0.000000 0.000000 0.036250 0.000000 0.004110
# 5 0.002637 -0.001118 -0.002623 0.000000 0.033226 0.000000
# 6 0.000000 0.000000 0.000000 0.004110 0.000000 0.029915
#
#
# Mechanical properties :
#
#
# Convention : Reuss Voigt Hill
#
# Bulk Modulus (GPa) = 47.69561 52.94227 50.31894
# Shear Modulus (GPa) = 30.23039 33.37534 31.80287
#
# Velocity S-wave (km/s) = 3.75129 3.94159 3.84762
# Velocity P-wave (km/s) = 6.40040 6.73494 6.56980
#
# Compressibility (1/GPa) = 0.02096629
#
# Stress axis : x y z
#
# Youngs Moduli (GPa) = 50.93554 133.73549 77.63194
#
# Poissons Ratio (x) = 0.37712 0.42598
# Poissons Ratio (y) = 0.14363 0.09359
# Poissons Ratio (z) = 0.27949 0.16122
#
# Static dielectric constant tensor:
#      x y z
#    x 3.942010 0.000000 0.139490 
#    y 0.000000 3.940940 0.000000 
#    z 0.139490 0.000000 4.155540 
# 
# 
# High freq. dielectric constant tensor:
#      x y z
#    x 1.843570 0.000000 0.007560 
#    y 0.000000 1.852520 0.000000 
#    z 0.007560 0.000000 1.851830 
# 
# From -- ./inp_files/40042.got.cif
#   From: 2010.06.25/outbox.cif.g09.slc.cpg/sg11_21_cif.got.tgz:40042.got - 2010.06.27 23:14:04.
