data_PCOD8077452
_publ_section_title
;
Structure prediction by ZEFSAII (Michael W. Deem and Ramdas Pophale) SiO2 
 PCOD8077452
Probable space group: P 21/M
;
_chemical_formula_sum "Si O2"
_cell_formula_units_Z 28
_cell_length_a 18.116316
_cell_length_b 14.128317
_cell_length_c 5.211320
_cell_angle_alpha 90.000000
_cell_angle_beta 115.321618
_cell_angle_gamma 90.000000
_cell_volume 1205.698309
_symmetry_space_group_name_H-M "P 21/M"
_symmetry_group_IT_number 11
_symmetry_cell_setting 'monoclinic'
loop_
_space_group_symop_operation_xyz
x,y,z
-x,1/2+y,-z
-x,-y,-z
x,1/2-y,z
loop_
_atom_site_type_symbol
_atom_site_label
_atom_site_fract_x
_atom_site_fract_y
_atom_site_fract_z
Si Si1 0.701304 0.082802 0.698667
Si Si2 0.198701 0.411061 0.160814
Si Si3 0.446264 0.858136 0.803479
Si Si4 0.014734 0.063214 0.776971
Si Si5 0.713553 0.646019 0.225570
Si Si6 0.202362 0.750000 0.964137
Si Si7 0.580947 0.517249 0.872281
Si Si8 0.093471 0.750000 0.315917
O O1 0.650346 0.138849 0.407212
O O2 0.738866 0.159126 0.947356
O O3 0.778353 0.019576 0.724985
O O4 0.635547 0.009691 0.713418
O O5 0.217439 0.354327 0.449631
O O6 0.106588 0.400279 0.931351
O O7 0.249308 0.372383 0.998040
O O8 0.472299 0.750000 0.888911
O O9 0.507860 0.908901 0.687514
O O10 0.458399 0.920670 0.076373
O O11 0.958363 0.155692 0.708288
O O12 0.000000 0.000000 0.500000
O O13 0.000000 0.000000 0.000000
O O14 0.673899 0.750000 0.162834
O O15 0.641139 0.569864 0.169176
O O16 0.135163 0.750000 0.095143
O O17 0.164258 0.750000 0.628656
#
# Coordination Sequence:
#
# PCOD8077452 Si02
#       8
#     4   4   4   4   4   2   4   2
#     4  11  23  41  67  99 136 185 236 294 351 410
#     4  11  24  42  69  99 135 178 231 287 339 425
#     4  11  22  41  66  96 136 183 237 282 357 405
#     4  12  26  48  72 103 145 188 233 292 370 427
#     4  11  23  41  66  97 135 179 229 279 346 400
#     4  12  28  44  78 104 146 183 249 298 362 424
#     4  10  24  41  62  98 139 180 233 291 339 420
#     4  12  28  48  74 112 146 189 243 304 360 446
#
# _framework density 23.223058000000002
#
# number of rings (size 3 to 8) (size 9 to 14) (size 15 to 20)
#    0.000    0.857    2.143    4.714    5.000    1.143 
#    0.000    0.000    0.000    0.000    0.000    0.000 
#    0.000    0.000    0.000    0.000    0.000    0.000 
#
# Total GULP energy -346968.845043 kJ/mol
# GULP energy per Si atom -12391.744466 kJ/mol
# Density = 2.317020 g / cm^3
# Si number density = 23.223058 Si / 1000 Ang^3
#
#
#
# Elastic Constant Matrix: (Units=GPa)
#
#
# Indices 1 2 3 4 5 6 
#
# 1 66.0164 29.0669 20.9657 0.0000 8.5467 0.0000
# 2 29.0669 155.0873 29.3050 0.0000 5.4183 0.0000
# 3 20.9657 29.3050 108.7532 0.0000 7.9465 0.0000
# 4 0.0000 0.0000 0.0000 12.6058 0.0000 9.9114
# 5 8.5467 5.4183 7.9465 0.0000 46.6745 0.0000
# 6 0.0000 0.0000 0.0000 9.9114 0.0000 35.5167
#
#
#
# Elastic Compliance Matrix: (Units=1/GPa)
#
#
# Indices 1 2 3 4 5 6 
#
# 1 0.017442 -0.002720 -0.002450 0.000000 -0.002461 0.000000
# 2 -0.002720 0.007229 -0.001416 0.000000 -0.000100 0.000000
# 3 -0.002450 -0.001416 0.010130 0.000000 -0.001112 0.000000
# 4 0.000000 0.000000 0.000000 0.101627 0.000000 -0.028360
# 5 -0.002461 -0.000100 -0.001112 0.000000 0.022077 0.000000
# 6 0.000000 0.000000 0.000000 -0.028360 0.000000 0.036070
#
#
# Mechanical properties :
#
#
# Convention : Reuss Voigt Hill
#
# Bulk Modulus (GPa) = 46.23424 54.28135 50.25779
# Shear Modulus (GPa) = 23.26048 35.66069 29.46058
#
# Velocity S-wave (km/s) = 3.16826 3.92289 3.56559
# Velocity P-wave (km/s) = 5.77372 6.62898 6.21608
#
# Compressibility (1/GPa) = 0.02162899
#
# Stress axis : x y z
#
# Youngs Moduli (GPa) = 57.33272 138.33365 98.71429
#
# Poissons Ratio (x) = 0.37629 0.24182
# Poissons Ratio (y) = 0.15595 0.13980
# Poissons Ratio (z) = 0.14045 0.19591
#
# Static dielectric constant tensor:
#      x y z
#    x 4.555060 0.000000 0.416160 
#    y 0.000000 4.604030 0.000000 
#    z 0.416160 0.000000 4.138970 
# 
# 
# High freq. dielectric constant tensor:
#      x y z
#    x 1.916530 0.000000 0.015580 
#    y 0.000000 1.934930 0.000000 
#    z 0.015580 0.000000 1.918070 
# 
# From -- ./inp_files/7998.got.cif
#   From: 2010.06.25/outbox.cif.g09.slc.cpg/sg11_4_cif.got.tgz:7998.got - 2010.06.27 23:14:04.
