data_PCOD8077062
_publ_section_title
;
Structure prediction by ZEFSAII (Michael W. Deem and Ramdas Pophale) SiO2 
 PCOD8077062
Probable space group: P 21/M
;
_chemical_formula_sum "Si O2"
_cell_formula_units_Z 28
_cell_length_a 13.330157
_cell_length_b 8.715553
_cell_length_c 19.731443
_cell_angle_alpha 90.000000
_cell_angle_beta 144.565012
_cell_angle_gamma 90.000000
_cell_volume 1329.080882
_symmetry_space_group_name_H-M "P 21/M"
_symmetry_group_IT_number 11
_symmetry_cell_setting 'monoclinic'
loop_
_space_group_symop_operation_xyz
x,y,z
-x,1/2+y,-z
-x,-y,-z
x,1/2-y,z
loop_
_atom_site_type_symbol
_atom_site_label
_atom_site_fract_x
_atom_site_fract_y
_atom_site_fract_z
Si Si1 0.496271 0.070202 0.789010
Si Si2 0.612569 0.570718 0.121202
Si Si3 0.861206 0.929897 0.974033
Si Si4 0.063995 0.576431 0.217388
Si Si5 0.986698 0.429493 0.313936
Si Si6 0.549302 0.426705 0.597768
Si Si7 0.297164 0.569258 0.564226
O O1 0.483674 0.250000 0.767499
O O2 0.478746 0.030292 0.858303
O O3 0.678129 0.009754 0.860899
O O4 0.339575 0.986604 0.663486
O O5 0.623480 0.750000 0.114693
O O6 0.803915 0.505760 0.226371
O O7 0.500000 0.500000 0.000000
O O8 0.844876 0.750000 0.950685
O O9 0.916041 0.962825 0.081792
O O10 0.000000 0.000000 0.000000
O O11 0.044232 0.750000 0.234268
O O12 0.053367 0.462834 0.274840
O O13 0.245788 0.558095 0.278745
O O14 0.967831 0.250000 0.313186
O O15 0.120377 0.492405 0.442576
O O16 0.500000 0.500000 0.500000
O O17 0.487821 0.250000 0.566354
O O18 0.457760 0.520995 0.606125
O O19 0.272417 0.750000 0.548458
#
# Coordination Sequence:
#
# PCOD8077062 Si02
#       7
#     4   4   4   4   4   4   4
#     4  11  25  45  67  94 129 170 214 265 324 387
#     4  11  25  46  72  99 130 166 211 266 323 385
#     4  11  23  40  64  94 129 170 214 263 317 379
#     4  10  22  39  61  90 128 169 214 266 320 379
#     4  12  25  41  66  96 128 167 214 266 320 384
#     4  11  21  36  60  92 131 173 215 263 317 380
#     4  12  25  42  65  94 131 172 216 268 324 386
#
# _framework density 21.067191999999999
#
# number of rings (size 3 to 8) (size 9 to 14) (size 15 to 20)
#    0.000    0.857    1.429    6.000    0.000    8.000 
#    0.000    0.000    0.000    0.000    0.000    0.000 
#    0.000    0.000    0.000    0.000    0.000    0.000 
#
# Total GULP energy -347397.469068 kJ/mol
# GULP energy per Si atom -12407.052467 kJ/mol
# Density = 2.101924 g / cm^3
# Si number density = 21.067192 Si / 1000 Ang^3
#
#
#
# Elastic Constant Matrix: (Units=GPa)
#
#
# Indices 1 2 3 4 5 6 
#
# 1 99.6478 71.6042 57.3715 0.0000 7.8659 0.0000
# 2 71.6042 28.0009 20.6307 0.0000 -24.8731 0.0000
# 3 57.3715 20.6307 129.9512 0.0000 -0.8274 0.0000
# 4 0.0000 0.0000 0.0000 38.3897 0.0000 0.5676
# 5 7.8659 -24.8731 -0.8274 0.0000 32.0665 0.0000
# 6 0.0000 0.0000 0.0000 0.5676 0.0000 36.7983
#
#
#
# Elastic Compliance Matrix: (Units=1/GPa)
#
#
# Indices 1 2 3 4 5 6 
#
# 1 -0.001300 0.015888 -0.001868 0.000000 0.012594 0.000000
# 2 0.015888 -0.016663 -0.004477 0.000000 -0.016938 0.000000
# 3 -0.001868 -0.004477 0.009213 0.000000 -0.002776 0.000000
# 4 0.000000 0.000000 0.000000 0.026055 0.000000 -0.000402
# 5 0.012594 -0.016938 -0.002776 0.000000 0.014886 0.000000
# 6 0.000000 0.000000 0.000000 -0.000402 0.000000 0.027181
#
#
# Mechanical properties :
#
#
# Convention : Reuss Voigt Hill
#
# Bulk Modulus (GPa) = 96.74768 61.86808 79.30788
# Shear Modulus (GPa) = 114.33218 28.65049 71.49134
#
# Velocity S-wave (km/s) = 7.37483 3.69176 5.83169
# Velocity P-wave (km/s) = 10.88763 6.89949 9.11437
#
# Compressibility (1/GPa) = 0.01033616
#
# Stress axis : x y z
#
# Youngs Moduli (GPa) = -769.36270 -60.01402 108.54157
#
# Poissons Ratio (x) = 0.95350 0.20279
# Poissons Ratio (y) = 12.22355 0.48592
# Poissons Ratio (z) = -1.43740 -0.26867
#
# Static dielectric constant tensor:
#      x y z
#    x 3.918030 0.000000 0.050650 
#    y 0.000000 3.837860 0.000000 
#    z 0.050650 0.000000 3.914420 
# 
# 
# High freq. dielectric constant tensor:
#      x y z
#    x 1.825100 0.000000 -0.000730 
#    y 0.000000 1.837830 0.000000 
#    z -0.000730 0.000000 1.844910 
# 
# From -- ./inp_files/65454.got.cif
#   From: 2010.06.25/outbox.cif.g09.slc.cpg/sg11_33_cif.got.tgz:65454.got - 2010.06.27 23:14:04.
