data_PCOD8077805
_publ_section_title
;
Structure prediction by ZEFSAII (Michael W. Deem and Ramdas Pophale) SiO2 
 PCOD8077805
Probable space group: P 21/M
;
_chemical_formula_sum "Si O2"
_cell_formula_units_Z 24
_cell_length_a 14.412524
_cell_length_b 8.853789
_cell_length_c 9.856411
_cell_angle_alpha 90.000000
_cell_angle_beta 79.959536
_cell_angle_gamma 90.000000
_cell_volume 1238.469404
_symmetry_space_group_name_H-M "P 21/M"
_symmetry_group_IT_number 11
_symmetry_cell_setting 'monoclinic'
loop_
_space_group_symop_operation_xyz
x,y,z
-x,1/2+y,-z
-x,-y,-z
x,1/2-y,z
loop_
_atom_site_type_symbol
_atom_site_label
_atom_site_fract_x
_atom_site_fract_y
_atom_site_fract_z
Si Si1 0.119800 0.571827 0.090313
Si Si2 0.537781 0.576435 0.855768
Si Si3 0.267338 0.570499 0.273368
Si Si4 0.240562 0.426587 0.564018
Si Si5 0.575032 0.423814 0.383212
Si Si6 0.091546 0.074835 0.824716
O O1 0.126094 0.750000 0.083632
O O2 0.196724 0.508787 0.175991
O O3 0.015943 0.517280 0.164146
O O4 0.143138 0.510055 0.935039
O O5 0.563008 0.750000 0.878806
O O6 0.629328 0.492180 0.778591
O O7 0.456710 0.562936 0.764037
O O8 0.500000 0.500000 0.000000
O O9 0.271589 0.750000 0.274529
O O10 0.228756 0.512103 0.425943
O O11 0.257406 0.250000 0.532826
O O12 0.326840 0.489964 0.629264
O O13 0.145340 0.458594 0.671533
O O14 0.500000 0.500000 0.500000
O O15 0.587163 0.250000 0.424375
O O16 0.093790 0.250000 0.861316
#
# Coordination Sequence:
#
# PCOD8077805 Si02
#       6
#     4   4   4   4   4   4
#     4   9  20  39  61  86 118 152 192 240 290 346
#     4  11  25  42  61  87 119 155 196 240 291 348
#     4  11  23  39  60  87 119 155 195 243 293 344
#     4  11  23  38  59  88 119 155 197 241 291 348
#     4  11  23  40  62  86 117 156 196 239 288 345
#     4   9  20  39  61  87 117 152 193 238 290 348
#
# _framework density 19.378758999999999
#
# number of rings (size 3 to 8) (size 9 to 14) (size 15 to 20)
#    0.000    1.667    1.667    2.000    2.333    5.333 
#    0.000    0.000    0.000    0.000    0.000    0.000 
#    0.000    0.000    0.000    0.000    0.000    0.000 
#
# Total GULP energy -297703.043728 kJ/mol
# GULP energy per Si atom -12404.293489 kJ/mol
# Density = 1.933465 g / cm^3
# Si number density = 19.378759 Si / 1000 Ang^3
#
#
#
# Elastic Constant Matrix: (Units=GPa)
#
#
# Indices 1 2 3 4 5 6 
#
# 1 64.7091 21.6655 24.4949 0.0000 13.0737 0.0000
# 2 21.6655 78.8002 36.3352 0.0000 2.5639 0.0000
# 3 24.4949 36.3352 109.5190 0.0000 3.8200 0.0000
# 4 0.0000 0.0000 0.0000 37.2472 0.0000 0.8443
# 5 13.0737 2.5639 3.8200 0.0000 35.6823 0.0000
# 6 0.0000 0.0000 0.0000 0.8443 0.0000 27.2859
#
#
#
# Elastic Compliance Matrix: (Units=1/GPa)
#
#
# Indices 1 2 3 4 5 6 
#
# 1 0.019062 -0.003742 -0.002798 0.000000 -0.006416 0.000000
# 2 -0.003742 0.015728 -0.004406 0.000000 0.000713 0.000000
# 3 -0.002798 -0.004406 0.011213 0.000000 0.000141 0.000000
# 4 0.000000 0.000000 0.000000 0.026867 0.000000 -0.000831
# 5 -0.006416 0.000713 0.000141 0.000000 0.030309 0.000000
# 6 0.000000 0.000000 0.000000 -0.000831 0.000000 0.036675
#
#
# Mechanical properties :
#
#
# Convention : Reuss Voigt Hill
#
# Bulk Modulus (GPa) = 41.47466 46.44661 43.96064
# Shear Modulus (GPa) = 29.44939 31.41191 30.43065
#
# Velocity S-wave (km/s) = 3.90253 4.03046 3.96701
# Velocity P-wave (km/s) = 6.46180 6.75865 6.61189
#
# Compressibility (1/GPa) = 0.02411111
#
# Stress axis : x y z
#
# Youngs Moduli (GPa) = 52.46016 63.58279 89.17837
#
# Poissons Ratio (x) = 0.23793 0.24953
# Poissons Ratio (y) = 0.19630 0.39291
# Poissons Ratio (z) = 0.14679 0.28014
#
# Static dielectric constant tensor:
#      x y z
#    x 4.234140 0.000000 -0.340750 
#    y 0.000000 3.648720 0.000000 
#    z -0.340750 0.000000 3.975250 
# 
# 
# High freq. dielectric constant tensor:
#      x y z
#    x 1.759240 0.000000 0.001420 
#    y 0.000000 1.762650 0.000000 
#    z 0.001420 0.000000 1.762550 
# 
# From -- ./inp_files/20305.got.cif
#   From: 2010.06.25/outbox.cif.g09.slc.cpg/sg11_11_cif.got.tgz:20305.got - 2010.06.27 23:14:04.
