data_PCOD8077301
_publ_section_title
;
Structure prediction by ZEFSAII (Michael W. Deem and Ramdas Pophale) SiO2 
 PCOD8077301
Probable space group: P 21/M
;
_chemical_formula_sum "Si O2"
_cell_formula_units_Z 28
_cell_length_a 13.625156
_cell_length_b 8.678465
_cell_length_c 12.547760
_cell_angle_alpha 90.000000
_cell_angle_beta 67.353291
_cell_angle_gamma 90.000000
_cell_volume 1369.315928
_symmetry_space_group_name_H-M "P 21/M"
_symmetry_group_IT_number 11
_symmetry_cell_setting 'monoclinic'
loop_
_space_group_symop_operation_xyz
x,y,z
-x,1/2+y,-z
-x,-y,-z
x,1/2-y,z
loop_
_atom_site_type_symbol
_atom_site_label
_atom_site_fract_x
_atom_site_fract_y
_atom_site_fract_z
Si Si1 0.610907 0.570943 0.423737
Si Si2 0.703665 0.574194 0.162197
Si Si3 0.080441 0.571782 0.885270
Si Si4 0.980283 0.066777 0.321464
Si Si5 0.614865 0.571005 0.968421
Si Si6 0.213626 0.066923 0.483541
Si Si7 0.787821 0.067345 0.739718
O O1 0.500000 0.500000 0.500000
O O2 0.602484 0.750000 0.447792
O O3 0.630164 0.529763 0.292644
O O4 0.706895 0.507102 0.457076
O O5 0.744604 0.750000 0.155291
O O6 0.802826 0.460949 0.120554
O O7 0.637814 0.548376 0.083234
O O8 0.056767 0.750000 0.892326
O O9 0.062644 0.505498 0.774307
O O10 0.000000 0.500000 0.000000
O O11 0.973605 0.250000 0.336586
O O12 0.906239 0.988779 0.441785
O O13 0.101023 0.014411 0.282540
O O14 0.616243 0.750000 0.935046
O O15 0.702037 0.481079 0.863520
O O16 0.500000 0.500000 0.000000
O O17 0.213802 0.250000 0.470517
O O18 0.253485 0.988491 0.357972
O O19 0.802136 0.250000 0.735941
#
# Coordination Sequence:
#
# PCOD8077301 Si02
#       7
#     4   4   4   4   4   4   4
#     4  10  23  41  65  96 128 165 207 259 318 376
#     4  10  22  43  66  92 127 164 207 261 314 370
#     4  11  23  37  61  93 127 167 208 257 311 373
#     4  11  23  41  63  94 130 167 211 261 318 380
#     4  11  25  45  68  95 128 168 215 266 317 376
#     4  11  23  42  67  96 129 168 211 261 318 382
#     4  12  26  43  65  93 129 172 215 264 316 376
#
# _framework density 20.448167999999999
#
# number of rings (size 3 to 8) (size 9 to 14) (size 15 to 20)
#    0.000    1.143    1.429    4.286    2.000    8.000 
#    0.000    0.000    0.000    0.000    0.000    0.000 
#    0.000    0.000    0.000    0.000    0.000    0.000 
#
# Total GULP energy -347345.556877 kJ/mol
# GULP energy per Si atom -12405.198460 kJ/mol
# Density = 2.040163 g / cm^3
# Si number density = 20.448168 Si / 1000 Ang^3
#
#
#
# Elastic Constant Matrix: (Units=GPa)
#
#
# Indices 1 2 3 4 5 6 
#
# 1 110.8337 18.2287 52.2612 0.0000 -5.9397 0.0000
# 2 18.2287 55.1528 32.2989 0.0000 3.2934 0.0000
# 3 52.2612 32.2989 132.2274 0.0000 -2.4948 0.0000
# 4 0.0000 0.0000 0.0000 39.0197 0.0000 -5.1298
# 5 -5.9397 3.2934 -2.4948 0.0000 41.6580 0.0000
# 6 0.0000 0.0000 0.0000 -5.1298 0.0000 32.9053
#
#
#
# Elastic Compliance Matrix: (Units=1/GPa)
#
#
# Indices 1 2 3 4 5 6 
#
# 1 0.011256 -0.001423 -0.004074 0.000000 0.001473 0.000000
# 2 -0.001423 0.021503 -0.004731 0.000000 -0.002186 0.000000
# 3 -0.004074 -0.004731 0.010336 0.000000 0.000412 0.000000
# 4 0.000000 0.000000 0.000000 0.026164 0.000000 0.004079
# 5 0.001473 -0.002186 0.000412 0.000000 0.024413 0.000000
# 6 0.000000 0.000000 0.000000 0.004079 0.000000 0.031026
#
#
# Mechanical properties :
#
#
# Convention : Reuss Voigt Hill
#
# Bulk Modulus (GPa) = 44.16937 55.97685 50.07311
# Shear Modulus (GPa) = 32.74373 35.74493 34.24433
#
# Velocity S-wave (km/s) = 4.00597 4.18553 4.09674
# Velocity P-wave (km/s) = 6.56084 7.12690 6.84972
#
# Compressibility (1/GPa) = 0.02264012
#
# Stress axis : x y z
#
# Youngs Moduli (GPa) = 88.83914 46.50497 96.74658
#
# Poissons Ratio (x) = 0.06616 0.39411
# Poissons Ratio (y) = 0.12640 0.45775
# Poissons Ratio (z) = 0.36189 0.22004
#
# Static dielectric constant tensor:
#      x y z
#    x 3.604190 0.000000 0.014060 
#    y 0.000000 3.456010 0.000000 
#    z 0.014060 0.000000 3.738840 
# 
# 
# High freq. dielectric constant tensor:
#      x y z
#    x 1.806950 0.000000 0.004400 
#    y 0.000000 1.803490 0.000000 
#    z 0.004400 0.000000 1.818220 
# 
# From -- ./inp_files/37838.got.cif
#   From: 2010.06.25/outbox.cif.g09.slc.cpg/sg11_19_cif.got.tgz:37838.got - 2010.06.27 23:14:04.
