data_PCOD8077361
_publ_section_title
;
Structure prediction by ZEFSAII (Michael W. Deem and Ramdas Pophale) SiO2 
 PCOD8077361
Probable space group: P 21/M
;
_chemical_formula_sum "Si O2"
_cell_formula_units_Z 28
_cell_length_a 11.978744
_cell_length_b 8.676776
_cell_length_c 15.028525
_cell_angle_alpha 90.000000
_cell_angle_beta 60.026086
_cell_angle_gamma 90.000000
_cell_volume 1353.102691
_symmetry_space_group_name_H-M "P 21/M"
_symmetry_group_IT_number 11
_symmetry_cell_setting 'monoclinic'
loop_
_space_group_symop_operation_xyz
x,y,z
-x,1/2+y,-z
-x,-y,-z
x,1/2-y,z
loop_
_atom_site_type_symbol
_atom_site_label
_atom_site_fract_x
_atom_site_fract_y
_atom_site_fract_z
Si Si1 0.755208 0.078233 0.703925
Si Si2 0.877044 0.569724 0.813897
Si Si3 0.859008 0.930099 0.308523
Si Si4 0.500247 0.073906 0.224808
Si Si5 0.103860 0.925043 0.521549
Si Si6 0.415676 0.567478 0.614514
Si Si7 0.624035 0.072919 0.997716
O O1 0.774018 0.250000 0.735048
O O2 0.770607 0.076599 0.591303
O O3 0.857099 0.970530 0.716824
O O4 0.611564 0.022052 0.778967
O O5 0.887202 0.750000 0.824174
O O6 0.012719 0.494950 0.791507
O O7 0.756864 0.506955 0.917080
O O8 0.846214 0.750000 0.294935
O O9 0.868589 0.961359 0.409300
O O10 0.731790 0.014951 0.325894
O O11 0.454032 0.250000 0.251163
O O12 0.532356 0.010576 0.310262
O O13 0.617745 0.058005 0.108061
O O14 0.069946 0.750000 0.566857
O O15 0.000000 0.000000 0.500000
O O16 0.500000 0.500000 0.500000
O O17 0.420442 0.750000 0.603546
O O18 0.629219 0.250000 0.966263
O O19 0.500000 0.000000 0.000000
#
# Coordination Sequence:
#
# PCOD8077361 Si02
#       7
#     4   4   4   4   4   4   4
#     4  11  22  35  57  89 125 162 205 255 312 380
#     4  12  24  39  61  90 126 166 208 261 322 382
#     4  12  25  42  63  90 126 169 215 267 324 382
#     4  10  23  41  64  91 125 166 211 260 317 379
#     4  11  22  35  55  86 123 162 204 253 312 380
#     4  11  24  45  69  96 128 169 217 264 316 381
#     4  11  22  39  63  95 130 168 211 263 321 384
#
# _framework density 20.693183000000001
#
# number of rings (size 3 to 8) (size 9 to 14) (size 15 to 20)
#    0.000    0.857    2.857    5.143    0.000    5.714 
#    0.000    0.714    0.000    0.000    0.000    0.000 
#    0.000    0.000    0.000    0.000    0.000    0.000 
#
# Total GULP energy -347136.825450 kJ/mol
# GULP energy per Si atom -12397.743766 kJ/mol
# Density = 2.064608 g / cm^3
# Si number density = 20.693183 Si / 1000 Ang^3
#
#
#
# Elastic Constant Matrix: (Units=GPa)
#
#
# Indices 1 2 3 4 5 6 
#
# 1 101.4546 29.8219 27.7424 0.0000 -18.1088 0.0000
# 2 29.8219 101.0059 31.9491 0.0000 -8.3050 0.0000
# 3 27.7424 31.9491 100.9585 0.0000 -10.5658 0.0000
# 4 0.0000 0.0000 0.0000 32.4391 0.0000 -6.4691
# 5 -18.1088 -8.3050 -10.5658 0.0000 37.1565 0.0000
# 6 0.0000 0.0000 0.0000 -6.4691 0.0000 32.9571
#
#
#
# Elastic Compliance Matrix: (Units=1/GPa)
#
#
# Indices 1 2 3 4 5 6 
#
# 1 0.011985 -0.002518 -0.002004 0.000000 0.004709 0.000000
# 2 -0.002518 0.011614 -0.002927 0.000000 0.000536 0.000000
# 3 -0.002004 -0.002927 0.011555 0.000000 0.001655 0.000000
# 4 0.000000 0.000000 0.000000 0.032083 0.000000 0.006297
# 5 0.004709 0.000536 0.001655 0.000000 0.029798 0.000000
# 6 0.000000 0.000000 0.000000 0.006297 0.000000 0.031579
#
#
# Mechanical properties :
#
#
# Convention : Reuss Voigt Hill
#
# Bulk Modulus (GPa) = 49.36684 53.60510 51.48597
# Shear Modulus (GPa) = 33.27484 34.77093 34.02288
#
# Velocity S-wave (km/s) = 4.01435 4.10360 4.05922
# Velocity P-wave (km/s) = 6.73758 6.95800 6.84868
#
# Compressibility (1/GPa) = 0.02025651
#
# Stress axis : x y z
#
# Youngs Moduli (GPa) = 83.43729 86.10469 86.54049
#
# Poissons Ratio (x) = 0.21677 0.17342
# Poissons Ratio (y) = 0.21006 0.25333
# Poissons Ratio (z) = 0.16720 0.25206
#
# Static dielectric constant tensor:
#      x y z
#    x 3.543540 0.000000 -0.320190 
#    y 0.000000 3.780080 0.000000 
#    z -0.320190 0.000000 3.987270 
# 
# 
# High freq. dielectric constant tensor:
#      x y z
#    x 1.794080 0.000000 -0.016940 
#    y 0.000000 1.821150 0.000000 
#    z -0.016940 0.000000 1.821160 
# 
# From -- ./inp_files/49175.got.cif
#   From: 2010.06.25/outbox.cif.g09.slc.cpg/sg11_25_cif.got.tgz:49175.got - 2010.06.27 23:14:04.
