data_PCOD8077839
_publ_section_title
;
Structure prediction by ZEFSAII (Michael W. Deem and Ramdas Pophale) SiO2 
 PCOD8077839
Probable space group: P 21/M
;
_chemical_formula_sum "Si O2"
_cell_formula_units_Z 22
_cell_length_a 6.506790
_cell_length_b 14.085108
_cell_length_c 11.394578
_cell_angle_alpha 90.000000
_cell_angle_beta 94.587009
_cell_angle_gamma 90.000000
_cell_volume 1040.955001
_symmetry_space_group_name_H-M "P 21/M"
_symmetry_group_IT_number 11
_symmetry_cell_setting 'monoclinic'
loop_
_space_group_symop_operation_xyz
x,y,z
-x,1/2+y,-z
-x,-y,-z
x,1/2-y,z
loop_
_atom_site_type_symbol
_atom_site_label
_atom_site_fract_x
_atom_site_fract_y
_atom_site_fract_z
Si Si1 0.524926 0.381525 0.335811
Si Si2 0.151538 0.250000 0.353132
Si Si3 0.990787 0.750000 0.011092
Si Si4 0.499535 0.551832 0.189939
Si Si5 0.747820 0.250000 0.183423
Si Si6 0.718710 0.250000 0.769877
Si Si7 0.794505 0.557067 0.998404
Si Si8 0.209346 0.750000 0.498722
O O1 0.294097 0.343861 0.350001
O O2 0.526628 0.495844 0.316462
O O3 0.617567 0.341465 0.217167
O O4 0.675199 0.344552 0.446407
O O5 0.979700 0.250000 0.245178
O O6 0.030052 0.250000 0.472143
O O7 0.846256 0.664075 0.966649
O O8 0.065760 0.750000 0.149333
O O9 0.214364 0.750000 0.954041
O O10 0.414515 0.656661 0.208945
O O11 0.712089 0.558144 0.128235
O O12 0.352587 0.487282 0.104532
O O13 0.787575 0.250000 0.639323
O O14 0.000000 0.500000 0.000000
#
# Coordination Sequence:
#
# PCOD8077839 Si02
#       8
#     4   2   2   4   2   2   4   2
#     4   9  19  38  66  92 114 160 215 260 304 358
#     4   8  16  38  65  93 113 154 202 270 308 350
#     4  12  22  40  64  92 133 171 199 249 318 381
#     4  11  24  41  65  91 130 165 208 258 317 376
#     4   9  18  32  62  94 123 148 203 259 301 366
#     4  12  26  44  59  90 136 172 203 255 322 374
#     4  11  23  41  62  97 131 166 207 250 314 388
#     4   9  22  44  62  91 127 157 217 265 301 369
#
# _framework density 21.134437999999999
#
# number of rings (size 3 to 8) (size 9 to 14) (size 15 to 20)
#    0.000    2.182    1.818    2.727    2.545    3.636 
#    6.545    0.909    0.000    0.000    0.000    0.000 
#    0.000    0.000    0.000    0.000    0.000    0.000 
#
# Total GULP energy -272662.177631 kJ/mol
# GULP energy per Si atom -12393.735347 kJ/mol
# Density = 2.108633 g / cm^3
# Si number density = 21.134438 Si / 1000 Ang^3
#
#
#
# Elastic Constant Matrix: (Units=GPa)
#
#
# Indices 1 2 3 4 5 6 
#
# 1 122.2175 46.1115 41.3329 0.0000 -31.2534 0.0000
# 2 46.1115 162.2964 45.8515 0.0000 -15.3975 0.0000
# 3 41.3329 45.8515 121.2247 0.0000 -16.5467 0.0000
# 4 0.0000 0.0000 0.0000 22.3653 0.0000 3.1376
# 5 -31.2534 -15.3975 -16.5467 0.0000 29.2361 0.0000
# 6 0.0000 0.0000 0.0000 3.1376 0.0000 16.4319
#
#
#
# Elastic Compliance Matrix: (Units=1/GPa)
#
#
# Indices 1 2 3 4 5 6 
#
# 1 0.012429 -0.001910 -0.001993 0.000000 0.011152 0.000000
# 2 -0.001910 0.007343 -0.002034 0.000000 0.000674 0.000000
# 3 -0.001993 -0.002034 0.010036 0.000000 0.002479 0.000000
# 4 0.000000 0.000000 0.000000 0.045943 0.000000 -0.008773
# 5 0.011152 0.000674 0.002479 0.000000 0.047884 0.000000
# 6 0.000000 0.000000 0.000000 -0.008773 0.000000 0.062532
#
#
# Mechanical properties :
#
#
# Convention : Reuss Voigt Hill
#
# Bulk Modulus (GPa) = 55.76129 74.70337 65.23233
# Shear Modulus (GPa) = 24.50754 31.76951 28.13853
#
# Velocity S-wave (km/s) = 3.40899 3.88133 3.65280
# Velocity P-wave (km/s) = 6.47582 7.45049 6.98019
#
# Compressibility (1/GPa) = 0.01793359
#
# Stress axis : x y z
#
# Youngs Moduli (GPa) = 80.45918 136.18643 99.63810
#
# Poissons Ratio (x) = 0.26013 0.19857
# Poissons Ratio (y) = 0.15369 0.20267
# Poissons Ratio (z) = 0.16035 0.27701
#
# Static dielectric constant tensor:
#      x y z
#    x 3.535470 0.000000 -0.392710 
#    y 0.000000 3.812300 0.000000 
#    z -0.392710 0.000000 3.738830 
# 
# 
# High freq. dielectric constant tensor:
#      x y z
#    x 1.834600 0.000000 -0.018000 
#    y 0.000000 1.828530 0.000000 
#    z -0.018000 0.000000 1.814400 
# 
# From -- ./inp_files/29626.got.cif
#   From: 2010.06.25/outbox.cif.g09.slc.cpg/sg11_15_cif.got.tgz:29626.got - 2010.06.27 23:14:04.
