data_PCOD8077751
_publ_section_title
;
Structure prediction by ZEFSAII (Michael W. Deem and Ramdas Pophale) SiO2 
 PCOD8077751
Probable space group: P 21/M
;
_chemical_formula_sum "Si O2"
_cell_formula_units_Z 20
_cell_length_a 13.859847
_cell_length_b 16.391275
_cell_length_c 12.056792
_cell_angle_alpha 90.000000
_cell_angle_beta 20.558701
_cell_angle_gamma 90.000000
_cell_volume 961.870141
_symmetry_space_group_name_H-M "P 21/M"
_symmetry_group_IT_number 11
_symmetry_cell_setting 'monoclinic'
loop_
_space_group_symop_operation_xyz
x,y,z
-x,1/2+y,-z
-x,-y,-z
x,1/2-y,z
loop_
_atom_site_type_symbol
_atom_site_label
_atom_site_fract_x
_atom_site_fract_y
_atom_site_fract_z
Si Si1 0.432065 0.892736 0.431963
Si Si2 0.785426 0.014747 0.636138
Si Si3 0.250806 0.066632 0.554865
Si Si4 0.302341 0.655749 0.808633
Si Si5 0.009493 0.658446 0.721037
O O1 0.473809 0.861231 0.511771
O O2 0.199752 0.836797 0.625209
O O3 0.331374 0.985888 0.536418
O O4 0.721569 0.885708 0.056618
O O5 0.825651 0.106866 0.548713
O O6 0.808713 0.951198 0.509848
O O7 0.000000 0.000000 0.500000
O O8 0.500000 0.000000 0.000000
O O9 0.505259 0.128968 0.295421
O O10 0.976021 0.104525 0.901111
O O11 0.227349 0.750000 0.904105
O O12 0.955905 0.750000 0.734916
#
# Coordination Sequence:
#
# PCOD8077751 Si02
#       5
#     4   4   4   4   4
#     4  11  22  39  64  90 125 164 201 247 308 373
#     4  11  23  43  65  84 115 160 206 252 307 359
#     4  11  23  41  62  88 121 163 212 252 300 375
#     4  12  23  38  60  93 131 166 198 244 305 374
#     4  11  22  39  63  95 121 151 205 267 310 355
#
# _framework density 20.792828
#
# number of rings (size 3 to 8) (size 9 to 14) (size 15 to 20)
#    0.000    0.800    0.000   10.800    0.000    0.000 
#    0.000    6.000    0.000    0.000    0.000    0.000 
#    0.000    0.000    0.000    0.000    0.000    0.000 
#
# Total GULP energy -248065.967277 kJ/mol
# GULP energy per Si atom -12403.298364 kJ/mol
# Density = 2.074550 g / cm^3
# Si number density = 20.792828 Si / 1000 Ang^3
#
#
#
# Elastic Constant Matrix: (Units=GPa)
#
#
# Indices 1 2 3 4 5 6 
#
# 1 130.1475 50.1021 30.0859 0.0000 -10.6714 0.0000
# 2 50.1021 147.3392 70.2077 0.0000 7.0006 0.0000
# 3 30.0859 70.2077 132.5588 0.0000 -18.2946 0.0000
# 4 0.0000 0.0000 0.0000 20.1983 0.0000 -7.9008
# 5 -10.6714 7.0006 -18.2946 0.0000 37.8710 0.0000
# 6 0.0000 0.0000 0.0000 -7.9008 0.0000 28.1225
#
#
#
# Elastic Compliance Matrix: (Units=1/GPa)
#
#
# Indices 1 2 3 4 5 6 
#
# 1 0.009212 -0.003355 0.000139 0.000000 0.003283 0.000000
# 2 -0.003355 0.010999 -0.005866 0.000000 -0.005813 0.000000
# 3 0.000139 -0.005866 0.011544 0.000000 0.006700 0.000000
# 4 0.000000 0.000000 0.000000 0.055621 0.000000 0.015626
# 5 0.003283 -0.005813 0.006700 0.000000 0.031642 0.000000
# 6 0.000000 0.000000 0.000000 0.015626 0.000000 0.039949
#
#
# Mechanical properties :
#
#
# Convention : Reuss Voigt Hill
#
# Bulk Modulus (GPa) = 73.57656 78.98188 76.27922
# Shear Modulus (GPa) = 27.52359 34.54835 31.03597
#
# Velocity S-wave (km/s) = 3.64222 4.08063 3.86765
# Velocity P-wave (km/s) = 7.29041 7.76336 7.53060
#
# Compressibility (1/GPa) = 0.01359129
#
# Stress axis : x y z
#
# Youngs Moduli (GPa) = 108.55268 90.91393 86.62492
#
# Poissons Ratio (x) = 0.30500 -0.01205
# Poissons Ratio (y) = 0.36418 0.50818
# Poissons Ratio (z) = -0.01510 0.53334
#
# Static dielectric constant tensor:
#      x y z
#    x 4.253110 0.000000 0.027660 
#    y 0.000000 3.791060 0.000000 
#    z 0.027660 0.000000 3.795530 
# 
# 
# High freq. dielectric constant tensor:
#      x y z
#    x 1.818330 0.000000 -0.020330 
#    y 0.000000 1.815390 0.000000 
#    z -0.020330 0.000000 1.819540 
# 
# From -- ./inp_files/4355.got.cif
#   From: 2010.06.25/outbox.cif.g09.slc.cpg/sg11_3_cif.got.tgz:4355.got - 2010.06.27 23:14:04.
