data_PCOD8077899
_publ_section_title
;
Structure prediction by ZEFSAII (Michael W. Deem and Ramdas Pophale) SiO2 
 PCOD8077899
Probable space group: P 21/M
;
_chemical_formula_sum "Si O2"
_cell_formula_units_Z 28
_cell_length_a 7.919823
_cell_length_b 24.137989
_cell_length_c 8.664252
_cell_angle_alpha 90.000000
_cell_angle_beta 130.723151
_cell_angle_gamma 90.000000
_cell_volume 1255.286340
_symmetry_space_group_name_H-M "P 21/M"
_symmetry_group_IT_number 11
_symmetry_cell_setting 'monoclinic'
loop_
_space_group_symop_operation_xyz
x,y,z
-x,1/2+y,-z
-x,-y,-z
x,1/2-y,z
loop_
_atom_site_type_symbol
_atom_site_label
_atom_site_fract_x
_atom_site_fract_y
_atom_site_fract_z
Si Si1 0.984355 0.855399 0.661543
Si Si2 0.399924 0.686593 0.739862
Si Si3 0.756419 0.899371 0.003574
Si Si4 0.182740 0.454382 0.636951
Si Si5 0.818619 0.386966 0.905318
Si Si6 0.479876 0.187704 0.538547
Si Si7 0.601039 0.498342 0.730053
O O1 0.859091 0.905399 0.506171
O O2 0.788672 0.816372 0.611220
O O3 0.143394 0.823644 0.634820
O O4 0.142038 0.877444 0.890994
O O5 0.464841 0.750000 0.816558
O O6 0.563795 0.644948 0.929538
O O7 0.432747 0.673067 0.579586
O O8 0.688160 0.940695 0.823775
O O9 0.823890 0.933843 0.192794
O O10 0.971449 0.865714 0.070104
O O11 0.420311 0.481688 0.749560
O O12 0.000000 0.500000 0.500000
O O13 0.596815 0.353570 0.728159
O O14 0.794581 0.452407 0.855014
O O15 0.549261 0.250000 0.623994
O O16 0.500000 0.500000 0.500000
#
# Coordination Sequence:
#
# PCOD8077899 Si02
#       7
#     4   4   4   4   4   4   4
#     4  12  24  47  71 102 141 183 240 292 358 425
#     4  11  25  46  71 101 139 184 235 296 358 421
#     4  12  24  43  69 105 145 188 240 293 361 428
#     4  12  24  42  66 102 145 186 235 293 354 428
#     4  12  24  44  71 103 139 186 236 293 356 427
#     4  11  25  47  71 101 139 182 238 297 358 424
#     4  12  23  41  68 104 143 188 238 293 355 433
#
# _framework density 22.305665999999999
#
# number of rings (size 3 to 8) (size 9 to 14) (size 15 to 20)
#    0.000    0.286    2.857    7.286    0.000    1.714 
#    0.000    0.714    0.000    0.000    0.000    0.000 
#    0.000    0.000    0.000    0.000    0.000    0.000 
#
# Total GULP energy -347393.755001 kJ/mol
# GULP energy per Si atom -12406.919821 kJ/mol
# Density = 2.225490 g / cm^3
# Si number density = 22.305666 Si / 1000 Ang^3
#
#
#
# Elastic Constant Matrix: (Units=GPa)
#
#
# Indices 1 2 3 4 5 6 
#
# 1 141.7571 19.4290 34.1587 0.0000 10.3184 0.0000
# 2 19.4290 107.8256 38.7306 0.0000 6.2237 0.0000
# 3 34.1587 38.7306 118.5914 0.0000 -7.3625 0.0000
# 4 0.0000 0.0000 0.0000 24.5666 0.0000 2.6410
# 5 10.3184 6.2237 -7.3625 0.0000 39.2880 0.0000
# 6 0.0000 0.0000 0.0000 2.6410 0.0000 26.7660
#
#
#
# Elastic Compliance Matrix: (Units=1/GPa)
#
#
# Indices 1 2 3 4 5 6 
#
# 1 0.007837 -0.000463 -0.002255 0.000000 -0.002407 0.000000
# 2 -0.000463 0.010750 -0.003517 0.000000 -0.002240 0.000000
# 3 -0.002255 -0.003517 0.010423 0.000000 0.003103 0.000000
# 4 0.000000 0.000000 0.000000 0.041142 0.000000 -0.004059
# 5 -0.002407 -0.002240 0.003103 0.000000 0.027022 0.000000
# 6 0.000000 0.000000 0.000000 -0.004059 0.000000 0.037761
#
#
# Mechanical properties :
#
#
# Convention : Reuss Voigt Hill
#
# Bulk Modulus (GPa) = 60.46071 61.42340 60.94206
# Shear Modulus (GPa) = 32.69724 36.51452 34.60588
#
# Velocity S-wave (km/s) = 3.83282 4.05038 3.94310
# Velocity P-wave (km/s) = 6.83753 7.03357 6.93624
#
# Compressibility (1/GPa) = 0.01653967
#
# Stress axis : x y z
#
# Youngs Moduli (GPa) = 127.60793 93.02223 95.94090
#
# Poissons Ratio (x) = 0.04306 0.21639
# Poissons Ratio (y) = 0.05907 0.33739
# Poissons Ratio (z) = 0.28782 0.32712
#
# Static dielectric constant tensor:
#      x y z
#    x 4.244190 0.000000 0.172310 
#    y 0.000000 4.233930 0.000000 
#    z 0.172310 0.000000 3.999070 
# 
# 
# High freq. dielectric constant tensor:
#      x y z
#    x 1.897310 0.000000 0.004640 
#    y 0.000000 1.879190 0.000000 
#    z 0.004640 0.000000 1.879490 
# 
# From -- ./inp_files/15295.got.cif
#   From: 2010.06.25/outbox.cif.g09.slc.cpg/sg11_8_cif.got.tgz:15295.got - 2010.06.27 23:14:04.
