data_PCOD8077205
_publ_section_title
;
Structure prediction by ZEFSAII (Michael W. Deem and Ramdas Pophale) SiO2 
 PCOD8077205
Probable space group: P 21/M
;
_chemical_formula_sum "Si O2"
_cell_formula_units_Z 32
_cell_length_a 15.386493
_cell_length_b 17.918396
_cell_length_c 12.430981
_cell_angle_alpha 90.000000
_cell_angle_beta 153.434025
_cell_angle_gamma 90.000000
_cell_volume 1532.756544
_symmetry_space_group_name_H-M "P 21/M"
_symmetry_group_IT_number 11
_symmetry_cell_setting 'monoclinic'
loop_
_space_group_symop_operation_xyz
x,y,z
-x,1/2+y,-z
-x,-y,-z
x,1/2-y,z
loop_
_atom_site_type_symbol
_atom_site_label
_atom_site_fract_x
_atom_site_fract_y
_atom_site_fract_z
Si Si1 0.344367 0.165924 0.546558
Si Si2 0.985302 0.552298 0.879176
Si Si3 0.060475 0.075906 0.802028
Si Si4 0.672266 0.334733 0.339350
Si Si5 0.410808 0.163024 0.247177
Si Si6 0.335085 0.834311 0.268074
Si Si7 0.516414 0.890746 0.078481
Si Si8 0.780873 0.513056 0.226601
O O1 0.258486 0.250000 0.433551
O O2 0.208677 0.101948 0.345052
O O3 0.551190 0.159075 0.717602
O O4 0.382015 0.156486 0.715306
O O5 0.996722 0.500309 0.787599
O O6 0.000000 0.500000 0.000000
O O7 0.159044 0.609812 0.071671
O O8 0.210424 0.061905 0.870853
O O9 0.867097 0.116882 0.548170
O O10 0.197229 0.127007 0.028216
O O11 0.732549 0.250000 0.430446
O O12 0.535437 0.366361 0.282960
O O13 0.559427 0.337896 0.101253
O O14 0.373416 0.250000 0.192270
O O15 0.526093 0.141730 0.481291
O O16 0.257950 0.750000 0.200206
O O17 0.679450 0.946040 0.213619
O O18 0.335143 0.936887 0.926146
O O19 0.000000 0.500000 0.500000
#
# Coordination Sequence:
#
# PCOD8077205 Si02
#       8
#     4   4   4   4   4   4   4   4
#     4  11  25  45  67  95 132 174 218 267 323 389
#     4  12  26  41  67 100 131 166 220 273 331 388
#     4  12  23  39  64  93 130 166 211 267 324 381
#     4  11  23  40  62  92 128 166 213 261 314 379
#     4  10  22  41  64  91 124 166 213 264 320 380
#     4  10  23  45  68  91 127 171 215 265 324 389
#     4  11  23  40  65  92 129 171 213 261 320 381
#     4  11  22  38  61  92 126 167 210 260 315 375
#
# _framework density 20.877419
#
# number of rings (size 3 to 8) (size 9 to 14) (size 15 to 20)
#    0.000    1.000    2.500    4.125    1.750    4.000 
#    0.000    5.000    0.000    0.000    0.000    0.000 
#    0.000    0.000    0.000    0.000    0.000    0.000 
#
# Total GULP energy -396809.791860 kJ/mol
# GULP energy per Si atom -12400.305996 kJ/mol
# Density = 2.082990 g / cm^3
# Si number density = 20.877419 Si / 1000 Ang^3
#
#
#
# Elastic Constant Matrix: (Units=GPa)
#
#
# Indices 1 2 3 4 5 6 
#
# 1 87.9027 34.7368 32.5977 0.0000 -7.5062 0.0000
# 2 34.7368 100.4657 52.2915 0.0000 7.1036 0.0000
# 3 32.5977 52.2915 101.1040 0.0000 0.4550 0.0000
# 4 0.0000 0.0000 0.0000 42.3663 0.0000 4.2890
# 5 -7.5062 7.1036 0.4550 0.0000 37.1380 0.0000
# 6 0.0000 0.0000 0.0000 4.2890 0.0000 36.0951
#
#
#
# Elastic Compliance Matrix: (Units=1/GPa)
#
#
# Indices 1 2 3 4 5 6 
#
# 1 0.014153 -0.003784 -0.002622 0.000000 0.003617 0.000000
# 2 -0.003784 0.014872 -0.006456 0.000000 -0.003530 0.000000
# 3 -0.002622 -0.006456 0.014073 0.000000 0.000532 0.000000
# 4 0.000000 0.000000 0.000000 0.023891 0.000000 -0.002839
# 5 0.003617 -0.003530 0.000532 0.000000 0.028326 0.000000
# 6 0.000000 0.000000 0.000000 -0.002839 0.000000 0.028042
#
#
# Mechanical properties :
#
#
# Convention : Reuss Voigt Hill
#
# Bulk Modulus (GPa) = 57.56052 58.74717 58.15385
# Shear Modulus (GPa) = 32.28460 34.44297 33.36378
#
# Velocity S-wave (km/s) = 3.93668 4.06614 4.00194
# Velocity P-wave (km/s) = 6.94938 7.08836 7.01921
#
# Compressibility (1/GPa) = 0.01737302
#
# Stress axis : x y z
#
# Youngs Moduli (GPa) = 70.65682 67.24071 71.05908
#
# Poissons Ratio (x) = 0.25447 0.18632
# Poissons Ratio (y) = 0.26739 0.45874
# Poissons Ratio (z) = 0.18527 0.43409
#
# Static dielectric constant tensor:
#      x y z
#    x 4.494890 0.000000 -0.627830 
#    y 0.000000 4.731990 0.000000 
#    z -0.627830 0.000000 4.589700 
# 
# 
# High freq. dielectric constant tensor:
#      x y z
#    x 1.826030 0.000000 -0.001500 
#    y 0.000000 1.822330 0.000000 
#    z -0.001500 0.000000 1.824790 
# 
# From -- ./inp_files/40030.got.cif
#   From: 2010.06.25/outbox.cif.g09.slc.cpg/sg11_21_cif.got.tgz:40030.got - 2010.06.27 23:14:04.
