data_PCOD8077859
_publ_section_title
;
Structure prediction by ZEFSAII (Michael W. Deem and Ramdas Pophale) SiO2 
 PCOD8077859
Probable space group: P 21/M
;
_chemical_formula_sum "Si O2"
_cell_formula_units_Z 24
_cell_length_a 9.325287
_cell_length_b 13.322960
_cell_length_c 9.487119
_cell_angle_alpha 90.000000
_cell_angle_beta 74.870190
_cell_angle_gamma 90.000000
_cell_volume 1137.826948
_symmetry_space_group_name_H-M "P 21/M"
_symmetry_group_IT_number 11
_symmetry_cell_setting 'monoclinic'
loop_
_space_group_symop_operation_xyz
x,y,z
-x,1/2+y,-z
-x,-y,-z
x,1/2-y,z
loop_
_atom_site_type_symbol
_atom_site_label
_atom_site_fract_x
_atom_site_fract_y
_atom_site_fract_z
Si Si1 0.592509 0.250000 0.781528
Si Si2 0.308213 0.923837 0.658445
Si Si3 0.635065 0.576882 0.591710
Si Si4 0.634866 0.462501 0.873929
Si Si5 0.166192 0.465880 0.949835
Si Si6 0.156690 0.250000 0.505819
Si Si7 0.755589 0.750000 0.189067
Si Si8 0.173999 0.750000 0.526922
O O1 0.630606 0.342447 0.873591
O O2 0.422965 0.250000 0.770007
O O3 0.695107 0.250000 0.618803
O O4 0.471435 0.871852 0.624981
O O5 0.188672 0.848036 0.621679
O O6 0.322974 0.025216 0.565515
O O7 0.255410 0.959448 0.824576
O O8 0.628246 0.493658 0.713633
O O9 0.764300 0.655998 0.588834
O O10 0.500000 0.500000 0.000000
O O11 0.779555 0.511603 0.905787
O O12 0.182985 0.348831 0.905637
O O13 0.000000 0.500000 0.000000
O O14 0.184649 0.250000 0.666324
O O15 0.982964 0.250000 0.513762
#
# Coordination Sequence:
#
# PCOD8077859 Si02
#       8
#     2   4   4   4   4   2   2   2
#     4  12  24  46  78 101 144 189 244 295 360 433
#     4  11  23  46  71 105 136 189 236 294 347 426
#     4  11  23  44  76 100 140 181 247 288 346 424
#     4  12  25  46  72 113 140 188 238 296 358 428
#     4  12  29  46  75 107 156 184 233 303 365 431
#     4  12  28  42  72 106 142 191 240 295 357 426
#     4  12  24  50  74 102 140 199 238 289 375 422
#     4  12  28  42  72 107 142 187 242 295 360 423
#
# _framework density 21.092839000000001
#
# number of rings (size 3 to 8) (size 9 to 14) (size 15 to 20)
#    0.000    0.333    6.667    1.500    4.667    3.333 
#    0.000    0.000    0.000    0.000    0.000    0.000 
#    0.000    0.000    0.000    0.000    0.000    0.000 
#
# Total GULP energy -297633.071991 kJ/mol
# GULP energy per Si atom -12401.378000 kJ/mol
# Density = 2.104483 g / cm^3
# Si number density = 21.092839 Si / 1000 Ang^3
#
#
#
# Elastic Constant Matrix: (Units=GPa)
#
#
# Indices 1 2 3 4 5 6 
#
# 1 159.7521 50.5688 22.2950 0.0000 5.0774 0.0000
# 2 50.5688 134.3816 30.6216 0.0000 0.2454 0.0000
# 3 22.2950 30.6216 74.6716 0.0000 4.2632 0.0000
# 4 0.0000 0.0000 0.0000 31.2900 0.0000 6.3841
# 5 5.0774 0.2454 4.2632 0.0000 36.9063 0.0000
# 6 0.0000 0.0000 0.0000 6.3841 0.0000 28.0551
#
#
#
# Elastic Compliance Matrix: (Units=1/GPa)
#
#
# Indices 1 2 3 4 5 6 
#
# 1 0.007220 -0.002466 -0.001096 0.000000 -0.000850 0.000000
# 2 -0.002466 0.009055 -0.003013 0.000000 0.000627 0.000000
# 3 -0.001096 -0.003013 0.015044 0.000000 -0.001567 0.000000
# 4 0.000000 0.000000 0.000000 0.033515 0.000000 -0.007627
# 5 -0.000850 0.000627 -0.001567 0.000000 0.027389 0.000000
# 6 0.000000 0.000000 0.000000 -0.007627 0.000000 0.037380
#
#
# Mechanical properties :
#
#
# Convention : Reuss Voigt Hill
#
# Bulk Modulus (GPa) = 55.03583 63.97513 59.50548
# Shear Modulus (GPa) = 33.60006 36.93826 35.26916
#
# Velocity S-wave (km/s) = 3.99552 4.18930 4.09356
# Velocity P-wave (km/s) = 6.88726 7.33461 7.11445
#
# Compressibility (1/GPa) = 0.01816998
#
# Stress axis : x y z
#
# Youngs Moduli (GPa) = 138.50039 110.43938 66.47076
#
# Poissons Ratio (x) = 0.27231 0.07286
# Poissons Ratio (y) = 0.34150 0.20026
# Poissons Ratio (z) = 0.15181 0.33273
#
# Static dielectric constant tensor:
#      x y z
#    x 3.849110 0.000000 -0.167820 
#    y 0.000000 3.850450 0.000000 
#    z -0.167820 0.000000 3.792820 
# 
# 
# High freq. dielectric constant tensor:
#      x y z
#    x 1.831920 0.000000 0.003240 
#    y 0.000000 1.834020 0.000000 
#    z 0.003240 0.000000 1.833070 
# 
# From -- ./inp_files/12498.got.cif
#   From: 2010.06.25/outbox.cif.g09.slc.cpg/sg11_7_cif.got.tgz:12498.got - 2010.06.27 23:14:04.
