data_PCOD8077625
_publ_section_title
;
Structure prediction by ZEFSAII (Michael W. Deem and Ramdas Pophale) SiO2 
 PCOD8077625
Probable space group: P 21/M
;
_chemical_formula_sum "Si O2"
_cell_formula_units_Z 24
_cell_length_a 17.689981
_cell_length_b 8.661579
_cell_length_c 14.193099
_cell_angle_alpha 90.000000
_cell_angle_beta 35.656886
_cell_angle_gamma 90.000000
_cell_volume 1267.704560
_symmetry_space_group_name_H-M "P 21/M"
_symmetry_group_IT_number 11
_symmetry_cell_setting 'monoclinic'
loop_
_space_group_symop_operation_xyz
x,y,z
-x,1/2+y,-z
-x,-y,-z
x,1/2-y,z
loop_
_atom_site_type_symbol
_atom_site_label
_atom_site_fract_x
_atom_site_fract_y
_atom_site_fract_z
Si Si1 0.855431 0.931943 0.542041
Si Si2 0.754510 0.570986 0.044595
Si Si3 0.000333 0.932519 0.102882
Si Si4 0.506589 0.068179 0.389709
Si Si5 0.261705 0.431917 0.526080
Si Si6 0.131151 0.429159 0.264138
O O1 0.851627 0.750000 0.537529
O O2 0.758144 0.999205 0.560378
O O3 0.814584 0.986643 0.688768
O O4 0.001324 0.980420 0.369557
O O5 0.730497 0.750000 0.092657
O O6 0.640466 0.470810 0.203547
O O7 0.890070 0.518736 0.949676
O O8 0.760527 0.541961 0.925506
O O9 0.026309 0.750000 0.076385
O O10 0.862538 0.976196 0.286556
O O11 0.000000 0.000000 0.000000
O O12 0.492512 0.250000 0.413565
O O13 0.389604 0.996485 0.445339
O O14 0.500000 0.000000 0.500000
O O15 0.279787 0.250000 0.503325
O O16 0.093245 0.250000 0.308618
#
# Coordination Sequence:
#
# PCOD8077625 Si02
#       6
#     4   4   4   4   4   4
#     4   9  16  32  56  81 109 142 179 226 281 334
#     4  11  22  37  54  81 116 149 185 227 273 335
#     4  11  21  35  56  83 109 141 183 236 288 334
#     4  11  23  40  59  80 108 149 191 232 284 338
#     4   9  19  35  56  80 107 139 183 231 279 334
#     4   9  18  31  53  83 113 143 178 224 277 327
#
# _framework density 18.931854000000001
#
# number of rings (size 3 to 8) (size 9 to 14) (size 15 to 20)
#    0.000    2.000    1.667    2.500    0.000    2.000 
#    0.000    5.000    0.000    0.000    0.000    0.000 
#    0.000    0.000    0.000    0.000    0.000    0.000 
#
# Total GULP energy -297520.057742 kJ/mol
# GULP energy per Si atom -12396.669073 kJ/mol
# Density = 1.888876 g / cm^3
# Si number density = 18.931854 Si / 1000 Ang^3
#
#
#
# Elastic Constant Matrix: (Units=GPa)
#
#
# Indices 1 2 3 4 5 6 
#
# 1 152.6015 24.4546 49.3053 0.0000 13.1220 0.0000
# 2 24.4546 32.4989 15.6294 0.0000 5.2884 0.0000
# 3 49.3053 15.6294 83.4426 0.0000 12.0543 0.0000
# 4 0.0000 0.0000 0.0000 22.1193 0.0000 0.6388
# 5 13.1220 5.2884 12.0543 0.0000 33.3564 0.0000
# 6 0.0000 0.0000 0.0000 0.6388 0.0000 23.6968
#
#
#
# Elastic Compliance Matrix: (Units=1/GPa)
#
#
# Indices 1 2 3 4 5 6 
#
# 1 0.008695 -0.004349 -0.004145 0.000000 -0.001233 0.000000
# 2 -0.004349 0.036327 -0.003851 0.000000 -0.002657 0.000000
# 3 -0.004145 -0.003851 0.015648 0.000000 -0.003414 0.000000
# 4 0.000000 0.000000 0.000000 0.045245 0.000000 -0.001220
# 5 -0.001233 -0.002657 -0.003414 0.000000 0.032119 0.000000
# 6 0.000000 0.000000 0.000000 -0.001220 0.000000 0.042233
#
#
# Mechanical properties :
#
#
# Convention : Reuss Voigt Hill
#
# Bulk Modulus (GPa) = 27.79273 49.70238 38.74755
# Shear Modulus (GPa) = 23.04679 27.77810 25.41245
#
# Velocity S-wave (km/s) = 3.49285 3.83465 3.66773
# Velocity P-wave (km/s) = 5.56587 6.77616 6.20062
#
# Compressibility (1/GPa) = 0.03598064
#
# Stress axis : x y z
#
# Youngs Moduli (GPa) = 115.00513 27.52778 63.90557
#
# Poissons Ratio (x) = 0.11971 0.26490
# Poissons Ratio (y) = 0.50013 0.24609
# Poissons Ratio (z) = 0.47672 0.10600
#
# Static dielectric constant tensor:
#      x y z
#    x 4.342060 0.000000 0.171410 
#    y 0.000000 3.385600 0.000000 
#    z 0.171410 0.000000 3.467480 
# 
# 
# High freq. dielectric constant tensor:
#      x y z
#    x 1.753720 0.000000 0.018310 
#    y 0.000000 1.723200 0.000000 
#    z 0.018310 0.000000 1.724470 
# 
# From -- ./inp_files/20498.got.cif
#   From: 2010.06.25/outbox.cif.g09.slc.cpg/sg11_11_cif.got.tgz:20498.got - 2010.06.27 23:14:04.
