data_PCOD8077788
_publ_section_title
;
Structure prediction by ZEFSAII (Michael W. Deem and Ramdas Pophale) SiO2 
 PCOD8077788
Probable space group: P 21/M
;
_chemical_formula_sum "Si O2"
_cell_formula_units_Z 16
_cell_length_a 7.117484
_cell_length_b 17.543241
_cell_length_c 7.932734
_cell_angle_alpha 90.000000
_cell_angle_beta 125.887238
_cell_angle_gamma 90.000000
_cell_volume 802.484352
_symmetry_space_group_name_H-M "P 21/M"
_symmetry_group_IT_number 11
_symmetry_cell_setting 'monoclinic'
loop_
_space_group_symop_operation_xyz
x,y,z
-x,1/2+y,-z
-x,-y,-z
x,1/2-y,z
loop_
_atom_site_type_symbol
_atom_site_label
_atom_site_fract_x
_atom_site_fract_y
_atom_site_fract_z
Si Si1 0.196207 0.563698 0.744964
Si Si2 0.500456 0.571906 0.217081
Si Si3 0.929172 0.838949 0.358950
Si Si4 0.903782 0.041750 0.785441
O O1 0.386454 0.509536 0.760221
O O2 0.138221 0.633485 0.590831
O O3 0.954218 0.516503 0.655345
O O4 0.307182 0.594859 0.975824
O O5 0.684775 0.640565 0.318609
O O6 0.365483 0.563557 0.325675
O O7 0.949336 0.750000 0.338469
O O8 0.953636 0.881519 0.190329
O O9 0.000000 0.000000 0.000000
#
# Coordination Sequence:
#
# PCOD8077788 Si02
#       4
#     4   4   4   4
#     4   9  19  35  57  82 104 136 185 227 263 319
#     4   9  18  36  59  77 102 143 182 221 267 316
#     4  11  23  35  51  82 117 143 174 223 280 329
#     4   9  18  36  60  80 101 139 188 226 258 313
#
# _framework density 19.938082999999999
#
# number of rings (size 3 to 8) (size 9 to 14) (size 15 to 20)
#    0.000    2.500    0.000    4.500    0.000    6.000 
#    0.000    3.750    0.000    0.000    0.000    0.000 
#    0.000    0.000    0.000    0.000    0.000    0.000 
#
# Total GULP energy -198274.302453 kJ/mol
# GULP energy per Si atom -12392.143903 kJ/mol
# Density = 1.989270 g / cm^3
# Si number density = 19.938083 Si / 1000 Ang^3
#
#
#
# Elastic Constant Matrix: (Units=GPa)
#
#
# Indices 1 2 3 4 5 6 
#
# 1 151.7782 41.8333 22.0962 0.0000 -5.1181 0.0000
# 2 41.8333 139.9600 41.1912 0.0000 -8.2257 0.0000
# 3 22.0962 41.1912 67.2259 0.0000 5.1858 0.0000
# 4 0.0000 0.0000 0.0000 23.7640 0.0000 -2.2878
# 5 -5.1181 -8.2257 5.1858 0.0000 21.9324 0.0000
# 6 0.0000 0.0000 0.0000 -2.2878 0.0000 19.2853
#
#
#
# Elastic Compliance Matrix: (Units=1/GPa)
#
#
# Indices 1 2 3 4 5 6 
#
# 1 0.007313 -0.001661 -0.001497 0.000000 0.001438 0.000000
# 2 -0.001661 0.009578 -0.005674 0.000000 0.004546 0.000000
# 3 -0.001497 -0.005674 0.019388 0.000000 -0.007062 0.000000
# 4 0.000000 0.000000 0.000000 0.042567 0.000000 0.005050
# 5 0.001438 0.004546 -0.007062 0.000000 0.049305 0.000000
# 6 0.000000 0.000000 0.000000 0.005050 0.000000 0.052452
#
#
# Mechanical properties :
#
#
# Convention : Reuss Voigt Hill
#
# Bulk Modulus (GPa) = 53.71521 63.24506 58.48014
# Shear Modulus (GPa) = 24.45333 29.91923 27.18628
#
# Velocity S-wave (km/s) = 3.50589 3.87797 3.69661
# Velocity P-wave (km/s) = 6.58694 7.20008 6.90032
#
# Compressibility (1/GPa) = 0.01861670
#
# Stress axis : x y z
#
# Youngs Moduli (GPa) = 136.74874 104.40285 51.57715
#
# Poissons Ratio (x) = 0.17338 0.07721
# Poissons Ratio (y) = 0.22710 0.29264
# Poissons Ratio (z) = 0.20470 0.59235
#
# Static dielectric constant tensor:
#      x y z
#    x 4.244170 0.000000 -0.026190 
#    y 0.000000 3.182840 0.000000 
#    z -0.026190 0.000000 3.622700 
# 
# 
# High freq. dielectric constant tensor:
#      x y z
#    x 1.795710 0.000000 -0.000470 
#    y 0.000000 1.731580 0.000000 
#    z -0.000470 0.000000 1.773160 
# 
# From -- ./inp_files/10015.got.cif
#   From: 2010.06.25/outbox.cif.g09.slc.cpg/sg11_6_cif.got.tgz:10015.got - 2010.06.27 23:14:04.
