data_PCOD8077073
_publ_section_title
;
Structure prediction by ZEFSAII (Michael W. Deem and Ramdas Pophale) SiO2 
 PCOD8077073
Probable space group: P 21/M
;
_chemical_formula_sum "Si O2"
_cell_formula_units_Z 28
_cell_length_a 6.358969
_cell_length_b 16.975020
_cell_length_c 13.666262
_cell_angle_alpha 90.000000
_cell_angle_beta 59.783731
_cell_angle_gamma 90.000000
_cell_volume 1274.755225
_symmetry_space_group_name_H-M "P 21/M"
_symmetry_group_IT_number 11
_symmetry_cell_setting 'monoclinic'
loop_
_space_group_symop_operation_xyz
x,y,z
-x,1/2+y,-z
-x,-y,-z
x,1/2-y,z
loop_
_atom_site_type_symbol
_atom_site_label
_atom_site_fract_x
_atom_site_fract_y
_atom_site_fract_z
Si Si1 0.641117 0.658042 0.117402
Si Si2 0.796479 0.445580 0.804672
Si Si3 0.037023 0.162296 0.285570
Si Si4 0.995402 0.921592 0.896154
Si Si5 0.434834 0.913648 0.546775
Si Si6 0.250489 0.161148 0.685337
Si Si7 0.542187 0.571321 0.743707
O O1 0.659669 0.750000 0.084192
O O2 0.402818 0.620880 0.120999
O O3 0.627835 0.647076 0.237377
O O4 0.873583 0.608132 0.024908
O O5 0.699493 0.493853 0.733247
O O6 0.850301 0.503994 0.883285
O O7 0.040174 0.401694 0.715013
O O8 0.965103 0.250000 0.332886
O O9 0.003777 0.152152 0.177438
O O10 0.855884 0.101785 0.383958
O O11 0.319241 0.145958 0.242513
O O12 0.275848 0.943395 0.852898
O O13 0.550911 0.850510 0.445911
O O14 0.538959 0.907134 0.631043
O O15 0.500000 0.000000 0.500000
O O16 0.147356 0.250000 0.702616
#
# Coordination Sequence:
#
# PCOD8077073 Si02
#       7
#     4   4   4   4   4   4   4
#     4  11  24  41  62  90 126 165 202 247 306 366
#     4  11  22  41  64  91 122 159 209 253 301 363
#     4  10  22  39  62  92 120 152 198 252 309 362
#     4  10  22  41  65  92 123 157 202 256 304 358
#     4  11  22  41  63  87 121 159 204 253 300 359
#     4  11  25  41  60  91 129 166 203 248 304 366
#     4  10  23  40  64  91 117 157 203 253 307 359
#
# _framework density 21.965
#
# number of rings (size 3 to 8) (size 9 to 14) (size 15 to 20)
#    0.000    1.429    0.000    6.000    0.000   11.429 
#    0.000    1.429    0.000    0.000    0.000    0.000 
#    0.000    0.000    0.000    0.000    0.000    0.000 
#
# Total GULP energy -347144.097484 kJ/mol
# GULP energy per Si atom -12398.003482 kJ/mol
# Density = 2.191501 g / cm^3
# Si number density = 21.965000 Si / 1000 Ang^3
#
#
#
# Elastic Constant Matrix: (Units=GPa)
#
#
# Indices 1 2 3 4 5 6 
#
# 1 116.4762 55.7157 31.3430 0.0000 -16.8095 0.0000
# 2 55.7157 127.4519 37.1587 0.0000 -0.9839 0.0000
# 3 31.3430 37.1587 103.0057 0.0000 -1.1767 0.0000
# 4 0.0000 0.0000 0.0000 35.5854 0.0000 -4.1390
# 5 -16.8095 -0.9839 -1.1767 0.0000 23.2503 0.0000
# 6 0.0000 0.0000 0.0000 -4.1390 0.0000 29.3844
#
#
#
# Elastic Compliance Matrix: (Units=1/GPa)
#
#
# Indices 1 2 3 4 5 6 
#
# 1 0.012771 -0.004929 -0.002006 0.000000 0.008923 0.000000
# 2 -0.004929 0.010672 -0.002387 0.000000 -0.003233 0.000000
# 3 -0.002006 -0.002387 0.011168 0.000000 -0.000986 0.000000
# 4 0.000000 0.000000 0.000000 0.028569 0.000000 0.004024
# 5 0.008923 -0.003233 -0.000986 0.000000 0.049274 0.000000
# 6 0.000000 0.000000 0.000000 0.004024 0.000000 0.034599
#
#
# Mechanical properties :
#
#
# Convention : Reuss Voigt Hill
#
# Bulk Modulus (GPa) = 62.62818 66.15206 64.39012
# Shear Modulus (GPa) = 29.23648 32.49179 30.86414
#
# Velocity S-wave (km/s) = 3.65231 3.85028 3.75260
# Velocity P-wave (km/s) = 6.80885 7.06743 6.93935
#
# Compressibility (1/GPa) = 0.01596725
#
# Stress axis : x y z
#
# Youngs Moduli (GPa) = 78.30423 93.70518 89.53882
#
# Poissons Ratio (x) = 0.46188 0.17960
# Poissons Ratio (y) = 0.38596 0.21372
# Poissons Ratio (z) = 0.15707 0.22366
#
# Static dielectric constant tensor:
#      x y z
#    x 3.976000 0.000000 -0.391960 
#    y 0.000000 4.063560 0.000000 
#    z -0.391960 0.000000 3.196120 
# 
# 
# High freq. dielectric constant tensor:
#      x y z
#    x 1.865520 0.000000 -0.006400 
#    y 0.000000 1.874640 0.000000 
#    z -0.006400 0.000000 1.857570 
# 
# From -- ./inp_files/45981.got.cif
#   From: 2010.06.25/outbox.cif.g09.slc.cpg/sg11_23_cif.got.tgz:45981.got - 2010.06.27 23:14:04.
