data_PCOD8077199
_publ_section_title
;
Structure prediction by ZEFSAII (Michael W. Deem and Ramdas Pophale) SiO2 
 PCOD8077199
Probable space group: P 21/M
;
_chemical_formula_sum "Si O2"
_cell_formula_units_Z 32
_cell_length_a 11.977134
_cell_length_b 8.566172
_cell_length_c 28.976478
_cell_angle_alpha 90.000000
_cell_angle_beta 30.822334
_cell_angle_gamma 90.000000
_cell_volume 1523.265036
_symmetry_space_group_name_H-M "P 21/M"
_symmetry_group_IT_number 11
_symmetry_cell_setting 'monoclinic'
loop_
_space_group_symop_operation_xyz
x,y,z
-x,1/2+y,-z
-x,-y,-z
x,1/2-y,z
loop_
_atom_site_type_symbol
_atom_site_label
_atom_site_fract_x
_atom_site_fract_y
_atom_site_fract_z
Si Si1 0.950353 0.564414 0.280188
Si Si2 0.474869 0.569536 0.804901
Si Si3 0.611576 0.935741 0.914753
Si Si4 0.799782 0.934129 0.173721
Si Si5 0.635936 0.065682 0.322519
Si Si6 0.246377 0.931179 0.976090
Si Si7 0.136244 0.065020 0.494545
Si Si8 0.930167 0.432704 0.661585
O O1 0.936924 0.750000 0.283351
O O2 0.727011 0.490246 0.339671
O O3 0.151661 0.509347 0.177116
O O4 0.972140 0.500708 0.325076
O O5 0.543461 0.750000 0.779905
O O6 0.402097 0.516104 0.780259
O O7 0.276953 0.536619 0.910840
O O8 0.676387 0.469064 0.750270
O O9 0.635626 0.750000 0.908640
O O10 0.458004 0.994851 0.927561
O O11 0.500000 0.000000 0.000000
O O12 0.782698 0.750000 0.172438
O O13 0.786284 0.978760 0.231805
O O14 0.023008 0.007425 0.073834
O O15 0.659624 0.250000 0.309149
O O16 0.387222 0.011935 0.403213
O O17 0.227747 0.750000 0.994104
O O18 0.113907 0.250000 0.501391
O O19 0.044465 0.995330 0.575438
O O20 0.000000 0.000000 0.500000
O O21 0.968139 0.250000 0.647832
#
# Coordination Sequence:
#
# PCOD8077199 Si02
#       8
#     4   4   4   4   4   4   4   4
#     4  11  23  40  62  90 123 161 205 255 311 371
#     4  11  21  37  59  87 121 158 202 252 305 366
#     4  11  21  37  59  86 121 165 212 259 306 361
#     4  11  22  38  59  86 121 161 202 251 307 366
#     4  11  24  42  63  90 122 159 203 253 306 368
#     4   9  20  36  55  81 117 157 200 247 299 357
#     4  10  23  43  66  93 124 158 201 252 309 372
#     4  10  22  41  64  90 122 161 205 255 311 372
#
# _framework density 21.007504999999998
#
# number of rings (size 3 to 8) (size 9 to 14) (size 15 to 20)
#    0.000    1.500    1.250    3.750    0.000    5.500 
#    0.000    3.750    0.000    0.000    0.000    0.000 
#    0.000    0.000    0.000    0.000    0.000    0.000 
#
# Total GULP energy -396852.292757 kJ/mol
# GULP energy per Si atom -12401.634149 kJ/mol
# Density = 2.095969 g / cm^3
# Si number density = 21.007505 Si / 1000 Ang^3
#
#
#
# Elastic Constant Matrix: (Units=GPa)
#
#
# Indices 1 2 3 4 5 6 
#
# 1 146.0765 13.9978 55.5895 0.0000 -6.0571 0.0000
# 2 13.9978 25.6958 22.5349 0.0000 -1.3962 0.0000
# 3 55.5895 22.5349 116.1775 0.0000 3.0829 0.0000
# 4 0.0000 0.0000 0.0000 25.2178 0.0000 0.1129
# 5 -6.0571 -1.3962 3.0829 0.0000 40.6582 0.0000
# 6 0.0000 0.0000 0.0000 0.1129 0.0000 32.2600
#
#
#
# Elastic Compliance Matrix: (Units=1/GPa)
#
#
# Indices 1 2 3 4 5 6 
#
# 1 0.008496 -0.001139 -0.003885 0.000000 0.001521 0.000000
# 2 -0.001139 0.047263 -0.008679 0.000000 0.002111 0.000000
# 3 -0.003885 -0.008679 0.012198 0.000000 -0.001802 0.000000
# 4 0.000000 0.000000 0.000000 0.039655 0.000000 -0.000139
# 5 0.001521 0.002111 -0.001802 0.000000 0.025031 0.000000
# 6 0.000000 0.000000 0.000000 -0.000139 0.000000 0.030999
#
#
# Mechanical properties :
#
#
# Convention : Reuss Voigt Hill
#
# Bulk Modulus (GPa) = 24.65955 52.46601 38.56278
# Shear Modulus (GPa) = 24.44225 32.68238 28.56232
#
# Velocity S-wave (km/s) = 3.41471 3.94858 3.69131
# Velocity P-wave (km/s) = 5.22599 6.76886 6.04683
#
# Compressibility (1/GPa) = 0.04055225
#
# Stress axis : x y z
#
# Youngs Moduli (GPa) = 117.69815 21.15820 81.98337
#
# Poissons Ratio (x) = 0.02409 0.31849
# Poissons Ratio (y) = 0.13403 0.71151
# Poissons Ratio (z) = 0.45724 0.18363
#
# Static dielectric constant tensor:
#      x y z
#    x 4.090290 0.000000 0.066480 
#    y 0.000000 3.572240 0.000000 
#    z 0.066480 0.000000 3.842100 
# 
# 
# High freq. dielectric constant tensor:
#      x y z
#    x 1.840150 0.000000 0.002610 
#    y 0.000000 1.807450 0.000000 
#    z 0.002610 0.000000 1.824930 
# 
# From -- ./inp_files/49289.got.cif
#   From: 2010.06.25/outbox.cif.g09.slc.cpg/sg11_25_cif.got.tgz:49289.got - 2010.06.27 23:14:04.
