data_PCOD8077951
_publ_section_title
;
Structure prediction by ZEFSAII (Michael W. Deem and Ramdas Pophale) SiO2 
 PCOD8077951
Probable space group: P 21/M
;
_chemical_formula_sum "Si O2"
_cell_formula_units_Z 32
_cell_length_a 9.481600
_cell_length_b 9.618620
_cell_length_c 24.959423
_cell_angle_alpha 90.000000
_cell_angle_beta 124.737732
_cell_angle_gamma 90.000000
_cell_volume 1870.590284
_symmetry_space_group_name_H-M "P 21/M"
_symmetry_group_IT_number 11
_symmetry_cell_setting 'monoclinic'
loop_
_space_group_symop_operation_xyz
x,y,z
-x,1/2+y,-z
-x,-y,-z
x,1/2-y,z
loop_
_atom_site_type_symbol
_atom_site_label
_atom_site_fract_x
_atom_site_fract_y
_atom_site_fract_z
Si Si1 0.430438 0.588957 0.062372
Si Si2 0.112423 0.915436 0.303776
Si Si3 0.243320 0.411043 0.937628
Si Si4 0.339273 0.909452 0.449377
Si Si5 0.991143 0.409452 0.550623
Si Si6 0.120003 0.584494 0.185803
Si Si7 0.798906 0.915436 0.303776
Si Si8 0.437406 0.915506 0.185803
O O1 0.376969 0.750000 0.046906
O O2 0.620878 0.565205 0.080586
O O3 0.427651 0.534098 0.122478
O O4 0.291692 0.500000 0.000000
O O5 0.102598 0.750000 0.300549
O O6 0.268624 0.960763 0.376289
O O7 0.141521 0.975783 0.250559
O O8 0.932459 0.973239 0.288306
O O9 0.236252 0.250000 0.953094
O O10 0.060216 0.465902 0.877522
O O11 0.398359 0.750000 0.458721
O O12 0.192926 0.928403 0.461951
O O13 0.500000 0.000000 0.500000
O O14 0.022196 0.250000 0.541279
O O15 0.000000 0.500000 0.500000
O O16 0.139757 0.460763 0.623711
O O17 0.124735 0.750000 0.188462
O O18 0.274252 0.525228 0.182835
O O19 0.799049 0.750000 0.300549
O O20 0.610157 0.975783 0.250559
O O21 0.440650 0.750000 0.188462
#
# Coordination Sequence:
#
# PCOD8077951 Si02
#       8
#     4   4   4   4   4   4   4   4
#     4   9  17  29  45  64  86 113 143 174 210 253
#     4   8  14  26  43  62  86 115 146 181 219 258
#     4   9  17  29  45  64  86 113 143 174 210 253
#     4   9  18  31  47  69  95 122 153 189 229 273
#     4   9  18  31  47  69  95 122 153 189 229 273
#     4   9  16  25  40  64  89 111 140 179 219 256
#     4   8  14  26  43  62  86 115 146 181 219 258
#     4   9  16  25  40  64  89 111 140 179 219 256
#
# _framework density 17.106898999999999
#
# number of rings (size 3 to 8) (size 9 to 14) (size 15 to 20)
#    0.000    3.250    0.000    2.250    0.000    5.000 
#    0.000    2.500    0.000    1.500    0.000    3.500 
#    0.000    0.000    0.000    0.000    0.000    0.000 
#
# Total GULP energy -396684.444845 kJ/mol
# GULP energy per Si atom -12396.388901 kJ/mol
# Density = 1.706796 g / cm^3
# Si number density = 17.106899 Si / 1000 Ang^3
#
#
#
# Elastic Constant Matrix: (Units=GPa)
#
#
# Indices 1 2 3 4 5 6 
#
# 1 114.8274 30.9769 102.1169 0.0000 -2.9615 0.0000
# 2 30.9769 31.2096 44.1920 0.0000 -0.6745 0.0000
# 3 102.1169 44.1920 178.9661 0.0000 -0.3117 0.0000
# 4 0.0000 0.0000 0.0000 24.9867 0.0000 -0.3926
# 5 -2.9615 -0.6745 -0.3117 0.0000 35.2346 0.0000
# 6 0.0000 0.0000 0.0000 -0.3926 0.0000 17.2944
#
#
#
# Elastic Compliance Matrix: (Units=1/GPa)
#
#
# Indices 1 2 3 4 5 6 
#
# 1 0.018271 -0.005146 -0.009152 0.000000 0.001356 0.000000
# 2 -0.005146 0.050742 -0.009592 0.000000 0.000454 0.000000
# 3 -0.009152 -0.009592 0.013177 0.000000 -0.000836 0.000000
# 4 0.000000 0.000000 0.000000 0.040036 0.000000 0.000909
# 5 0.001356 0.000454 -0.000836 0.000000 0.028496 0.000000
# 6 0.000000 0.000000 0.000000 0.000909 0.000000 0.057843
#
#
# Mechanical properties :
#
#
# Convention : Reuss Voigt Hill
#
# Bulk Modulus (GPa) = 29.06294 75.50830 52.28562
# Shear Modulus (GPa) = 18.66951 25.35096 22.01023
#
# Velocity S-wave (km/s) = 3.30713 3.85374 3.59085
# Velocity P-wave (km/s) = 5.62216 8.00229 6.91540
#
# Compressibility (1/GPa) = 0.03440809
#
# Stress axis : x y z
#
# Youngs Moduli (GPa) = 54.73076 19.70763 75.88924
#
# Poissons Ratio (x) = 0.10142 0.69456
# Poissons Ratio (y) = 0.28166 0.72796
# Poissons Ratio (z) = 0.50091 0.18904
#
# Static dielectric constant tensor:
#      x y z
#    x 3.360070 0.000000 -0.002630 
#    y 0.000000 2.653860 0.000000 
#    z -0.002630 0.000000 3.411590 
# 
# 
# High freq. dielectric constant tensor:
#      x y z
#    x 1.662170 0.000000 -0.000620 
#    y 0.000000 1.598760 0.000000 
#    z -0.000620 0.000000 1.674390 
# 
# From -- ./inp_files/27515.got.cif
#   From: 2010.06.25/outbox.cif.g09.slc.cpg/sg11_14_cif.got.tgz:27515.got - 2010.06.27 23:14:04.
