data_PCOD8077424
_publ_section_title
;
Structure prediction by ZEFSAII (Michael W. Deem and Ramdas Pophale) SiO2 
 PCOD8077424
Probable space group: P 21/M
;
_chemical_formula_sum "Si O2"
_cell_formula_units_Z 24
_cell_length_a 7.466358
_cell_length_b 21.514914
_cell_length_c 7.404519
_cell_angle_alpha 90.000000
_cell_angle_beta 61.164868
_cell_angle_gamma 90.000000
_cell_volume 1041.969231
_symmetry_space_group_name_H-M "P 21/M"
_symmetry_group_IT_number 11
_symmetry_cell_setting 'monoclinic'
loop_
_space_group_symop_operation_xyz
x,y,z
-x,1/2+y,-z
-x,-y,-z
x,1/2-y,z
loop_
_atom_site_type_symbol
_atom_site_label
_atom_site_fract_x
_atom_site_fract_y
_atom_site_fract_z
Si Si1 0.973386 0.584200 0.906739
Si Si2 0.469834 0.449993 0.861650
Si Si3 0.522237 0.319214 0.732169
Si Si4 0.810336 0.502501 0.452644
Si Si5 0.144628 0.364048 0.693546
Si Si6 0.027517 0.681896 0.587559
O O1 0.921986 0.632572 0.770941
O O2 0.136589 0.534208 0.758417
O O3 0.769130 0.547384 0.065486
O O4 0.029233 0.619984 0.067095
O O5 0.522254 0.376596 0.877414
O O6 0.606619 0.470358 0.626075
O O7 0.500000 0.500000 0.000000
O O8 0.512694 0.250000 0.828183
O O9 0.330669 0.325608 0.689569
O O10 0.728332 0.324717 0.514143
O O11 0.760333 0.573545 0.437638
O O12 0.000000 0.500000 0.500000
O O13 0.034909 0.325627 0.590989
O O14 0.956436 0.750000 0.685996
#
# Coordination Sequence:
#
# PCOD8077424 Si02
#       6
#     4   4   4   4   4   4
#     4  11  24  41  68 103 137 185 232 295 356 431
#     4  11  21  38  69 102 137 185 232 292 358 419
#     4  10  23  43  67  98 139 184 235 295 357 429
#     4  12  21  43  67 100 150 180 234 300 357 426
#     4  11  24  43  71 103 137 186 236 292 356 434
#     4  11  23  46  72  98 142 188 234 302 359 428
#
# _framework density 23.033308999999999
#
# number of rings (size 3 to 8) (size 9 to 14) (size 15 to 20)
#    0.000    1.000    5.000    1.000    0.000    6.000 
#    3.000    3.333    0.000    6.000    0.000    0.000 
#    0.000    0.000    0.000    0.000    0.000    0.000 
#
# Total GULP energy -297357.166731 kJ/mol
# GULP energy per Si atom -12389.881947 kJ/mol
# Density = 2.298088 g / cm^3
# Si number density = 23.033309 Si / 1000 Ang^3
#
#
#
# Elastic Constant Matrix: (Units=GPa)
#
#
# Indices 1 2 3 4 5 6 
#
# 1 49.0209 22.0337 30.3625 0.0000 5.3723 0.0000
# 2 22.0337 171.3212 37.2040 0.0000 1.8105 0.0000
# 3 30.3625 37.2040 111.2324 0.0000 -18.3274 0.0000
# 4 0.0000 0.0000 0.0000 33.6585 0.0000 7.2753
# 5 5.3723 1.8105 -18.3274 0.0000 36.2625 0.0000
# 6 0.0000 0.0000 0.0000 7.2753 0.0000 31.2798
#
#
#
# Elastic Compliance Matrix: (Units=1/GPa)
#
#
# Indices 1 2 3 4 5 6 
#
# 1 0.027077 -0.001621 -0.008177 0.000000 -0.008063 0.000000
# 2 -0.001621 0.006467 -0.001892 0.000000 -0.001039 0.000000
# 3 -0.008177 -0.001892 0.013167 0.000000 0.007960 0.000000
# 4 0.000000 0.000000 0.000000 0.031283 0.000000 -0.007276
# 5 -0.008063 -0.001039 0.007960 0.000000 0.032846 0.000000
# 6 0.000000 0.000000 0.000000 -0.007276 0.000000 0.033662
#
#
# Mechanical properties :
#
#
# Convention : Reuss Voigt Hill
#
# Bulk Modulus (GPa) = 42.86331 56.75278 49.80805
# Shear Modulus (GPa) = 28.46423 36.37176 32.41799
#
# Velocity S-wave (km/s) = 3.51919 3.97809 3.75566
# Velocity P-wave (km/s) = 5.92980 6.76707 6.36222
#
# Compressibility (1/GPa) = 0.02332998
#
# Stress axis : x y z
#
# Youngs Moduli (GPa) = 36.93215 154.62417 75.94970
#
# Poissons Ratio (x) = 0.25070 0.62106
# Poissons Ratio (y) = 0.05988 0.14367
# Poissons Ratio (z) = 0.30200 0.29250
#
# Static dielectric constant tensor:
#      x y z
#    x 4.804010 0.000000 0.398820 
#    y 0.000000 4.845470 0.000000 
#    z 0.398820 0.000000 4.614300 
# 
# 
# High freq. dielectric constant tensor:
#      x y z
#    x 1.889980 0.000000 -0.007870 
#    y 0.000000 1.931820 0.000000 
#    z -0.007870 0.000000 1.905540 
# 
# From -- ./inp_files/14228.got.cif
#   From: 2010.06.25/outbox.cif.g09.slc.cpg/sg11_8_cif.got.tgz:14228.got - 2010.06.27 23:14:04.
