data_PCOD8077236
_publ_section_title
;
Structure prediction by ZEFSAII (Michael W. Deem and Ramdas Pophale) SiO2 
 PCOD8077236
Probable space group: P 21/M
;
_chemical_formula_sum "Si O2"
_cell_formula_units_Z 28
_cell_length_a 15.315289
_cell_length_b 8.736202
_cell_length_c 11.695400
_cell_angle_alpha 90.000000
_cell_angle_beta 118.634248
_cell_angle_gamma 90.000000
_cell_volume 1373.432758
_symmetry_space_group_name_H-M "P 21/M"
_symmetry_group_IT_number 11
_symmetry_cell_setting 'monoclinic'
loop_
_space_group_symop_operation_xyz
x,y,z
-x,1/2+y,-z
-x,-y,-z
x,1/2-y,z
loop_
_atom_site_type_symbol
_atom_site_label
_atom_site_fract_x
_atom_site_fract_y
_atom_site_fract_z
Si Si1 0.701563 0.927708 0.850970
Si Si2 0.482154 0.427887 0.112120
Si Si3 0.391050 0.930781 0.428589
Si Si4 0.075485 0.070443 0.957914
Si Si5 0.992222 0.075172 0.315075
Si Si6 0.152014 0.925422 0.563874
Si Si7 0.652161 0.568821 0.366347
O O1 0.700148 0.750000 0.813593
O O2 0.631523 0.952892 0.918218
O O3 0.664358 0.028704 0.722623
O O4 0.811881 0.986339 0.950330
O O5 0.509749 0.250000 0.122944
O O6 0.550342 0.508016 0.249218
O O7 0.500000 0.500000 0.000000
O O8 0.398337 0.750000 0.446600
O O9 0.500000 0.000000 0.500000
O O10 0.330451 0.001425 0.496353
O O11 0.069982 0.250000 0.967302
O O12 0.043531 0.024695 0.812085
O O13 0.000000 0.000000 0.000000
O O14 0.008885 0.250000 0.287708
O O15 0.908908 0.060171 0.358666
O O16 0.096105 0.008857 0.424966
O O17 0.170289 0.750000 0.541063
O O18 0.255734 0.011348 0.652234
O O19 0.647943 0.750000 0.367320
#
# Coordination Sequence:
#
# PCOD8077236 Si02
#       7
#     4   4   4   4   4   4   4
#     4  10  24  45  67  92 127 172 216 265 323 383
#     4  11  24  43  66  96 133 171 217 266 318 386
#     4  12  24  41  66  94 127 165 211 262 317 378
#     4  11  25  44  66  93 128 170 217 267 322 385
#     4  10  22  42  66  94 127 165 212 265 321 382
#     4  10  22  41  66  96 127 166 212 263 320 380
#     4  12  25  41  65  96 130 169 213 263 320 379
#
# _framework density 20.386875
#
# number of rings (size 3 to 8) (size 9 to 14) (size 15 to 20)
#    0.000    1.143    1.429    4.286    4.000    3.429 
#    0.000    0.000    0.000    0.000    0.000    0.000 
#    0.000    0.000    0.000    0.000    0.000    0.000 
#
# Total GULP energy -347364.412009 kJ/mol
# GULP energy per Si atom -12405.871857 kJ/mol
# Density = 2.034047 g / cm^3
# Si number density = 20.386875 Si / 1000 Ang^3
#
#
#
# Elastic Constant Matrix: (Units=GPa)
#
#
# Indices 1 2 3 4 5 6 
#
# 1 116.8840 62.5751 53.2248 0.0000 17.5947 0.0000
# 2 62.5751 112.8768 20.1772 0.0000 -3.4111 0.0000
# 3 53.2248 20.1772 88.2956 0.0000 -2.4032 0.0000
# 4 0.0000 0.0000 0.0000 40.8885 0.0000 -1.9717
# 5 17.5947 -3.4111 -2.4032 0.0000 31.4206 0.0000
# 6 0.0000 0.0000 0.0000 -1.9717 0.0000 35.9137
#
#
#
# Elastic Compliance Matrix: (Units=1/GPa)
#
#
# Indices 1 2 3 4 5 6 
#
# 1 0.020810 -0.010048 -0.010617 0.000000 -0.013556 0.000000
# 2 -0.010048 0.014111 0.003034 0.000000 0.007391 0.000000
# 3 -0.010617 0.003034 0.017239 0.000000 0.007593 0.000000
# 4 0.000000 0.000000 0.000000 0.024522 0.000000 0.001346
# 5 -0.013556 0.007391 0.007593 0.000000 0.040801 0.000000
# 6 0.000000 0.000000 0.000000 0.001346 0.000000 0.027918
#
#
# Mechanical properties :
#
#
# Convention : Reuss Voigt Hill
#
# Bulk Modulus (GPa) = 59.18386 65.55673 62.37029
# Shear Modulus (GPa) = 26.83892 33.78319 30.31105
#
# Velocity S-wave (km/s) = 3.63227 4.07517 3.86008
# Velocity P-wave (km/s) = 6.83261 7.37352 7.10821
#
# Compressibility (1/GPa) = 0.01689650
#
# Stress axis : x y z
#
# Youngs Moduli (GPa) = 48.05302 70.86805 58.00757
#
# Poissons Ratio (x) = 0.71211 0.61588
# Poissons Ratio (y) = 0.48285 -0.17598
# Poissons Ratio (z) = 0.51019 -0.21500
#
# Static dielectric constant tensor:
#      x y z
#    x 3.974520 0.000000 -0.001900 
#    y 0.000000 3.837370 0.000000 
#    z -0.001900 0.000000 3.761590 
# 
# 
# High freq. dielectric constant tensor:
#      x y z
#    x 1.811200 0.000000 0.000550 
#    y 0.000000 1.810770 0.000000 
#    z 0.000550 0.000000 1.798560 
# 
# From -- ./inp_files/38474.got.cif
#   From: 2010.06.25/outbox.cif.g09.slc.cpg/sg11_20_cif.got.tgz:38474.got - 2010.06.27 23:14:04.
