data_PCOD8077400
_publ_section_title
;
Structure prediction by ZEFSAII (Michael W. Deem and Ramdas Pophale) SiO2 
 PCOD8077400
Probable space group: P 21/M
;
_chemical_formula_sum "Si O2"
_cell_formula_units_Z 26
_cell_length_a 10.621527
_cell_length_b 23.219407
_cell_length_c 7.506870
_cell_angle_alpha 90.000000
_cell_angle_beta 138.526835
_cell_angle_gamma 90.000000
_cell_volume 1226.115920
_symmetry_space_group_name_H-M "P 21/M"
_symmetry_group_IT_number 11
_symmetry_cell_setting 'monoclinic'
loop_
_space_group_symop_operation_xyz
x,y,z
-x,1/2+y,-z
-x,-y,-z
x,1/2-y,z
loop_
_atom_site_type_symbol
_atom_site_label
_atom_site_fract_x
_atom_site_fract_y
_atom_site_fract_z
Si Si1 0.253598 0.468675 0.334798
Si Si2 0.145904 0.541314 0.559747
Si Si3 0.030072 0.250000 0.983933
Si Si4 0.344056 0.944011 0.132914
Si Si5 0.991859 0.656595 0.465640
Si Si6 0.017922 0.629554 0.879958
Si Si7 0.742045 0.250000 0.354888
Si Si8 0.293878 0.250000 0.969472
O O1 0.220845 0.515641 0.455072
O O2 0.437911 0.433088 0.589791
O O3 0.273343 0.498692 0.163225
O O4 0.087928 0.422196 0.130178
O O5 0.000000 0.500000 0.500000
O O6 0.043128 0.601684 0.396512
O O7 0.311735 0.550697 0.884924
O O8 0.244154 0.250000 0.127554
O O9 0.862368 0.250000 0.663314
O O10 0.006655 0.192618 0.070031
O O11 0.238595 0.887896 0.100637
O O12 0.932387 0.631149 0.591854
O O13 0.807875 0.692234 0.209163
O O14 0.187152 0.694458 0.681186
O O15 0.516540 0.250000 0.156467
#
# Coordination Sequence:
#
# PCOD8077400 Si02
#       8
#     4   4   2   4   4   4   2   2
#     4  11  23  41  64  94 129 166 205 252 310 369
#     4  11  21  40  65  93 128 167 202 254 313 363
#     4  10  24  40  64  88 120 158 206 252 308 366
#     4  10  24  39  62  97 127 164 208 250 309 372
#     4   9  21  40  64  91 115 161 207 247 306 361
#     4  11  22  43  64  85 124 161 204 258 300 362
#     4  10  23  43  61  89 123 156 200 260 308 360
#     4  10  23  43  63  91 119 158 208 248 308 370
#
# _framework density 21.205172000000001
#
# number of rings (size 3 to 8) (size 9 to 14) (size 15 to 20)
#    0.000    1.846    3.077    1.846    4.308    3.692 
#    5.538    1.538    0.000    0.000    0.000    0.000 
#    0.000    0.000    0.000    0.000    0.000    0.000 
#
# Total GULP energy -322168.553702 kJ/mol
# GULP energy per Si atom -12391.098219 kJ/mol
# Density = 2.115691 g / cm^3
# Si number density = 21.205172 Si / 1000 Ang^3
#
#
#
# Elastic Constant Matrix: (Units=GPa)
#
#
# Indices 1 2 3 4 5 6 
#
# 1 66.9512 12.4747 16.6084 0.0000 19.0619 0.0000
# 2 12.4747 100.3311 6.0913 0.0000 8.6267 0.0000
# 3 16.6084 6.0913 54.9515 0.0000 12.8616 0.0000
# 4 0.0000 0.0000 0.0000 25.0201 0.0000 0.4881
# 5 19.0619 8.6267 12.8616 0.0000 34.9417 0.0000
# 6 0.0000 0.0000 0.0000 0.4881 0.0000 15.1748
#
#
#
# Elastic Compliance Matrix: (Units=1/GPa)
#
#
# Indices 1 2 3 4 5 6 
#
# 1 0.018454 -0.001358 -0.003446 0.000000 -0.008464 0.000000
# 2 -0.001358 0.010301 -0.000339 0.000000 -0.001678 0.000000
# 3 -0.003446 -0.000339 0.020591 0.000000 -0.005616 0.000000
# 4 0.000000 0.000000 0.000000 0.039993 0.000000 -0.001286
# 5 -0.008464 -0.001678 -0.005616 0.000000 0.035718 0.000000
# 6 0.000000 0.000000 0.000000 -0.001286 0.000000 0.065940
#
#
# Mechanical properties :
#
#
# Convention : Reuss Voigt Hill
#
# Bulk Modulus (GPa) = 25.60099 32.50919 29.05509
# Shear Modulus (GPa) = 23.33163 27.49795 25.41479
#
# Velocity S-wave (km/s) = 3.32065 3.60496 3.46572
# Velocity P-wave (km/s) = 5.17701 5.71766 5.45404
#
# Compressibility (1/GPa) = 0.03906099
#
# Stress axis : x y z
#
# Youngs Moduli (GPa) = 54.18959 97.08152 48.56414
#
# Poissons Ratio (x) = 0.13179 0.16735
# Poissons Ratio (y) = 0.07356 0.01645
# Poissons Ratio (z) = 0.18674 0.03289
#
# Static dielectric constant tensor:
#      x y z
#    x 4.173180 0.000000 -0.182030 
#    y 0.000000 4.042700 0.000000 
#    z -0.182030 0.000000 3.847500 
# 
# 
# High freq. dielectric constant tensor:
#      x y z
#    x 1.837130 0.000000 -0.007070 
#    y 0.000000 1.843050 0.000000 
#    z -0.007070 0.000000 1.815260 
# 
# From -- ./inp_files/19479.got.cif
#   From: 2010.06.25/outbox.cif.g09.slc.cpg/sg11_10_cif.got.tgz:19479.got - 2010.06.27 23:14:04.
