data_PCOD8077209
_publ_section_title
;
Structure prediction by ZEFSAII (Michael W. Deem and Ramdas Pophale) SiO2 
 PCOD8077209
Probable space group: P 21/M
;
_chemical_formula_sum "Si O2"
_cell_formula_units_Z 32
_cell_length_a 8.917144
_cell_length_b 31.176095
_cell_length_c 11.178923
_cell_angle_alpha 90.000000
_cell_angle_beta 27.248407
_cell_angle_gamma 90.000000
_cell_volume 1422.885384
_symmetry_space_group_name_H-M "P 21/M"
_symmetry_group_IT_number 11
_symmetry_cell_setting 'monoclinic'
loop_
_space_group_symop_operation_xyz
x,y,z
-x,1/2+y,-z
-x,-y,-z
x,1/2-y,z
loop_
_atom_site_type_symbol
_atom_site_label
_atom_site_fract_x
_atom_site_fract_y
_atom_site_fract_z
Si Si1 0.693308 0.060364 0.400183
Si Si2 0.689182 0.517698 0.978637
Si Si3 0.801864 0.884089 0.109133
Si Si4 0.217641 0.916539 0.253980
Si Si5 0.403101 0.455330 0.367688
Si Si6 0.630060 0.700971 0.847326
Si Si7 0.300333 0.833946 0.318689
Si Si8 0.324079 0.872879 0.926786
O O1 0.454973 0.079744 0.667682
O O2 0.476867 0.035708 0.454219
O O3 0.917508 0.024943 0.312436
O O4 0.933466 0.095378 0.168938
O O5 0.535063 0.565538 0.100516
O O6 0.635659 0.486866 0.129229
O O7 0.500000 0.500000 0.000000
O O8 0.603729 0.844646 0.190728
O O9 0.980001 0.865370 0.101826
O O10 0.103185 0.877161 0.418469
O O11 0.295131 0.899369 0.068688
O O12 0.975611 0.957740 0.405776
O O13 0.460872 0.403949 0.309207
O O14 0.558989 0.750000 0.865291
O O15 0.023610 0.694237 0.580800
O O16 0.449743 0.690048 0.098504
O O17 0.489514 0.673031 0.836249
#
# Coordination Sequence:
#
# PCOD8077209 Si02
#       8
#     4   4   4   4   4   4   4   4
#     4  11  25  42  60  91 132 175 221 271 324 370
#     4  12  25  38  61  92 131 176 230 281 324 370
#     4  11  23  42  68  94 127 173 217 261 321 386
#     4  11  21  40  60  94 122 175 218 271 317 385
#     4  11  22  41  59  90 129 175 220 270 325 380
#     4  11  24  44  71 103 132 162 204 263 327 393
#     4  11  23  41  71  96 134 165 214 260 322 387
#     4  10  22  41  64  93 126 168 214 260 321 394
#
# _framework density 22.489514
#
# number of rings (size 3 to 8) (size 9 to 14) (size 15 to 20)
#    0.000    1.000    5.000    1.875    3.500    1.000 
#    0.000    3.750    0.000    0.000    0.000    0.000 
#    0.000    0.000    0.000    0.000    0.000    0.000 
#
# Total GULP energy -396688.182419 kJ/mol
# GULP energy per Si atom -12396.505701 kJ/mol
# Density = 2.243833 g / cm^3
# Si number density = 22.489514 Si / 1000 Ang^3
#
#
#
# Elastic Constant Matrix: (Units=GPa)
#
#
# Indices 1 2 3 4 5 6 
#
# 1 109.4361 40.8577 16.4829 0.0000 -19.9062 0.0000
# 2 40.8577 89.1824 7.2114 0.0000 -9.3354 0.0000
# 3 16.4829 7.2114 72.7308 0.0000 -12.7480 0.0000
# 4 0.0000 0.0000 0.0000 27.5230 0.0000 -1.9318
# 5 -19.9062 -9.3354 -12.7480 0.0000 38.6934 0.0000
# 6 0.0000 0.0000 0.0000 -1.9318 0.0000 25.6550
#
#
#
# Elastic Compliance Matrix: (Units=1/GPa)
#
#
# Indices 1 2 3 4 5 6 
#
# 1 0.012011 -0.004913 -0.001443 0.000000 0.004519 0.000000
# 2 -0.004913 0.013546 -0.000106 0.000000 0.000706 0.000000
# 3 -0.001443 -0.000106 0.014807 0.000000 0.004111 0.000000
# 4 0.000000 0.000000 0.000000 0.036526 0.000000 0.002750
# 5 0.004519 0.000706 0.004111 0.000000 0.029693 0.000000
# 6 0.000000 0.000000 0.000000 0.002750 0.000000 0.039186
#
#
# Mechanical properties :
#
#
# Convention : Reuss Voigt Hill
#
# Bulk Modulus (GPa) = 36.44211 44.49481 40.46846
# Shear Modulus (GPa) = 29.78999 32.16076 30.97537
#
# Velocity S-wave (km/s) = 3.64348 3.78568 3.71526
# Velocity P-wave (km/s) = 5.82573 6.23988 6.03636
#
# Compressibility (1/GPa) = 0.02744078
#
# Stress axis : x y z
#
# Youngs Moduli (GPa) = 83.25473 73.82079 67.53407
#
# Poissons Ratio (x) = 0.36269 0.09745
# Poissons Ratio (y) = 0.40904 0.00716
# Poissons Ratio (z) = 0.12013 0.00782
#
# Static dielectric constant tensor:
#      x y z
#    x 5.586960 0.000000 -0.931260 
#    y 0.000000 4.935340 0.000000 
#    z -0.931260 0.000000 4.414220 
# 
# 
# High freq. dielectric constant tensor:
#      x y z
#    x 1.901770 0.000000 -0.013210 
#    y 0.000000 1.860840 0.000000 
#    z -0.013210 0.000000 1.894540 
# 
# From -- ./inp_files/19873.got.cif
#   From: 2010.06.25/outbox.cif.g09.slc.cpg/sg11_10_cif.got.tgz:19873.got - 2010.06.27 23:14:04.
