data_PCOD8077045
_publ_section_title
;
Structure prediction by ZEFSAII (Michael W. Deem and Ramdas Pophale) SiO2 
 PCOD8077045
Probable space group: P 21/M
;
_chemical_formula_sum "Si O2"
_cell_formula_units_Z 24
_cell_length_a 12.168640
_cell_length_b 8.876230
_cell_length_c 11.531616
_cell_angle_alpha 90.000000
_cell_angle_beta 110.221566
_cell_angle_gamma 90.000000
_cell_volume 1168.776931
_symmetry_space_group_name_H-M "P 21/M"
_symmetry_group_IT_number 11
_symmetry_cell_setting 'monoclinic'
loop_
_space_group_symop_operation_xyz
x,y,z
-x,1/2+y,-z
-x,-y,-z
x,1/2-y,z
loop_
_atom_site_type_symbol
_atom_site_label
_atom_site_fract_x
_atom_site_fract_y
_atom_site_fract_z
Si Si1 0.466372 0.924361 0.367205
Si Si2 0.890930 0.427523 0.523090
Si Si3 0.050873 0.072890 0.222827
Si Si4 0.692693 0.924479 0.306195
Si Si5 0.779830 0.424174 0.116613
Si Si6 0.238120 0.574258 0.151585
O O1 0.454056 0.750000 0.390973
O O2 0.561445 0.953088 0.301675
O O3 0.343800 0.985768 0.271206
O O4 0.500000 0.000000 0.500000
O O5 0.905701 0.250000 0.527414
O O6 0.882788 0.487332 0.649977
O O7 0.773999 0.471976 0.414527
O O8 0.000000 0.500000 0.500000
O O9 0.064042 0.250000 0.244077
O O10 0.915570 0.025185 0.168749
O O11 0.119556 0.019002 0.133292
O O12 0.728999 0.750000 0.331468
O O13 0.704384 0.974846 0.176953
O O14 0.769085 0.250000 0.149456
O O15 0.727973 0.452480 0.970070
O O16 0.212282 0.750000 0.163297
#
# Coordination Sequence:
#
# PCOD8077045 Si02
#       6
#     4   4   4   4   4   4
#     4  10  23  42  63  88 118 154 201 252 300 355
#     4  12  23  37  59  88 120 156 196 243 298 354
#     4  11  22  37  59  90 124 158 201 250 299 358
#     4  11  23  39  61  90 123 158 200 250 300 356
#     4  10  22  39  60  87 122 161 201 247 303 361
#     4  10  22  41  62  86 119 162 206 249 299 357
#
# _framework density 20.534286000000002
#
# number of rings (size 3 to 8) (size 9 to 14) (size 15 to 20)
#    0.000    1.333    1.667    4.000    0.000    6.667 
#    0.000    0.000    0.000    0.000    0.000    0.000 
#    0.000    0.000    0.000    0.000    0.000    0.000 
#
# Total GULP energy -297696.384052 kJ/mol
# GULP energy per Si atom -12404.016002 kJ/mol
# Density = 2.048755 g / cm^3
# Si number density = 20.534286 Si / 1000 Ang^3
#
#
#
# Elastic Constant Matrix: (Units=GPa)
#
#
# Indices 1 2 3 4 5 6 
#
# 1 106.6379 46.2148 40.8831 0.0000 -12.2161 0.0000
# 2 46.2148 93.0760 37.6410 0.0000 -8.7174 0.0000
# 3 40.8831 37.6410 117.8307 0.0000 -5.9321 0.0000
# 4 0.0000 0.0000 0.0000 34.7251 0.0000 -7.0935
# 5 -12.2161 -8.7174 -5.9321 0.0000 29.6661 0.0000
# 6 0.0000 0.0000 0.0000 -7.0935 0.0000 31.8144
#
#
#
# Elastic Compliance Matrix: (Units=1/GPa)
#
#
# Indices 1 2 3 4 5 6 
#
# 1 0.012986 -0.005032 -0.002731 0.000000 0.003323 0.000000
# 2 -0.005032 0.014534 -0.002814 0.000000 0.001636 0.000000
# 3 -0.002731 -0.002814 0.010339 0.000000 0.000116 0.000000
# 4 0.000000 0.000000 0.000000 0.030172 0.000000 0.006727
# 5 0.003323 0.001636 0.000116 0.000000 0.035581 0.000000
# 6 0.000000 0.000000 0.000000 0.006727 0.000000 0.032932
#
#
# Mechanical properties :
#
#
# Convention : Reuss Voigt Hill
#
# Bulk Modulus (GPa) = 59.86631 63.00251 61.43441
# Shear Modulus (GPa) = 30.62462 32.09482 31.35972
#
# Velocity S-wave (km/s) = 3.86604 3.95775 3.91217
# Velocity P-wave (km/s) = 7.01042 7.18563 7.09857
#
# Compressibility (1/GPa) = 0.01670388
#
# Stress axis : x y z
#
# Youngs Moduli (GPa) = 77.00566 68.80404 96.71948
#
# Poissons Ratio (x) = 0.34625 0.26413
# Poissons Ratio (y) = 0.38752 0.27222
# Poissons Ratio (z) = 0.21029 0.19365
#
# Static dielectric constant tensor:
#      x y z
#    x 3.559090 0.000000 -0.234030 
#    y 0.000000 2.891550 0.000000 
#    z -0.234030 0.000000 3.699030 
# 
# 
# High freq. dielectric constant tensor:
#      x y z
#    x 1.807150 0.000000 -0.008270 
#    y 0.000000 1.800480 0.000000 
#    z -0.008270 0.000000 1.811740 
# 
# From -- ./inp_files/33699.got.cif
#   From: 2010.06.25/outbox.cif.g09.slc.cpg/sg11_17_cif.got.tgz:33699.got - 2010.06.27 23:14:04.
