data_PCOD8077598
_publ_section_title
;
Structure prediction by ZEFSAII (Michael W. Deem and Ramdas Pophale) SiO2 
 PCOD8077598
Probable space group: P 21/M
;
_chemical_formula_sum "Si O2"
_cell_formula_units_Z 28
_cell_length_a 9.620934
_cell_length_b 9.313296
_cell_length_c 31.587648
_cell_angle_alpha 90.000000
_cell_angle_beta 145.664336
_cell_angle_gamma 90.000000
_cell_volume 1596.422901
_symmetry_space_group_name_H-M "P 21/M"
_symmetry_group_IT_number 11
_symmetry_cell_setting 'monoclinic'
loop_
_space_group_symop_operation_xyz
x,y,z
-x,1/2+y,-z
-x,-y,-z
x,1/2-y,z
loop_
_atom_site_type_symbol
_atom_site_label
_atom_site_fract_x
_atom_site_fract_y
_atom_site_fract_z
Si Si1 0.759942 0.418545 0.201326
Si Si2 0.111663 0.580036 0.230362
Si Si3 0.196070 0.086069 0.075775
Si Si4 0.179986 0.918066 0.691715
Si Si5 0.719540 0.582381 0.807443
Si Si6 0.971645 0.916436 0.555036
Si Si7 0.370681 0.416509 0.603180
O O1 0.811694 0.250000 0.206518
O O2 0.471026 0.453521 0.130156
O O3 0.879123 0.475394 0.276011
O O4 0.873946 0.511431 0.192436
O O5 0.077281 0.750000 0.217690
O O6 0.134030 0.512878 0.189506
O O7 0.347806 0.538008 0.318741
O O8 0.143664 0.250000 0.052527
O O9 0.158864 0.055502 0.116212
O O10 0.000000 0.000000 0.000000
O O11 0.222463 0.750000 0.708856
O O12 0.438578 0.976070 0.738181
O O13 0.963189 0.955629 0.603247
O O14 0.733400 0.750000 0.798031
O O15 0.037922 0.750000 0.566634
O O16 0.713167 0.952217 0.466535
O O17 0.196678 0.999833 0.591168
O O18 0.333730 0.250000 0.604045
#
# Coordination Sequence:
#
# PCOD8077598 Si02
#       7
#     4   4   4   4   4   4   4
#     4   9  19  35  53  73  99 132 168 204 240 292
#     4  11  21  32  46  73 108 137 165 204 252 296
#     4   9  19  36  59  83 104 125 159 203 246 294
#     4   8  14  28  51  73  90 121 174 216 241 281
#     4   9  17  32  54  77  98 128 169 206 238 290
#     4   9  15  27  48  69  91 127 171 211 249 293
#     4   9  18  28  41  68 103 130 160 208 257 292
#
# _framework density 17.539211999999999
#
# number of rings (size 3 to 8) (size 9 to 14) (size 15 to 20)
#    0.000    2.857    1.429    2.143    0.000    1.714 
#    0.000    4.286    0.000    0.000    0.000    0.000 
#    0.000    0.000    0.000    0.000    0.000    0.000 
#
# Total GULP energy -346990.620845 kJ/mol
# GULP energy per Si atom -12392.522173 kJ/mol
# Density = 1.749929 g / cm^3
# Si number density = 17.539212 Si / 1000 Ang^3
#
#
#
# Elastic Constant Matrix: (Units=GPa)
#
#
# Indices 1 2 3 4 5 6 
#
# 1 112.9992 47.6053 41.8859 0.0000 -6.9592 0.0000
# 2 47.6053 59.1453 42.9196 0.0000 -1.5130 0.0000
# 3 41.8859 42.9196 103.3780 0.0000 -10.2315 0.0000
# 4 0.0000 0.0000 0.0000 25.6346 0.0000 -1.4613
# 5 -6.9592 -1.5130 -10.2315 0.0000 16.9562 0.0000
# 6 0.0000 0.0000 0.0000 -1.4613 0.0000 21.5343
#
#
#
# Elastic Compliance Matrix: (Units=1/GPa)
#
#
# Indices 1 2 3 4 5 6 
#
# 1 0.013799 -0.010368 -0.000870 0.000000 0.004214 0.000000
# 2 -0.010368 0.032266 -0.009924 0.000000 -0.007364 0.000000
# 3 -0.000870 -0.009924 0.014913 0.000000 0.007756 0.000000
# 4 0.000000 0.000000 0.000000 0.039161 0.000000 0.002657
# 5 0.004214 -0.007364 0.007756 0.000000 0.064728 0.000000
# 6 0.000000 0.000000 0.000000 0.002657 0.000000 0.046618
#
#
# Mechanical properties :
#
#
# Convention : Reuss Voigt Hill
#
# Bulk Modulus (GPa) = 53.60373 60.03825 56.82099
# Shear Modulus (GPa) = 19.22876 22.36580 20.79728
#
# Velocity S-wave (km/s) = 3.31468 3.57485 3.44722
# Velocity P-wave (km/s) = 6.72890 7.16552 6.95063
#
# Compressibility (1/GPa) = 0.01865542
#
# Stress axis : x y z
#
# Youngs Moduli (GPa) = 72.46657 30.99269 67.05438
#
# Poissons Ratio (x) = 0.32134 0.05831
# Poissons Ratio (y) = 0.75135 0.66543
# Poissons Ratio (z) = 0.06301 0.30756
#
# Static dielectric constant tensor:
#      x y z
#    x 3.110520 0.000000 -0.227070 
#    y 0.000000 3.124520 0.000000 
#    z -0.227070 0.000000 3.345560 
# 
# 
# High freq. dielectric constant tensor:
#      x y z
#    x 1.659330 0.000000 -0.020140 
#    y 0.000000 1.663050 0.000000 
#    z -0.020140 0.000000 1.677320 
# 
# From -- ./inp_files/29002.got.cif
#   From: 2010.06.25/outbox.cif.g09.slc.cpg/sg11_15_cif.got.tgz:29002.got - 2010.06.27 23:14:04.
