data_PCOD8077203
_publ_section_title
;
Structure prediction by ZEFSAII (Michael W. Deem and Ramdas Pophale) SiO2 
 PCOD8077203
Probable space group: P 21/M
;
_chemical_formula_sum "Si O2"
_cell_formula_units_Z 28
_cell_length_a 22.268687
_cell_length_b 8.446038
_cell_length_c 8.873569
_cell_angle_alpha 90.000000
_cell_angle_beta 53.567043
_cell_angle_gamma 90.000000
_cell_volume 1342.765786
_symmetry_space_group_name_H-M "P 21/M"
_symmetry_group_IT_number 11
_symmetry_cell_setting 'monoclinic'
loop_
_space_group_symop_operation_xyz
x,y,z
-x,1/2+y,-z
-x,-y,-z
x,1/2-y,z
loop_
_atom_site_type_symbol
_atom_site_label
_atom_site_fract_x
_atom_site_fract_y
_atom_site_fract_z
Si Si1 0.132959 0.431502 0.478608
Si Si2 0.709446 0.066866 0.257207
Si Si3 0.572910 0.064902 0.970091
Si Si4 0.141179 0.933274 0.141787
Si Si5 0.430439 0.066528 0.693768
Si Si6 0.277924 0.935379 0.411219
Si Si7 0.993053 0.934056 0.843915
O O1 0.110692 0.250000 0.541396
O O2 0.138003 0.459002 0.293368
O O3 0.211736 0.466285 0.436818
O O4 0.070898 0.545289 0.641751
O O5 0.687921 0.250000 0.264647
O O6 0.720415 0.027847 0.415146
O O7 0.643832 0.958159 0.292161
O O8 0.785035 0.021363 0.059815
O O9 0.570872 0.250000 0.953812
O O10 0.576869 0.022434 0.138275
O O11 0.645997 0.999404 0.776237
O O12 0.500000 0.000000 0.000000
O O13 0.141749 0.750000 0.188586
O O14 0.070292 0.966174 0.144126
O O15 0.443345 0.250000 0.706837
O O16 0.500000 0.000000 0.500000
O O17 0.265632 0.750000 0.396259
O O18 0.971405 0.750000 0.878935
O O19 0.000000 0.000000 0.000000
#
# Coordination Sequence:
#
# PCOD8077203 Si02
#       7
#     4   4   4   4   4   4   4
#     4  12  25  41  63  92 126 165 210 258 307 363
#     4  10  22  41  65  92 124 161 204 254 311 369
#     4  11  23  40  64  93 127 164 206 254 309 369
#     4  11  23  41  65  93 127 166 207 254 307 364
#     4  12  25  41  63  90 124 163 208 258 310 368
#     4  10  22  41  64  91 124 163 205 255 312 369
#     4  12  25  43  66  93 126 162 205 255 309 370
#
# _framework density 20.852481999999998
#
# number of rings (size 3 to 8) (size 9 to 14) (size 15 to 20)
#    0.000    0.857    0.000    7.714    0.000    8.571 
#    0.000    0.000    0.000    0.000    0.000    0.000 
#    0.000    0.000    0.000    0.000    0.000    0.000 
#
# Total GULP energy -347435.431588 kJ/mol
# GULP energy per Si atom -12408.408271 kJ/mol
# Density = 2.080502 g / cm^3
# Si number density = 20.852482 Si / 1000 Ang^3
#
#
#
# Elastic Constant Matrix: (Units=GPa)
#
#
# Indices 1 2 3 4 5 6 
#
# 1 134.3235 15.7379 51.5185 0.0000 -5.6599 0.0000
# 2 15.7379 50.3097 15.9164 0.0000 -8.5875 0.0000
# 3 51.5185 15.9164 153.4125 0.0000 -2.9853 0.0000
# 4 0.0000 0.0000 0.0000 31.7788 0.0000 -0.0673
# 5 -5.6599 -8.5875 -2.9853 0.0000 44.9566 0.0000
# 6 0.0000 0.0000 0.0000 -0.0673 0.0000 39.6744
#
#
#
# Elastic Compliance Matrix: (Units=1/GPa)
#
#
# Indices 1 2 3 4 5 6 
#
# 1 0.008725 -0.001765 -0.002736 0.000000 0.000580 0.000000
# 2 -0.001765 0.021574 -0.001572 0.000000 0.003794 0.000000
# 3 -0.002736 -0.001572 0.007597 0.000000 -0.000140 0.000000
# 4 0.000000 0.000000 0.000000 0.031468 0.000000 0.000053
# 5 0.000580 0.003794 -0.000140 0.000000 0.023032 0.000000
# 6 0.000000 0.000000 0.000000 0.000053 0.000000 0.025205
#
#
# Mechanical properties :
#
#
# Convention : Reuss Voigt Hill
#
# Bulk Modulus (GPa) = 38.83234 56.04349 47.43791
# Shear Modulus (GPa) = 36.14540 40.27349 38.20944
#
# Velocity S-wave (km/s) = 4.16791 4.39948 4.28526
# Velocity P-wave (km/s) = 6.46721 7.26235 6.87629
#
# Compressibility (1/GPa) = 0.02575173
#
# Stress axis : x y z
#
# Youngs Moduli (GPa) = 114.61095 46.35225 131.62406
#
# Poissons Ratio (x) = 0.08181 0.36008
# Poissons Ratio (y) = 0.20229 0.20688
# Poissons Ratio (z) = 0.31354 0.07285
#
# Static dielectric constant tensor:
#      x y z
#    x 3.914880 0.000000 -0.039940 
#    y 0.000000 3.766010 0.000000 
#    z -0.039940 0.000000 4.213610 
# 
# 
# High freq. dielectric constant tensor:
#      x y z
#    x 1.833860 0.000000 -0.000040 
#    y 0.000000 1.819080 0.000000 
#    z -0.000040 0.000000 1.837630 
# 
# From -- ./inp_files/26108.got.cif
#   From: 2010.06.25/outbox.cif.g09.slc.cpg/sg11_14_cif.got.tgz:26108.got - 2010.06.27 23:14:04.
