data_PCOD8077933
_publ_section_title
;
Structure prediction by ZEFSAII (Michael W. Deem and Ramdas Pophale) SiO2 
 PCOD8077933
Probable space group: P 21/M
;
_chemical_formula_sum "Si O2"
_cell_formula_units_Z 32
_cell_length_a 22.949187
_cell_length_b 9.339876
_cell_length_c 28.584039
_cell_angle_alpha 90.000000
_cell_angle_beta 161.884225
_cell_angle_gamma 90.000000
_cell_volume 1905.048244
_symmetry_space_group_name_H-M "P 21/M"
_symmetry_group_IT_number 11
_symmetry_cell_setting 'monoclinic'
loop_
_space_group_symop_operation_xyz
x,y,z
-x,1/2+y,-z
-x,-y,-z
x,1/2-y,z
loop_
_atom_site_type_symbol
_atom_site_label
_atom_site_fract_x
_atom_site_fract_y
_atom_site_fract_z
Si Si1 0.700573 0.409663 0.019472
Si Si2 0.702551 0.579579 0.525552
Si Si3 0.005562 0.920422 0.828545
Si Si4 0.976189 0.909663 0.657308
Si Si5 0.716031 0.082531 0.779758
Si Si6 0.539707 0.411428 0.100931
Si Si7 0.028982 0.082532 0.092725
Si Si8 0.215377 0.088572 0.776621
O O1 0.618081 0.250000 0.948336
O O2 0.801390 0.469938 0.049439
O O3 0.854130 0.401285 0.177052
O O4 0.533056 0.515095 0.906762
O O5 0.706299 0.750000 0.529368
O O6 0.824845 0.519671 0.662444
O O7 0.793608 0.530065 0.545582
O O8 0.491278 0.521887 0.368239
O O9 0.001546 0.750000 0.824591
O O10 0.001028 0.978103 0.877961
O O11 0.939102 0.750000 0.608872
O O12 0.027867 0.015093 0.654187
O O13 0.713541 0.250000 0.765810
O O14 0.840150 0.049871 0.920060
O O15 0.796006 0.000003 0.795995
O O16 0.604033 0.250000 0.161378
O O17 0.716855 0.500002 0.216842
O O18 0.376689 0.410859 0.938349
O O19 0.077312 0.250000 0.129597
O O20 0.166553 0.250000 0.723924
#
# Coordination Sequence:
#
# PCOD8077933 Si02
#       8
#     4   4   4   4   4   4   4   4
#     4   8  13  22  35  49  67  94 127 160 193 229
#     4   8  14  25  41  59  79 105 135 165 199 240
#     4   8  14  25  41  59  79 105 135 165 199 240
#     4   8  13  22  35  49  67  94 127 160 193 229
#     4   9  17  29  44  61  81 105 133 165 200 238
#     4   9  15  21  30  46  70 100 131 160 190 227
#     4   9  17  29  44  61  81 105 133 165 200 238
#     4   9  15  21  30  46  70 100 131 160 190 227
#
# _framework density 16.797474999999999
#
# number of rings (size 3 to 8) (size 9 to 14) (size 15 to 20)
#    0.000    3.500    0.000    2.250    0.000    3.500 
#    0.000    1.250    0.000    1.500    0.000    0.000 
#    0.000    1.000    0.000    1.750    0.000    2.500 
#
# Total GULP energy -396601.219188 kJ/mol
# GULP energy per Si atom -12393.788100 kJ/mol
# Density = 1.675924 g / cm^3
# Si number density = 16.797475 Si / 1000 Ang^3
#
#
#
# Elastic Constant Matrix: (Units=GPa)
#
#
# Indices 1 2 3 4 5 6 
#
# 1 113.5770 52.9589 76.6044 0.0000 45.1393 0.0000
# 2 52.9589 79.1531 37.4172 0.0000 22.9137 0.0000
# 3 76.6044 37.4172 63.4504 0.0000 28.7378 0.0000
# 4 0.0000 0.0000 0.0000 15.7411 0.0000 10.7278
# 5 45.1393 22.9137 28.7378 0.0000 27.3652 0.0000
# 6 0.0000 0.0000 0.0000 10.7278 0.0000 23.0030
#
#
#
# Elastic Compliance Matrix: (Units=1/GPa)
#
#
# Indices 1 2 3 4 5 6 
#
# 1 0.075338 -0.004749 -0.064216 0.000000 -0.052858 0.000000
# 2 -0.004749 0.018612 -0.003303 0.000000 -0.004283 0.000000
# 3 -0.064216 -0.003303 0.087742 0.000000 0.016547 0.000000
# 4 0.000000 0.000000 0.000000 0.093127 0.000000 -0.043431
# 5 -0.052858 -0.004283 0.016547 0.000000 0.109941 0.000000
# 6 0.000000 0.000000 0.000000 -0.043431 0.000000 0.063727
#
#
# Mechanical properties :
#
#
# Convention : Reuss Voigt Hill
#
# Bulk Modulus (GPa) = 26.91232 65.57127 46.24179
# Shear Modulus (GPa) = 8.25891 19.16854 13.71373
#
# Velocity S-wave (km/s) = 2.21978 3.38177 2.86040
# Velocity P-wave (km/s) = 4.75671 7.37357 6.20467
#
# Compressibility (1/GPa) = 0.03715770
#
# Stress axis : x y z
#
# Youngs Moduli (GPa) = 13.27357 53.72859 11.39709
#
# Poissons Ratio (x) = 0.25514 0.73187
# Poissons Ratio (y) = 0.06303 0.03764
# Poissons Ratio (z) = 0.85237 0.17745
#
# Static dielectric constant tensor:
#      x y z
#    x 3.283060 0.000000 0.400290 
#    y 0.000000 3.060490 0.000000 
#    z 0.400290 0.000000 3.011950 
# 
# 
# High freq. dielectric constant tensor:
#      x y z
#    x 1.637220 0.000000 0.039380 
#    y 0.000000 1.624180 0.000000 
#    z 0.039380 0.000000 1.610540 
# 
# From -- ./inp_files/73645.got.cif
#   From: 2010.06.25/outbox.cif.g09.slc.cpg/sg11_37_cif.got.tgz:73645.got - 2010.06.27 23:14:04.
