data_PCOD8077049
_publ_section_title
;
Structure prediction by ZEFSAII (Michael W. Deem and Ramdas Pophale) SiO2 
 PCOD8077049
Probable space group: P 21/M
;
_chemical_formula_sum "Si O2"
_cell_formula_units_Z 28
_cell_length_a 15.475153
_cell_length_b 9.059904
_cell_length_c 11.773320
_cell_angle_alpha 90.000000
_cell_angle_beta 121.344983
_cell_angle_gamma 90.000000
_cell_volume 1409.746888
_symmetry_space_group_name_H-M "P 21/M"
_symmetry_group_IT_number 11
_symmetry_cell_setting 'monoclinic'
loop_
_space_group_symop_operation_xyz
x,y,z
-x,1/2+y,-z
-x,-y,-z
x,1/2-y,z
loop_
_atom_site_type_symbol
_atom_site_label
_atom_site_fract_x
_atom_site_fract_y
_atom_site_fract_z
Si Si1 0.835476 0.083319 0.126651
Si Si2 0.528257 0.080486 0.193744
Si Si3 0.970900 0.580626 0.595269
Si Si4 0.204690 0.423522 0.363491
Si Si5 0.437845 0.076473 0.555824
Si Si6 0.893862 0.079184 0.914903
Si Si7 0.347401 0.081313 0.899690
O O1 0.800741 0.250000 0.132763
O O2 0.947301 0.052709 0.250350
O O3 0.762664 0.965948 0.135177
O O4 0.832943 0.059395 0.990233
O O5 0.549402 0.250000 0.239762
O O6 0.515599 0.983090 0.296302
O O7 0.621822 0.020488 0.184550
O O8 0.424294 0.060464 0.055495
O O9 0.963110 0.750000 0.555759
O O10 0.864127 0.526386 0.575879
O O11 0.000000 0.500000 0.500000
O O12 0.189682 0.250000 0.330472
O O13 0.319788 0.465280 0.469443
O O14 0.173647 0.508782 0.229224
O O15 0.454890 0.250000 0.559555
O O16 0.500000 0.000000 0.500000
O O17 0.913605 0.250000 0.900746
O O18 0.000000 0.000000 0.000000
O O19 0.344199 0.250000 0.855468
#
# Coordination Sequence:
#
# PCOD8077049 Si02
#       7
#     4   4   4   4   4   4   4
#     4  10  22  39  60  89 123 158 197 250 304 357
#     4  10  22  42  64  89 122 159 204 255 309 368
#     4  10  22  41  61  88 125 161 201 249 301 361
#     4  10  23  44  64  87 123 163 205 257 310 362
#     4  11  25  43  65  91 124 166 210 259 314 371
#     4  11  22  39  63  90 121 159 201 247 302 360
#     4  10  22  39  63  92 121 158 201 252 309 364
#
# _framework density 19.861722
#
# number of rings (size 3 to 8) (size 9 to 14) (size 15 to 20)
#    0.000    1.714    1.429    1.714    4.000    5.143 
#    0.000    0.000    0.000    0.000    0.000    0.000 
#    0.000    0.000    0.000    0.000    0.000    0.000 
#
# Total GULP energy -347321.954751 kJ/mol
# GULP energy per Si atom -12404.355527 kJ/mol
# Density = 1.981652 g / cm^3
# Si number density = 19.861722 Si / 1000 Ang^3
#
#
#
# Elastic Constant Matrix: (Units=GPa)
#
#
# Indices 1 2 3 4 5 6 
#
# 1 138.4215 54.3245 42.0748 0.0000 -6.8015 0.0000
# 2 54.3245 89.9219 46.9185 0.0000 -3.1177 0.0000
# 3 42.0748 46.9185 79.7196 0.0000 -22.5713 0.0000
# 4 0.0000 0.0000 0.0000 39.3648 0.0000 -3.8108
# 5 -6.8015 -3.1177 -22.5713 0.0000 28.8286 0.0000
# 6 0.0000 0.0000 0.0000 -3.8108 0.0000 37.9670
#
#
#
# Elastic Compliance Matrix: (Units=1/GPa)
#
#
# Indices 1 2 3 4 5 6 
#
# 1 0.009786 -0.004621 -0.002484 0.000000 -0.000136 0.000000
# 2 -0.004621 0.019512 -0.011250 0.000000 -0.007788 0.000000
# 3 -0.002484 -0.011250 0.025652 0.000000 0.018282 0.000000
# 4 0.000000 0.000000 0.000000 0.025653 0.000000 0.002575
# 5 -0.000136 -0.007788 0.018282 0.000000 0.048127 0.000000
# 6 0.000000 0.000000 0.000000 0.002575 0.000000 0.026597
#
#
# Mechanical properties :
#
#
# Convention : Reuss Voigt Hill
#
# Bulk Modulus (GPa) = 54.82129 66.07763 60.44946
# Shear Modulus (GPa) = 25.23758 32.21511 28.72635
#
# Velocity S-wave (km/s) = 3.56851 4.03174 3.80717
# Velocity P-wave (km/s) = 6.68134 7.41716 7.05885
#
# Compressibility (1/GPa) = 0.01824109
#
# Stress axis : x y z
#
# Youngs Moduli (GPa) = 102.18589 51.24977 38.98299
#
# Poissons Ratio (x) = 0.23682 0.09683
# Poissons Ratio (y) = 0.47218 0.43857
# Poissons Ratio (z) = 0.25381 0.57657
#
# Static dielectric constant tensor:
#      x y z
#    x 3.714330 0.000000 -0.154150 
#    y 0.000000 3.735180 0.000000 
#    z -0.154150 0.000000 3.993370 
# 
# 
# High freq. dielectric constant tensor:
#      x y z
#    x 1.782850 0.000000 -0.004330 
#    y 0.000000 1.780090 0.000000 
#    z -0.004330 0.000000 1.778870 
# 
# From -- ./inp_files/37868.got.cif
#   From: 2010.06.25/outbox.cif.g09.slc.cpg/sg11_19_cif.got.tgz:37868.got - 2010.06.27 23:14:04.
