data_PCOD8077005
_publ_section_title
;
Structure prediction by ZEFSAII (Michael W. Deem and Ramdas Pophale) SiO2 
 PCOD8077005
Probable space group: P 21/M
;
_chemical_formula_sum "Si O2"
_cell_formula_units_Z 20
_cell_length_a 7.498147
_cell_length_b 10.149236
_cell_length_c 16.130806
_cell_angle_alpha 90.000000
_cell_angle_beta 51.092465
_cell_angle_gamma 90.000000
_cell_volume 955.240185
_symmetry_space_group_name_H-M "P 21/M"
_symmetry_group_IT_number 11
_symmetry_cell_setting 'monoclinic'
loop_
_space_group_symop_operation_xyz
x,y,z
-x,1/2+y,-z
-x,-y,-z
x,1/2-y,z
loop_
_atom_site_type_symbol
_atom_site_label
_atom_site_fract_x
_atom_site_fract_y
_atom_site_fract_z
Si Si1 0.057129 0.250000 0.418382
Si Si2 0.283795 0.750000 0.683802
Si Si3 0.311820 0.895596 0.140401
Si Si4 0.769399 0.750000 0.456215
Si Si5 0.236355 0.972008 0.980481
Si Si6 0.451492 0.750000 0.811012
Si Si7 0.938941 0.477176 0.344803
O O1 0.056342 0.250000 0.517407
O O2 0.291858 0.250000 0.298380
O O3 0.928188 0.385705 0.430469
O O4 0.520693 0.750000 0.566818
O O5 0.284422 0.750000 0.781861
O O6 0.160696 0.613085 0.698951
O O7 0.246821 0.750000 0.188247
O O8 0.198859 0.990966 0.241833
O O9 0.590045 0.904543 0.058106
O O10 0.191132 0.917569 0.085811
O O11 0.800449 0.614826 0.395197
O O12 0.396923 0.874787 0.882548
O O13 0.000000 0.000000 0.000000
#
# Coordination Sequence:
#
# PCOD8077005 Si02
#       7
#     2   2   4   2   4   2   4
#     4  10  22  38  62  88 115 160 207 243 314 384
#     4  10  24  38  64  90 116 167 208 250 318 374
#     4  11  23  40  64  94 126 168 209 259 319 369
#     4  11  22  39  65  88 121 155 204 262 316 371
#     4  11  24  40  63  91 127 166 211 257 309 374
#     4  11  20  41  59  84 122 158 207 249 298 381
#     4  11  21  41  62  87 126 157 204 260 313 375
#
# _framework density 20.937142000000001
#
# number of rings (size 3 to 8) (size 9 to 14) (size 15 to 20)
#    0.000    1.200    4.000    2.400    1.400    0.000 
#    1.800    0.000    0.000    0.000    0.000    0.000 
#    0.000    0.000    0.000    0.000    0.000    0.000 
#
# Total GULP energy -247809.219074 kJ/mol
# GULP energy per Si atom -12390.460954 kJ/mol
# Density = 2.088949 g / cm^3
# Si number density = 20.937142 Si / 1000 Ang^3
#
#
#
# Elastic Constant Matrix: (Units=GPa)
#
#
# Indices 1 2 3 4 5 6 
#
# 1 90.3520 19.5923 -2.5279 0.0000 1.2247 0.0000
# 2 19.5923 143.0844 22.7841 0.0000 4.5537 0.0000
# 3 -2.5279 22.7841 56.3648 0.0000 0.1360 0.0000
# 4 0.0000 0.0000 0.0000 43.4665 0.0000 -13.3959
# 5 1.2247 4.5537 0.1360 0.0000 28.8535 0.0000
# 6 0.0000 0.0000 0.0000 -13.3959 0.0000 28.4660
#
#
#
# Elastic Compliance Matrix: (Units=1/GPa)
#
#
# Indices 1 2 3 4 5 6 
#
# 1 0.011487 -0.001762 0.001228 0.000000 -0.000215 0.000000
# 2 -0.001762 0.007779 -0.003221 0.000000 -0.001138 0.000000
# 3 0.001228 -0.003221 0.019098 0.000000 0.000366 0.000000
# 4 0.000000 0.000000 0.000000 0.026909 0.000000 0.012663
# 5 -0.000215 -0.001138 0.000366 0.000000 0.034845 0.000000
# 6 0.000000 0.000000 0.000000 0.012663 0.000000 0.041089
#
#
# Mechanical properties :
#
#
# Convention : Reuss Voigt Hill
#
# Bulk Modulus (GPa) = 32.40993 41.05536 36.73265
# Shear Modulus (GPa) = 31.44646 36.82072 34.13359
#
# Velocity S-wave (km/s) = 3.87970 4.19815 4.04206
# Velocity P-wave (km/s) = 5.96512 6.56892 6.27429
#
# Compressibility (1/GPa) = 0.03085474
#
# Stress axis : x y z
#
# Youngs Moduli (GPa) = 87.05438 128.54856 52.36239
#
# Poissons Ratio (x) = 0.22645 -0.06429
# Poissons Ratio (y) = 0.15335 0.16865
# Poissons Ratio (z) = -0.10688 0.41403
#
# Static dielectric constant tensor:
#      x y z
#    x 3.809220 0.000000 0.098780 
#    y 0.000000 4.008790 0.000000 
#    z 0.098780 0.000000 3.621510 
# 
# 
# High freq. dielectric constant tensor:
#      x y z
#    x 1.811500 0.000000 0.002330 
#    y 0.000000 1.832740 0.000000 
#    z 0.002330 0.000000 1.819470 
# 
# From -- ./inp_files/57456.got.cif
#   From: 2010.06.25/outbox.cif.g09.slc.cpg/sg11_29_cif.got.tgz:57456.got - 2010.06.27 23:14:04.
