data_PCOD8077572
_publ_section_title
;
Structure prediction by ZEFSAII (Michael W. Deem and Ramdas Pophale) SiO2 
 PCOD8077572
Probable space group: P 21/M
;
_chemical_formula_sum "Si O2"
_cell_formula_units_Z 32
_cell_length_a 17.123773
_cell_length_b 14.482578
_cell_length_c 11.926344
_cell_angle_alpha 90.000000
_cell_angle_beta 35.157300
_cell_angle_gamma 90.000000
_cell_volume 1703.106511
_symmetry_space_group_name_H-M "P 21/M"
_symmetry_group_IT_number 11
_symmetry_cell_setting 'monoclinic'
loop_
_space_group_symop_operation_xyz
x,y,z
-x,1/2+y,-z
-x,-y,-z
x,1/2-y,z
loop_
_atom_site_type_symbol
_atom_site_label
_atom_site_fract_x
_atom_site_fract_y
_atom_site_fract_z
Si Si1 0.409359 0.140292 0.642040
Si Si2 0.400461 0.141171 0.402733
Si Si3 0.124547 0.146188 0.631234
Si Si4 0.943569 0.021100 0.687306
Si Si5 0.141558 0.354674 0.064860
Si Si6 0.295796 0.859145 0.969856
Si Si7 0.013403 0.892375 0.977025
Si Si8 0.298773 0.643954 0.714510
O O1 0.397589 0.250000 0.654987
O O2 0.382484 0.099803 0.548855
O O3 0.559529 0.104144 0.503344
O O4 0.292504 0.104594 0.862725
O O5 0.385864 0.250000 0.430672
O O6 0.277206 0.105610 0.469383
O O7 0.548735 0.117127 0.178190
O O8 0.127267 0.250000 0.577900
O O9 0.052081 0.079113 0.630117
O O10 0.047063 0.153319 0.840763
O O11 0.805528 0.080387 0.835359
O O12 0.000000 0.000000 0.500000
O O13 0.924205 0.921920 0.767828
O O14 0.144950 0.250000 0.109164
O O15 0.057724 0.351275 0.047933
O O16 0.264745 0.750000 0.021703
O O17 0.268221 0.894729 0.874897
O O18 0.174009 0.871397 0.777874
O O19 0.000000 0.000000 0.000000
O O20 0.331026 0.750000 0.697825
#
# Coordination Sequence:
#
# PCOD8077572 Si02
#       8
#     4   4   4   4   4   4   4   4
#     4   8  15  29  51  80 114 146 175 213 270 343
#     4   8  15  29  56  89 114 140 175 220 283 348
#     4  11  20  36  61  86 114 148 185 233 284 340
#     4  12  26  41  55  80 109 150 207 246 276 322
#     4  11  22  38  56  80 118 153 182 228 288 341
#     4   9  17  35  59  83 112 144 183 233 280 329
#     4  12  20  32  53  89 123 146 177 222 283 352
#     4   9  16  29  52  83 115 146 178 214 269 341
#
# _framework density 18.789193999999998
#
# number of rings (size 3 to 8) (size 9 to 14) (size 15 to 20)
#    0.000    2.000    3.750    3.000    0.000    1.000 
#    2.250    2.500    0.000    0.000    0.000    3.500 
#    0.000    0.000    0.000    0.000    0.000    0.000 
#
# Total GULP energy -396612.377174 kJ/mol
# GULP energy per Si atom -12394.136787 kJ/mol
# Density = 1.874643 g / cm^3
# Si number density = 18.789194 Si / 1000 Ang^3
#
#
#
# Elastic Constant Matrix: (Units=GPa)
#
#
# Indices 1 2 3 4 5 6 
#
# 1 84.8198 26.2199 78.9523 0.0000 -18.5347 0.0000
# 2 26.2199 70.2326 35.4423 0.0000 0.5963 0.0000
# 3 78.9523 35.4423 119.5971 0.0000 -16.4238 0.0000
# 4 0.0000 0.0000 0.0000 17.2868 0.0000 -1.1206
# 5 -18.5347 0.5963 -16.4238 0.0000 39.3196 0.0000
# 6 0.0000 0.0000 0.0000 -1.1206 0.0000 7.4801
#
#
#
# Elastic Compliance Matrix: (Units=1/GPa)
#
#
# Indices 1 2 3 4 5 6 
#
# 1 0.032429 -0.002177 -0.019794 0.000000 0.007051 0.000000
# 2 -0.002177 0.017117 -0.004044 0.000000 -0.002975 0.000000
# 3 -0.019794 -0.004044 0.022653 0.000000 0.000193 0.000000
# 4 0.000000 0.000000 0.000000 0.058415 0.000000 0.008751
# 5 0.007051 -0.002975 0.000193 0.000000 0.028882 0.000000
# 6 0.000000 0.000000 0.000000 0.008751 0.000000 0.134999
#
#
# Mechanical properties :
#
#
# Convention : Reuss Voigt Hill
#
# Bulk Modulus (GPa) = 49.58236 61.76427 55.67331
# Shear Modulus (GPa) = 14.15431 21.75295 17.95363
#
# Velocity S-wave (km/s) = 2.74765 3.40624 3.09452
# Velocity P-wave (km/s) = 6.04253 6.95799 6.51635
#
# Compressibility (1/GPa) = 0.02016846
#
# Stress axis : x y z
#
# Youngs Moduli (GPa) = 30.83703 58.42065 44.14338
#
# Poissons Ratio (x) = 0.12721 0.87378
# Poissons Ratio (y) = 0.06715 0.17851
# Poissons Ratio (z) = 0.61039 0.23624
#
# Static dielectric constant tensor:
#      x y z
#    x 3.290640 0.000000 -0.402950 
#    y 0.000000 3.355300 0.000000 
#    z -0.402950 0.000000 3.488790 
# 
# 
# High freq. dielectric constant tensor:
#      x y z
#    x 1.697540 0.000000 -0.046830 
#    y 0.000000 1.732080 0.000000 
#    z -0.046830 0.000000 1.716700 
# 
# From -- ./inp_files/41656.got.cif
#   From: 2010.06.25/outbox.cif.g09.slc.cpg/sg11_21_cif.got.tgz:41656.got - 2010.06.27 23:14:04.
