data_PCOD8077069
_publ_section_title
;
Structure prediction by ZEFSAII (Michael W. Deem and Ramdas Pophale) SiO2 
 PCOD8077069
Probable space group: P 21/M
;
_chemical_formula_sum "Si O2"
_cell_formula_units_Z 20
_cell_length_a 24.554791
_cell_length_b 9.081631
_cell_length_c 10.409557
_cell_angle_alpha 90.000000
_cell_angle_beta 156.052408
_cell_angle_gamma 90.000000
_cell_volume 942.219988
_symmetry_space_group_name_H-M "P 21/M"
_symmetry_group_IT_number 11
_symmetry_cell_setting 'monoclinic'
loop_
_space_group_symop_operation_xyz
x,y,z
-x,1/2+y,-z
-x,-y,-z
x,1/2-y,z
loop_
_atom_site_type_symbol
_atom_site_label
_atom_site_fract_x
_atom_site_fract_y
_atom_site_fract_z
Si Si1 0.923563 0.575922 0.451858
Si Si2 0.941482 0.419410 0.750638
Si Si3 0.669524 0.084111 0.288459
Si Si4 0.619351 0.922740 0.419534
Si Si5 0.631796 0.921859 0.731810
O O1 0.952214 0.750000 0.511931
O O2 0.981014 0.505053 0.706363
O O3 0.000000 0.500000 0.500000
O O4 0.764081 0.543185 0.099872
O O5 0.991867 0.250000 0.851628
O O6 0.781077 0.426631 0.419290
O O7 0.000000 0.500000 0.000000
O O8 0.648491 0.250000 0.290223
O O9 0.711926 0.993525 0.507889
O O10 0.533257 0.022317 0.932148
O O11 0.635674 0.750000 0.442629
O O12 0.663371 0.977327 0.655026
O O13 0.597949 0.750000 0.657159
O O14 0.500000 0.000000 0.500000
#
# Coordination Sequence:
#
# PCOD8077069 Si02
#       5
#     4   4   4   4   4
#     4  11  25  44  65  95 132 172 218 267 323 385
#     4  11  24  42  64  90 123 165 214 264 316 378
#     4   9  19  35  56  85 118 153 198 248 306 367
#     4   9  18  34  57  85 118 153 193 248 307 365
#     4  10  22  39  62  91 123 163 211 261 317 380
#
# _framework density 21.226467
#
# number of rings (size 3 to 8) (size 9 to 14) (size 15 to 20)
#    0.000    2.000    0.000    2.400    2.800    5.600 
#    0.000    4.000    0.000    0.000    0.000    0.000 
#    0.000    0.000    0.000    0.000    0.000    0.000 
#
# Total GULP energy -248002.478904 kJ/mol
# GULP energy per Si atom -12400.123945 kJ/mol
# Density = 2.117815 g / cm^3
# Si number density = 21.226467 Si / 1000 Ang^3
#
#
#
# Elastic Constant Matrix: (Units=GPa)
#
#
# Indices 1 2 3 4 5 6 
#
# 1 143.6709 67.4766 32.3219 0.0000 -21.0706 0.0000
# 2 67.4766 109.5026 42.1694 0.0000 -10.5507 0.0000
# 3 32.3219 42.1694 57.4913 0.0000 -12.8842 0.0000
# 4 0.0000 0.0000 0.0000 28.5901 0.0000 0.0810
# 5 -21.0706 -10.5507 -12.8842 0.0000 39.7925 0.0000
# 6 0.0000 0.0000 0.0000 0.0810 0.0000 44.2868
#
#
#
# Elastic Compliance Matrix: (Units=1/GPa)
#
#
# Indices 1 2 3 4 5 6 
#
# 1 0.010375 -0.005727 -0.000799 0.000000 0.003716 0.000000
# 2 -0.005727 0.015894 -0.008813 0.000000 -0.001672 0.000000
# 3 -0.000799 -0.008813 0.025542 0.000000 0.005510 0.000000
# 4 0.000000 0.000000 0.000000 0.034977 0.000000 -0.000064
# 5 0.003716 -0.001672 0.005510 0.000000 0.028439 0.000000
# 6 0.000000 0.000000 0.000000 -0.000064 0.000000 0.022580
#
#
# Mechanical properties :
#
#
# Convention : Reuss Voigt Hill
#
# Bulk Modulus (GPa) = 47.31993 66.06673 56.69333
# Shear Modulus (GPa) = 28.48486 33.78033 31.13260
#
# Velocity S-wave (km/s) = 3.66724 3.99359 3.83389
# Velocity P-wave (km/s) = 6.34609 7.24274 6.80919
#
# Compressibility (1/GPa) = 0.02113275
#
# Stress axis : x y z
#
# Youngs Moduli (GPa) = 96.38428 62.91547 39.15064
#
# Poissons Ratio (x) = 0.36035 0.03128
# Poissons Ratio (y) = 0.55204 0.34504
# Poissons Ratio (z) = 0.07701 0.55448
#
# Static dielectric constant tensor:
#      x y z
#    x 4.022440 0.000000 -0.091350 
#    y 0.000000 3.814960 0.000000 
#    z -0.091350 0.000000 3.906360 
# 
# 
# High freq. dielectric constant tensor:
#      x y z
#    x 1.840640 0.000000 -0.002200 
#    y 0.000000 1.827040 0.000000 
#    z -0.002200 0.000000 1.832930 
# 
# From -- ./inp_files/44706.got.cif
#   From: 2010.06.25/outbox.cif.g09.slc.cpg/sg11_23_cif.got.tgz:44706.got - 2010.06.27 23:14:04.
