data_PCOD8077101
_publ_section_title
;
Structure prediction by ZEFSAII (Michael W. Deem and Ramdas Pophale) SiO2 
 PCOD8077101
Probable space group: P 21/M
;
_chemical_formula_sum "Si O2"
_cell_formula_units_Z 32
_cell_length_a 15.004472
_cell_length_b 8.555490
_cell_length_c 12.324783
_cell_angle_alpha 90.000000
_cell_angle_beta 86.654592
_cell_angle_gamma 90.000000
_cell_volume 1579.443761
_symmetry_space_group_name_H-M "P 21/M"
_symmetry_group_IT_number 11
_symmetry_cell_setting 'monoclinic'
loop_
_space_group_symop_operation_xyz
x,y,z
-x,1/2+y,-z
-x,-y,-z
x,1/2-y,z
loop_
_atom_site_type_symbol
_atom_site_label
_atom_site_fract_x
_atom_site_fract_y
_atom_site_fract_z
Si Si1 0.938753 0.434615 0.098552
Si Si2 0.736413 0.433005 0.119679
Si Si3 0.430910 0.431798 0.271957
Si Si4 0.867250 0.434482 0.531939
Si Si5 0.615162 0.568784 0.299117
Si Si6 0.334494 0.932545 0.480763
Si Si7 0.407360 0.934304 0.049930
Si Si8 0.992023 0.065193 0.330226
O O1 0.946990 0.250000 0.097597
O O2 0.836740 0.486936 0.084824
O O3 0.971274 0.502825 0.212363
O O4 0.000000 0.500000 0.000000
O O5 0.733106 0.250000 0.146533
O O6 0.705543 0.523505 0.229881
O O7 0.673036 0.478525 0.024398
O O8 0.413840 0.250000 0.295793
O O9 0.536099 0.466081 0.252431
O O10 0.393550 0.536348 0.371527
O O11 0.382448 0.483461 0.164923
O O12 0.874203 0.250000 0.541244
O O13 0.765633 0.491134 0.534424
O O14 0.911259 0.507495 0.636659
O O15 0.917170 0.496159 0.420225
O O16 0.592664 0.750000 0.285296
O O17 0.624452 0.531807 0.424878
O O18 0.337340 0.750000 0.510696
O O19 0.416218 0.750000 0.065756
O O20 0.500000 0.000000 0.000000
O O21 0.990499 0.250000 0.326475
#
# Coordination Sequence:
#
# PCOD8077101 Si02
#       8
#     4   4   4   4   4   4   4   4
#     4  10  22  40  60  86 121 160 200 245 299 357
#     4  10  22  41  65  89 119 161 204 247 303 364
#     4  12  25  41  60  85 121 161 200 247 302 356
#     4   9  19  36  60  86 113 151 194 239 293 355
#     4  12  24  39  62  90 120 153 198 249 301 362
#     4  11  23  40  60  85 121 159 199 244 299 363
#     4  11  22  39  64  91 120 157 203 252 301 356
#     4   9  18  35  59  85 116 151 191 241 294 349
#
# _framework density 20.260296
#
# number of rings (size 3 to 8) (size 9 to 14) (size 15 to 20)
#    0.000    1.500    1.250    4.125    0.000    5.500 
#    0.000    6.250    0.000    0.000    0.000    0.000 
#    0.000    0.000    0.000    0.000    0.000    0.000 
#
# Total GULP energy -396975.630902 kJ/mol
# GULP energy per Si atom -12405.488466 kJ/mol
# Density = 2.021418 g / cm^3
# Si number density = 20.260296 Si / 1000 Ang^3
#
#
#
# Elastic Constant Matrix: (Units=GPa)
#
#
# Indices 1 2 3 4 5 6 
#
# 1 93.1182 20.3561 52.6533 0.0000 3.8262 0.0000
# 2 20.3561 50.5793 23.5137 0.0000 4.4279 0.0000
# 3 52.6533 23.5137 145.5304 0.0000 7.2796 0.0000
# 4 0.0000 0.0000 0.0000 35.8873 0.0000 -0.2977
# 5 3.8262 4.4279 7.2796 0.0000 34.9088 0.0000
# 6 0.0000 0.0000 0.0000 -0.2977 0.0000 31.4850
#
#
#
# Elastic Compliance Matrix: (Units=1/GPa)
#
#
# Indices 1 2 3 4 5 6 
#
# 1 0.014072 -0.003554 -0.004510 0.000000 -0.000151 0.000000
# 2 -0.003554 0.022415 -0.002236 0.000000 -0.001987 0.000000
# 3 -0.004510 -0.002236 0.008918 0.000000 -0.001082 0.000000
# 4 0.000000 0.000000 0.000000 0.027867 0.000000 0.000263
# 5 -0.000151 -0.001987 -0.001082 0.000000 0.029140 0.000000
# 6 0.000000 0.000000 0.000000 0.000263 0.000000 0.031764
#
#
# Mechanical properties :
#
#
# Convention : Reuss Voigt Hill
#
# Bulk Modulus (GPa) = 40.31309 53.58598 46.94954
# Shear Modulus (GPa) = 30.66647 33.30321 31.98484
#
# Velocity S-wave (km/s) = 3.89475 4.05874 3.97759
# Velocity P-wave (km/s) = 6.33768 6.96209 6.65721
#
# Compressibility (1/GPa) = 0.02480584
#
# Stress axis : x y z
#
# Youngs Moduli (GPa) = 71.06298 44.61328 112.12718
#
# Poissons Ratio (x) = 0.15854 0.50564
# Poissons Ratio (y) = 0.25254 0.25077
# Poissons Ratio (z) = 0.32046 0.09978
#
# Static dielectric constant tensor:
#      x y z
#    x 3.806030 0.000000 0.132110 
#    y 0.000000 3.551680 0.000000 
#    z 0.132110 0.000000 3.871150 
# 
# 
# High freq. dielectric constant tensor:
#      x y z
#    x 1.793680 0.000000 0.006770 
#    y 0.000000 1.784330 0.000000 
#    z 0.006770 0.000000 1.801160 
# 
# From -- ./inp_files/38291.got.cif
#   From: 2010.06.25/outbox.cif.g09.slc.cpg/sg11_20_cif.got.tgz:38291.got - 2010.06.27 23:14:04.
