data_PCOD8077828
_publ_section_title
;
Structure prediction by ZEFSAII (Michael W. Deem and Ramdas Pophale) SiO2 
 PCOD8077828
Probable space group: P 21/M
;
_chemical_formula_sum "Si O2"
_cell_formula_units_Z 32
_cell_length_a 14.831968
_cell_length_b 8.792385
_cell_length_c 25.508212
_cell_angle_alpha 90.000000
_cell_angle_beta 28.820392
_cell_angle_gamma 90.000000
_cell_volume 1603.583469
_symmetry_space_group_name_H-M "P 21/M"
_symmetry_group_IT_number 11
_symmetry_cell_setting 'monoclinic'
loop_
_space_group_symop_operation_xyz
x,y,z
-x,1/2+y,-z
-x,-y,-z
x,1/2-y,z
loop_
_atom_site_type_symbol
_atom_site_label
_atom_site_fract_x
_atom_site_fract_y
_atom_site_fract_z
Si Si1 0.879331 0.570825 0.607971
Si Si2 0.500852 0.927582 0.333889
Si Si3 0.073393 0.572234 0.698424
Si Si4 0.783654 0.573696 0.996685
Si Si5 0.800731 0.074936 0.250849
Si Si6 0.540748 0.072540 0.206518
Si Si7 0.324411 0.071500 0.062329
Si Si8 0.868516 0.928889 0.438976
O O1 0.908933 0.750000 0.591877
O O2 0.662140 0.526353 0.712669
O O3 0.000000 0.500000 0.500000
O O4 0.948176 0.505688 0.628778
O O5 0.454536 0.750000 0.358638
O O6 0.644461 0.965218 0.307075
O O7 0.588853 0.976558 0.233781
O O8 0.310758 0.021792 0.436465
O O9 0.078298 0.750000 0.682295
O O10 0.188995 0.539654 0.692458
O O11 0.161736 0.479762 0.605528
O O12 0.862461 0.512468 0.814034
O O13 0.748559 0.750000 0.028200
O O14 0.677070 0.526854 0.997841
O O15 0.003209 0.541589 0.877598
O O16 0.702689 0.467311 0.083008
O O17 0.743264 0.250000 0.271089
O O18 0.550442 0.250000 0.215088
O O19 0.332368 0.250000 0.064364
O O20 0.500000 0.000000 0.000000
O O21 0.892251 0.750000 0.430234
#
# Coordination Sequence:
#
# PCOD8077828 Si02
#       8
#     4   4   4   4   4   4   4   4
#     4  11  23  40  62  87 121 161 200 247 300 352
#     4  12  25  41  64  89 118 156 200 251 303 361
#     4   9  20  40  62  86 120 159 199 245 298 353
#     4   9  20  39  61  87 120 158 198 243 298 352
#     4   9  20  42  67  88 119 158 199 252 301 350
#     4  11  24  40  61  90 122 158 201 246 296 357
#     4   9  19  35  56  84 118 155 197 242 291 346
#     4  12  25  40  61  90 123 159 201 248 298 360
#
# _framework density 19.955307000000001
#
# number of rings (size 3 to 8) (size 9 to 14) (size 15 to 20)
#    0.000    1.750    1.250    4.500    1.750    4.500 
#    0.000    2.500    0.000    0.000    0.000    0.000 
#    0.000    0.000    0.000    0.000    0.000    0.000 
#
# Total GULP energy -396932.636168 kJ/mol
# GULP energy per Si atom -12404.144880 kJ/mol
# Density = 1.990989 g / cm^3
# Si number density = 19.955307 Si / 1000 Ang^3
#
#
#
# Elastic Constant Matrix: (Units=GPa)
#
#
# Indices 1 2 3 4 5 6 
#
# 1 103.3502 39.2588 22.2494 0.0000 0.8812 0.0000
# 2 39.2588 84.3534 22.5419 0.0000 3.2408 0.0000
# 3 22.2494 22.5419 45.1095 0.0000 13.2341 0.0000
# 4 0.0000 0.0000 0.0000 33.5387 0.0000 -0.2875
# 5 0.8812 3.2408 13.2341 0.0000 34.8357 0.0000
# 6 0.0000 0.0000 0.0000 -0.2875 0.0000 37.1175
#
#
#
# Elastic Compliance Matrix: (Units=1/GPa)
#
#
# Indices 1 2 3 4 5 6 
#
# 1 0.012357 -0.004677 -0.004269 0.000000 0.001744 0.000000
# 2 -0.004677 0.015521 -0.005695 0.000000 0.000838 0.000000
# 3 -0.004269 -0.005695 0.030311 0.000000 -0.010877 0.000000
# 4 0.000000 0.000000 0.000000 0.029818 0.000000 0.000231
# 5 0.001744 0.000838 -0.010877 0.000000 0.032716 0.000000
# 6 0.000000 0.000000 0.000000 0.000231 0.000000 0.026943
#
#
# Mechanical properties :
#
#
# Convention : Reuss Voigt Hill
#
# Bulk Modulus (GPa) = 34.59473 44.54591 39.57032
# Shear Modulus (GPa) = 26.79733 31.01592 28.90662
#
# Velocity S-wave (km/s) = 3.66849 3.94670 3.81013
# Velocity P-wave (km/s) = 5.94285 6.56810 6.26328
#
# Compressibility (1/GPa) = 0.02890614
#
# Stress axis : x y z
#
# Youngs Moduli (GPa) = 80.92777 64.42730 32.99107
#
# Poissons Ratio (x) = 0.30133 0.14085
# Poissons Ratio (y) = 0.37850 0.18789
# Poissons Ratio (z) = 0.34551 0.36693
#
# Static dielectric constant tensor:
#      x y z
#    x 3.740700 0.000000 0.025770 
#    y 0.000000 3.522740 0.000000 
#    z 0.025770 0.000000 3.534090 
# 
# 
# High freq. dielectric constant tensor:
#      x y z
#    x 1.789160 0.000000 0.002700 
#    y 0.000000 1.775270 0.000000 
#    z 0.002700 0.000000 1.776470 
# 
# From -- ./inp_files/71601.got.cif
#   From: 2010.06.25/outbox.cif.g09.slc.cpg/sg11_36_cif.got.tgz:71601.got - 2010.06.27 23:14:04.
