data_PCOD8077195
_publ_section_title
;
Structure prediction by ZEFSAII (Michael W. Deem and Ramdas Pophale) SiO2 
 PCOD8077195
Probable space group: P 21/M
;
_chemical_formula_sum "Si O2"
_cell_formula_units_Z 24
_cell_length_a 11.675589
_cell_length_b 8.835908
_cell_length_c 11.968120
_cell_angle_alpha 90.000000
_cell_angle_beta 89.042268
_cell_angle_gamma 90.000000
_cell_volume 1234.511793
_symmetry_space_group_name_H-M "P 21/M"
_symmetry_group_IT_number 11
_symmetry_cell_setting 'monoclinic'
loop_
_space_group_symop_operation_xyz
x,y,z
-x,1/2+y,-z
-x,-y,-z
x,1/2-y,z
loop_
_atom_site_type_symbol
_atom_site_label
_atom_site_fract_x
_atom_site_fract_y
_atom_site_fract_z
Si Si1 0.328284 0.572253 0.031371
Si Si2 0.546528 0.571575 0.164988
Si Si3 0.589134 0.570928 0.414100
Si Si4 0.178935 0.576039 0.515723
Si Si5 0.073981 0.929530 0.096461
Si Si6 0.957614 0.575450 0.669596
O O1 0.333054 0.750000 0.013009
O O2 0.351501 0.497297 0.910950
O O3 0.423364 0.518319 0.119447
O O4 0.205481 0.520200 0.078532
O O5 0.559491 0.750000 0.160082
O O6 0.558068 0.511813 0.290813
O O7 0.500000 0.500000 0.500000
O O8 0.580604 0.750000 0.421820
O O9 0.716183 0.519911 0.440911
O O10 0.215116 0.750000 0.498064
O O11 0.141489 0.510133 0.396855
O O12 0.078150 0.558308 0.606173
O O13 0.059825 0.750000 0.097091
O O14 0.027302 0.996862 0.211986
O O15 0.000000 0.000000 0.000000
O O16 0.922581 0.750000 0.683762
#
# Coordination Sequence:
#
# PCOD8077195 Si02
#       6
#     4   4   4   4   4   4
#     4   9  20  39  61  85 115 154 197 241 296 353
#     4   9  20  39  61  86 116 152 195 244 296 352
#     4  11  24  39  60  91 123 157 202 250 301 359
#     4  10  22  41  64  88 121 160 199 249 305 361
#     4  11  24  39  60  89 123 160 200 249 301 356
#     4  10  22  41  64  91 120 156 203 249 302 364
#
# _framework density 19.440884
#
# number of rings (size 3 to 8) (size 9 to 14) (size 15 to 20)
#    0.000    2.000    0.000    2.000    4.667    4.667 
#    0.000    0.000    0.000    0.000    0.000    0.000 
#    0.000    0.000    0.000    0.000    0.000    0.000 
#
# Total GULP energy -297713.774457 kJ/mol
# GULP energy per Si atom -12404.740602 kJ/mol
# Density = 1.939664 g / cm^3
# Si number density = 19.440884 Si / 1000 Ang^3
#
#
#
# Elastic Constant Matrix: (Units=GPa)
#
#
# Indices 1 2 3 4 5 6 
#
# 1 76.8240 31.8182 44.9118 0.0000 11.2517 0.0000
# 2 31.8182 69.8243 54.2837 0.0000 -0.6547 0.0000
# 3 44.9118 54.2837 165.2523 0.0000 15.2571 0.0000
# 4 0.0000 0.0000 0.0000 37.3847 0.0000 -0.3427
# 5 11.2517 -0.6547 15.2571 0.0000 23.8575 0.0000
# 6 0.0000 0.0000 0.0000 -0.3427 0.0000 35.3439
#
#
#
# Elastic Compliance Matrix: (Units=1/GPa)
#
#
# Indices 1 2 3 4 5 6 
#
# 1 0.018072 -0.006740 -0.002012 0.000000 -0.007421 0.000000
# 2 -0.006740 0.022292 -0.006207 0.000000 0.007760 0.000000
# 3 -0.002012 -0.006207 0.009103 0.000000 -0.005043 0.000000
# 4 0.000000 0.000000 0.000000 0.026751 0.000000 0.000259
# 5 -0.007421 0.007760 -0.005043 0.000000 0.048853 0.000000
# 6 0.000000 0.000000 0.000000 0.000259 0.000000 0.028296
#
#
# Mechanical properties :
#
#
# Convention : Reuss Voigt Hill
#
# Bulk Modulus (GPa) = 51.15955 63.76978 57.46466
# Shear Modulus (GPa) = 26.34333 31.37633 28.85983
#
# Velocity S-wave (km/s) = 3.68509 4.02174 3.85709
# Velocity P-wave (km/s) = 6.66927 7.37828 7.03271
#
# Compressibility (1/GPa) = 0.01954669
#
# Stress axis : x y z
#
# Youngs Moduli (GPa) = 55.33538 44.86002 109.85667
#
# Poissons Ratio (x) = 0.30237 0.22105
# Poissons Ratio (y) = 0.37298 0.68190
# Poissons Ratio (z) = 0.11134 0.27845
#
# Static dielectric constant tensor:
#      x y z
#    x 3.620620 0.000000 0.034920 
#    y 0.000000 3.631300 0.000000 
#    z 0.034920 0.000000 3.678130 
# 
# 
# High freq. dielectric constant tensor:
#      x y z
#    x 1.761710 0.000000 0.002290 
#    y 0.000000 1.763410 0.000000 
#    z 0.002290 0.000000 1.768350 
# 
# From -- ./inp_files/33797.got.cif
#   From: 2010.06.25/outbox.cif.g09.slc.cpg/sg11_17_cif.got.tgz:33797.got - 2010.06.27 23:14:04.
