data_PCOD8077294
_publ_section_title
;
Structure prediction by ZEFSAII (Michael W. Deem and Ramdas Pophale) SiO2 
 PCOD8077294
Probable space group: P 21/M
;
_chemical_formula_sum "Si O2"
_cell_formula_units_Z 16
_cell_length_a 5.260098
_cell_length_b 21.230132
_cell_length_c 7.349483
_cell_angle_alpha 90.000000
_cell_angle_beta 82.959547
_cell_angle_gamma 90.000000
_cell_volume 814.547228
_symmetry_space_group_name_H-M "P 21/M"
_symmetry_group_IT_number 11
_symmetry_cell_setting 'monoclinic'
loop_
_space_group_symop_operation_xyz
x,y,z
-x,1/2+y,-z
-x,-y,-z
x,1/2-y,z
loop_
_atom_site_type_symbol
_atom_site_label
_atom_site_fract_x
_atom_site_fract_y
_atom_site_fract_z
Si Si1 0.363892 0.877569 0.946920
Si Si2 0.946263 0.425573 0.717283
Si Si3 0.854609 0.821548 0.073606
Si Si4 0.714759 0.039360 0.379634
O O1 0.618222 0.838054 0.963932
O O2 0.414604 0.917214 0.760674
O O3 0.120286 0.830977 0.938229
O O4 0.297649 0.923716 0.123681
O O5 0.858207 0.417394 0.516479
O O6 0.082909 0.492769 0.733987
O O7 0.138962 0.367694 0.750077
O O8 0.828554 0.750000 0.143873
O O9 0.500000 0.000000 0.500000
#
# Coordination Sequence:
#
# PCOD8077294 Si02
#       4
#     4   4   4   4
#     4  10  23  40  66  89 125 162 205 257 311 363
#     4   9  23  38  63  92 129 161 202 257 311 375
#     4  10  22  43  64  87 122 170 213 252 301 369
#     4  11  22  38  64  99 127 158 204 259 319 376
#
# _framework density 19.642814999999999
#
# number of rings (size 3 to 8) (size 9 to 14) (size 15 to 20)
#    1.500    0.500    0.000    3.000    7.000    2.000 
#    0.000    2.500    0.000    0.000    0.000    0.000 
#    0.000    0.000    0.000    0.000    0.000    0.000 
#
# Total GULP energy -198298.303431 kJ/mol
# GULP energy per Si atom -12393.643964 kJ/mol
# Density = 1.959811 g / cm^3
# Si number density = 19.642815 Si / 1000 Ang^3
#
#
#
# Elastic Constant Matrix: (Units=GPa)
#
#
# Indices 1 2 3 4 5 6 
#
# 1 132.0343 46.5441 38.2886 0.0000 18.5933 0.0000
# 2 46.5441 109.8942 71.0005 0.0000 25.2743 0.0000
# 3 38.2886 71.0005 100.3745 0.0000 16.4009 0.0000
# 4 0.0000 0.0000 0.0000 19.3582 0.0000 7.6750
# 5 18.5933 25.2743 16.4009 0.0000 26.2269 0.0000
# 6 0.0000 0.0000 0.0000 7.6750 0.0000 26.3630
#
#
#
# Elastic Compliance Matrix: (Units=1/GPa)
#
#
# Indices 1 2 3 4 5 6 
#
# 1 0.009256 -0.002200 -0.001391 0.000000 -0.003572 0.000000
# 2 -0.002200 0.019853 -0.011509 0.000000 -0.010376 0.000000
# 3 -0.001391 -0.011509 0.018557 0.000000 0.000472 0.000000
# 4 0.000000 0.000000 0.000000 0.058398 0.000000 -0.017001
# 5 -0.003572 -0.010376 0.000472 0.000000 0.050364 0.000000
# 6 0.000000 0.000000 0.000000 -0.017001 0.000000 0.042882
#
#
# Mechanical properties :
#
#
# Convention : Reuss Voigt Hill
#
# Bulk Modulus (GPa) = 57.25231 72.66326 64.95779
# Shear Modulus (GPa) = 21.24664 26.82094 24.03379
#
# Velocity S-wave (km/s) = 3.29241 3.69918 3.50171
# Velocity P-wave (km/s) = 6.60782 7.43760 7.03495
#
# Compressibility (1/GPa) = 0.01746654
#
# Stress axis : x y z
#
# Youngs Moduli (GPa) = 108.04219 50.36939 53.88839
#
# Poissons Ratio (x) = 0.11082 0.07495
# Poissons Ratio (y) = 0.23770 0.62019
# Poissons Ratio (z) = 0.15026 0.57969
#
# Static dielectric constant tensor:
#      x y z
#    x 3.655490 0.000000 0.174920 
#    y 0.000000 3.332170 0.000000 
#    z 0.174920 0.000000 3.354660 
# 
# 
# High freq. dielectric constant tensor:
#      x y z
#    x 1.777240 0.000000 0.013450 
#    y 0.000000 1.744060 0.000000 
#    z 0.013450 0.000000 1.747200 
# 
# From -- ./inp_files/559.got.cif
#   From: 2010.06.25/outbox.cif.g09.slc.cpg/sg11_1_cif.got.tgz:559.got - 2010.06.27 23:14:04.
