data_PCOD8077555
_publ_section_title
;
Structure prediction by ZEFSAII (Michael W. Deem and Ramdas Pophale) SiO2 
 PCOD8077555
Probable space group: P 21/M
;
_chemical_formula_sum "Si O2"
_cell_formula_units_Z 20
_cell_length_a 8.507378
_cell_length_b 16.898271
_cell_length_c 9.354403
_cell_angle_alpha 90.000000
_cell_angle_beta 124.450433
_cell_angle_gamma 90.000000
_cell_volume 1108.934185
_symmetry_space_group_name_H-M "P 21/M"
_symmetry_group_IT_number 11
_symmetry_cell_setting 'monoclinic'
loop_
_space_group_symop_operation_xyz
x,y,z
-x,1/2+y,-z
-x,-y,-z
x,1/2-y,z
loop_
_atom_site_type_symbol
_atom_site_label
_atom_site_fract_x
_atom_site_fract_y
_atom_site_fract_z
Si Si1 0.069549 0.660105 0.648903
Si Si2 0.945754 0.424756 0.642355
Si Si3 0.716405 0.475528 0.090769
Si Si4 0.718634 0.928732 0.539458
Si Si5 0.313341 0.950437 0.247904
O O1 0.130688 0.750000 0.708112
O O2 0.051010 0.646200 0.468764
O O3 0.233800 0.604305 0.797815
O O4 0.861714 0.645874 0.615543
O O5 0.836867 0.501555 0.517072
O O6 0.831497 0.398793 0.728222
O O7 0.158894 0.449901 0.795043
O O8 0.500000 0.500000 0.000000
O O9 0.765644 0.456790 0.951550
O O10 0.522741 0.909524 0.356078
O O11 0.670924 0.960467 0.675517
#
# Coordination Sequence:
#
# PCOD8077555 Si02
#       5
#     4   4   4   4   4
#     4  11  22  36  52  79 116 148 177 226 287 332
#     4   9  18  33  55  77 106 142 184 217 261 330
#     4  11  20  33  59  86 107 144 190 236 263 324
#     4   8  17  33  60  79 102 140 184 220 266 334
#     4   9  17  32  61  83 102 129 191 231 264 308
#
# _framework density 18.035335
#
# number of rings (size 3 to 8) (size 9 to 14) (size 15 to 20)
#    1.200    1.200    0.000    5.400    0.000    0.000 
#    0.000    6.000    0.000    0.000    0.000    0.000 
#    0.000    0.000    0.000    0.000    0.000    0.000 
#
# Total GULP energy -247833.582878 kJ/mol
# GULP energy per Si atom -12391.679144 kJ/mol
# Density = 1.799429 g / cm^3
# Si number density = 18.035335 Si / 1000 Ang^3
#
#
#
# Elastic Constant Matrix: (Units=GPa)
#
#
# Indices 1 2 3 4 5 6 
#
# 1 116.6038 32.4037 47.9947 0.0000 19.6252 0.0000
# 2 32.4037 74.0489 35.9982 0.0000 5.7568 0.0000
# 3 47.9947 35.9982 104.7445 0.0000 -2.7194 0.0000
# 4 0.0000 0.0000 0.0000 14.4843 0.0000 1.3840
# 5 19.6252 5.7568 -2.7194 0.0000 37.8276 0.0000
# 6 0.0000 0.0000 0.0000 1.3840 0.0000 15.6399
#
#
#
# Elastic Compliance Matrix: (Units=1/GPa)
#
#
# Indices 1 2 3 4 5 6 
#
# 1 0.012405 -0.002504 -0.004990 0.000000 -0.006414 0.000000
# 2 -0.002504 0.017037 -0.004750 0.000000 -0.001635 0.000000
# 3 -0.004990 -0.004750 0.013577 0.000000 0.004288 0.000000
# 4 0.000000 0.000000 0.000000 0.069629 0.000000 -0.006161
# 5 -0.006414 -0.001635 0.004288 0.000000 0.030320 0.000000
# 6 0.000000 0.000000 0.000000 -0.006161 0.000000 0.064484
#
#
# Mechanical properties :
#
#
# Convention : Reuss Voigt Hill
#
# Bulk Modulus (GPa) = 53.96447 58.68783 56.32615
# Shear Modulus (GPa) = 20.99792 25.52372 23.26082
#
# Velocity S-wave (km/s) = 3.41584 3.76600 3.59519
# Velocity P-wave (km/s) = 6.74861 7.17785 6.96653
#
# Compressibility (1/GPa) = 0.01853071
#
# Stress axis : x y z
#
# Youngs Moduli (GPa) = 80.61040 58.69662 73.65158
#
# Poissons Ratio (x) = 0.14698 0.36753
# Poissons Ratio (y) = 0.20185 0.34986
# Poissons Ratio (z) = 0.40226 0.27882
#
# Static dielectric constant tensor:
#      x y z
#    x 3.418250 0.000000 -0.020160 
#    y 0.000000 2.743900 0.000000 
#    z -0.020160 0.000000 3.284110 
# 
# 
# High freq. dielectric constant tensor:
#      x y z
#    x 1.715420 0.000000 0.001860 
#    y 0.000000 1.628940 0.000000 
#    z 0.001860 0.000000 1.700190 
# 
# From -- ./inp_files/13321.got.cif
#   From: 2010.06.25/outbox.cif.g09.slc.cpg/sg11_7_cif.got.tgz:13321.got - 2010.06.27 23:14:04.
