data_PCOD8077244
_publ_section_title
;
Structure prediction by ZEFSAII (Michael W. Deem and Ramdas Pophale) SiO2 
 PCOD8077244
Probable space group: P 21/M
;
_chemical_formula_sum "Si O2"
_cell_formula_units_Z 28
_cell_length_a 15.401261
_cell_length_b 8.445968
_cell_length_c 11.799313
_cell_angle_alpha 90.000000
_cell_angle_beta 59.342309
_cell_angle_gamma 90.000000
_cell_volume 1320.311885
_symmetry_space_group_name_H-M "P 21/M"
_symmetry_group_IT_number 11
_symmetry_cell_setting 'monoclinic'
loop_
_space_group_symop_operation_xyz
x,y,z
-x,1/2+y,-z
-x,-y,-z
x,1/2-y,z
loop_
_atom_site_type_symbol
_atom_site_label
_atom_site_fract_x
_atom_site_fract_y
_atom_site_fract_z
Si Si1 0.337918 0.931771 0.091187
Si Si2 0.784207 0.567055 0.377579
Si Si3 0.853190 0.567996 0.879007
Si Si4 0.977142 0.934881 0.390563
Si Si5 0.111616 0.565228 0.911729
Si Si6 0.527039 0.932910 0.819407
Si Si7 0.566843 0.434533 0.555906
O O1 0.305416 0.750000 0.102716
O O2 0.239750 0.039932 0.143430
O O3 0.384233 0.963612 0.183886
O O4 0.419070 0.981991 0.942270
O O5 0.751827 0.750000 0.399859
O O6 0.861491 0.532933 0.430038
O O7 0.833669 0.528588 0.224260
O O8 0.685595 0.460776 0.458785
O O9 0.861470 0.750000 0.908553
O O10 0.955456 0.520781 0.747934
O O11 0.832855 0.465419 0.005687
O O12 0.002595 0.750000 0.371588
O O13 0.000000 0.000000 0.500000
O O14 0.111558 0.750000 0.882459
O O15 0.000000 0.500000 0.000000
O O16 0.549203 0.750000 0.830068
O O17 0.525266 0.967446 0.688985
O O18 0.500000 0.500000 0.500000
O O19 0.546368 0.250000 0.587013
#
# Coordination Sequence:
#
# PCOD8077244 Si02
#       7
#     4   4   4   4   4   4   4
#     4  10  22  41  67  97 130 169 216 269 327 387
#     4  11  25  46  70  97 131 175 222 273 333 394
#     4  12  25  41  66  97 133 173 217 267 324 386
#     4  11  25  44  68  97 136 176 221 270 326 395
#     4  12  24  42  67  96 131 169 215 265 321 383
#     4  10  22  43  68  95 130 168 217 271 329 392
#     4  12  27  46  69  96 132 175 223 275 332 396
#
# _framework density 21.20711
#
# number of rings (size 3 to 8) (size 9 to 14) (size 15 to 20)
#    0.000    0.857    1.429    5.571    4.000    3.429 
#    0.000    0.000    0.000    0.000    0.000    0.000 
#    0.000    0.000    0.000    0.000    0.000    0.000 
#
# Total GULP energy -347389.249968 kJ/mol
# GULP energy per Si atom -12406.758927 kJ/mol
# Density = 2.115884 g / cm^3
# Si number density = 21.207110 Si / 1000 Ang^3
#
#
#
# Elastic Constant Matrix: (Units=GPa)
#
#
# Indices 1 2 3 4 5 6 
#
# 1 113.4350 27.1879 31.7835 0.0000 3.2500 0.0000
# 2 27.1879 78.8983 9.5314 0.0000 -7.1816 0.0000
# 3 31.7835 9.5314 86.0295 0.0000 17.8685 0.0000
# 4 0.0000 0.0000 0.0000 37.9378 0.0000 1.9240
# 5 3.2500 -7.1816 17.8685 0.0000 35.5777 0.0000
# 6 0.0000 0.0000 0.0000 1.9240 0.0000 38.3341
#
#
#
# Elastic Compliance Matrix: (Units=1/GPa)
#
#
# Indices 1 2 3 4 5 6 
#
# 1 0.010583 -0.003195 -0.003597 0.000000 0.000195 0.000000
# 2 -0.003195 0.014261 -0.001181 0.000000 0.003764 0.000000
# 3 -0.003597 -0.001181 0.014586 0.000000 -0.007236 0.000000
# 4 0.000000 0.000000 0.000000 0.026426 0.000000 -0.001326
# 5 0.000195 0.003764 -0.007236 0.000000 0.032484 0.000000
# 6 0.000000 0.000000 0.000000 -0.001326 0.000000 0.026153
#
#
# Mechanical properties :
#
#
# Convention : Reuss Voigt Hill
#
# Bulk Modulus (GPa) = 42.58004 46.15207 44.36606
# Shear Modulus (GPa) = 33.72287 36.36060 35.04173
#
# Velocity S-wave (km/s) = 3.99202 4.14520 4.06933
# Velocity P-wave (km/s) = 6.43196 6.68731 6.56087
#
# Compressibility (1/GPa) = 0.02348518
#
# Stress axis : x y z
#
# Youngs Moduli (GPa) = 94.48685 70.12239 68.55688
#
# Poissons Ratio (x) = 0.22403 0.24657
# Poissons Ratio (y) = 0.30187 0.08099
# Poissons Ratio (z) = 0.33982 0.08284
#
# Static dielectric constant tensor:
#      x y z
#    x 3.952730 0.000000 0.080790 
#    y 0.000000 3.958250 0.000000 
#    z 0.080790 0.000000 3.918330 
# 
# 
# High freq. dielectric constant tensor:
#      x y z
#    x 1.843220 0.000000 0.005610 
#    y 0.000000 1.843970 0.000000 
#    z 0.005610 0.000000 1.834130 
# 
# From -- ./inp_files/37897.got.cif
#   From: 2010.06.25/outbox.cif.g09.slc.cpg/sg11_19_cif.got.tgz:37897.got - 2010.06.27 23:14:04.
