data_PCOD8077523
_publ_section_title
;
Structure prediction by ZEFSAII (Michael W. Deem and Ramdas Pophale) SiO2 
 PCOD8077523
Probable space group: P 21/M
;
_chemical_formula_sum "Si O2"
_cell_formula_units_Z 24
_cell_length_a 9.117053
_cell_length_b 13.761666
_cell_length_c 9.687294
_cell_angle_alpha 90.000000
_cell_angle_beta 72.679832
_cell_angle_gamma 90.000000
_cell_volume 1160.312335
_symmetry_space_group_name_H-M "P 21/M"
_symmetry_group_IT_number 11
_symmetry_cell_setting 'monoclinic'
loop_
_space_group_symop_operation_xyz
x,y,z
-x,1/2+y,-z
-x,-y,-z
x,1/2-y,z
loop_
_atom_site_type_symbol
_atom_site_label
_atom_site_fract_x
_atom_site_fract_y
_atom_site_fract_z
Si Si1 0.608391 0.250000 0.423278
Si Si2 0.971675 0.250000 0.254284
Si Si3 0.955732 0.540576 0.863944
Si Si4 0.033857 0.750000 0.435664
Si Si5 0.907110 0.941612 0.411726
Si Si6 0.624165 0.460913 0.858704
Si Si7 0.569755 0.567064 0.594239
Si Si8 0.628296 0.250000 0.728116
O O1 0.789029 0.250000 0.332711
O O2 0.536809 0.159980 0.362171
O O3 0.540022 0.250000 0.603210
O O4 0.037574 0.157897 0.148871
O O5 0.044233 0.250000 0.389147
O O6 0.793615 0.494418 0.860380
O O7 0.093777 0.505312 0.725928
O O8 0.000000 0.500000 0.000000
O O9 0.993859 0.842417 0.355179
O O10 0.214128 0.750000 0.399376
O O11 0.741771 0.907654 0.504755
O O12 0.000000 0.000000 0.500000
O O13 0.574088 0.511574 0.734609
O O14 0.608891 0.344428 0.832640
O O15 0.500000 0.500000 0.000000
O O16 0.500000 0.500000 0.500000
#
# Coordination Sequence:
#
# PCOD8077523 Si02
#       8
#     2   2   4   2   4   4   4   2
#     4  11  25  41  76 113 142 184 245 306 366 425
#     4  11  24  45  75 102 144 188 248 303 360 431
#     4  12  28  46  72 106 146 195 243 296 363 434
#     4  11  19  39  76 102 128 180 241 299 353 406
#     4  12  22  43  71 102 139 183 245 300 351 428
#     4  12  28  47  71 106 154 192 235 301 365 436
#     4  12  24  43  71 107 143 185 240 296 362 426
#     4  11  22  47  71 107 142 190 234 292 369 426
#
# _framework density 20.684087000000002
#
# number of rings (size 3 to 8) (size 9 to 14) (size 15 to 20)
#    0.000    0.333    6.667    1.500    4.667    3.333 
#    0.000    0.000    0.000    0.000    0.000    0.000 
#    0.000    0.000    0.000    0.000    0.000    0.000 
#
# Total GULP energy -297352.061286 kJ/mol
# GULP energy per Si atom -12389.669220 kJ/mol
# Density = 2.063701 g / cm^3
# Si number density = 20.684087 Si / 1000 Ang^3
#
#
#
# Elastic Constant Matrix: (Units=GPa)
#
#
# Indices 1 2 3 4 5 6 
#
# 1 97.8964 45.6080 35.8783 0.0000 7.6557 0.0000
# 2 45.6080 189.0703 56.3425 0.0000 11.5353 0.0000
# 3 35.8783 56.3425 131.9292 0.0000 13.1525 0.0000
# 4 0.0000 0.0000 0.0000 33.7808 0.0000 -2.2608
# 5 7.6557 11.5353 13.1525 0.0000 38.1011 0.0000
# 6 0.0000 0.0000 0.0000 -2.2608 0.0000 35.9241
#
#
#
# Elastic Compliance Matrix: (Units=1/GPa)
#
#
# Indices 1 2 3 4 5 6 
#
# 1 0.012145 -0.002194 -0.002267 0.000000 -0.000994 0.000000
# 2 -0.002194 0.006492 -0.002096 0.000000 -0.000801 0.000000
# 3 -0.002267 -0.002096 0.009303 0.000000 -0.002121 0.000000
# 4 0.000000 0.000000 0.000000 0.029728 0.000000 0.001871
# 5 -0.000994 -0.000801 -0.002121 0.000000 0.027420 0.000000
# 6 0.000000 0.000000 0.000000 0.001871 0.000000 0.027954
#
#
# Mechanical properties :
#
#
# Convention : Reuss Voigt Hill
#
# Bulk Modulus (GPa) = 67.44546 77.17262 72.30904
# Shear Modulus (GPa) = 38.13942 40.29899 39.21921
#
# Velocity S-wave (km/s) = 4.29873 4.41875 4.35915
# Velocity P-wave (km/s) = 7.57079 7.96398 7.76988
#
# Compressibility (1/GPa) = 0.01482679
#
# Stress axis : x y z
#
# Youngs Moduli (GPa) = 82.33575 154.04444 107.49261
#
# Poissons Ratio (x) = 0.33790 0.24370
# Poissons Ratio (y) = 0.18061 0.22530
# Poissons Ratio (z) = 0.18666 0.32287
#
# Static dielectric constant tensor:
#      x y z
#    x 3.434640 0.000000 0.006250 
#    y 0.000000 4.421300 0.000000 
#    z 0.006250 0.000000 3.599930 
# 
# 
# High freq. dielectric constant tensor:
#      x y z
#    x 1.814600 0.000000 0.004380 
#    y 0.000000 1.830100 0.000000 
#    z 0.004380 0.000000 1.803090 
# 
# From -- ./inp_files/12500.got.cif
#   From: 2010.06.25/outbox.cif.g09.slc.cpg/sg11_7_cif.got.tgz:12500.got - 2010.06.27 23:14:04.
