data_PCOD8077312
_publ_section_title
;
Structure prediction by ZEFSAII (Michael W. Deem and Ramdas Pophale) SiO2 
 PCOD8077312
Probable space group: P 21/M
;
_chemical_formula_sum "Si O2"
_cell_formula_units_Z 20
_cell_length_a 7.819695
_cell_length_b 18.960990
_cell_length_c 5.693995
_cell_angle_alpha 90.000000
_cell_angle_beta 93.640020
_cell_angle_gamma 90.000000
_cell_volume 842.540694
_symmetry_space_group_name_H-M "P 21/M"
_symmetry_group_IT_number 11
_symmetry_cell_setting 'monoclinic'
loop_
_space_group_symop_operation_xyz
x,y,z
-x,1/2+y,-z
-x,-y,-z
x,1/2-y,z
loop_
_atom_site_type_symbol
_atom_site_label
_atom_site_fract_x
_atom_site_fract_y
_atom_site_fract_z
Si Si1 0.291638 0.171731 0.789585
Si Si2 0.409256 0.671245 0.542403
Si Si3 0.971653 0.328002 0.428053
Si Si4 0.410183 0.060657 0.138270
Si Si5 0.061006 0.467935 0.254884
O O1 0.288737 0.250000 0.901338
O O2 0.470116 0.160267 0.669183
O O3 0.125650 0.159793 0.619634
O O4 0.285072 0.111268 0.980016
O O5 0.443170 0.750000 0.652956
O O6 0.210096 0.664352 0.451869
O O7 0.446576 0.609365 0.730954
O O8 0.985284 0.250000 0.312728
O O9 0.991234 0.387446 0.231684
O O10 0.269235 0.026172 0.299372
O O11 0.500000 0.000000 0.000000
O O12 0.000000 0.500000 0.500000
O O13 0.000000 0.500000 0.000000
#
# Coordination Sequence:
#
# PCOD8077312 Si02
#       5
#     4   4   4   4   4
#     4  10  22  44  72 102 140 189 244 307 373 445
#     4  10  22  43  70 102 138 180 241 307 367 442
#     4  10  22  45  75 104 142 191 248 305 372 448
#     4  12  26  43  70 104 146 194 244 306 375 447
#     4  12  27  47  72 107 152 197 249 307 375 452
#
# _framework density 23.737725000000001
#
# number of rings (size 3 to 8) (size 9 to 14) (size 15 to 20)
#    0.000    1.200    2.000    3.000    2.800    1.600 
#    3.600    1.000    0.000    0.000    0.000    0.000 
#    0.000    0.000    0.000    0.000    0.000    0.000 
#
# Total GULP energy -247829.922846 kJ/mol
# GULP energy per Si atom -12391.496142 kJ/mol
# Density = 2.368370 g / cm^3
# Si number density = 23.737725 Si / 1000 Ang^3
#
#
#
# Elastic Constant Matrix: (Units=GPa)
#
#
# Indices 1 2 3 4 5 6 
#
# 1 163.0830 32.7648 27.7339 0.0000 -26.7686 0.0000
# 2 32.7648 137.5246 52.0824 0.0000 -7.6378 0.0000
# 3 27.7339 52.0824 90.5490 0.0000 -12.6569 0.0000
# 4 0.0000 0.0000 0.0000 34.0625 0.0000 -6.4509
# 5 -26.7686 -7.6378 -12.6569 0.0000 27.8792 0.0000
# 6 0.0000 0.0000 0.0000 -6.4509 0.0000 13.7180
#
#
#
# Elastic Compliance Matrix: (Units=1/GPa)
#
#
# Indices 1 2 3 4 5 6 
#
# 1 0.007576 -0.001162 -0.000726 0.000000 0.006627 0.000000
# 2 -0.001162 0.009475 -0.005218 0.000000 -0.000889 0.000000
# 3 -0.000726 -0.005218 0.014917 0.000000 0.004646 0.000000
# 4 0.000000 0.000000 0.000000 0.032228 0.000000 0.015155
# 5 0.006627 -0.000889 0.004646 0.000000 0.044097 0.000000
# 6 0.000000 0.000000 0.000000 0.015155 0.000000 0.080024
#
#
# Mechanical properties :
#
#
# Convention : Reuss Voigt Hill
#
# Bulk Modulus (GPa) = 56.31902 68.47986 62.39944
# Shear Modulus (GPa) = 23.98669 33.70364 28.84516
#
# Velocity S-wave (km/s) = 3.18227 3.77216 3.48970
# Velocity P-wave (km/s) = 6.10569 6.91978 6.52544
#
# Compressibility (1/GPa) = 0.01775599
#
# Stress axis : x y z
#
# Youngs Moduli (GPa) = 131.98712 105.53899 67.03803
#
# Poissons Ratio (x) = 0.12265 0.04866
# Poissons Ratio (y) = 0.15339 0.34982
# Poissons Ratio (z) = 0.09580 0.55073
#
# Static dielectric constant tensor:
#      x y z
#    x 4.503510 0.000000 -0.198490 
#    y 0.000000 4.853680 0.000000 
#    z -0.198490 0.000000 3.830870 
# 
# 
# High freq. dielectric constant tensor:
#      x y z
#    x 1.966560 0.000000 -0.013270 
#    y 0.000000 1.969160 0.000000 
#    z -0.013270 0.000000 1.901390 
# 
# From -- ./inp_files/1937.got.cif
#   From: 2010.06.25/outbox.cif.g09.slc.cpg/sg11_1_cif.got.tgz:1937.got - 2010.06.27 23:14:04.
