data_PCOD8077728
_publ_section_title
;
Structure prediction by ZEFSAII (Michael W. Deem and Ramdas Pophale) SiO2 
 PCOD8077728
Probable space group: P 21/M
;
_chemical_formula_sum "Si O2"
_cell_formula_units_Z 20
_cell_length_a 7.321596
_cell_length_b 8.940725
_cell_length_c 20.879819
_cell_angle_alpha 90.000000
_cell_angle_beta 44.554103
_cell_angle_gamma 90.000000
_cell_volume 958.923471
_symmetry_space_group_name_H-M "P 21/M"
_symmetry_group_IT_number 11
_symmetry_cell_setting 'monoclinic'
loop_
_space_group_symop_operation_xyz
x,y,z
-x,1/2+y,-z
-x,-y,-z
x,1/2-y,z
loop_
_atom_site_type_symbol
_atom_site_label
_atom_site_fract_x
_atom_site_fract_y
_atom_site_fract_z
Si Si1 0.796687 0.923285 0.288236
Si Si2 0.781061 0.075819 0.596880
Si Si3 0.886944 0.414945 0.906815
Si Si4 0.778406 0.927398 0.734855
Si Si5 0.574261 0.915697 0.078723
O O1 0.882170 0.750000 0.275813
O O2 0.489388 0.944656 0.373973
O O3 0.873694 0.974843 0.196511
O O4 0.948712 0.021693 0.302054
O O5 0.844507 0.250000 0.591877
O O6 0.763319 0.993879 0.668430
O O7 0.000000 0.000000 0.500000
O O8 0.949526 0.250000 0.917640
O O9 0.637394 0.410467 0.923806
O O10 0.838393 0.517731 0.981209
O O11 0.772432 0.750000 0.733300
O O12 0.528458 0.983790 0.837201
O O13 0.634057 0.750000 0.090096
#
# Coordination Sequence:
#
# PCOD8077728 Si02
#       5
#     4   4   4   4   4
#     4   9  20  39  62  86 115 153 193 236 285 337
#     4  11  24  43  64  86 114 147 189 241 294 346
#     4   8  14  27  49  79 112 146 187 232 278 329
#     4  11  22  37  60  88 118 153 192 235 284 340
#     4   9  16  28  49  79 115 153 190 229 276 331
#
# _framework density 20.856721
#
# number of rings (size 3 to 8) (size 9 to 14) (size 15 to 20)
#    0.000    2.400    0.000    4.200    0.000    7.200 
#    0.000    1.000    0.000    0.000    0.000    0.000 
#    0.000    0.000    0.000    0.000    0.000    0.000 
#
# Total GULP energy -247956.483510 kJ/mol
# GULP energy per Si atom -12397.824176 kJ/mol
# Density = 2.080925 g / cm^3
# Si number density = 20.856721 Si / 1000 Ang^3
#
#
#
# Elastic Constant Matrix: (Units=GPa)
#
#
# Indices 1 2 3 4 5 6 
#
# 1 22.0376 12.2726 -6.9868 0.0000 17.9100 0.0000
# 2 12.2726 132.8372 16.8604 0.0000 15.9866 0.0000
# 3 -6.9868 16.8604 48.6094 0.0000 10.1411 0.0000
# 4 0.0000 0.0000 0.0000 41.9781 0.0000 4.0049
# 5 17.9100 15.9866 10.1411 0.0000 26.5893 0.0000
# 6 0.0000 0.0000 0.0000 4.0049 0.0000 19.9657
#
#
#
# Elastic Compliance Matrix: (Units=1/GPa)
#
#
# Indices 1 2 3 4 5 6 
#
# 1 0.181384 -0.007260 0.057764 0.000000 -0.139842 0.000000
# 2 -0.007260 0.008580 -0.004306 0.000000 0.001374 0.000000
# 3 0.057764 -0.004306 0.041226 0.000000 -0.052043 0.000000
# 4 0.000000 0.000000 0.000000 0.024287 0.000000 -0.004872
# 5 -0.139842 0.001374 -0.052043 0.000000 0.150827 0.000000
# 6 0.000000 0.000000 0.000000 -0.004872 0.000000 0.051063
#
#
# Mechanical properties :
#
#
# Convention : Reuss Voigt Hill
#
# Bulk Modulus (GPa) = 3.09038 27.53074 15.31056
# Shear Modulus (GPa) = 10.57458 29.79583 20.18521
#
# Velocity S-wave (km/s) = 2.25413 3.78378 3.11433
# Velocity P-wave (km/s) = 2.87398 5.68488 4.50431
#
# Compressibility (1/GPa) = 0.32358445
#
# Stress axis : x y z
#
# Youngs Moduli (GPa) = 5.51318 116.55063 24.25673
#
# Poissons Ratio (x) = 0.84614 -1.40115
# Poissons Ratio (y) = 0.04002 0.10445
# Poissons Ratio (z) = -0.31846 0.50188
#
# Static dielectric constant tensor:
#      x y z
#    x 3.469180 0.000000 -0.222390 
#    y 0.000000 3.967190 0.000000 
#    z -0.222390 0.000000 3.870170 
# 
# 
# High freq. dielectric constant tensor:
#      x y z
#    x 1.802070 0.000000 -0.001950 
#    y 0.000000 1.816910 0.000000 
#    z -0.001950 0.000000 1.820830 
# 
# From -- ./inp_files/20169.got.cif
#   From: 2010.06.25/outbox.cif.g09.slc.cpg/sg11_11_cif.got.tgz:20169.got - 2010.06.27 23:14:04.
