data_PCOD8077829
_publ_section_title
;
Structure prediction by ZEFSAII (Michael W. Deem and Ramdas Pophale) SiO2 
 PCOD8077829
Probable space group: P 21/M
;
_chemical_formula_sum "Si O2"
_cell_formula_units_Z 24
_cell_length_a 9.280570
_cell_length_b 8.897229
_cell_length_c 14.640725
_cell_angle_alpha 90.000000
_cell_angle_beta 99.015837
_cell_angle_gamma 90.000000
_cell_volume 1193.968585
_symmetry_space_group_name_H-M "P 21/M"
_symmetry_group_IT_number 11
_symmetry_cell_setting 'monoclinic'
loop_
_space_group_symop_operation_xyz
x,y,z
-x,1/2+y,-z
-x,-y,-z
x,1/2-y,z
loop_
_atom_site_type_symbol
_atom_site_label
_atom_site_fract_x
_atom_site_fract_y
_atom_site_fract_z
Si Si1 0.664019 0.426950 0.258439
Si Si2 0.914894 0.583563 0.568984
Si Si3 0.569702 0.572390 0.917632
Si Si4 0.117933 0.922308 0.074783
Si Si5 0.964196 0.921314 0.251676
Si Si6 0.610217 0.582619 0.446005
O O1 0.681790 0.250000 0.270137
O O2 0.529748 0.468830 0.179351
O O3 0.811253 0.491990 0.228648
O O4 0.637457 0.493892 0.355578
O O5 0.981230 0.750000 0.589895
O O6 0.750011 0.593830 0.523057
O O7 0.000000 0.500000 0.500000
O O8 0.929256 0.491750 0.663145
O O9 0.580871 0.750000 0.933586
O O10 0.729629 0.507915 0.916219
O O11 0.500000 0.500000 0.000000
O O12 0.140884 0.750000 0.046433
O O13 0.055964 0.932989 0.169549
O O14 0.000000 0.000000 0.000000
O O15 0.927730 0.750000 0.274432
O O16 0.500000 0.500000 0.500000
O O17 0.554658 0.750000 0.415408
#
# Coordination Sequence:
#
# PCOD8077829 Si02
#       6
#     4   4   4   4   4   4
#     4  11  24  42  65  94 127 168 213 261 318 377
#     4  11  23  40  64  93 126 168 215 261 313 374
#     4  11  25  44  68  97 130 168 211 261 319 382
#     4  11  25  44  68  98 130 167 211 262 318 378
#     4  11  24  41  64  95 128 167 213 262 317 376
#     4  11  25  42  63  92 128 169 214 263 316 376
#
# _framework density 20.101032
#
# number of rings (size 3 to 8) (size 9 to 14) (size 15 to 20)
#    0.000    1.000    1.667    4.000    2.333   10.000 
#    0.000    0.000    0.000    0.000    0.000    0.000 
#    0.000    0.000    0.000    0.000    0.000    0.000 
#
# Total GULP energy -297668.808758 kJ/mol
# GULP energy per Si atom -12402.867032 kJ/mol
# Density = 2.005528 g / cm^3
# Si number density = 20.101032 Si / 1000 Ang^3
#
#
#
# Elastic Constant Matrix: (Units=GPa)
#
#
# Indices 1 2 3 4 5 6 
#
# 1 134.8645 68.6239 50.1302 0.0000 3.5130 0.0000
# 2 68.6239 157.0769 73.1600 0.0000 4.7588 0.0000
# 3 50.1302 73.1600 117.2306 0.0000 17.2303 0.0000
# 4 0.0000 0.0000 0.0000 35.1832 0.0000 -1.4608
# 5 3.5130 4.7588 17.2303 0.0000 35.0423 0.0000
# 6 0.0000 0.0000 0.0000 -1.4608 0.0000 39.8322
#
#
#
# Elastic Compliance Matrix: (Units=1/GPa)
#
#
# Indices 1 2 3 4 5 6 
#
# 1 0.009920 -0.003294 -0.002270 0.000000 0.000569 0.000000
# 2 -0.003294 0.010159 -0.005149 0.000000 0.001482 0.000000
# 3 -0.002270 -0.005149 0.013558 0.000000 -0.005740 0.000000
# 4 0.000000 0.000000 0.000000 0.028466 0.000000 0.001044
# 5 0.000569 0.001482 -0.005740 0.000000 0.031101 0.000000
# 6 0.000000 0.000000 0.000000 0.001044 0.000000 0.025144
#
#
# Mechanical properties :
#
#
# Convention : Reuss Voigt Hill
#
# Bulk Modulus (GPa) = 81.89610 88.11114 85.00362
# Shear Modulus (GPa) = 34.76025 36.49541 35.62783
#
# Velocity S-wave (km/s) = 4.16297 4.26561 4.21460
# Velocity P-wave (km/s) = 7.99611 8.25771 8.12796
#
# Compressibility (1/GPa) = 0.01221059
#
# Stress axis : x y z
#
# Youngs Moduli (GPa) = 100.80871 98.43873 73.75773
#
# Poissons Ratio (x) = 0.32423 0.16743
# Poissons Ratio (y) = 0.33204 0.37979
# Poissons Ratio (z) = 0.22884 0.50687
#
# Static dielectric constant tensor:
#      x y z
#    x 3.911150 0.000000 -0.021940 
#    y 0.000000 4.157590 0.000000 
#    z -0.021940 0.000000 3.717680 
# 
# 
# High freq. dielectric constant tensor:
#      x y z
#    x 1.795990 0.000000 0.001750 
#    y 0.000000 1.809020 0.000000 
#    z 0.001750 0.000000 1.800070 
# 
# From -- ./inp_files/20594.got.cif
#   From: 2010.06.25/outbox.cif.g09.slc.cpg/sg11_11_cif.got.tgz:20594.got - 2010.06.27 23:14:04.
