data_PCOD8077587
_publ_section_title
;
Structure prediction by ZEFSAII (Michael W. Deem and Ramdas Pophale) SiO2 
 PCOD8077587
Probable space group: P 21/M
;
_chemical_formula_sum "Si O2"
_cell_formula_units_Z 32
_cell_length_a 14.054366
_cell_length_b 17.864243
_cell_length_c 11.397728
_cell_angle_alpha 90.000000
_cell_angle_beta 32.337964
_cell_angle_gamma 90.000000
_cell_volume 1530.723500
_symmetry_space_group_name_H-M "P 21/M"
_symmetry_group_IT_number 11
_symmetry_cell_setting 'monoclinic'
loop_
_space_group_symop_operation_xyz
x,y,z
-x,1/2+y,-z
-x,-y,-z
x,1/2-y,z
loop_
_atom_site_type_symbol
_atom_site_label
_atom_site_fract_x
_atom_site_fract_y
_atom_site_fract_z
Si Si1 0.093175 0.911495 0.517628
Si Si2 0.350276 0.161973 0.310453
Si Si3 0.289844 0.836358 0.658100
Si Si4 0.499835 0.580485 0.060764
Si Si5 0.651451 0.404596 0.157402
Si Si6 0.005184 0.077812 0.643918
Si Si7 0.936629 0.664529 0.894414
Si Si8 0.598509 0.927168 0.219244
O O1 0.300865 0.893202 0.292890
O O2 0.001026 0.906723 0.487891
O O3 0.006754 0.848972 0.689818
O O4 0.061267 0.992414 0.609911
O O5 0.352010 0.250000 0.322969
O O6 0.482129 0.126099 0.266227
O O7 0.153814 0.131585 0.544602
O O8 0.404980 0.140292 0.121462
O O9 0.335673 0.750000 0.582697
O O10 0.306653 0.850720 0.778301
O O11 0.418120 0.889358 0.449984
O O12 0.089002 0.855551 0.829429
O O13 0.611827 0.575963 0.063936
O O14 0.500000 0.500000 0.000000
O O15 0.605721 0.487022 0.253193
O O16 0.816966 0.404398 0.897090
O O17 0.876237 0.750000 0.967960
O O18 0.765857 0.614495 0.102524
#
# Coordination Sequence:
#
# PCOD8077587 Si02
#       8
#     4   4   4   4   4   4   4   4
#     4  11  20  41  68  97 135 173 215 272 336 406
#     4  12  27  42  66 104 141 180 226 276 343 414
#     4  11  27  47  65  95 139 179 226 287 342 393
#     4  12  21  41  70 100 140 173 217 278 340 403
#     4  12  25  46  71  97 133 181 234 280 332 407
#     4  11  23  41  69  98 135 177 218 272 339 401
#     4  11  25  43  66 100 135 172 225 285 343 397
#     4  12  23  43  75 100 129 178 229 284 337 407
#
# _framework density 20.905145999999998
#
# number of rings (size 3 to 8) (size 9 to 14) (size 15 to 20)
#    0.000    0.500    6.250    1.875    0.000    5.500 
#    0.000    1.250    0.000    0.000    0.000    0.000 
#    0.000    0.000    0.000    0.000    0.000    0.000 
#
# Total GULP energy -397061.524328 kJ/mol
# GULP energy per Si atom -12408.172635 kJ/mol
# Density = 2.085757 g / cm^3
# Si number density = 20.905146 Si / 1000 Ang^3
#
#
#
# Elastic Constant Matrix: (Units=GPa)
#
#
# Indices 1 2 3 4 5 6 
#
# 1 82.5990 24.9188 29.2771 0.0000 -16.0503 0.0000
# 2 24.9188 114.6608 47.7976 0.0000 -24.3588 0.0000
# 3 29.2771 47.7976 47.9543 0.0000 -19.1211 0.0000
# 4 0.0000 0.0000 0.0000 26.5536 0.0000 -4.7898
# 5 -16.0503 -24.3588 -19.1211 0.0000 40.9331 0.0000
# 6 0.0000 0.0000 0.0000 -4.7898 0.0000 29.3158
#
#
#
# Elastic Compliance Matrix: (Units=1/GPa)
#
#
# Indices 1 2 3 4 5 6 
#
# 1 0.015679 0.001175 -0.009848 0.000000 0.002247 0.000000
# 2 0.001175 0.015199 -0.014841 0.000000 0.002573 0.000000
# 3 -0.009848 -0.014841 0.044974 0.000000 0.008316 0.000000
# 4 0.000000 0.000000 0.000000 0.038803 0.000000 0.006340
# 5 0.002247 0.002573 0.008316 0.000000 0.030727 0.000000
# 6 0.000000 0.000000 0.000000 0.006340 0.000000 0.035147
#
#
# Mechanical properties :
#
#
# Convention : Reuss Voigt Hill
#
# Bulk Modulus (GPa) = 34.69243 49.91124 42.30184
# Shear Modulus (GPa) = 21.08235 28.90855 24.99545
#
# Velocity S-wave (km/s) = 3.17910 3.72269 3.46158
# Velocity P-wave (km/s) = 5.48696 6.51190 6.02128
#
# Compressibility (1/GPa) = 0.02882473
#
# Stress axis : x y z
#
# Youngs Moduli (GPa) = 63.77801 65.79278 22.23525
#
# Poissons Ratio (x) = -0.07730 0.21897
# Poissons Ratio (y) = -0.07494 0.32999
# Poissons Ratio (z) = 0.62807 0.97643
#
# Static dielectric constant tensor:
#      x y z
#    x 3.945790 0.000000 -0.168420 
#    y 0.000000 3.818950 0.000000 
#    z -0.168420 0.000000 3.658480 
# 
# 
# High freq. dielectric constant tensor:
#      x y z
#    x 1.827760 0.000000 -0.015010 
#    y 0.000000 1.817160 0.000000 
#    z -0.015010 0.000000 1.823300 
# 
# From -- ./inp_files/39937.got.cif
#   From: 2010.06.25/outbox.cif.g09.slc.cpg/sg11_20_cif.got.tgz:39937.got - 2010.06.27 23:14:04.
