data_PCOD8077980
_publ_section_title
;
Structure prediction by ZEFSAII (Michael W. Deem and Ramdas Pophale) SiO2 
 PCOD8077980
Probable space group: P 21/M
;
_chemical_formula_sum "Si O2"
_cell_formula_units_Z 32
_cell_length_a 14.437060
_cell_length_b 14.109392
_cell_length_c 8.361160
_cell_angle_alpha 90.000000
_cell_angle_beta 83.818642
_cell_angle_gamma 90.000000
_cell_volume 1693.250687
_symmetry_space_group_name_H-M "P 21/M"
_symmetry_group_IT_number 11
_symmetry_cell_setting 'monoclinic'
loop_
_space_group_symop_operation_xyz
x,y,z
-x,1/2+y,-z
-x,-y,-z
x,1/2-y,z
loop_
_atom_site_type_symbol
_atom_site_label
_atom_site_fract_x
_atom_site_fract_y
_atom_site_fract_z
Si Si1 0.152321 0.535689 0.450263
Si Si2 0.641414 0.987540 0.564486
Si Si3 0.796086 0.146435 0.856898
Si Si4 0.993819 0.465092 0.263120
Si Si5 0.504018 0.145499 0.541782
Si Si6 0.369430 0.520430 0.063891
Si Si7 0.465269 0.355028 0.919258
Si Si8 0.996247 0.143440 0.944486
O O1 0.247572 0.484412 0.489937
O O2 0.180180 0.624268 0.333082
O O3 0.094695 0.569918 0.616616
O O4 0.085760 0.466925 0.357723
O O5 0.593709 0.891836 0.510558
O O6 0.591461 0.076915 0.484427
O O7 0.620077 0.992605 0.754564
O O8 0.748108 0.250000 0.864860
O O9 0.729545 0.068843 0.949176
O O10 0.885337 0.146694 0.952210
O O11 0.966706 0.568859 0.195028
O O12 0.019367 0.391341 0.118876
O O13 0.524247 0.250000 0.466537
O O14 0.493195 0.153620 0.732114
O O15 0.450416 0.594722 0.998693
O O16 0.375543 0.423864 0.958488
O O17 0.445224 0.250000 0.993452
O O18 0.037597 0.250000 0.908904
#
# Coordination Sequence:
#
# PCOD8077980 Si02
#       8
#     4   4   4   4   4   4   4   4
#     4   9  18  32  52  75 100 132 165 204 250 290
#     4   9  18  32  50  71  96 127 163 199 244 296
#     4   9  17  30  50  75 100 127 163 205 250 297
#     4   9  18  34  53  75 105 131 163 208 246 293
#     4   9  18  33  50  69  96 128 162 203 247 291
#     4   9  17  29  47  70  97 127 163 208 250 288
#     4   9  17  29  46  67  93 129 167 202 246 297
#     4   9  18  33  53  74  99 133 163 196 248 299
#
# _framework density 18.89856
#
# number of rings (size 3 to 8) (size 9 to 14) (size 15 to 20)
#    0.000    3.000    0.000    0.375    0.000    5.000 
#    0.000    3.125    0.000   20.250    0.000    0.000 
#    0.000    0.000    0.000    0.000    0.000    0.000 
#
# Total GULP energy -396584.899139 kJ/mol
# GULP energy per Si atom -12393.278098 kJ/mol
# Density = 1.885555 g / cm^3
# Si number density = 18.898560 Si / 1000 Ang^3
#
#
#
# Elastic Constant Matrix: (Units=GPa)
#
#
# Indices 1 2 3 4 5 6 
#
# 1 90.5315 31.8750 22.0355 0.0000 -4.9329 0.0000
# 2 31.8750 125.8387 14.9142 0.0000 -8.4931 0.0000
# 3 22.0355 14.9142 32.0923 0.0000 -4.2801 0.0000
# 4 0.0000 0.0000 0.0000 20.6507 0.0000 -1.3486
# 5 -4.9329 -8.4931 -4.2801 0.0000 28.2231 0.0000
# 6 0.0000 0.0000 0.0000 -1.3486 0.0000 19.4327
#
#
#
# Elastic Compliance Matrix: (Units=1/GPa)
#
#
# Indices 1 2 3 4 5 6 
#
# 1 0.013998 -0.002524 -0.008383 0.000000 0.000416 0.000000
# 2 -0.002524 0.008975 -0.002180 0.000000 0.001929 0.000000
# 3 -0.008383 -0.002180 0.038423 0.000000 0.003706 0.000000
# 4 0.000000 0.000000 0.000000 0.048645 0.000000 0.003376
# 5 0.000416 0.001929 0.003706 0.000000 0.036647 0.000000
# 6 0.000000 0.000000 0.000000 0.003376 0.000000 0.051694
#
#
# Mechanical properties :
#
#
# Convention : Reuss Voigt Hill
#
# Bulk Modulus (GPa) = 28.39193 42.90133 35.64663
# Shear Modulus (GPa) = 21.15985 25.63714 23.39850
#
# Velocity S-wave (km/s) = 3.34975 3.68715 3.52250
# Velocity P-wave (km/s) = 5.47878 6.39351 5.95374
#
# Compressibility (1/GPa) = 0.03522128
#
# Stress axis : x y z
#
# Youngs Moduli (GPa) = 71.44093 111.42532 26.02579
#
# Poissons Ratio (x) = 0.28124 0.21817
# Poissons Ratio (y) = 0.18032 0.05675
# Poissons Ratio (z) = 0.59887 0.24295
#
# Static dielectric constant tensor:
#      x y z
#    x 3.429640 0.000000 0.016970 
#    y 0.000000 3.725540 0.000000 
#    z 0.016970 0.000000 3.283750 
# 
# 
# High freq. dielectric constant tensor:
#      x y z
#    x 1.721460 0.000000 0.005870 
#    y 0.000000 1.727570 0.000000 
#    z 0.005870 0.000000 1.718240 
# 
# From -- ./inp_files/21849.got.cif
#   From: 2010.06.25/outbox.cif.g09.slc.cpg/sg11_11_cif.got.tgz:21849.got - 2010.06.27 23:14:04.
