data_PCOD8077611
_publ_section_title
;
Structure prediction by ZEFSAII (Michael W. Deem and Ramdas Pophale) SiO2 
 PCOD8077611
Probable space group: P 21/M
;
_chemical_formula_sum "Si O2"
_cell_formula_units_Z 16
_cell_length_a 7.255759
_cell_length_b 13.618053
_cell_length_c 9.238450
_cell_angle_alpha 90.000000
_cell_angle_beta 109.060131
_cell_angle_gamma 90.000000
_cell_volume 862.799412
_symmetry_space_group_name_H-M "P 21/M"
_symmetry_group_IT_number 11
_symmetry_cell_setting 'monoclinic'
loop_
_space_group_symop_operation_xyz
x,y,z
-x,1/2+y,-z
-x,-y,-z
x,1/2-y,z
loop_
_atom_site_type_symbol
_atom_site_label
_atom_site_fract_x
_atom_site_fract_y
_atom_site_fract_z
Si Si1 0.662886 0.861711 0.327654
Si Si2 0.088097 0.007565 0.805618
Si Si3 0.289910 0.529560 0.138399
Si Si4 0.226702 0.137441 0.321113
O O1 0.706399 0.750000 0.294639
O O2 0.659416 0.874276 0.499198
O O3 0.834203 0.928397 0.306737
O O4 0.452968 0.890285 0.211430
O O5 0.918366 0.067075 0.849569
O O6 0.993653 0.906247 0.720257
O O7 0.267690 0.984547 0.960032
O O8 0.344503 0.425154 0.229662
O O9 0.214541 0.250000 0.268043
#
# Coordination Sequence:
#
# PCOD8077611 Si02
#       4
#     4   4   4   4
#     4  11  21  34  55  81 107 139 176 215 264 314
#     4   9  20  37  56  77 108 138 176 218 263 307
#     4   9  20  37  56  77 108 138 176 218 263 307
#     4   9  19  36  55  77 107 141 176 217 262 310
#
# _framework density 18.544284999999999
#
# number of rings (size 3 to 8) (size 9 to 14) (size 15 to 20)
#    1.500    1.000    0.000    2.250    0.000    3.000 
#    0.000    1.250    0.000    0.000    0.000    0.000 
#    0.000    0.000    0.000    0.000    0.000    0.000 
#
# Total GULP energy -198298.671112 kJ/mol
# GULP energy per Si atom -12393.666944 kJ/mol
# Density = 1.850208 g / cm^3
# Si number density = 18.544285 Si / 1000 Ang^3
#
#
#
# Elastic Constant Matrix: (Units=GPa)
#
#
# Indices 1 2 3 4 5 6 
#
# 1 23.8132 2.5911 -0.1982 0.0000 9.3582 0.0000
# 2 2.5911 73.2835 32.0870 0.0000 5.3111 0.0000
# 3 -0.1982 32.0870 82.7052 0.0000 12.1957 0.0000
# 4 0.0000 0.0000 0.0000 18.8370 0.0000 5.8531
# 5 9.3582 5.3111 12.1957 0.0000 21.2106 0.0000
# 6 0.0000 0.0000 0.0000 5.8531 0.0000 29.6297
#
#
#
# Elastic Compliance Matrix: (Units=1/GPa)
#
#
# Indices 1 2 3 4 5 6 
#
# 1 0.052139 -0.002047 0.004628 0.000000 -0.025153 0.000000
# 2 -0.002047 0.016523 -0.006489 0.000000 0.000497 0.000000
# 3 0.004628 -0.006489 0.016041 0.000000 -0.009641 0.000000
# 4 0.000000 0.000000 0.000000 0.056559 0.000000 -0.011173
# 5 -0.025153 0.000497 -0.009641 0.000000 0.063663 0.000000
# 6 0.000000 0.000000 0.000000 -0.011173 0.000000 0.035957
#
#
# Mechanical properties :
#
#
# Convention : Reuss Voigt Hill
#
# Bulk Modulus (GPa) = 13.00583 27.64019 20.32301
# Shear Modulus (GPa) = 18.22648 23.62359 20.92504
#
# Velocity S-wave (km/s) = 3.13846 3.57305 3.36278
# Velocity P-wave (km/s) = 4.49020 5.65328 5.10497
#
# Compressibility (1/GPa) = 0.07688860
#
# Stress axis : x y z
#
# Youngs Moduli (GPa) = 19.17939 60.52165 62.33962
#
# Poissons Ratio (x) = 0.12389 -0.28852
# Poissons Ratio (y) = 0.03926 0.40449
# Poissons Ratio (z) = -0.08876 0.39270
#
# Static dielectric constant tensor:
#      x y z
#    x 3.081080 0.000000 0.043900 
#    y 0.000000 3.190060 0.000000 
#    z 0.043900 0.000000 3.405290 
# 
# 
# High freq. dielectric constant tensor:
#      x y z
#    x 1.696640 0.000000 0.006670 
#    y 0.000000 1.700220 0.000000 
#    z 0.006670 0.000000 1.734750 
# 
# From -- ./inp_files/3712.got.cif
#   From: 2010.06.25/outbox.cif.g09.slc.cpg/sg11_2_cif.got.tgz:3712.got - 2010.06.27 23:14:04.
