data_PCOD8077930
_publ_section_title
;
Structure prediction by ZEFSAII (Michael W. Deem and Ramdas Pophale) SiO2 
 PCOD8077930
Probable space group: P 21/M
;
_chemical_formula_sum "Si O2"
_cell_formula_units_Z 32
_cell_length_a 13.648980
_cell_length_b 9.696950
_cell_length_c 26.833834
_cell_angle_alpha 90.000000
_cell_angle_beta 139.726922
_cell_angle_gamma 90.000000
_cell_volume 2295.834041
_symmetry_space_group_name_H-M "P 21/M"
_symmetry_group_IT_number 11
_symmetry_cell_setting 'monoclinic'
loop_
_space_group_symop_operation_xyz
x,y,z
-x,1/2+y,-z
-x,-y,-z
x,1/2-y,z
loop_
_atom_site_type_symbol
_atom_site_label
_atom_site_fract_x
_atom_site_fract_y
_atom_site_fract_z
Si Si1 0.387937 0.907778 0.518603
Si Si2 0.712066 0.910727 0.609452
Si Si3 0.516193 0.903868 0.932896
Si Si4 0.883711 0.410727 0.390548
Si Si5 0.167873 0.592222 0.518603
Si Si6 0.961755 0.413579 0.235229
Si Si7 0.717506 0.096132 0.067104
Si Si8 0.256067 0.586421 0.764771
O O1 0.360340 0.750000 0.491163
O O2 0.567522 0.940908 0.588647
O O3 0.323351 0.934606 0.548901
O O4 0.300367 0.005577 0.446469
O O5 0.724245 0.750000 0.599922
O O6 0.862823 0.960848 0.697039
O O7 0.576998 0.750000 0.945333
O O8 0.661265 0.000000 1.000000
O O9 0.405289 0.900338 0.936859
O O10 0.420490 0.964572 0.848613
O O11 0.924480 0.250000 0.400078
O O12 0.801582 0.440907 0.411353
O O13 0.771708 0.460849 0.302962
O O14 0.039039 0.494422 0.446469
O O15 0.113149 0.750000 0.491162
O O16 0.948067 0.250000 0.230481
O O17 0.874651 0.464573 0.151387
O O18 0.879023 0.472873 0.252682
O O19 0.740999 0.250000 0.054667
O O20 0.256620 0.750000 0.769517
#
# Coordination Sequence:
#
# PCOD8077930 Si02
#       8
#     4   4   4   4   4   4   4   4
#     4   9  17  27  37  52  75  96 114 146 187 212
#     4   9  16  26  40  54  68  93 126 149 169 208
#     4   8  13  21  32  46  65  87 109 134 165 200
#     4   9  16  26  40  54  68  93 126 149 169 208
#     4   9  17  27  37  52  75  96 114 146 187 212
#     4   8  13  21  34  51  68  87 115 147 169 192
#     4   8  13  21  32  46  65  87 109 134 165 200
#     4   8  13  21  34  51  68  87 115 147 169 192
#
# _framework density 13.93829
#
# number of rings (size 3 to 8) (size 9 to 14) (size 15 to 20)
#    0.000    3.500    0.000    2.250    0.000    1.500 
#    0.000    1.250    0.000    4.500    0.000    0.000 
#    0.000    1.000    0.000    0.750    0.000    1.500 
#
# Total GULP energy -396512.918477 kJ/mol
# GULP energy per Si atom -12391.028702 kJ/mol
# Density = 1.390657 g / cm^3
# Si number density = 13.938290 Si / 1000 Ang^3
#
#
#
# Elastic Constant Matrix: (Units=GPa)
#
#
# Indices 1 2 3 4 5 6 
#
# 1 65.4224 22.4068 49.4089 0.0000 -0.2191 0.0000
# 2 22.4068 38.2974 41.6950 0.0000 -0.2421 0.0000
# 3 49.4089 41.6950 145.8077 0.0000 -0.7896 0.0000
# 4 0.0000 0.0000 0.0000 20.8611 0.0000 -0.1161
# 5 -0.2191 -0.2421 -0.7896 0.0000 16.7536 0.0000
# 6 0.0000 0.0000 0.0000 -0.1161 0.0000 11.6089
#
#
#
# Elastic Compliance Matrix: (Units=1/GPa)
#
#
# Indices 1 2 3 4 5 6 
#
# 1 0.021701 -0.006811 -0.005406 0.000000 -0.000069 0.000000
# 2 -0.006811 0.040053 -0.009145 0.000000 0.000059 0.000000
# 3 -0.005406 -0.009145 0.011307 0.000000 0.000330 0.000000
# 4 0.000000 0.000000 0.000000 0.047939 0.000000 0.000479
# 5 -0.000069 0.000059 0.000330 0.000000 0.059704 0.000000
# 6 0.000000 0.000000 0.000000 0.000479 0.000000 0.086145
#
#
# Mechanical properties :
#
#
# Convention : Reuss Voigt Hill
#
# Bulk Modulus (GPa) = 32.96394 52.94987 42.95691
# Shear Modulus (GPa) = 15.64031 18.91253 17.27642
#
# Velocity S-wave (km/s) = 3.35343 3.68758 3.52446
# Velocity P-wave (km/s) = 6.22055 7.49681 6.88830
#
# Compressibility (1/GPa) = 0.03033618
#
# Stress axis : x y z
#
# Youngs Moduli (GPa) = 46.08121 24.96672 88.43845
#
# Poissons Ratio (x) = 0.17005 0.47813
# Poissons Ratio (y) = 0.31386 0.80879
# Poissons Ratio (z) = 0.24913 0.22833
#
# Static dielectric constant tensor:
#      x y z
#    x 2.548490 0.000000 -0.006380 
#    y 0.000000 2.697950 0.000000 
#    z -0.006380 0.000000 3.056490 
# 
# 
# High freq. dielectric constant tensor:
#      x y z
#    x 1.490230 0.000000 -0.000530 
#    y 0.000000 1.515550 0.000000 
#    z -0.000530 0.000000 1.532440 
# 
# From -- ./inp_files/43049.got.cif
#   From: 2010.06.25/outbox.cif.g09.slc.cpg/sg11_22_cif.got.tgz:43049.got - 2010.06.27 23:14:04.
