data_PCOD8077408
_publ_section_title
;
Structure prediction by ZEFSAII (Michael W. Deem and Ramdas Pophale) SiO2 
 PCOD8077408
Probable space group: P 21/M
;
_chemical_formula_sum "Si O2"
_cell_formula_units_Z 24
_cell_length_a 22.244194
_cell_length_b 10.612958
_cell_length_c 15.302756
_cell_angle_alpha 90.000000
_cell_angle_beta 161.613635
_cell_angle_gamma 90.000000
_cell_volume 1139.505517
_symmetry_space_group_name_H-M "P 21/M"
_symmetry_group_IT_number 11
_symmetry_cell_setting 'monoclinic'
loop_
_space_group_symop_operation_xyz
x,y,z
-x,1/2+y,-z
-x,-y,-z
x,1/2-y,z
loop_
_atom_site_type_symbol
_atom_site_label
_atom_site_fract_x
_atom_site_fract_y
_atom_site_fract_z
Si Si1 0.591663 0.250000 0.964677
Si Si2 0.648132 0.519012 0.969465
Si Si3 0.230958 0.750000 0.606385
Si Si4 0.863173 0.888177 0.104967
Si Si5 0.954843 0.036872 0.080109
Si Si6 0.750543 0.391237 0.628607
Si Si7 0.619874 0.750000 0.058648
Si Si8 0.197512 0.250000 0.496756
O O1 0.678525 0.375622 0.041716
O O2 0.362231 0.250000 0.649747
O O3 0.643400 0.250000 0.135714
O O4 0.439073 0.525418 0.638269
O O5 0.807735 0.539336 0.116134
O O6 0.677443 0.622316 0.086505
O O7 0.094845 0.873487 0.418066
O O8 0.388422 0.750000 0.746693
O O9 0.762951 0.750000 0.967480
O O10 0.806434 0.962993 0.938787
O O11 0.071332 0.127876 0.304618
O O12 0.831114 0.109422 0.837953
O O13 0.092151 0.937830 0.222112
O O14 0.694874 0.250000 0.526236
O O15 0.729119 0.750000 0.302033
#
# Coordination Sequence:
#
# PCOD8077408 Si02
#       8
#     2   4   2   4   4   4   2   2
#     4  11  26  40  64  95 138 168 226 270 333 384
#     4  12  24  45  65 101 130 182 218 272 335 400
#     4   9  23  41  64  95 126 173 222 276 321 395
#     4  10  23  43  64  97 130 171 224 267 329 406
#     4  11  23  41  67  99 135 170 219 281 328 383
#     4  11  22  41  71  95 132 175 227 273 325 398
#     4  11  23  40  76  90 135 178 217 276 328 391
#     4  11  24  41  64 106 131 165 227 268 332 392
#
# _framework density 21.061767
#
# number of rings (size 3 to 8) (size 9 to 14) (size 15 to 20)
#    0.500    0.667    4.167    1.500    2.333    3.333 
#    4.500    0.000    0.000    0.000    0.000    0.000 
#    0.000    0.000    0.000    0.000    0.000    0.000 
#
# Total GULP energy -297532.878247 kJ/mol
# GULP energy per Si atom -12397.203260 kJ/mol
# Density = 2.101383 g / cm^3
# Si number density = 21.061767 Si / 1000 Ang^3
#
#
#
# Elastic Constant Matrix: (Units=GPa)
#
#
# Indices 1 2 3 4 5 6 
#
# 1 157.8170 65.0840 30.6723 0.0000 -4.0783 0.0000
# 2 65.0840 146.3276 8.8097 0.0000 -3.6435 0.0000
# 3 30.6723 8.8097 42.8451 0.0000 -15.7202 0.0000
# 4 0.0000 0.0000 0.0000 17.0171 0.0000 31.7665
# 5 -4.0783 -3.6435 -15.7202 0.0000 22.6238 0.0000
# 6 0.0000 0.0000 0.0000 31.7665 0.0000 -126.6374
#
#
#
# Elastic Compliance Matrix: (Units=1/GPa)
#
#
# Indices 1 2 3 4 5 6 
#
# 1 0.009195 -0.003751 -0.007281 0.000000 -0.004006 0.000000
# 2 -0.003751 0.008450 0.001609 0.000000 0.001803 0.000000
# 3 -0.007281 0.001609 0.037360 0.000000 0.024906 0.000000
# 4 0.000000 0.000000 0.000000 0.040023 0.000000 0.010040
# 5 -0.004006 0.001803 0.024906 0.000000 0.061076 0.000000
# 6 0.000000 0.000000 0.000000 0.010040 0.000000 -0.005378
#
#
# Mechanical properties :
#
#
# Convention : Reuss Voigt Hill
#
# Bulk Modulus (GPa) = 27.65529 61.79130 44.72330
# Shear Modulus (GPa) = 27.52929 -1.23773 13.14578
#
# Velocity S-wave (km/s) = 3.61927 -0.76743 2.50102
# Velocity P-wave (km/s) = 5.53395 5.34945 5.44248
#
# Compressibility (1/GPa) = 0.03615945
#
# Stress axis : x y z
#
# Youngs Moduli (GPa) = 108.75440 118.33713 26.76680
#
# Poissons Ratio (x) = 0.44390 0.19489
# Poissons Ratio (y) = 0.40796 -0.04308
# Poissons Ratio (z) = 0.79185 -0.19045
#
# Static dielectric constant tensor:
#      x y z
#    x 3.755990 0.000000 -0.054790 
#    y 0.000000 4.011290 0.000000 
#    z -0.054790 0.000000 3.628460 
# 
# 
# High freq. dielectric constant tensor:
#      x y z
#    x 1.837140 0.000000 -0.007300 
#    y 0.000000 1.829530 0.000000 
#    z -0.007300 0.000000 1.808750 
# 
# From -- ./inp_files/54853.got.cif
#   From: 2010.06.25/outbox.cif.g09.slc.cpg/sg11_28_cif.got.tgz:54853.got - 2010.06.27 23:14:04.
