data_PCOD8077187
_publ_section_title
;
Structure prediction by ZEFSAII (Michael W. Deem and Ramdas Pophale) SiO2 
 PCOD8077187
Probable space group: P 21/M
;
_chemical_formula_sum "Si O2"
_cell_formula_units_Z 32
_cell_length_a 20.206602
_cell_length_b 11.096094
_cell_length_c 19.561681
_cell_angle_alpha 90.000000
_cell_angle_beta 158.865656
_cell_angle_gamma 90.000000
_cell_volume 1581.401982
_symmetry_space_group_name_H-M "P 21/M"
_symmetry_group_IT_number 11
_symmetry_cell_setting 'monoclinic'
loop_
_space_group_symop_operation_xyz
x,y,z
-x,1/2+y,-z
-x,-y,-z
x,1/2-y,z
loop_
_atom_site_type_symbol
_atom_site_label
_atom_site_fract_x
_atom_site_fract_y
_atom_site_fract_z
Si Si1 0.846679 0.887297 0.453800
Si Si2 0.498210 0.384477 0.796500
Si Si3 0.633939 0.885595 0.116307
Si Si4 0.263042 0.114299 0.145953
Si Si5 0.378443 0.468421 0.542714
Si Si6 0.175532 0.033279 0.830362
Si Si7 0.970583 0.114219 0.760922
Si Si8 0.624266 0.884934 0.604186
O O1 0.874264 0.750000 0.503782
O O2 0.673459 0.943311 0.328317
O O3 0.803877 0.898804 0.332123
O O4 0.034943 0.953368 0.651687
O O5 0.528276 0.250000 0.852987
O O6 0.458102 0.379402 0.676808
O O7 0.683995 0.454891 0.990139
O O8 0.543353 0.750000 0.039474
O O9 0.711945 0.886223 0.114744
O O10 0.500000 0.000000 0.000000
O O11 0.279271 0.250000 0.134223
O O12 0.218515 0.109433 0.185026
O O13 0.460378 0.056751 0.324240
O O14 0.100830 0.054373 0.945172
O O15 0.302134 0.396924 0.402532
O O16 0.214317 0.539090 0.420275
O O17 0.066755 0.114842 0.779589
O O18 0.918537 0.250000 0.730820
O O19 0.530114 0.750000 0.519637
O O20 0.500000 0.000000 0.500000
#
# Coordination Sequence:
#
# PCOD8077187 Si02
#       8
#     4   4   4   4   4   4   4   4
#     4  10  22  41  63  90 122 160 204 253 308 369
#     4  11  22  37  60  88 121 159 205 255 308 365
#     4  11  24  43  67  95 127 162 206 255 307 367
#     4   9  19  37  58  84 118 159 202 253 307 362
#     4  11  20  37  59  87 121 160 205 251 308 359
#     4  12  22  41  63  90 120 161 205 253 309 364
#     4  11  23  37  58  88 122 160 206 254 308 368
#     4   9  19  36  62  89 123 162 206 256 308 363
#
# _framework density 20.235209000000001
#
# number of rings (size 3 to 8) (size 9 to 14) (size 15 to 20)
#    0.000    1.500    3.750    1.875    0.000    1.500 
#    0.000    2.500    0.000    0.000    0.000    0.000 
#    0.000    0.000    0.000    0.000    0.000    0.000 
#
# Total GULP energy -396490.447738 kJ/mol
# GULP energy per Si atom -12390.326492 kJ/mol
# Density = 2.018915 g / cm^3
# Si number density = 20.235209 Si / 1000 Ang^3
#
#
#
# Elastic Constant Matrix: (Units=GPa)
#
#
# Indices 1 2 3 4 5 6 
#
# 1 111.4269 21.0615 29.7274 0.0000 -20.9977 0.0000
# 2 21.0615 99.6636 34.0051 0.0000 -0.7291 0.0000
# 3 29.7274 34.0051 89.9322 0.0000 -10.8646 0.0000
# 4 0.0000 0.0000 0.0000 23.1234 0.0000 -3.2705
# 5 -20.9977 -0.7291 -10.8646 0.0000 34.4744 0.0000
# 6 0.0000 0.0000 0.0000 -3.2705 0.0000 22.9748
#
#
#
# Elastic Compliance Matrix: (Units=1/GPa)
#
#
# Indices 1 2 3 4 5 6 
#
# 1 0.011000 -0.001475 -0.002363 0.000000 0.005924 0.000000
# 2 -0.001475 0.011764 -0.004199 0.000000 -0.001973 0.000000
# 3 -0.002363 -0.004199 0.013830 0.000000 0.002831 0.000000
# 4 0.000000 0.000000 0.000000 0.044135 0.000000 0.006283
# 5 0.005924 -0.001973 0.002831 0.000000 0.033466 0.000000
# 6 0.000000 0.000000 0.000000 0.006283 0.000000 0.044420
#
#
# Mechanical properties :
#
#
# Convention : Reuss Voigt Hill
#
# Bulk Modulus (GPa) = 48.73141 52.29007 50.51074
# Shear Modulus (GPa) = 27.54399 30.52978 29.03688
#
# Velocity S-wave (km/s) = 3.69343 3.88847 3.79221
# Velocity P-wave (km/s) = 6.50564 6.78657 6.64759
#
# Compressibility (1/GPa) = 0.02052065
#
# Stress axis : x y z
#
# Youngs Moduli (GPa) = 90.90906 85.00736 72.30603
#
# Poissons Ratio (x) = 0.12540 0.17083
# Poissons Ratio (y) = 0.13410 0.30360
# Poissons Ratio (z) = 0.21479 0.35693
#
# Static dielectric constant tensor:
#      x y z
#    x 4.015260 0.000000 -0.343190 
#    y 0.000000 3.604990 0.000000 
#    z -0.343190 0.000000 3.580450 
# 
# 
# High freq. dielectric constant tensor:
#      x y z
#    x 1.802800 0.000000 -0.026480 
#    y 0.000000 1.783430 0.000000 
#    z -0.026480 0.000000 1.776170 
# 
# From -- ./inp_files/66556.got.cif
#   From: 2010.06.25/outbox.cif.g09.slc.cpg/sg11_34_cif.got.tgz:66556.got - 2010.06.27 23:14:04.
