data_PCOD8077848
_publ_section_title
;
Structure prediction by ZEFSAII (Michael W. Deem and Ramdas Pophale) SiO2 
 PCOD8077848
Probable space group: P 21/M
;
_chemical_formula_sum "Si O2"
_cell_formula_units_Z 24
_cell_length_a 13.545692
_cell_length_b 13.992809
_cell_length_c 11.213017
_cell_angle_alpha 90.000000
_cell_angle_beta 32.353103
_cell_angle_gamma 90.000000
_cell_volume 1137.345379
_symmetry_space_group_name_H-M "P 21/M"
_symmetry_group_IT_number 11
_symmetry_cell_setting 'monoclinic'
loop_
_space_group_symop_operation_xyz
x,y,z
-x,1/2+y,-z
-x,-y,-z
x,1/2-y,z
loop_
_atom_site_type_symbol
_atom_site_label
_atom_site_fract_x
_atom_site_fract_y
_atom_site_fract_z
Si Si1 0.262271 0.141442 0.986242
Si Si2 0.469549 0.138097 0.358886
Si Si3 0.027341 0.978131 0.608246
Si Si4 0.141106 0.088519 0.847124
Si Si5 0.118424 0.853453 0.075191
Si Si6 0.443262 0.506008 0.195219
O O1 0.322904 0.250000 0.945736
O O2 0.199103 0.127576 0.915233
O O3 0.430442 0.074620 0.853844
O O4 0.085898 0.117198 0.247011
O O5 0.416609 0.250000 0.420040
O O6 0.334268 0.073332 0.578843
O O7 0.452433 0.101305 0.239619
O O8 0.680906 0.118661 0.183433
O O9 0.951593 0.066654 0.762611
O O10 0.238124 0.954275 0.419477
O O11 0.000000 0.000000 0.500000
O O12 0.022427 0.162682 0.890269
O O13 0.000000 0.000000 0.000000
O O14 0.134269 0.750000 0.124827
O O15 0.500000 0.500000 0.000000
#
# Coordination Sequence:
#
# PCOD8077848 Si02
#       6
#     4   4   4   4   4   4
#     4  12  27  45  67 105 144 181 231 290 352 415
#     4  11  23  41  70 105 137 181 238 287 341 417
#     4  12  24  46  71  99 137 184 233 291 350 418
#     4  12  23  44  70 101 144 189 226 283 347 411
#     4  11  23  42  69 104 138 182 236 283 342 417
#     4  12  24  45  71  97 139 182 234 289 354 414
#
# _framework density 21.101769999999998
#
# number of rings (size 3 to 8) (size 9 to 14) (size 15 to 20)
#    0.000    0.333    6.667    1.500    0.000    6.000 
#    0.000    0.000    0.000    0.000    0.000    0.000 
#    0.000    0.000    0.000    0.000    0.000    0.000 
#
# Total GULP energy -297460.443185 kJ/mol
# GULP energy per Si atom -12394.185133 kJ/mol
# Density = 2.105374 g / cm^3
# Si number density = 21.101770 Si / 1000 Ang^3
#
#
#
# Elastic Constant Matrix: (Units=GPa)
#
#
# Indices 1 2 3 4 5 6 
#
# 1 140.9672 37.1479 64.0879 0.0000 -2.1044 0.0000
# 2 37.1479 103.8424 52.2291 0.0000 4.7437 0.0000
# 3 64.0879 52.2291 170.7700 0.0000 -15.2704 0.0000
# 4 0.0000 0.0000 0.0000 20.2379 0.0000 -4.5594
# 5 -2.1044 4.7437 -15.2704 0.0000 50.8237 0.0000
# 6 0.0000 0.0000 0.0000 -4.5594 0.0000 21.3941
#
#
#
# Elastic Compliance Matrix: (Units=1/GPa)
#
#
# Indices 1 2 3 4 5 6 
#
# 1 0.008822 -0.001728 -0.002811 0.000000 -0.000318 0.000000
# 2 -0.001728 0.011956 -0.003200 0.000000 -0.002149 0.000000
# 3 -0.002811 -0.003200 0.008124 0.000000 0.002623 0.000000
# 4 0.000000 0.000000 0.000000 0.051904 0.000000 0.011062
# 5 -0.000318 -0.002149 0.002623 0.000000 0.020651 0.000000
# 6 0.000000 0.000000 0.000000 0.011062 0.000000 0.049099
#
#
# Mechanical properties :
#
#
# Convention : Reuss Voigt Hill
#
# Bulk Modulus (GPa) = 74.49217 80.27884 77.38551
# Shear Modulus (GPa) = 29.32373 35.96545 32.64459
#
# Velocity S-wave (km/s) = 3.73182 4.13289 3.93747
# Velocity P-wave (km/s) = 7.34484 7.80389 7.57784
#
# Compressibility (1/GPa) = 0.01342423
#
# Stress axis : x y z
#
# Youngs Moduli (GPa) = 113.34881 83.64054 123.08972
#
# Poissons Ratio (x) = 0.14451 0.34600
# Poissons Ratio (y) = 0.19583 0.39394
# Poissons Ratio (z) = 0.31862 0.26769
#
# Static dielectric constant tensor:
#      x y z
#    x 4.127210 0.000000 -0.082160 
#    y 0.000000 3.837020 0.000000 
#    z -0.082160 0.000000 4.165620 
# 
# 
# High freq. dielectric constant tensor:
#      x y z
#    x 1.838730 0.000000 -0.015740 
#    y 0.000000 1.819140 0.000000 
#    z -0.015740 0.000000 1.845360 
# 
# From -- ./inp_files/39569.got.cif
#   From: 2010.06.25/outbox.cif.g09.slc.cpg/sg11_20_cif.got.tgz:39569.got - 2010.06.27 23:14:04.
