data_PCOD8077986
_publ_section_title
;
Structure prediction by ZEFSAII (Michael W. Deem and Ramdas Pophale) SiO2 
 PCOD8077986
Probable space group: P 21/M
;
_chemical_formula_sum "Si O2"
_cell_formula_units_Z 24
_cell_length_a 12.000000
_cell_length_b 15.000000
_cell_length_c 21.000000
_cell_angle_alpha 90.000000
_cell_angle_beta 160.000000
_cell_angle_gamma 90.000000
_cell_volume 1292.836142
_symmetry_space_group_name_H-M "P 21/M"
_symmetry_group_IT_number 11
_symmetry_cell_setting 'monoclinic'
loop_
_space_group_symop_operation_xyz
x,y,z
-x,1/2+y,-z
-x,-y,-z
x,1/2-y,z
loop_
_atom_site_type_symbol
_atom_site_label
_atom_site_fract_x
_atom_site_fract_y
_atom_site_fract_z
Si Si1 0.323995 0.991462 0.496409
Si Si2 0.206513 0.847697 0.972784
Si Si3 0.629013 0.852529 0.569260
Si Si4 0.784154 0.143059 0.379589
Si Si5 0.218071 0.472907 0.704847
Si Si6 0.213863 0.072292 0.150660
O O1 0.382466 0.909669 0.479917
O O2 0.563040 0.988463 0.684571
O O3 0.959229 0.974137 0.323083
O O4 0.354339 0.092332 0.487061
O O5 0.381415 0.750000 0.068727
O O6 0.984089 0.851652 0.790966
O O7 0.993094 0.855799 0.921815
O O8 0.428525 0.934893 0.089770
O O9 0.505550 0.750000 0.492623
O O10 0.848409 0.250000 0.399098
O O11 0.430532 0.133644 0.221169
O O12 0.063669 0.100565 0.574136
O O13 0.775995 0.076314 0.314607
O O14 0.000000 0.000000 0.000000
#
# Coordination Sequence:
#
# PCOD8077986 Si02
#       6
#     4   4   4   4   4   4
#     4   9  20  35  55  77 104 137 172 219 265 309
#     4  10  19  32  54  78 102 137 181 219 255 310
#     4   9  19  37  57  75 100 138 180 218 261 312
#     4  10  20  34  51  75 111 147 174 212 265 318
#     4  10  20  33  52  79 108 138 176 218 263 319
#     4  10  18  34  55  75 108 140 176 213 260 316
#
# _framework density 18.563836999999999
#
# number of rings (size 3 to 8) (size 9 to 14) (size 15 to 20)
#    0.000    2.333    1.667    1.000    0.000    6.000 
#    0.000    1.667    0.000    0.000    0.000    0.000 
#    0.000    0.000    0.000    0.000    0.000    0.000 
#
# Total GULP energy -297317.128857 kJ/mol
# GULP energy per Si atom -12388.213702 kJ/mol
# Density = 1.852159 g / cm^3
# Si number density = 18.563837 Si / 1000 Ang^3
#
#
#
# Elastic Constant Matrix: (Units=GPa)
#
#
# Indices 1 2 3 4 5 6 
#
# 1 63.9258 38.5989 29.5337 0.0000 11.2259 0.0000
# 2 38.5989 188.9817 34.4412 0.0000 1.8765 0.0000
# 3 29.5337 34.4412 41.5993 0.0000 11.9260 0.0000
# 4 0.0000 0.0000 0.0000 30.8569 0.0000 2.0218
# 5 11.2259 1.8765 11.9260 0.0000 18.7812 0.0000
# 6 0.0000 0.0000 0.0000 2.0218 0.0000 19.6412
#
#
#
# Elastic Compliance Matrix: (Units=1/GPa)
#
#
# Indices 1 2 3 4 5 6 
#
# 1 0.024445 -0.002437 -0.013714 0.000000 -0.005659 0.000000
# 2 -0.002437 0.006641 -0.004884 0.000000 0.003895 0.000000
# 3 -0.013714 -0.004884 0.043193 0.000000 -0.018742 0.000000
# 4 0.000000 0.000000 0.000000 0.032628 0.000000 -0.003359
# 5 -0.005659 0.003895 -0.018742 0.000000 0.068139 0.000000
# 6 0.000000 0.000000 0.000000 -0.003359 0.000000 0.051259
#
#
# Mechanical properties :
#
#
# Convention : Reuss Voigt Hill
#
# Bulk Modulus (GPa) = 31.05026 55.51714 43.28370
# Shear Modulus (GPa) = 17.91399 26.65137 22.28268
#
# Velocity S-wave (km/s) = 3.10981 3.79312 3.46833
# Velocity P-wave (km/s) = 5.44583 7.01104 6.27741
#
# Compressibility (1/GPa) = 0.03220585
#
# Stress axis : x y z
#
# Youngs Moduli (GPa) = 40.90894 150.58441 23.15209
#
# Poissons Ratio (x) = 0.36699 0.31752
# Poissons Ratio (y) = 0.09970 0.11309
# Poissons Ratio (z) = 0.56105 0.73552
#
# Static dielectric constant tensor:
#      x y z
#    x 3.685440 0.000000 0.161080 
#    y 0.000000 3.638970 0.000000 
#    z 0.161080 0.000000 3.269370 
# 
# 
# High freq. dielectric constant tensor:
#      x y z
#    x 1.706610 0.000000 0.008470 
#    y 0.000000 1.738750 0.000000 
#    z 0.008470 0.000000 1.702650 
# 
# From -- ./inp_files/17194.got.cif
#   From: 2010.06.25/outbox.ucp.g09.slc.cvg/sg11_9_cif.got.tgz:17194.got - 2010.06.28 13:43:20.
