data_PCOD8077895
_publ_section_title
;
Structure prediction by ZEFSAII (Michael W. Deem and Ramdas Pophale) SiO2 
 PCOD8077895
Probable space group: P 21/M
;
_chemical_formula_sum "Si O2"
_cell_formula_units_Z 24
_cell_length_a 19.506584
_cell_length_b 10.641280
_cell_length_c 14.687610
_cell_angle_alpha 90.000000
_cell_angle_beta 20.356253
_cell_angle_gamma 90.000000
_cell_volume 1060.537679
_symmetry_space_group_name_H-M "P 21/M"
_symmetry_group_IT_number 11
_symmetry_cell_setting 'monoclinic'
loop_
_space_group_symop_operation_xyz
x,y,z
-x,1/2+y,-z
-x,-y,-z
x,1/2-y,z
loop_
_atom_site_type_symbol
_atom_site_label
_atom_site_fract_x
_atom_site_fract_y
_atom_site_fract_z
Si Si1 0.552851 0.750000 0.558136
Si Si2 0.945185 0.750000 0.299711
Si Si3 0.285597 0.611583 0.437248
Si Si4 0.302648 0.485959 0.109347
Si Si5 0.251863 0.750000 0.774102
Si Si6 0.023545 0.486589 0.622137
Si Si7 0.480262 0.750000 0.855539
Si Si8 0.773087 0.497262 0.301368
O O1 0.371821 0.750000 0.716754
O O2 0.457552 0.750000 0.775789
O O3 0.679089 0.624795 0.380741
O O4 0.028394 0.629715 0.248844
O O5 0.709384 0.750000 0.596219
O O6 0.023919 0.750000 0.095880
O O7 0.248031 0.750000 0.524182
O O8 0.127658 0.592281 0.553789
O O9 0.262470 0.508544 0.545661
O O10 0.507228 0.602899 0.123734
O O11 0.169011 0.444373 0.360253
O O12 0.180454 0.463118 0.167725
O O13 0.369965 0.630378 0.035464
O O14 0.311483 0.627026 0.642168
O O15 0.000000 0.500000 0.000000
#
# Coordination Sequence:
#
# PCOD8077895 Si02
#       8
#     2   2   4   4   2   4   2   4
#     4  12  24  44  74  99 138 182 233 291 355 418
#     4  12  24  44  75  97 134 185 229 287 352 419
#     4  12  26  45  69  99 140 181 226 288 351 412
#     4  11  25  43  69 102 141 176 235 283 337 425
#     4  12  26  46  70 105 140 177 241 294 354 417
#     4  11  25  44  69 102 135 185 227 282 348 410
#     4  12  22  42  71  99 134 182 225 282 347 412
#     4  12  25  47  69 101 136 185 234 287 350 420
#
# _framework density 22.630029
#
# number of rings (size 3 to 8) (size 9 to 14) (size 15 to 20)
#    0.000    0.333    4.167    5.000    2.333    0.667 
#    3.000    0.000    0.000    0.000    0.000    0.000 
#    0.000    0.000    0.000    0.000    0.000    0.000 
#
# Total GULP energy -297725.322180 kJ/mol
# GULP energy per Si atom -12405.221757 kJ/mol
# Density = 2.257852 g / cm^3
# Si number density = 22.630029 Si / 1000 Ang^3
#
#
#
# Elastic Constant Matrix: (Units=GPa)
#
#
# Indices 1 2 3 4 5 6 
#
# 1 102.9987 28.4584 2.9665 0.0000 -8.6944 0.0000
# 2 28.4584 123.0913 14.6434 0.0000 -7.0066 0.0000
# 3 2.9665 14.6434 58.1701 0.0000 -4.2151 0.0000
# 4 0.0000 0.0000 0.0000 22.0445 0.0000 8.4399
# 5 -8.6944 -7.0066 -4.2151 0.0000 40.1325 0.0000
# 6 0.0000 0.0000 0.0000 8.4399 0.0000 26.9938
#
#
#
# Elastic Compliance Matrix: (Units=1/GPa)
#
#
# Indices 1 2 3 4 5 6 
#
# 1 0.010511 -0.002345 0.000191 0.000000 0.001888 0.000000
# 2 -0.002345 0.008961 -0.002075 0.000000 0.000838 0.000000
# 3 0.000191 -0.002075 0.017816 0.000000 0.001550 0.000000
# 4 0.000000 0.000000 0.000000 0.051531 0.000000 -0.016112
# 5 0.001888 0.000838 0.001550 0.000000 0.025636 0.000000
# 6 0.000000 0.000000 0.000000 -0.016112 0.000000 0.042083
#
#
# Mechanical properties :
#
#
# Convention : Reuss Voigt Hill
#
# Bulk Modulus (GPa) = 34.68794 41.82185 38.25490
# Shear Modulus (GPa) = 28.63581 33.71359 31.17470
#
# Velocity S-wave (km/s) = 3.56109 3.86394 3.71560
# Velocity P-wave (km/s) = 5.68067 6.19900 5.94549
#
# Compressibility (1/GPa) = 0.02882846
#
# Stress axis : x y z
#
# Youngs Moduli (GPa) = 95.14108 111.59580 56.12929
#
# Poissons Ratio (x) = 0.26173 -0.01073
# Poissons Ratio (y) = 0.22314 0.11649
# Poissons Ratio (z) = -0.01819 0.23161
#
# Static dielectric constant tensor:
#      x y z
#    x 4.227730 0.000000 0.012060 
#    y 0.000000 4.378400 0.000000 
#    z 0.012060 0.000000 4.116040 
# 
# 
# High freq. dielectric constant tensor:
#      x y z
#    x 1.902290 0.000000 -0.005050 
#    y 0.000000 1.894870 0.000000 
#    z -0.005050 0.000000 1.892380 
# 
# From -- ./inp_files/54806.got.cif
#   From: 2010.06.25/outbox.cif.g09.slc.cpg/sg11_28_cif.got.tgz:54806.got - 2010.06.27 23:14:04.
