data_PCOD8077500
_publ_section_title
;
Structure prediction by ZEFSAII (Michael W. Deem and Ramdas Pophale) SiO2 
 PCOD8077500
Probable space group: P 21/M
;
_chemical_formula_sum "Si O2"
_cell_formula_units_Z 28
_cell_length_a 12.368314
_cell_length_b 8.717362
_cell_length_c 15.238997
_cell_angle_alpha 90.000000
_cell_angle_beta 128.462192
_cell_angle_gamma 90.000000
_cell_volume 1286.542503
_symmetry_space_group_name_H-M "P 21/M"
_symmetry_group_IT_number 11
_symmetry_cell_setting 'monoclinic'
loop_
_space_group_symop_operation_xyz
x,y,z
-x,1/2+y,-z
-x,-y,-z
x,1/2-y,z
loop_
_atom_site_type_symbol
_atom_site_label
_atom_site_fract_x
_atom_site_fract_y
_atom_site_fract_z
Si Si1 0.791809 0.429216 0.486128
Si Si2 0.762705 0.419436 0.795743
Si Si3 0.673993 0.569760 0.267165
Si Si4 0.778210 0.926709 0.129675
Si Si5 0.932602 0.570412 0.724022
Si Si6 0.623530 0.927510 0.876090
Si Si7 0.466319 0.080767 0.571385
O O1 0.823761 0.250000 0.500433
O O2 0.797795 0.497985 0.390181
O O3 0.893753 0.504003 0.608727
O O4 0.634956 0.464697 0.431876
O O5 0.829487 0.250000 0.843556
O O6 0.840733 0.503186 0.756316
O O7 0.754147 0.513720 0.882644
O O8 0.603533 0.399058 0.694516
O O9 0.674971 0.750000 0.284526
O O10 0.707647 0.523788 0.184835
O O11 0.521264 0.511572 0.214681
O O12 0.826617 0.750000 0.156710
O O13 0.665612 0.955814 0.997873
O O14 0.909435 0.032188 0.176736
O O15 0.908715 0.750000 0.710799
O O16 0.600768 0.750000 0.843334
O O17 0.398159 0.250000 0.522731
O O18 0.500000 0.000000 0.500000
#
# Coordination Sequence:
#
# PCOD8077500 Si02
#       7
#     4   4   4   4   4   4   4
#     4  12  24  39  63  94 130 167 206 259 317 378
#     4  11  23  39  63  94 131 169 207 258 316 376
#     4  11  23  42  68  97 128 165 211 265 318 372
#     4  10  25  47  67  90 127 171 216 263 313 373
#     4  12  26  43  66  94 128 170 214 259 314 382
#     4  11  23  41  68  99 128 164 211 265 319 372
#     4  11  21  34  58  91 126 165 206 255 314 375
#
# _framework density 21.763757999999999
#
# number of rings (size 3 to 8) (size 9 to 14) (size 15 to 20)
#    0.000    0.857    2.857    4.714    0.000    4.571 
#    0.000    0.000    0.000    0.000    0.000    0.000 
#    0.000    0.000    0.000    0.000    0.000    0.000 
#
# Total GULP energy -347119.254506 kJ/mol
# GULP energy per Si atom -12397.116232 kJ/mol
# Density = 2.171422 g / cm^3
# Si number density = 21.763758 Si / 1000 Ang^3
#
#
#
# Elastic Constant Matrix: (Units=GPa)
#
#
# Indices 1 2 3 4 5 6 
#
# 1 50.6130 16.8245 20.4040 0.0000 -7.9131 0.0000
# 2 16.8245 125.9772 20.4361 0.0000 -6.2928 0.0000
# 3 20.4040 20.4361 71.2645 0.0000 -21.0102 0.0000
# 4 0.0000 0.0000 0.0000 33.1563 0.0000 -3.1627
# 5 -7.9131 -6.2928 -21.0102 0.0000 41.1417 0.0000
# 6 0.0000 0.0000 0.0000 -3.1627 0.0000 31.4900
#
#
#
# Elastic Compliance Matrix: (Units=1/GPa)
#
#
# Indices 1 2 3 4 5 6 
#
# 1 0.022900 -0.002089 -0.005596 0.000000 0.001227 0.000000
# 2 -0.002089 0.008516 -0.001858 0.000000 -0.000048 0.000000
# 3 -0.005596 -0.001858 0.018561 0.000000 0.008118 0.000000
# 4 0.000000 0.000000 0.000000 0.030452 0.000000 0.003058
# 5 0.001227 -0.000048 0.008118 0.000000 0.028681 0.000000
# 6 0.000000 0.000000 0.000000 0.003058 0.000000 0.032063
#
#
# Mechanical properties :
#
#
# Convention : Reuss Voigt Hill
#
# Bulk Modulus (GPa) = 32.37238 40.35379 36.36308
# Shear Modulus (GPa) = 29.31604 33.83694 31.57649
#
# Velocity S-wave (km/s) = 3.67415 3.94729 3.81317
# Velocity P-wave (km/s) = 5.73636 6.27350 6.01094
#
# Compressibility (1/GPa) = 0.03089053
#
# Stress axis : x y z
#
# Youngs Moduli (GPa) = 43.66821 117.42621 53.87778
#
# Poissons Ratio (x) = 0.24534 0.30148
# Poissons Ratio (y) = 0.09124 0.10011
# Poissons Ratio (z) = 0.24435 0.21819
#
# Static dielectric constant tensor:
#      x y z
#    x 3.929230 0.000000 -0.248480 
#    y 0.000000 4.163350 0.000000 
#    z -0.248480 0.000000 4.004270 
# 
# 
# High freq. dielectric constant tensor:
#      x y z
#    x 1.851830 0.000000 -0.017990 
#    y 0.000000 1.864070 0.000000 
#    z -0.017990 0.000000 1.864520 
# 
# From -- ./inp_files/49472.got.cif
#   From: 2010.06.25/outbox.cif.g09.slc.cpg/sg11_25_cif.got.tgz:49472.got - 2010.06.27 23:14:04.
