data_PCOD8077973
_publ_section_title
;
Structure prediction by ZEFSAII (Michael W. Deem and Ramdas Pophale) SiO2 
 PCOD8077973
Probable space group: P 21/M
;
_chemical_formula_sum "Si O2"
_cell_formula_units_Z 32
_cell_length_a 17.825892
_cell_length_b 14.106241
_cell_length_c 15.700448
_cell_angle_alpha 90.000000
_cell_angle_beta 151.735116
_cell_angle_gamma 90.000000
_cell_volume 1869.558530
_symmetry_space_group_name_H-M "P 21/M"
_symmetry_group_IT_number 11
_symmetry_cell_setting 'monoclinic'
loop_
_space_group_symop_operation_xyz
x,y,z
-x,1/2+y,-z
-x,-y,-z
x,1/2-y,z
loop_
_atom_site_type_symbol
_atom_site_label
_atom_site_fract_x
_atom_site_fract_y
_atom_site_fract_z
Si Si1 0.180959 0.642409 0.839901
Si Si2 0.106557 0.468247 0.388424
Si Si3 0.319040 0.142409 0.477984
Si Si4 0.950558 0.641485 0.919532
Si Si5 0.450559 0.858515 0.981586
Si Si6 0.095484 0.025150 0.965679
Si Si7 0.606558 0.468246 0.824690
Si Si8 0.595483 0.025151 0.225288
O O1 0.126675 0.750000 0.798357
O O2 0.275801 0.628288 0.846830
O O3 0.025944 0.576681 0.682622
O O4 0.291986 0.615462 0.030622
O O5 0.208013 0.384538 0.446649
O O6 0.223136 0.532920 0.561572
O O7 0.024780 0.532881 0.234053
O O8 0.373322 0.250000 0.545005
O O9 0.224198 0.128288 0.295228
O O10 0.474055 0.076681 0.630733
O O11 0.008636 0.750000 0.969955
O O12 0.075069 0.575394 0.994117
O O13 0.941505 0.612540 0.009270
O O14 0.508634 0.750000 0.047316
O O15 0.441505 0.887460 0.873740
O O16 0.575069 0.924606 0.156022
O O17 0.276864 0.032919 0.115299
O O18 0.524781 0.532881 0.815508
#
# Coordination Sequence:
#
# PCOD8077973 Si02
#       8
#     4   4   4   4   4   4   4   4
#     4   9  16  26  43  67  91 116 148 188 231 269
#     4   9  17  28  45  66  91 119 148 186 226 265
#     4   9  16  26  43  67  91 116 148 188 231 269
#     4   9  18  32  48  66  91 121 150 184 226 269
#     4   9  18  32  48  66  91 121 150 184 226 269
#     4   9  18  32  48  67  91 119 151 185 224 268
#     4   9  17  28  45  66  91 119 148 186 226 265
#     4   9  18  32  48  67  91 119 151 185 224 268
#
# _framework density 17.116340000000001
#
# number of rings (size 3 to 8) (size 9 to 14) (size 15 to 20)
#    0.000    3.000    0.000    0.750    0.000    8.000 
#    0.000    1.250    0.000    0.000    0.000    0.000 
#    0.000    0.000    0.000    0.000    0.000    0.000 
#
# Total GULP energy -396763.996396 kJ/mol
# GULP energy per Si atom -12398.874887 kJ/mol
# Density = 1.707738 g / cm^3
# Si number density = 17.116340 Si / 1000 Ang^3
#
#
#
# Elastic Constant Matrix: (Units=GPa)
#
#
# Indices 1 2 3 4 5 6 
#
# 1 72.1845 16.8317 34.5527 0.0000 0.4011 0.0000
# 2 16.8317 43.9010 12.6543 0.0000 -4.2743 0.0000
# 3 34.5527 12.6543 77.5375 0.0000 5.0793 0.0000
# 4 0.0000 0.0000 0.0000 15.4681 0.0000 -2.5457
# 5 0.4011 -4.2743 5.0793 0.0000 23.7967 0.0000
# 6 0.0000 0.0000 0.0000 -2.5457 0.0000 17.9561
#
#
#
# Elastic Compliance Matrix: (Units=1/GPa)
#
#
# Indices 1 2 3 4 5 6 
#
# 1 0.018594 -0.004925 -0.007509 0.000000 0.000405 0.000000
# 2 -0.004925 0.025859 -0.002368 0.000000 0.005233 0.000000
# 3 -0.007509 -0.002368 0.016885 0.000000 -0.003903 0.000000
# 4 0.000000 0.000000 0.000000 0.066194 0.000000 0.009385
# 5 0.000405 0.005233 -0.003903 0.000000 0.043789 0.000000
# 6 0.000000 0.000000 0.000000 0.009385 0.000000 0.057022
#
#
# Mechanical properties :
#
#
# Convention : Reuss Voigt Hill
#
# Bulk Modulus (GPa) = 31.51202 35.74449 33.62826
# Shear Modulus (GPa) = 18.62029 20.08313 19.35171
#
# Velocity S-wave (km/s) = 3.30186 3.42911 3.36609
# Velocity P-wave (km/s) = 5.74342 6.05037 5.89889
#
# Compressibility (1/GPa) = 0.03173392
#
# Stress axis : x y z
#
# Youngs Moduli (GPa) = 53.78167 38.67120 59.22349
#
# Poissons Ratio (x) = 0.19046 0.44468
# Poissons Ratio (y) = 0.26488 0.14026
# Poissons Ratio (z) = 0.40382 0.09159
#
# Static dielectric constant tensor:
#      x y z
#    x 3.241330 0.000000 0.007700 
#    y 0.000000 2.885850 0.000000 
#    z 0.007700 0.000000 3.248780 
# 
# 
# High freq. dielectric constant tensor:
#      x y z
#    x 1.657520 0.000000 0.000720 
#    y 0.000000 1.627740 0.000000 
#    z 0.000720 0.000000 1.658220 
# 
# From -- ./inp_files/21873.got.cif
#   From: 2010.06.25/outbox.cif.g09.slc.cpg/sg11_11_cif.got.tgz:21873.got - 2010.06.27 23:14:04.
