data_PCOD8077144
_publ_section_title
;
Structure prediction by ZEFSAII (Michael W. Deem and Ramdas Pophale) SiO2 
 PCOD8077144
Probable space group: P 21/M
;
_chemical_formula_sum "Si O2"
_cell_formula_units_Z 32
_cell_length_a 14.969483
_cell_length_b 13.250434
_cell_length_c 21.790219
_cell_angle_alpha 90.000000
_cell_angle_beta 160.094403
_cell_angle_gamma 90.000000
_cell_volume 1471.563944
_symmetry_space_group_name_H-M "P 21/M"
_symmetry_group_IT_number 11
_symmetry_cell_setting 'monoclinic'
loop_
_space_group_symop_operation_xyz
x,y,z
-x,1/2+y,-z
-x,-y,-z
x,1/2-y,z
loop_
_atom_site_type_symbol
_atom_site_label
_atom_site_fract_x
_atom_site_fract_y
_atom_site_fract_z
Si Si1 0.922623 0.364777 0.625365
Si Si2 0.459999 0.630296 0.266087
Si Si3 0.021543 0.862531 0.596243
Si Si4 0.223185 0.134974 0.317086
Si Si5 0.517071 0.491509 0.606124
Si Si6 0.437746 0.073365 0.015101
Si Si7 0.079870 0.138218 0.597479
Si Si8 0.353795 0.916007 0.060845
O O1 0.819651 0.250000 0.552647
O O2 0.709792 0.431757 0.521043
O O3 0.188553 0.359082 0.837086
O O4 0.988372 0.418246 0.601042
O O5 0.390185 0.750000 0.223887
O O6 0.338961 0.567612 0.245007
O O7 0.352635 0.580037 0.134243
O O8 0.771966 0.605787 0.476028
O O9 0.947928 0.750000 0.527833
O O10 0.030842 0.918815 0.535385
O O11 0.295541 0.862463 0.808157
O O12 0.309045 0.250000 0.357726
O O13 0.398721 0.095104 0.486294
O O14 0.264294 0.060022 0.285944
O O15 0.915685 0.134910 0.136085
O O16 0.500000 0.000000 0.000000
O O17 0.378572 0.024117 0.043325
O O18 0.963204 0.250000 0.529867
O O19 0.395785 0.147846 0.799479
#
# Coordination Sequence:
#
# PCOD8077144 Si02
#       8
#     4   4   4   4   4   4   4   4
#     4  11  22  38  59  89 127 163 200 254 310 365
#     4  10  22  40  64  93 126 161 205 258 307 365
#     4   9  20  36  55  85 124 167 203 241 298 362
#     4  11  24  44  67  89 120 158 206 260 309 370
#     4  11  24  42  65  93 118 159 209 254 313 370
#     4  12  22  35  54  90 127 165 207 251 301 362
#     4   9  19  35  58  86 120 160 199 241 298 362
#     4  11  22  38  62  89 125 161 208 251 306 358
#
# _framework density 21.745571999999999
#
# number of rings (size 3 to 8) (size 9 to 14) (size 15 to 20)
#    0.000    1.500    2.500    3.750    1.750    1.500 
#    0.000    0.000    0.000    0.000    0.000    0.000 
#    0.000    0.000    0.000    0.000    0.000    0.000 
#
# Total GULP energy -396522.675057 kJ/mol
# GULP energy per Si atom -12391.333596 kJ/mol
# Density = 2.169608 g / cm^3
# Si number density = 21.745572 Si / 1000 Ang^3
#
#
#
# Elastic Constant Matrix: (Units=GPa)
#
#
# Indices 1 2 3 4 5 6 
#
# 1 98.7603 36.8801 5.7625 0.0000 -15.2399 0.0000
# 2 36.8801 66.4750 1.8396 0.0000 -7.1874 0.0000
# 3 5.7625 1.8396 55.0849 0.0000 2.3195 0.0000
# 4 0.0000 0.0000 0.0000 21.6656 0.0000 0.8122
# 5 -15.2399 -7.1874 2.3195 0.0000 28.8658 0.0000
# 6 0.0000 0.0000 0.0000 0.8122 0.0000 27.9068
#
#
#
# Elastic Compliance Matrix: (Units=1/GPa)
#
#
# Indices 1 2 3 4 5 6 
#
# 1 0.013663 -0.006935 -0.001434 0.000000 0.005602 0.000000
# 2 -0.006935 0.019005 0.000046 0.000000 0.001067 0.000000
# 3 -0.001434 0.000046 0.018396 0.000000 -0.002224 0.000000
# 4 0.000000 0.000000 0.000000 0.046207 0.000000 -0.001345
# 5 0.005602 0.001067 -0.002224 0.000000 0.038045 0.000000
# 6 0.000000 0.000000 0.000000 -0.001345 0.000000 0.035873
#
#
# Mechanical properties :
#
#
# Convention : Reuss Voigt Hill
#
# Bulk Modulus (GPa) = 29.05408 34.36496 31.70952
# Shear Modulus (GPa) = 25.08693 27.41017 26.24855
#
# Velocity S-wave (km/s) = 3.40024 3.55420 3.47807
# Velocity P-wave (km/s) = 5.36707 5.71669 5.54464
#
# Compressibility (1/GPa) = 0.03441857
#
# Stress axis : x y z
#
# Youngs Moduli (GPa) = 73.18817 52.61807 54.36007
#
# Poissons Ratio (x) = 0.36491 0.07793
# Poissons Ratio (y) = 0.50756 -0.00249
# Poissons Ratio (z) = 0.10493 -0.00241
#
# Static dielectric constant tensor:
#      x y z
#    x 4.153190 0.000000 -0.238490 
#    y 0.000000 3.818930 0.000000 
#    z -0.238490 0.000000 3.896390 
# 
# 
# High freq. dielectric constant tensor:
#      x y z
#    x 1.855120 0.000000 -0.015220 
#    y 0.000000 1.858160 0.000000 
#    z -0.015220 0.000000 1.839980 
# 
# From -- ./inp_files/65800.got.cif
#   From: 2010.06.25/outbox.cif.g09.slc.cpg/sg11_33_cif.got.tgz:65800.got - 2010.06.27 23:14:04.
