data_PCOD8077737
_publ_section_title
;
Structure prediction by ZEFSAII (Michael W. Deem and Ramdas Pophale) SiO2 
 PCOD8077737
Probable space group: P 21/M
;
_chemical_formula_sum "Si O2"
_cell_formula_units_Z 24
_cell_length_a 9.215045
_cell_length_b 8.920965
_cell_length_c 20.894728
_cell_angle_alpha 90.000000
_cell_angle_beta 48.332943
_cell_angle_gamma 90.000000
_cell_volume 1283.153351
_symmetry_space_group_name_H-M "P 21/M"
_symmetry_group_IT_number 11
_symmetry_cell_setting 'monoclinic'
loop_
_space_group_symop_operation_xyz
x,y,z
-x,1/2+y,-z
-x,-y,-z
x,1/2-y,z
loop_
_atom_site_type_symbol
_atom_site_label
_atom_site_fract_x
_atom_site_fract_y
_atom_site_fract_z
Si Si1 0.706718 0.071010 0.426145
Si Si2 0.576435 0.571188 0.727494
Si Si3 0.975449 0.071089 0.576336
Si Si4 0.761581 0.072884 0.264947
Si Si5 0.705851 0.414041 0.081925
Si Si6 0.946893 0.585395 0.920022
O O1 0.701492 0.250000 0.437034
O O2 0.770102 0.025603 0.335948
O O3 0.500000 0.000000 0.500000
O O4 0.854955 0.994113 0.430154
O O5 0.616609 0.750000 0.714190
O O6 0.441022 0.520157 0.707582
O O7 0.473400 0.520538 0.824121
O O8 0.772795 0.478046 0.666277
O O9 0.991241 0.250000 0.567594
O O10 0.000000 0.000000 0.500000
O O11 0.771629 0.250000 0.251977
O O12 0.949956 0.005582 0.171867
O O13 0.646301 0.250000 0.075941
O O14 0.893549 0.406212 0.071463
O O15 0.754585 0.503363 0.002685
O O16 0.874701 0.750000 0.921866
#
# Coordination Sequence:
#
# PCOD8077737 Si02
#       6
#     4   4   4   4   4   4
#     4  11  22  38  59  82 108 139 176 218 267 320
#     4   9  17  33  55  79 108 140 175 216 263 314
#     4  12  25  40  57  79 106 137 176 220 268 320
#     4   8  16  31  53  78 105 138 174 214 261 312
#     4   8  14  24  42  71 105 137 168 208 257 303
#     4   8  13  24  43  69 101 136 172 208 249 301
#
# _framework density 18.703921000000001
#
# number of rings (size 3 to 8) (size 9 to 14) (size 15 to 20)
#    0.000    2.667    0.000    5.000    0.000    2.000 
#    0.000    5.000    0.000    1.000    0.000    0.000 
#    0.000    0.000    0.000    0.000    0.000    0.000 
#
# Total GULP energy -297406.459928 kJ/mol
# GULP energy per Si atom -12391.935830 kJ/mol
# Density = 1.866135 g / cm^3
# Si number density = 18.703921 Si / 1000 Ang^3
#
#
#
# Elastic Constant Matrix: (Units=GPa)
#
#
# Indices 1 2 3 4 5 6 
#
# 1 102.5701 46.7305 74.4550 0.0000 0.1172 0.0000
# 2 46.7305 94.0652 70.3209 0.0000 -0.6542 0.0000
# 3 74.4550 70.3209 178.5103 0.0000 -1.1618 0.0000
# 4 0.0000 0.0000 0.0000 33.8348 0.0000 -3.2518
# 5 0.1172 -0.6542 -1.1618 0.0000 24.3007 0.0000
# 6 0.0000 0.0000 0.0000 -3.2518 0.0000 23.6219
#
#
#
# Elastic Compliance Matrix: (Units=1/GPa)
#
#
# Indices 1 2 3 4 5 6 
#
# 1 0.014940 -0.003918 -0.004690 0.000000 -0.000402 0.000000
# 2 -0.003918 0.016097 -0.004705 0.000000 0.000227 0.000000
# 3 -0.004690 -0.004705 0.009414 0.000000 0.000346 0.000000
# 4 0.000000 0.000000 0.000000 0.029952 0.000000 0.004123
# 5 -0.000402 0.000227 0.000346 0.000000 0.041176 0.000000
# 6 0.000000 0.000000 0.000000 0.004123 0.000000 0.042901
#
#
# Mechanical properties :
#
#
# Convention : Reuss Voigt Hill
#
# Bulk Modulus (GPa) = 72.34489 84.23982 78.29236
# Shear Modulus (GPa) = 26.92316 28.59411 27.75864
#
# Velocity S-wave (km/s) = 3.79811 3.91420 3.85659
# Velocity P-wave (km/s) = 7.61559 8.09718 7.86007
#
# Compressibility (1/GPa) = 0.01382268
#
# Stress axis : x y z
#
# Youngs Moduli (GPa) = 66.93576 62.12507 106.22521
#
# Poissons Ratio (x) = 0.24343 0.49823
# Poissons Ratio (y) = 0.26228 0.49981
# Poissons Ratio (z) = 0.31395 0.29231
#
# Static dielectric constant tensor:
#      x y z
#    x 3.128140 0.000000 0.087130 
#    y 0.000000 3.457620 0.000000 
#    z 0.087130 0.000000 3.985320 
# 
# 
# High freq. dielectric constant tensor:
#      x y z
#    x 1.688190 0.000000 -0.000430 
#    y 0.000000 1.706410 0.000000 
#    z -0.000430 0.000000 1.752610 
# 
# From -- ./inp_files/25759.got.cif
#   From: 2010.06.25/outbox.cif.g09.slc.cpg/sg11_13_cif.got.tgz:25759.got - 2010.06.27 23:14:04.
