data_PCOD8077642
_publ_section_title
;
Structure prediction by ZEFSAII (Michael W. Deem and Ramdas Pophale) SiO2 
 PCOD8077642
Probable space group: P 21/M
;
_chemical_formula_sum "Si O2"
_cell_formula_units_Z 20
_cell_length_a 7.625582
_cell_length_b 19.530535
_cell_length_c 6.942757
_cell_angle_alpha 90.000000
_cell_angle_beta 83.100027
_cell_angle_gamma 90.000000
_cell_volume 1026.507751
_symmetry_space_group_name_H-M "P 21/M"
_symmetry_group_IT_number 11
_symmetry_cell_setting 'monoclinic'
loop_
_space_group_symop_operation_xyz
x,y,z
-x,1/2+y,-z
-x,-y,-z
x,1/2-y,z
loop_
_atom_site_type_symbol
_atom_site_label
_atom_site_fract_x
_atom_site_fract_y
_atom_site_fract_z
Si Si1 0.705592 0.879988 0.599563
Si Si2 0.391936 0.067976 0.976999
Si Si3 0.555565 0.173248 0.659716
Si Si4 0.146615 0.478608 0.698858
Si Si5 0.912647 0.108456 0.499276
O O1 0.569873 0.829380 0.511729
O O2 0.708994 0.951270 0.477628
O O3 0.906918 0.849252 0.572656
O O4 0.644091 0.891976 0.823384
O O5 0.499383 0.119973 0.829308
O O6 0.207126 0.044483 0.903488
O O7 0.500000 0.000000 0.000000
O O8 0.545880 0.250000 0.745002
O O9 0.756846 0.159649 0.570059
O O10 0.138334 0.560874 0.678788
O O11 0.956336 0.443707 0.673210
#
# Coordination Sequence:
#
# PCOD8077642 Si02
#       5
#     4   4   4   4   4
#     4   9  20  38  59  84 116 155 193 243 297 359
#     4  11  21  36  64  94 122 157 198 257 309 354
#     4  11  24  41  58  83 121 164 204 249 303 368
#     4   8  18  36  58  91 121 144 191 249 298 356
#     4   9  18  39  59  85 120 155 195 242 300 356
#
# _framework density 19.483535
#
# number of rings (size 3 to 8) (size 9 to 14) (size 15 to 20)
#    1.200    1.200    0.000    2.400    0.000    5.600 
#    3.600    0.000    0.000    0.000    0.000    0.000 
#    0.000    0.000    0.000    0.000    0.000    0.000 
#
# Total GULP energy -247795.020727 kJ/mol
# GULP energy per Si atom -12389.751036 kJ/mol
# Density = 1.943919 g / cm^3
# Si number density = 19.483535 Si / 1000 Ang^3
#
#
#
# Elastic Constant Matrix: (Units=GPa)
#
#
# Indices 1 2 3 4 5 6 
#
# 1 119.1115 49.7384 39.3615 0.0000 -5.2525 0.0000
# 2 49.7384 100.4087 32.9804 0.0000 6.5185 0.0000
# 3 39.3615 32.9804 103.1054 0.0000 5.1131 0.0000
# 4 0.0000 0.0000 0.0000 22.3527 0.0000 -0.7676
# 5 -5.2525 6.5185 5.1131 0.0000 22.2244 0.0000
# 6 0.0000 0.0000 0.0000 -0.7676 0.0000 12.6046
#
#
#
# Elastic Compliance Matrix: (Units=1/GPa)
#
#
# Indices 1 2 3 4 5 6 
#
# 1 0.011791 -0.005147 -0.003104 0.000000 0.005010 0.000000
# 2 -0.005147 0.013511 -0.002124 0.000000 -0.004690 0.000000
# 3 -0.003104 -0.002124 0.011702 0.000000 -0.002803 0.000000
# 4 0.000000 0.000000 0.000000 0.044831 0.000000 0.002730
# 5 0.005010 -0.004690 -0.002803 0.000000 0.048200 0.000000
# 6 0.000000 0.000000 0.000000 0.002730 0.000000 0.079502
#
#
# Mechanical properties :
#
#
# Convention : Reuss Voigt Hill
#
# Bulk Modulus (GPa) = 61.51944 62.97625 62.24784
# Shear Modulus (GPa) = 21.21287 24.80602 23.00945
#
# Velocity S-wave (km/s) = 3.30321 3.57203 3.44025
# Velocity P-wave (km/s) = 6.79647 7.02891 6.91366
#
# Compressibility (1/GPa) = 0.01625502
#
# Stress axis : x y z
#
# Youngs Moduli (GPa) = 84.80891 74.01346 85.45448
#
# Poissons Ratio (x) = 0.38093 0.26521
# Poissons Ratio (y) = 0.43649 0.18154
# Poissons Ratio (z) = 0.26321 0.15723
#
# Static dielectric constant tensor:
#      x y z
#    x 3.694170 0.000000 0.217580 
#    y 0.000000 3.196220 0.000000 
#    z 0.217580 0.000000 3.370910 
# 
# 
# High freq. dielectric constant tensor:
#      x y z
#    x 1.768490 0.000000 0.012940 
#    y 0.000000 1.724930 0.000000 
#    z 0.012940 0.000000 1.742380 
# 
# From -- ./inp_files/2152.got.cif
#   From: 2010.06.25/outbox.cif.g09.slc.cpg/sg11_2_cif.got.tgz:2152.got - 2010.06.27 23:14:04.
