data_PCOD8077342
_publ_section_title
;
Structure prediction by ZEFSAII (Michael W. Deem and Ramdas Pophale) SiO2 
 PCOD8077342
Probable space group: P 21/M
;
_chemical_formula_sum "Si O2"
_cell_formula_units_Z 28
_cell_length_a 8.457968
_cell_length_b 14.746345
_cell_length_c 19.150206
_cell_angle_alpha 90.000000
_cell_angle_beta 32.520780
_cell_angle_gamma 90.000000
_cell_volume 1284.066583
_symmetry_space_group_name_H-M "P 21/M"
_symmetry_group_IT_number 11
_symmetry_cell_setting 'monoclinic'
loop_
_space_group_symop_operation_xyz
x,y,z
-x,1/2+y,-z
-x,-y,-z
x,1/2-y,z
loop_
_atom_site_type_symbol
_atom_site_label
_atom_site_fract_x
_atom_site_fract_y
_atom_site_fract_z
Si Si1 0.073548 0.149087 0.977046
Si Si2 0.559685 0.580722 0.767368
Si Si3 0.452324 0.985136 0.598389
Si Si4 0.511743 0.140884 0.940043
Si Si5 0.472543 0.599784 0.303387
Si Si6 0.826293 0.845494 0.537342
Si Si7 0.185230 0.044391 0.183530
O O1 0.954052 0.250000 0.032622
O O2 0.282276 0.121561 0.963538
O O3 0.251440 0.147073 0.837692
O O4 0.785506 0.085916 0.083086
O O5 0.612052 0.488174 0.708138
O O6 0.671732 0.655316 0.671085
O O7 0.765948 0.584390 0.757926
O O8 0.441665 0.077040 0.648361
O O9 0.500000 0.000000 0.500000
O O10 0.719505 0.924739 0.526740
O O11 0.141101 0.934947 0.722455
O O12 0.602773 0.250000 0.907891
O O13 0.769780 0.066147 0.831589
O O14 0.386918 0.107338 0.060052
O O15 0.178532 0.658647 0.413864
O O16 0.736223 0.750000 0.535946
#
# Coordination Sequence:
#
# PCOD8077342 Si02
#       7
#     4   4   4   4   4   4   4
#     4  11  23  40  64  96 129 168 221 278 326 382
#     4  11  22  40  67  93 128 172 221 264 327 402
#     4  11  24  43  66  94 128 176 215 264 332 407
#     4  10  23  40  62  92 133 174 216 269 332 398
#     4  11  22  41  68  92 125 169 221 271 322 395
#     4  11  24  44  68  95 127 172 225 279 328 389
#     4  11  23  40  65  96 133 176 215 264 337 399
#
# _framework density 21.805723
#
# number of rings (size 3 to 8) (size 9 to 14) (size 15 to 20)
#    0.000    1.143    1.429    6.429    4.000    2.857 
#    0.000    3.571    0.000    0.000    0.000    0.000 
#    0.000    0.000    0.000    0.000    0.000    0.000 
#
# Total GULP energy -346962.719690 kJ/mol
# GULP energy per Si atom -12391.525703 kJ/mol
# Density = 2.175609 g / cm^3
# Si number density = 21.805723 Si / 1000 Ang^3
#
#
#
# Elastic Constant Matrix: (Units=GPa)
#
#
# Indices 1 2 3 4 5 6 
#
# 1 118.2196 26.1886 34.2975 0.0000 17.1486 0.0000
# 2 26.1886 83.3434 18.3907 0.0000 7.8091 0.0000
# 3 34.2975 18.3907 117.8731 0.0000 1.3602 0.0000
# 4 0.0000 0.0000 0.0000 5.0211 0.0000 -8.4235
# 5 17.1486 7.8091 1.3602 0.0000 43.1166 0.0000
# 6 0.0000 0.0000 0.0000 -8.4235 0.0000 -9.2465
#
#
#
# Elastic Compliance Matrix: (Units=1/GPa)
#
#
# Indices 1 2 3 4 5 6 
#
# 1 0.010237 -0.002314 -0.002576 0.000000 -0.003571 0.000000
# 2 -0.002314 0.013159 -0.001364 0.000000 -0.001420 0.000000
# 3 -0.002576 -0.001364 0.009435 0.000000 0.000974 0.000000
# 4 0.000000 0.000000 0.000000 0.078772 0.000000 -0.071761
# 5 -0.003571 -0.001420 0.000974 0.000000 0.024840 0.000000
# 6 0.000000 0.000000 0.000000 -0.071761 0.000000 -0.042776
#
#
# Mechanical properties :
#
#
# Convention : Reuss Voigt Hill
#
# Bulk Modulus (GPa) = 49.20278 53.02105 51.11192
# Shear Modulus (GPa) = 44.26780 23.81555 34.04168
#
# Velocity S-wave (km/s) = 4.51055 3.30838 3.95541
# Velocity P-wave (km/s) = 7.05265 6.24194 6.65965
#
# Compressibility (1/GPa) = 0.02032405
#
# Stress axis : x y z
#
# Youngs Moduli (GPa) = 97.68657 75.99077 105.98975
#
# Poissons Ratio (x) = 0.17581 0.27308
# Poissons Ratio (y) = 0.22600 0.14453
# Poissons Ratio (z) = 0.25168 0.10362
#
# Static dielectric constant tensor:
#      x y z
#    x 4.045190 0.000000 0.055700 
#    y 0.000000 3.897310 0.000000 
#    z 0.055700 0.000000 4.255750 
# 
# 
# High freq. dielectric constant tensor:
#      x y z
#    x 1.857320 0.000000 0.007230 
#    y 0.000000 1.849400 0.000000 
#    z 0.007230 0.000000 1.865740 
# 
# From -- ./inp_files/63870.got.cif
#   From: 2010.06.25/outbox.cif.g09.slc.cpg/sg11_32_cif.got.tgz:63870.got - 2010.06.27 23:14:04.
