data_PCOD8077724
_publ_section_title
;
Structure prediction by ZEFSAII (Michael W. Deem and Ramdas Pophale) SiO2 
 PCOD8077724
Probable space group: P 21/M
;
_chemical_formula_sum "Si O2"
_cell_formula_units_Z 28
_cell_length_a 9.884388
_cell_length_b 8.799163
_cell_length_c 28.033134
_cell_angle_alpha 90.000000
_cell_angle_beta 142.618573
_cell_angle_gamma 90.000000
_cell_volume 1480.253571
_symmetry_space_group_name_H-M "P 21/M"
_symmetry_group_IT_number 11
_symmetry_cell_setting 'monoclinic'
loop_
_space_group_symop_operation_xyz
x,y,z
-x,1/2+y,-z
-x,-y,-z
x,1/2-y,z
loop_
_atom_site_type_symbol
_atom_site_label
_atom_site_fract_x
_atom_site_fract_y
_atom_site_fract_z
Si Si1 0.845357 0.929952 0.497657
Si Si2 0.219106 0.929008 0.041038
Si Si3 0.034873 0.578392 0.807390
Si Si4 0.347082 0.924183 0.806049
Si Si5 0.941413 0.930590 0.631131
Si Si6 0.275318 0.428440 0.955311
Si Si7 0.372754 0.072052 0.373524
O O1 0.865743 0.750000 0.500022
O O2 0.921391 0.989114 0.571330
O O3 0.590422 0.978546 0.420034
O O4 0.000000 0.000000 0.500000
O O5 0.203571 0.750000 0.036449
O O6 0.429965 0.976828 0.132411
O O7 0.227743 0.991872 0.990945
O O8 0.000000 0.000000 0.000000
O O9 0.028444 0.750000 0.825419
O O10 0.236217 0.561594 0.826705
O O11 0.075164 0.463546 0.862295
O O12 0.802242 0.537929 0.717361
O O13 0.409043 0.750000 0.812219
O O14 0.175724 0.989762 0.718293
O O15 0.942247 0.750000 0.634980
O O16 0.733057 0.986170 0.605686
O O17 0.301028 0.250000 0.969851
O O18 0.500000 0.500000 0.000000
O O19 0.431783 0.250000 0.392925
#
# Coordination Sequence:
#
# PCOD8077724 Si02
#       7
#     4   4   4   4   4   4   4
#     4  11  22  37  56  82 117 155 191 232 283 342
#     4  12  25  41  59  84 117 156 197 242 294 347
#     4   9  18  34  59  88 116 147 189 238 291 342
#     4   9  17  35  61  85 112 147 191 242 289 342
#     4   8  17  35  61  87 110 145 190 234 285 341
#     4  12  23  37  60  88 119 154 195 241 288 343
#     4   9  18  36  61  87 113 145 187 236 287 343
#
# _framework density 18.915676999999999
#
# number of rings (size 3 to 8) (size 9 to 14) (size 15 to 20)
#    0.000    2.000    1.429    5.143    0.000    0.571 
#    2.571    4.286    0.000    0.000    0.000    0.000 
#    0.000    0.000    0.000    0.000    0.000    0.000 
#
# Total GULP energy -347163.247451 kJ/mol
# GULP energy per Si atom -12398.687409 kJ/mol
# Density = 1.887262 g / cm^3
# Si number density = 18.915677 Si / 1000 Ang^3
#
#
#
# Elastic Constant Matrix: (Units=GPa)
#
#
# Indices 1 2 3 4 5 6 
#
# 1 133.5045 48.2754 72.7523 0.0000 13.6970 0.0000
# 2 48.2754 102.2187 49.1180 0.0000 11.6585 0.0000
# 3 72.7523 49.1180 128.9599 0.0000 11.1063 0.0000
# 4 0.0000 0.0000 0.0000 34.0271 0.0000 3.0532
# 5 13.6970 11.6585 11.1063 0.0000 25.0165 0.0000
# 6 0.0000 0.0000 0.0000 3.0532 0.0000 29.5323
#
#
#
# Elastic Compliance Matrix: (Units=1/GPa)
#
#
# Indices 1 2 3 4 5 6 
#
# 1 0.011620 -0.002614 -0.005320 0.000000 -0.002782 0.000000
# 2 -0.002614 0.012901 -0.003165 0.000000 -0.003176 0.000000
# 3 -0.005320 -0.003165 0.012044 0.000000 -0.000959 0.000000
# 4 0.000000 0.000000 0.000000 0.029664 0.000000 -0.003067
# 5 -0.002782 -0.003176 -0.000959 0.000000 0.043403 0.000000
# 6 0.000000 0.000000 0.000000 -0.003067 0.000000 0.034178
#
#
# Mechanical properties :
#
#
# Convention : Reuss Voigt Hill
#
# Bulk Modulus (GPa) = 69.61166 78.33053 73.97109
# Shear Modulus (GPa) = 29.27442 30.68434 29.97938
#
# Velocity S-wave (km/s) = 3.93826 4.03198 3.98539
# Velocity P-wave (km/s) = 7.58688 7.94834 7.76971
#
# Compressibility (1/GPa) = 0.01436541
#
# Stress axis : x y z
#
# Youngs Moduli (GPa) = 86.05573 77.51485 83.02906
#
# Poissons Ratio (x) = 0.20264 0.44174
# Poissons Ratio (y) = 0.22497 0.26281
# Poissons Ratio (z) = 0.45784 0.24536
#
# Static dielectric constant tensor:
#      x y z
#    x 3.372260 0.000000 -0.095490 
#    y 0.000000 3.527920 0.000000 
#    z -0.095490 0.000000 3.753310 
# 
# 
# High freq. dielectric constant tensor:
#      x y z
#    x 1.723060 0.000000 -0.001640 
#    y 0.000000 1.721990 0.000000 
#    z -0.001640 0.000000 1.751490 
# 
# From -- ./inp_files/70912.got.cif
#   From: 2010.06.25/outbox.cif.g09.slc.cpg/sg11_36_cif.got.tgz:70912.got - 2010.06.27 23:14:04.
