data_PCOD8077077
_publ_section_title
;
Structure prediction by ZEFSAII (Michael W. Deem and Ramdas Pophale) SiO2 
 PCOD8077077
Probable space group: P 21/M
;
_chemical_formula_sum "Si O2"
_cell_formula_units_Z 32
_cell_length_a 6.838569
_cell_length_b 16.358512
_cell_length_c 13.884547
_cell_angle_alpha 90.000000
_cell_angle_beta 89.634825
_cell_angle_gamma 90.000000
_cell_volume 1553.216245
_symmetry_space_group_name_H-M "P 21/M"
_symmetry_group_IT_number 11
_symmetry_cell_setting 'monoclinic'
loop_
_space_group_symop_operation_xyz
x,y,z
-x,1/2+y,-z
-x,-y,-z
x,1/2-y,z
loop_
_atom_site_type_symbol
_atom_site_label
_atom_site_fract_x
_atom_site_fract_y
_atom_site_fract_z
Si Si1 0.503041 0.947318 0.352051
Si Si2 0.684336 0.155977 0.811517
Si Si3 0.096592 0.153869 0.323824
Si Si4 0.254057 0.924840 0.761344
Si Si5 0.982598 0.538893 0.106211
Si Si6 0.792766 0.957423 0.515980
Si Si7 0.329133 0.158479 0.951238
Si Si8 0.610551 0.845233 0.839158
O O1 0.420224 0.872023 0.288386
O O2 0.692375 0.926384 0.417422
O O3 0.579101 0.016641 0.280265
O O4 0.334593 0.977436 0.424157
O O5 0.766050 0.250000 0.796154
O O6 0.537297 0.159172 0.900420
O O7 0.834741 0.085751 0.845789
O O8 0.094892 0.250000 0.321283
O O9 0.873317 0.121550 0.318730
O O10 0.184049 0.125605 0.424498
O O11 0.237533 0.118139 0.239044
O O12 0.381340 0.859451 0.819476
O O13 0.088638 0.966144 0.826357
O O14 0.816705 0.607000 0.112107
O O15 0.000000 0.500000 0.000000
O O16 0.000000 0.000000 0.500000
O O17 0.245055 0.250000 0.960134
O O18 0.343072 0.116009 0.056614
O O19 0.644014 0.750000 0.846052
#
# Coordination Sequence:
#
# PCOD8077077 Si02
#       8
#     4   4   4   4   4   4   4   4
#     4  11  24  41  69  94 121 166 218 264 330 384
#     4  11  25  45  65  93 134 176 221 272 324 385
#     4  11  23  40  64  95 130 168 210 263 329 388
#     4  12  22  38  64  93 130 162 213 261 319 384
#     4  12  25  37  64  97 129 173 220 266 315 386
#     4  11  23  44  68  95 126 164 211 278 329 388
#     4  10  22  41  62  90 129 173 214 261 319 377
#     4  10  22  39  62  93 133 171 210 262 319 383
#
# _framework density 20.602412999999999
#
# number of rings (size 3 to 8) (size 9 to 14) (size 15 to 20)
#    0.000    1.000    3.750    3.000    1.750    1.500 
#    0.000    5.625    0.000    0.000    0.000    0.000 
#    0.000    0.000    0.000    0.000    0.000    0.000 
#
# Total GULP energy -396600.822992 kJ/mol
# GULP energy per Si atom -12393.775718 kJ/mol
# Density = 2.055552 g / cm^3
# Si number density = 20.602413 Si / 1000 Ang^3
#
#
#
# Elastic Constant Matrix: (Units=GPa)
#
#
# Indices 1 2 3 4 5 6 
#
# 1 102.8957 33.4600 26.5352 0.0000 11.1416 0.0000
# 2 33.4600 55.2456 21.3578 0.0000 3.4273 0.0000
# 3 26.5352 21.3578 95.2583 0.0000 10.0177 0.0000
# 4 0.0000 0.0000 0.0000 26.8442 0.0000 -1.0669
# 5 11.1416 3.4273 10.0177 0.0000 40.2274 0.0000
# 6 0.0000 0.0000 0.0000 -1.0669 0.0000 32.5384
#
#
#
# Elastic Compliance Matrix: (Units=1/GPa)
#
#
# Indices 1 2 3 4 5 6 
#
# 1 0.012660 -0.006844 -0.001730 0.000000 -0.002493 0.000000
# 2 -0.006844 0.023533 -0.003449 0.000000 0.000749 0.000000
# 3 -0.001730 -0.003449 0.011985 0.000000 -0.002212 0.000000
# 4 0.000000 0.000000 0.000000 0.037301 0.000000 0.001223
# 5 -0.002493 0.000749 -0.002212 0.000000 0.026036 0.000000
# 6 0.000000 0.000000 0.000000 0.001223 0.000000 0.030773
#
#
# Mechanical properties :
#
#
# Convention : Reuss Voigt Hill
#
# Bulk Modulus (GPa) = 41.43707 46.23395 43.83551
# Shear Modulus (GPa) = 28.67323 31.39176 30.03250
#
# Velocity S-wave (km/s) = 3.73465 3.90769 3.82215
# Velocity P-wave (km/s) = 6.22521 6.54597 6.38761
#
# Compressibility (1/GPa) = 0.02413298
#
# Stress axis : x y z
#
# Youngs Moduli (GPa) = 78.98718 42.49340 83.43432
#
# Poissons Ratio (x) = 0.29084 0.14434
# Poissons Ratio (y) = 0.54062 0.28773
# Poissons Ratio (z) = 0.13664 0.14654
#
# Static dielectric constant tensor:
#      x y z
#    x 6.059060 0.000000 1.874370 
#    y 0.000000 3.826080 0.000000 
#    z 1.874370 0.000000 5.415660 
# 
# 
# High freq. dielectric constant tensor:
#      x y z
#    x 1.817170 0.000000 0.006230 
#    y 0.000000 1.799960 0.000000 
#    z 0.006230 0.000000 1.810450 
# 
# From -- ./inp_files/6686.got.cif
#   From: 2010.06.25/outbox.cif.g09.slc.cpg/sg11_4_cif.got.tgz:6686.got - 2010.06.27 23:14:04.
