data_PCOD8077238
_publ_section_title
;
Structure prediction by ZEFSAII (Michael W. Deem and Ramdas Pophale) SiO2 
 PCOD8077238
Probable space group: P 21/M
;
_chemical_formula_sum "Si O2"
_cell_formula_units_Z 32
_cell_length_a 14.399247
_cell_length_b 18.385663
_cell_length_c 11.489416
_cell_angle_alpha 90.000000
_cell_angle_beta 150.258451
_cell_angle_gamma 90.000000
_cell_volume 1508.954481
_symmetry_space_group_name_H-M "P 21/M"
_symmetry_group_IT_number 11
_symmetry_cell_setting 'monoclinic'
loop_
_space_group_symop_operation_xyz
x,y,z
-x,1/2+y,-z
-x,-y,-z
x,1/2-y,z
loop_
_atom_site_type_symbol
_atom_site_label
_atom_site_fract_x
_atom_site_fract_y
_atom_site_fract_z
Si Si1 0.637640 0.390271 0.346897
Si Si2 0.262045 0.109777 0.828435
Si Si3 0.781088 0.666454 0.796120
Si Si4 0.950166 0.166289 0.343518
Si Si5 0.891228 0.166350 0.009220
Si Si6 0.020335 0.168413 0.761558
Si Si7 0.801474 0.462708 0.312819
Si Si8 0.570109 0.421296 0.539946
O O1 0.795721 0.328507 0.531451
O O2 0.737493 0.453115 0.377318
O O3 0.581024 0.420119 0.411887
O O4 0.453465 0.353952 0.084863
O O5 0.169080 0.144988 0.610565
O O6 0.088664 0.117109 0.730729
O O7 0.330908 0.025861 0.885924
O O8 0.747764 0.750000 0.783899
O O9 0.579229 0.632384 0.566598
O O10 0.899138 0.652468 0.808452
O O11 0.894257 0.633915 0.028851
O O12 0.916930 0.250000 0.344323
O O13 0.798251 0.116002 0.246135
O O14 0.904356 0.153435 0.159875
O O15 0.828164 0.250000 0.911145
O O16 0.762234 0.105393 0.808213
O O17 0.091541 0.250000 0.814093
O O18 0.000000 0.500000 0.500000
O O19 0.500000 0.500000 0.500000
#
# Coordination Sequence:
#
# PCOD8077238 Si02
#       8
#     4   4   4   4   4   4   4   4
#     4  12  24  42  66 100 131 172 222 265 341 382
#     4  11  23  42  66  95 133 171 217 270 331 390
#     4  10  22  44  67  93 130 174 216 267 333 392
#     4  10  22  42  65  96 132 174 224 269 323 396
#     4  10  23  45  69  91 131 182 220 266 334 399
#     4  11  22  39  67  99 132 166 215 274 328 390
#     4  10  22  41  67  89 129 179 212 270 329 392
#     4  12  27  42  66 104 134 167 225 282 328 401
#
# _framework density 21.206735999999999
#
# number of rings (size 3 to 8) (size 9 to 14) (size 15 to 20)
#    0.000    1.250    5.000    1.125    1.750    4.000 
#    2.250    0.000    0.000    0.000    0.000    0.000 
#    0.000    0.000    0.000    0.000    0.000    0.000 
#
# Total GULP energy -396473.162723 kJ/mol
# GULP energy per Si atom -12389.786335 kJ/mol
# Density = 2.115847 g / cm^3
# Si number density = 21.206736 Si / 1000 Ang^3
#
#
#
# Elastic Constant Matrix: (Units=GPa)
#
#
# Indices 1 2 3 4 5 6 
#
# 1 110.6235 52.1455 23.0569 0.0000 -3.7369 0.0000
# 2 52.1455 99.8959 17.5264 0.0000 -7.3719 0.0000
# 3 23.0569 17.5264 87.3456 0.0000 3.4972 0.0000
# 4 0.0000 0.0000 0.0000 25.0453 0.0000 3.3912
# 5 -3.7369 -7.3719 3.4972 0.0000 34.5225 0.0000
# 6 0.0000 0.0000 0.0000 3.3912 0.0000 28.5763
#
#
#
# Elastic Compliance Matrix: (Units=1/GPa)
#
#
# Indices 1 2 3 4 5 6 
#
# 1 0.012331 -0.006059 -0.002049 0.000000 0.000249 0.000000
# 2 -0.006059 0.013561 -0.001216 0.000000 0.002363 0.000000
# 3 -0.002049 -0.001216 0.012303 0.000000 -0.001728 0.000000
# 4 0.000000 0.000000 0.000000 0.040580 0.000000 -0.004816
# 5 0.000249 0.002363 -0.001728 0.000000 0.029673 0.000000
# 6 0.000000 0.000000 0.000000 -0.004816 0.000000 0.035565
#
#
# Mechanical properties :
#
#
# Convention : Reuss Voigt Hill
#
# Bulk Modulus (GPa) = 51.16131 53.70252 52.43191
# Shear Modulus (GPa) = 29.55464 31.30457 30.42961
#
# Velocity S-wave (km/s) = 3.73720 3.84625 3.79212
# Velocity P-wave (km/s) = 6.54214 6.71589 6.62959
#
# Compressibility (1/GPa) = 0.01954602
#
# Stress axis : x y z
#
# Youngs Moduli (GPa) = 81.09452 73.74085 81.28119
#
# Poissons Ratio (x) = 0.44680 0.16657
# Poissons Ratio (y) = 0.49135 0.09886
# Poissons Ratio (z) = 0.16619 0.08969
#
# Static dielectric constant tensor:
#      x y z
#    x 3.789350 0.000000 0.126400 
#    y 0.000000 3.935090 0.000000 
#    z 0.126400 0.000000 3.542860 
# 
# 
# High freq. dielectric constant tensor:
#      x y z
#    x 1.837380 0.000000 -0.000690 
#    y 0.000000 1.823930 0.000000 
#    z -0.000690 0.000000 1.832000 
# 
# From -- ./inp_files/40015.got.cif
#   From: 2010.06.25/outbox.cif.g09.slc.cpg/sg11_21_cif.got.tgz:40015.got - 2010.06.27 23:14:04.
