data_PCOD8077550
_publ_section_title
;
Structure prediction by ZEFSAII (Michael W. Deem and Ramdas Pophale) SiO2 
 PCOD8077550
Probable space group: P 21/M
;
_chemical_formula_sum "Si O2"
_cell_formula_units_Z 32
_cell_length_a 20.853757
_cell_length_b 8.600382
_cell_length_c 14.419964
_cell_angle_alpha 90.000000
_cell_angle_beta 136.309698
_cell_angle_gamma 90.000000
_cell_volume 1786.460533
_symmetry_space_group_name_H-M "P 21/M"
_symmetry_group_IT_number 11
_symmetry_cell_setting 'monoclinic'
loop_
_space_group_symop_operation_xyz
x,y,z
-x,1/2+y,-z
-x,-y,-z
x,1/2-y,z
loop_
_atom_site_type_symbol
_atom_site_label
_atom_site_fract_x
_atom_site_fract_y
_atom_site_fract_z
Si Si1 0.951385 0.565358 0.646268
Si Si2 0.277785 0.065820 0.921069
Si Si3 0.661505 0.934196 0.354353
Si Si4 0.474497 0.565437 0.073479
Si Si5 0.098982 0.065437 0.073477
Si Si6 0.192847 0.434195 0.354351
Si Si7 0.143284 0.565820 0.921067
Si Si8 0.805118 0.565358 0.353733
O O1 0.952367 0.750000 0.651358
O O2 0.889501 0.500160 0.666417
O O3 0.904913 0.509549 0.500000
O O4 0.055947 0.502750 0.768679
O O5 0.279912 0.250000 0.926984
O O6 0.212733 0.002750 0.768681
O O7 0.237005 0.000006 0.974010
O O8 0.381334 0.005754 0.016433
O O9 0.666238 0.750000 0.355462
O O10 0.555387 0.987905 0.230177
O O11 0.707356 0.992494 0.500001
O O12 0.723084 0.999840 0.333584
O O13 0.466002 0.750000 0.057754
O O14 0.500000 0.500000 0.000000
O O15 0.091752 0.250000 0.057747
O O16 0.174790 0.012098 0.230175
O O17 0.135097 0.994235 0.016431
O O18 0.000000 0.000000 0.000000
O O19 0.189222 0.250000 0.355461
O O20 0.147079 0.750000 0.926980
O O21 0.801010 0.750000 0.348644
#
# Coordination Sequence:
#
# PCOD8077550 Si02
#       8
#     4   4   4   4   4   4   4   4
#     4   8  14  27  48  73 102 137 174 209 249 301
#     4  11  22  36  52  75 106 142 178 218 261 309
#     4   8  14  27  50  78 103 130 168 211 256 305
#     4  11  20  33  55  81 106 137 174 216 260 307
#     4  11  20  33  55  81 106 137 174 216 260 307
#     4   8  14  27  50  78 103 130 168 211 256 305
#     4  11  22  36  52  75 106 142 178 218 261 309
#     4   8  14  27  48  73 102 137 174 209 249 301
#
# _framework density 17.912514000000002
#
# number of rings (size 3 to 8) (size 9 to 14) (size 15 to 20)
#    0.000    2.500    2.500    3.000    0.000    0.500 
#    0.000    0.000    0.000    7.500    0.000    0.000 
#    0.000    0.000    0.000    0.000    0.000    0.000 
#
# Total GULP energy -396505.664350 kJ/mol
# GULP energy per Si atom -12390.802011 kJ/mol
# Density = 1.787174 g / cm^3
# Si number density = 17.912514 Si / 1000 Ang^3
#
#
#
# Elastic Constant Matrix: (Units=GPa)
#
#
# Indices 1 2 3 4 5 6 
#
# 1 128.8791 31.5311 78.6508 0.0000 1.3279 0.0000
# 2 31.5311 50.4077 36.1657 0.0000 -0.2194 0.0000
# 3 78.6508 36.1657 150.1397 0.0000 -2.3699 0.0000
# 4 0.0000 0.0000 0.0000 18.8396 0.0000 0.2791
# 5 1.3279 -0.2194 -2.3699 0.0000 12.3404 0.0000
# 6 0.0000 0.0000 0.0000 0.2791 0.0000 24.3683
#
#
#
# Elastic Compliance Matrix: (Units=1/GPa)
#
#
# Indices 1 2 3 4 5 6 
#
# 1 0.011992 -0.003600 -0.005453 0.000000 -0.002402 0.000000
# 2 -0.003600 0.025069 -0.004152 0.000000 0.000036 0.000000
# 3 -0.005453 -0.004152 0.010557 0.000000 0.002540 0.000000
# 4 0.000000 0.000000 0.000000 0.053089 0.000000 -0.000608
# 5 -0.002402 0.000036 0.002540 0.000000 0.081782 0.000000
# 6 0.000000 0.000000 0.000000 -0.000608 0.000000 0.041044
#
#
# Mechanical properties :
#
#
# Convention : Reuss Voigt Hill
#
# Bulk Modulus (GPa) = 47.15020 69.12462 58.13741
# Shear Modulus (GPa) = 19.45423 23.31491 21.38457
#
# Velocity S-wave (km/s) = 3.29913 3.61168 3.45894
# Velocity P-wave (km/s) = 6.39468 7.48774 6.96269
#
# Compressibility (1/GPa) = 0.02120882
#
# Stress axis : x y z
#
# Youngs Moduli (GPa) = 83.38561 39.88944 94.71999
#
# Poissons Ratio (x) = 0.14359 0.51652
# Poissons Ratio (y) = 0.30015 0.39332
# Poissons Ratio (z) = 0.45471 0.16564
#
# Static dielectric constant tensor:
#      x y z
#    x 3.160100 0.000000 -0.038010 
#    y 0.000000 2.981750 0.000000 
#    z -0.038010 0.000000 3.913360 
# 
# 
# High freq. dielectric constant tensor:
#      x y z
#    x 1.666870 0.000000 -0.002080 
#    y 0.000000 1.661090 0.000000 
#    z -0.002080 0.000000 1.708120 
# 
# From -- ./inp_files/54320.got.cif
#   From: 2010.06.25/outbox.cif.g09.slc.cpg/sg11_28_cif.got.tgz:54320.got - 2010.06.27 23:14:04.
