data_PCOD8077570
_publ_section_title
;
Structure prediction by ZEFSAII (Michael W. Deem and Ramdas Pophale) SiO2 
 PCOD8077570
Probable space group: P 21/M
;
_chemical_formula_sum "Si O2"
_cell_formula_units_Z 24
_cell_length_a 27.370258
_cell_length_b 9.673725
_cell_length_c 29.718198
_cell_angle_alpha 90.000000
_cell_angle_beta 170.719226
_cell_angle_gamma 90.000000
_cell_volume 1268.983178
_symmetry_space_group_name_H-M "P 21/M"
_symmetry_group_IT_number 11
_symmetry_cell_setting 'monoclinic'
loop_
_space_group_symop_operation_xyz
x,y,z
-x,1/2+y,-z
-x,-y,-z
x,1/2-y,z
loop_
_atom_site_type_symbol
_atom_site_label
_atom_site_fract_x
_atom_site_fract_y
_atom_site_fract_z
Si Si1 0.614588 0.250000 0.659726
Si Si2 0.684596 0.588731 0.039731
Si Si3 0.357696 0.584867 0.655130
Si Si4 0.717568 0.913699 0.895043
Si Si5 0.686689 0.418076 0.207793
Si Si6 0.331387 0.250000 0.304260
Si Si7 0.411976 0.983411 0.524649
O O1 0.475262 0.250000 0.483883
O O2 0.492562 0.371739 0.578375
O O3 0.973019 0.250000 0.981639
O O4 0.720097 0.750000 0.063398
O O5 0.018806 0.522919 0.346551
O O6 0.514729 0.522924 0.842473
O O7 0.499804 0.558784 0.916534
O O8 0.351243 0.750000 0.650832
O O9 0.537819 0.532075 0.775210
O O10 0.724213 0.750000 0.899470
O O11 0.551199 0.969236 0.700221
O O12 0.054658 0.969231 0.203683
O O13 0.726623 0.250000 0.234415
O O14 0.000000 0.500000 0.500000
O O15 0.500000 0.500000 0.000000
O O16 0.442251 0.380856 0.378170
#
# Coordination Sequence:
#
# PCOD8077570 Si02
#       7
#     2   4   4   4   4   2   4
#     4  12  26  40  58  86 108 156 184 220 276 344
#     4   9  17  31  50  82 117 146 189 244 292 337
#     4   9  17  29  52  82 113 141 181 242 294 333
#     4  11  20  36  58  88 113 143 184 236 292 331
#     4  11  22  37  59  90 124 166 207 254 308 363
#     4  12  22  42  60  82 116 140 190 230 280 324
#     4  12  23  39  60  84 115 144 184 233 278 336
#
# _framework density 18.912780999999999
#
# number of rings (size 3 to 8) (size 9 to 14) (size 15 to 20)
#    0.000    1.333    1.667    5.500    0.000    5.333 
#    0.000    0.000    0.000    0.000   43.333    0.000 
#    0.000    0.000    0.000    0.000    0.000    0.000 
#
# Total GULP energy -297521.623313 kJ/mol
# GULP energy per Si atom -12396.734305 kJ/mol
# Density = 1.886973 g / cm^3
# Si number density = 18.912781 Si / 1000 Ang^3
#
#
#
# Elastic Constant Matrix: (Units=GPa)
#
#
# Indices 1 2 3 4 5 6 
#
# 1 193.6670 57.2828 104.6674 0.0000 -15.9667 0.0000
# 2 57.2828 100.4909 51.4004 0.0000 4.3074 0.0000
# 3 104.6674 51.4004 221.8078 0.0000 -4.6379 0.0000
# 4 0.0000 0.0000 0.0000 20.0019 0.0000 -19.8993
# 5 -15.9667 4.3074 -4.6379 0.0000 47.1082 0.0000
# 6 0.0000 0.0000 0.0000 -19.8993 0.0000 -7.1894
#
#
#
# Elastic Compliance Matrix: (Units=1/GPa)
#
#
# Indices 1 2 3 4 5 6 
#
# 1 0.007897 -0.003107 -0.002951 0.000000 0.002670 0.000000
# 2 -0.003107 0.012591 -0.001501 0.000000 -0.002352 0.000000
# 3 -0.002951 -0.001501 0.006243 0.000000 -0.000248 0.000000
# 4 0.000000 0.000000 0.000000 0.013319 0.000000 -0.036865
# 5 0.002670 -0.002352 -0.000248 0.000000 0.022323 0.000000
# 6 0.000000 0.000000 0.000000 -0.036865 0.000000 -0.037055
#
#
# Mechanical properties :
#
#
# Convention : Reuss Voigt Hill
#
# Bulk Modulus (GPa) = 86.09944 104.74077 95.42010
# Shear Modulus (GPa) = 112.84918 32.15849 72.50384
#
# Velocity S-wave (km/s) = 7.73290 4.12801 6.19832
# Velocity P-wave (km/s) = 11.19614 8.84431 10.08899
#
# Compressibility (1/GPa) = 0.01161448
#
# Stress axis : x y z
#
# Youngs Moduli (GPa) = 126.62426 79.42429 160.16792
#
# Poissons Ratio (x) = 0.24676 0.47263
# Poissons Ratio (y) = 0.39340 0.24038
# Poissons Ratio (z) = 0.37365 0.11920
#
# Static dielectric constant tensor:
#      x y z
#    x 4.082000 0.000000 -0.680440 
#    y 0.000000 3.292370 0.000000 
#    z -0.680440 0.000000 5.011260 
# 
# 
# High freq. dielectric constant tensor:
#      x y z
#    x 1.758810 0.000000 -0.001980 
#    y 0.000000 1.697840 0.000000 
#    z -0.001980 0.000000 1.761500 
# 
# From -- ./inp_files/72307.got.cif
#   From: 2010.06.25/outbox.cif.g09.slc.cpg/sg11_37_cif.got.tgz:72307.got - 2010.06.27 23:14:04.
