data_PCOD8077643
_publ_section_title
;
Structure prediction by ZEFSAII (Michael W. Deem and Ramdas Pophale) SiO2 
 PCOD8077643
Probable space group: P 21/M
;
_chemical_formula_sum "Si O2"
_cell_formula_units_Z 32
_cell_length_a 9.922441
_cell_length_b 17.607072
_cell_length_c 11.972133
_cell_angle_alpha 90.000000
_cell_angle_beta 127.139515
_cell_angle_gamma 90.000000
_cell_volume 1667.350508
_symmetry_space_group_name_H-M "P 21/M"
_symmetry_group_IT_number 11
_symmetry_cell_setting 'monoclinic'
loop_
_space_group_symop_operation_xyz
x,y,z
-x,1/2+y,-z
-x,-y,-z
x,1/2-y,z
loop_
_atom_site_type_symbol
_atom_site_label
_atom_site_fract_x
_atom_site_fract_y
_atom_site_fract_z
Si Si1 0.009842 0.663532 0.125936
Si Si2 0.680051 0.164082 0.883275
Si Si3 0.207310 0.338101 0.172690
Si Si4 0.051048 0.419044 0.474903
Si Si5 0.463090 0.598675 0.578248
Si Si6 0.441629 0.073546 0.617112
Si Si7 0.898953 0.338969 0.592686
Si Si8 0.071790 0.659963 0.797380
O O1 0.962712 0.750000 0.128903
O O2 0.181745 0.656895 0.143557
O O3 0.032785 0.623526 0.257551
O O4 0.859677 0.624805 0.977646
O O5 0.610126 0.250000 0.854321
O O6 0.526523 0.108831 0.771008
O O7 0.761823 0.142037 0.044242
O O8 0.163107 0.250000 0.140636
O O9 0.404474 0.351655 0.285510
O O10 0.096123 0.367938 0.220771
O O11 0.241104 0.419034 0.526017
O O12 0.000000 0.500000 0.500000
O O13 0.034116 0.357193 0.564708
O O14 0.925202 0.391602 0.312636
O O15 0.493772 0.616268 0.462413
O O16 0.499610 0.512752 0.631664
O O17 0.278299 0.621893 0.525697
O O18 0.867256 0.250000 0.588186
O O19 0.064533 0.750000 0.764248
#
# Coordination Sequence:
#
# PCOD8077643 Si02
#       8
#     4   4   4   4   4   4   4   4
#     4   8  16  33  56  87 117 143 185 242 298 343
#     4   9  18  36  63  89 114 145 196 257 295 339
#     4   9  17  33  60  89 115 143 191 252 295 342
#     4  12  24  42  57  83 125 161 194 240 294 363
#     4  11  21  37  57  88 121 150 196 250 291 346
#     4  11  23  38  58  86 121 155 198 243 297 350
#     4  11  22  38  61  86 118 159 194 236 298 354
#     4   9  19  38  62  88 115 152 198 243 296 352
#
# _framework density 19.192125000000001
#
# number of rings (size 3 to 8) (size 9 to 14) (size 15 to 20)
#    0.000    2.000    3.750    2.250    0.000    1.500 
#    2.250    3.125    0.000    3.000    0.000    0.000 
#    0.000    0.000    0.000    0.000    0.000    0.000 
#
# Total GULP energy -396649.346420 kJ/mol
# GULP energy per Si atom -12395.292076 kJ/mol
# Density = 1.914844 g / cm^3
# Si number density = 19.192125 Si / 1000 Ang^3
#
#
#
# Elastic Constant Matrix: (Units=GPa)
#
#
# Indices 1 2 3 4 5 6 
#
# 1 58.7215 17.7817 30.5410 0.0000 -8.4532 0.0000
# 2 17.7817 52.8436 49.6205 0.0000 -9.6730 0.0000
# 3 30.5410 49.6205 145.7666 0.0000 -15.5133 0.0000
# 4 0.0000 0.0000 0.0000 19.7115 0.0000 -1.4741
# 5 -8.4532 -9.6730 -15.5133 0.0000 27.6602 0.0000
# 6 0.0000 0.0000 0.0000 -1.4741 0.0000 26.9457
#
#
#
# Elastic Compliance Matrix: (Units=1/GPa)
#
#
# Indices 1 2 3 4 5 6 
#
# 1 0.019968 -0.003690 -0.002569 0.000000 0.003371 0.000000
# 2 -0.003690 0.029082 -0.008683 0.000000 0.004173 0.000000
# 3 -0.002569 -0.008683 0.010579 0.000000 0.002112 0.000000
# 4 0.000000 0.000000 0.000000 0.050940 0.000000 0.002787
# 5 0.003371 0.004173 0.002112 0.000000 0.039827 0.000000
# 6 0.000000 0.000000 0.000000 0.002787 0.000000 0.037264
#
#
# Mechanical properties :
#
#
# Convention : Reuss Voigt Hill
#
# Bulk Modulus (GPa) = 33.61740 50.35759 41.98749
# Shear Modulus (GPa) = 21.98192 25.48938 23.73565
#
# Velocity S-wave (km/s) = 3.38799 3.64829 3.52055
# Velocity P-wave (km/s) = 5.73227 6.63644 6.20086
#
# Compressibility (1/GPa) = 0.02974650
#
# Stress axis : x y z
#
# Youngs Moduli (GPa) = 50.07941 34.38503 94.52730
#
# Poissons Ratio (x) = 0.12688 0.24283
# Poissons Ratio (y) = 0.18479 0.82076
# Poissons Ratio (z) = 0.12865 0.29856
#
# Static dielectric constant tensor:
#      x y z
#    x 3.296530 0.000000 -0.162950 
#    y 0.000000 3.329370 0.000000 
#    z -0.162950 0.000000 3.742360 
# 
# 
# High freq. dielectric constant tensor:
#      x y z
#    x 1.721720 0.000000 -0.005780 
#    y 0.000000 1.727600 0.000000 
#    z -0.005780 0.000000 1.761990 
# 
# From -- ./inp_files/32855.got.cif
#   From: 2010.06.25/outbox.cif.g09.slc.cpg/sg11_17_cif.got.tgz:32855.got - 2010.06.27 23:14:04.
