data_PCOD8077225
_publ_section_title
;
Structure prediction by ZEFSAII (Michael W. Deem and Ramdas Pophale) SiO2 
 PCOD8077225
Probable space group: P 21/M
;
_chemical_formula_sum "Si O2"
_cell_formula_units_Z 16
_cell_length_a 7.334000
_cell_length_b 17.390730
_cell_length_c 7.087019
_cell_angle_alpha 90.000000
_cell_angle_beta 42.008463
_cell_angle_gamma 90.000000
_cell_volume 604.929054
_symmetry_space_group_name_H-M "P 21/M"
_symmetry_group_IT_number 11
_symmetry_cell_setting 'monoclinic'
loop_
_space_group_symop_operation_xyz
x,y,z
-x,1/2+y,-z
-x,-y,-z
x,1/2-y,z
loop_
_atom_site_type_symbol
_atom_site_label
_atom_site_fract_x
_atom_site_fract_y
_atom_site_fract_z
Si Si1 0.295648 0.967790 0.811384
Si Si2 0.032831 0.162029 0.561353
Si Si3 0.538151 0.587702 0.048867
Si Si4 0.546952 0.836262 0.447507
O O1 0.317371 0.876254 0.759532
O O2 0.500000 0.000000 0.500000
O O3 0.413482 0.994586 0.930298
O O4 0.000000 0.000000 0.000000
O O5 0.977450 0.250000 0.539007
O O6 0.165229 0.159743 0.665818
O O7 0.758917 0.112999 0.794293
O O8 0.224045 0.119676 0.264544
O O9 0.589194 0.624376 0.214590
O O10 0.442271 0.750000 0.499646
#
# Coordination Sequence:
#
# PCOD8077225 Si02
#       4
#     4   4   4   4
#     4  10  22  41  65  94 124 164 215 256 310 383
#     4  11  24  40  64  98 127 166 219 255 309 386
#     4  11  23  42  66  92 130 169 207 264 317 367
#     4  10  23  43  67  94 129 168 209 264 318 370
#
# _framework density 26.449382
#
# number of rings (size 3 to 8) (size 9 to 14) (size 15 to 20)
#    0.000    1.500    0.000    5.250    0.000    8.000 
#    0.000   13.750    0.000    0.000    0.000    0.000 
#    0.000    0.000    0.000    0.000    0.000    0.000 
#
# Total GULP energy -198409.941915 kJ/mol
# GULP energy per Si atom -12400.621370 kJ/mol
# Density = 2.638918 g / cm^3
# Si number density = 26.449382 Si / 1000 Ang^3
#
#
#
# Elastic Constant Matrix: (Units=GPa)
#
#
# Indices 1 2 3 4 5 6 
#
# 1 120.4688 6.3541 40.0111 0.0000 -5.1037 0.0000
# 2 6.3541 185.6719 84.6651 0.0000 -3.9926 0.0000
# 3 40.0111 84.6651 148.8555 0.0000 -16.5705 0.0000
# 4 0.0000 0.0000 0.0000 46.0383 0.0000 -3.5129
# 5 -5.1037 -3.9926 -16.5705 0.0000 49.9318 0.0000
# 6 0.0000 0.0000 0.0000 -3.5129 0.0000 28.8303
#
#
#
# Elastic Compliance Matrix: (Units=1/GPa)
#
#
# Indices 1 2 3 4 5 6 
#
# 1 0.009280 0.001107 -0.003124 0.000000 0.000000 0.000000
# 2 0.001107 0.007436 -0.004619 0.000000 -0.000825 0.000000
# 3 -0.003124 -0.004619 0.010496 0.000000 0.002795 0.000000
# 4 0.000000 0.000000 0.000000 0.021925 0.000000 0.002672
# 5 0.000000 -0.000825 0.002795 0.000000 0.020889 0.000000
# 6 0.000000 0.000000 0.000000 0.002672 0.000000 0.035011
#
#
# Mechanical properties :
#
#
# Convention : Reuss Voigt Hill
#
# Bulk Modulus (GPa) = 71.73452 79.67296 75.70374
# Shear Modulus (GPa) = 40.66481 46.55780 43.61131
#
# Velocity S-wave (km/s) = 3.92530 4.20010 4.06502
# Velocity P-wave (km/s) = 6.90827 7.32866 7.12157
#
# Compressibility (1/GPa) = 0.01394029
#
# Stress axis : x y z
#
# Youngs Moduli (GPa) = 107.75756 134.47223 95.27521
#
# Poissons Ratio (x) = -0.14885 0.29764
# Poissons Ratio (y) = -0.11928 0.44008
# Poissons Ratio (z) = 0.33663 0.62114
#
# Static dielectric constant tensor:
#      x y z
#    x 5.501820 0.000000 0.300990 
#    y 0.000000 6.439700 0.000000 
#    z 0.300990 0.000000 4.770600 
# 
# 
# High freq. dielectric constant tensor:
#      x y z
#    x 2.104360 0.000000 0.023520 
#    y 0.000000 2.100570 0.000000 
#    z 0.023520 0.000000 2.066770 
# 
# From -- ./inp_files/2088.got.cif
#   From: 2010.06.25/outbox.cif.g09.slc.cpg/sg11_2_cif.got.tgz:2088.got - 2010.06.27 23:14:04.
