data_PCOD8077934
_publ_section_title
;
Structure prediction by ZEFSAII (Michael W. Deem and Ramdas Pophale) SiO2 
 PCOD8077934
Probable space group: P 21/M
;
_chemical_formula_sum "Si O2"
_cell_formula_units_Z 32
_cell_length_a 18.210314
_cell_length_b 9.920089
_cell_length_c 21.404386
_cell_angle_alpha 90.000000
_cell_angle_beta 31.703956
_cell_angle_gamma 90.000000
_cell_volume 2032.046379
_symmetry_space_group_name_H-M "P 21/M"
_symmetry_group_IT_number 11
_symmetry_cell_setting 'monoclinic'
loop_
_space_group_symop_operation_xyz
x,y,z
-x,1/2+y,-z
-x,-y,-z
x,1/2-y,z
loop_
_atom_site_type_symbol
_atom_site_label
_atom_site_fract_x
_atom_site_fract_y
_atom_site_fract_z
Si Si1 0.931576 0.090038 0.737353
Si Si2 0.367003 0.408688 0.607963
Si Si3 0.626828 0.100460 0.976602
Si Si4 0.080033 0.600460 0.023398
Si Si5 0.201590 0.397634 0.849709
Si Si6 0.093717 0.090038 0.737353
Si Si7 0.917071 0.091312 0.607963
Si Si8 0.598991 0.397634 0.849709
O O1 0.917464 0.250000 0.745593
O O2 0.782162 0.036923 0.871292
O O3 0.963028 0.041643 0.644180
O O4 0.054245 0.041793 0.695755
O O5 0.500000 0.500000 0.500000
O O6 0.401302 0.250000 0.574416
O O7 0.314922 0.439259 0.715716
O O8 0.248613 0.458357 0.644180
O O9 0.616528 0.250000 0.014138
O O10 0.592263 0.110299 0.928889
O O11 0.514729 0.005071 0.092867
O O12 0.144805 0.750000 0.985862
O O13 0.950040 0.610299 0.071111
O O14 0.024746 0.536923 0.128708
O O15 0.200463 0.505071 0.907133
O O16 0.239634 0.250000 0.849334
O O17 0.091351 0.250000 0.745592
O O18 0.949866 0.250000 0.574416
O O19 0.753646 0.060741 0.715716
O O20 0.000000 0.000000 0.500000
O O21 0.561699 0.250000 0.849334
#
# Coordination Sequence:
#
# PCOD8077934 Si02
#       8
#     4   4   4   4   4   4   4   4
#     4   8  14  26  44  64  85 108 136 175 220 258
#     4   9  17  28  43  63  85 112 146 180 213 249
#     4   8  13  22  39  61  79  98 127 160 197 243
#     4   8  13  22  39  61  79  98 127 160 197 243
#     4   8  14  24  37  56  82 105 125 157 202 244
#     4   8  14  26  44  64  85 108 136 175 220 258
#     4   9  17  28  43  63  85 112 146 180 213 249
#     4   8  14  24  37  56  82 105 125 157 202 244
#
# _framework density 15.747673000000001
#
# number of rings (size 3 to 8) (size 9 to 14) (size 15 to 20)
#    0.000    3.750    0.000    3.000    0.000    1.000 
#    0.000    3.750    0.000    4.500    0.000   10.500 
#    0.000    0.000    0.000    0.000    0.000    0.000 
#
# Total GULP energy -396444.751589 kJ/mol
# GULP energy per Si atom -12388.898487 kJ/mol
# Density = 1.571183 g / cm^3
# Si number density = 15.747673 Si / 1000 Ang^3
#
#
#
# Elastic Constant Matrix: (Units=GPa)
#
#
# Indices 1 2 3 4 5 6 
#
# 1 70.9361 31.5188 47.5122 0.0000 -0.0487 0.0000
# 2 31.5188 70.1273 64.8987 0.0000 -0.2880 0.0000
# 3 47.5122 64.8987 118.0972 0.0000 -0.3582 0.0000
# 4 0.0000 0.0000 0.0000 31.2746 0.0000 -0.1666
# 5 -0.0487 -0.2880 -0.3582 0.0000 14.5331 0.0000
# 6 0.0000 0.0000 0.0000 -0.1666 0.0000 11.9596
#
#
#
# Elastic Compliance Matrix: (Units=1/GPa)
#
#
# Indices 1 2 3 4 5 6 
#
# 1 0.019619 -0.003080 -0.006201 0.000000 -0.000148 0.000000
# 2 -0.003080 0.029500 -0.014972 0.000000 0.000205 0.000000
# 3 -0.006201 -0.014972 0.019190 0.000000 0.000156 0.000000
# 4 0.000000 0.000000 0.000000 0.031977 0.000000 0.000445
# 5 -0.000148 0.000205 0.000156 0.000000 0.068816 0.000000
# 6 0.000000 0.000000 0.000000 0.000445 0.000000 0.083621
#
#
# Mechanical properties :
#
#
# Convention : Reuss Voigt Hill
#
# Bulk Modulus (GPa) = 50.49356 60.78001 55.63679
# Shear Modulus (GPa) = 16.24269 19.23552 17.73910
#
# Velocity S-wave (km/s) = 3.21508 3.49876 3.35992
# Velocity P-wave (km/s) = 6.77614 7.41632 7.10344
#
# Compressibility (1/GPa) = 0.01980451
#
# Stress axis : x y z
#
# Youngs Moduli (GPa) = 50.97147 33.89774 52.10915
#
# Poissons Ratio (x) = 0.10439 0.32313
# Poissons Ratio (y) = 0.15697 0.78018
# Poissons Ratio (z) = 0.31607 0.50752
#
# Static dielectric constant tensor:
#      x y z
#    x 2.903360 0.000000 -0.000120 
#    y 0.000000 3.188710 0.000000 
#    z -0.000120 0.000000 2.917190 
# 
# 
# High freq. dielectric constant tensor:
#      x y z
#    x 1.570320 0.000000 -0.000180 
#    y 0.000000 1.585030 0.000000 
#    z -0.000180 0.000000 1.591270 
# 
# From -- ./inp_files/69331.got.cif
#   From: 2010.06.25/outbox.cif.g09.slc.cpg/sg11_35_cif.got.tgz:69331.got - 2010.06.27 23:14:04.
