data_PCOD8077532
_publ_section_title
;
Structure prediction by ZEFSAII (Michael W. Deem and Ramdas Pophale) SiO2 
 PCOD8077532
Probable space group: P 21/M
;
_chemical_formula_sum "Si O2"
_cell_formula_units_Z 24
_cell_length_a 16.658555
_cell_length_b 8.912225
_cell_length_c 22.222727
_cell_angle_alpha 90.000000
_cell_angle_beta 155.738585
_cell_angle_gamma 90.000000
_cell_volume 1355.680921
_symmetry_space_group_name_H-M "P 21/M"
_symmetry_group_IT_number 11
_symmetry_cell_setting 'monoclinic'
loop_
_space_group_symop_operation_xyz
x,y,z
-x,1/2+y,-z
-x,-y,-z
x,1/2-y,z
loop_
_atom_site_type_symbol
_atom_site_label
_atom_site_fract_x
_atom_site_fract_y
_atom_site_fract_z
Si Si1 0.121479 0.927515 0.400781
Si Si2 0.564427 0.926525 0.693951
Si Si3 0.862667 0.071633 0.455285
Si Si4 0.059103 0.071309 0.842281
Si Si5 0.317693 0.927502 0.342089
Si Si6 0.424699 0.427857 0.163464
O O1 0.115542 0.750000 0.398931
O O2 0.339473 0.975264 0.531093
O O3 0.067655 0.985931 0.430897
O O4 0.972523 0.988627 0.247871
O O5 0.592691 0.750000 0.702204
O O6 0.630459 0.974430 0.806101
O O7 0.693601 0.018165 0.734656
O O8 0.875014 0.250000 0.459102
O O9 0.640401 0.014504 0.292642
O O10 0.000000 0.000000 0.500000
O O11 0.067854 0.250000 0.848436
O O12 0.880728 0.017184 0.761858
O O13 0.262259 0.004505 0.007092
O O14 0.339378 0.750000 0.360250
O O15 0.500000 0.000000 0.500000
O O16 0.427174 0.250000 0.161892
#
# Coordination Sequence:
#
# PCOD8077532 Si02
#       6
#     4   4   4   4   4   4
#     4   8  14  27  47  67  90 123 158 185 223 278
#     4   9  16  30  48  68  93 124 161 197 228 268
#     4   9  17  31  52  73  91 117 153 192 233 281
#     4   9  16  28  47  70  93 123 162 197 224 269
#     4  11  20  29  46  70  96 126 164 200 232 267
#     4   8  16  30  49  70  94 124 158 191 229 279
#
# _framework density 17.703279999999999
#
# number of rings (size 3 to 8) (size 9 to 14) (size 15 to 20)
#    0.000    3.000    1.667    2.500    0.000    0.667 
#    0.000    4.167    0.000    3.000    0.000    0.000 
#    0.000    0.000    0.000    0.000    0.000    0.000 
#
# Total GULP energy -297417.856443 kJ/mol
# GULP energy per Si atom -12392.410685 kJ/mol
# Density = 1.766299 g / cm^3
# Si number density = 17.703280 Si / 1000 Ang^3
#
#
#
# Elastic Constant Matrix: (Units=GPa)
#
#
# Indices 1 2 3 4 5 6 
#
# 1 162.2381 25.5501 88.4276 0.0000 -5.5161 0.0000
# 2 25.5501 26.1896 17.5353 0.0000 1.9877 0.0000
# 3 88.4276 17.5353 150.1724 0.0000 -20.6722 0.0000
# 4 0.0000 0.0000 0.0000 12.1768 0.0000 1.9219
# 5 -5.5161 1.9877 -20.6722 0.0000 27.8520 0.0000
# 6 0.0000 0.0000 0.0000 1.9219 0.0000 29.6053
#
#
#
# Elastic Compliance Matrix: (Units=1/GPa)
#
#
# Indices 1 2 3 4 5 6 
#
# 1 0.010005 -0.006017 -0.005410 0.000000 -0.001604 0.000000
# 2 -0.006017 0.046414 -0.002781 0.000000 -0.006568 0.000000
# 3 -0.005410 -0.002781 0.011193 0.000000 0.007434 0.000000
# 4 0.000000 0.000000 0.000000 0.082973 0.000000 -0.005386
# 5 -0.001604 -0.006568 0.007434 0.000000 0.041573 0.000000
# 6 0.000000 0.000000 0.000000 -0.005386 0.000000 0.034127
#
#
# Mechanical properties :
#
#
# Convention : Reuss Voigt Hill
#
# Bulk Modulus (GPa) = 25.51248 66.84735 46.17992
# Shear Modulus (GPa) = 18.67302 27.73264 23.20283
#
# Velocity S-wave (km/s) = 3.25126 3.96223 3.62422
# Velocity P-wave (km/s) = 5.34197 7.66643 6.60723
#
# Compressibility (1/GPa) = 0.03919650
#
# Stress axis : x y z
#
# Youngs Moduli (GPa) = 99.94513 21.54539 89.34460
#
# Poissons Ratio (x) = 0.12964 0.48334
# Poissons Ratio (y) = 0.60139 0.24843
# Poissons Ratio (z) = 0.54069 0.05991
#
# Static dielectric constant tensor:
#      x y z
#    x 3.546640 0.000000 -0.299460 
#    y 0.000000 2.705270 0.000000 
#    z -0.299460 0.000000 3.693700 
# 
# 
# High freq. dielectric constant tensor:
#      x y z
#    x 1.688700 0.000000 -0.015440 
#    y 0.000000 1.633000 0.000000 
#    z -0.015440 0.000000 1.680190 
# 
# From -- ./inp_files/20867.got.cif
#   From: 2010.06.25/outbox.cif.g09.slc.cpg/sg11_11_cif.got.tgz:20867.got - 2010.06.27 23:14:04.
