data_PCOD8077354
_publ_section_title
;
Structure prediction by ZEFSAII (Michael W. Deem and Ramdas Pophale) SiO2 
 PCOD8077354
Probable space group: P 21/M
;
_chemical_formula_sum "Si O2"
_cell_formula_units_Z 28
_cell_length_a 15.412943
_cell_length_b 8.845028
_cell_length_c 11.875386
_cell_angle_alpha 90.000000
_cell_angle_beta 119.091156
_cell_angle_gamma 90.000000
_cell_volume 1414.712070
_symmetry_space_group_name_H-M "P 21/M"
_symmetry_group_IT_number 11
_symmetry_cell_setting 'monoclinic'
loop_
_space_group_symop_operation_xyz
x,y,z
-x,1/2+y,-z
-x,-y,-z
x,1/2-y,z
loop_
_atom_site_type_symbol
_atom_site_label
_atom_site_fract_x
_atom_site_fract_y
_atom_site_fract_z
Si Si1 0.698768 0.925899 0.848532
Si Si2 0.481323 0.426272 0.109222
Si Si3 0.392024 0.929287 0.426950
Si Si4 0.076187 0.071075 0.961843
Si Si5 0.987923 0.928429 0.319282
Si Si6 0.140941 0.076419 0.556564
Si Si7 0.642507 0.574747 0.368558
O O1 0.693356 0.750000 0.810782
O O2 0.630840 0.954527 0.916754
O O3 0.662458 0.025681 0.721715
O O4 0.810553 0.978514 0.944870
O O5 0.504098 0.250000 0.111566
O O6 0.553065 0.495585 0.247987
O O7 0.500000 0.500000 0.000000
O O8 0.398584 0.750000 0.439517
O O9 0.500000 0.000000 0.500000
O O10 0.334048 0.995627 0.497679
O O11 0.066501 0.250000 0.961659
O O12 0.044881 0.005453 0.820995
O O13 0.000000 0.000000 0.000000
O O14 0.990240 0.750000 0.314887
O O15 0.907766 0.987033 0.359906
O O16 0.097120 0.987415 0.421477
O O17 0.112526 0.250000 0.520141
O O18 0.258509 0.054964 0.642730
O O19 0.615232 0.750000 0.370254
#
# Coordination Sequence:
#
# PCOD8077354 Si02
#       7
#     4   4   4   4   4   4   4
#     4  10  23  43  65  88 121 165 207 252 309 368
#     4  11  24  41  64  92 126 165 206 251 305 366
#     4  12  24  40  63  89 122 158 200 249 303 361
#     4  10  23  41  62  87 119 160 205 252 304 362
#     4   9  19  38  61  85 116 154 199 249 301 357
#     4   9  20  37  61  88 117 155 196 245 304 361
#     4  11  23  39  63  92 123 158 202 251 305 366
#
# _framework density 19.792013000000001
#
# number of rings (size 3 to 8) (size 9 to 14) (size 15 to 20)
#    0.000    1.714    1.429    2.143    4.000    2.857 
#    0.000    0.000    0.000    0.000    0.000    0.000 
#    0.000    0.000    0.000    0.000    0.000    0.000 
#
# Total GULP energy -347242.192362 kJ/mol
# GULP energy per Si atom -12401.506870 kJ/mol
# Density = 1.974697 g / cm^3
# Si number density = 19.792013 Si / 1000 Ang^3
#
#
#
# Elastic Constant Matrix: (Units=GPa)
#
#
# Indices 1 2 3 4 5 6 
#
# 1 130.0781 48.4300 66.3245 0.0000 3.4713 0.0000
# 2 48.4300 91.8141 50.1995 0.0000 -4.1448 0.0000
# 3 66.3245 50.1995 141.5014 0.0000 -7.1753 0.0000
# 4 0.0000 0.0000 0.0000 36.5799 0.0000 -2.1026
# 5 3.4713 -4.1448 -7.1753 0.0000 35.0633 0.0000
# 6 0.0000 0.0000 0.0000 -2.1026 0.0000 31.3357
#
#
#
# Elastic Compliance Matrix: (Units=1/GPa)
#
#
# Indices 1 2 3 4 5 6 
#
# 1 0.011230 -0.003830 -0.004026 0.000000 -0.002389 0.000000
# 2 -0.003830 0.014832 -0.003394 0.000000 0.001438 0.000000
# 3 -0.004026 -0.003394 0.010265 0.000000 0.002098 0.000000
# 4 0.000000 0.000000 0.000000 0.027443 0.000000 0.001841
# 5 -0.002389 0.001438 0.002098 0.000000 0.029356 0.000000
# 6 0.000000 0.000000 0.000000 0.001841 0.000000 0.032036
#
#
# Mechanical properties :
#
#
# Convention : Reuss Voigt Hill
#
# Bulk Modulus (GPa) = 72.32250 77.03351 74.67800
# Shear Modulus (GPa) = 32.83604 33.82508 33.33056
#
# Velocity S-wave (km/s) = 4.07757 4.13852 4.10816
# Velocity P-wave (km/s) = 7.66742 7.86400 7.76633
#
# Compressibility (1/GPa) = 0.01382696
#
# Stress axis : x y z
#
# Youngs Moduli (GPa) = 89.04421 67.41981 97.42248
#
# Poissons Ratio (x) = 0.25824 0.39224
# Poissons Ratio (y) = 0.34107 0.33063
# Poissons Ratio (z) = 0.35851 0.22881
#
# Static dielectric constant tensor:
#      x y z
#    x 3.826920 0.000000 -0.051580 
#    y 0.000000 3.610790 0.000000 
#    z -0.051580 0.000000 4.495150 
# 
# 
# High freq. dielectric constant tensor:
#      x y z
#    x 1.782860 0.000000 -0.003090 
#    y 0.000000 1.769470 0.000000 
#    z -0.003090 0.000000 1.776110 
# 
# From -- ./inp_files/37896.got.cif
#   From: 2010.06.25/outbox.cif.g09.slc.cpg/sg11_19_cif.got.tgz:37896.got - 2010.06.27 23:14:04.
