data_PCOD8077742
_publ_section_title
;
Structure prediction by ZEFSAII (Michael W. Deem and Ramdas Pophale) SiO2 
 PCOD8077742
Probable space group: P 21/M
;
_chemical_formula_sum "Si O2"
_cell_formula_units_Z 28
_cell_length_a 8.277217
_cell_length_b 16.282559
_cell_length_c 11.520677
_cell_angle_alpha 90.000000
_cell_angle_beta 119.506470
_cell_angle_gamma 90.000000
_cell_volume 1351.307005
_symmetry_space_group_name_H-M "P 21/M"
_symmetry_group_IT_number 11
_symmetry_cell_setting 'monoclinic'
loop_
_space_group_symop_operation_xyz
x,y,z
-x,1/2+y,-z
-x,-y,-z
x,1/2-y,z
loop_
_atom_site_type_symbol
_atom_site_label
_atom_site_fract_x
_atom_site_fract_y
_atom_site_fract_z
Si Si1 0.393751 0.430732 0.390170
Si Si2 0.057784 0.535876 0.210532
Si Si3 0.999041 0.912508 0.440695
Si Si4 0.329180 0.654902 0.688701
Si Si5 0.265029 0.653200 0.134128
Si Si6 0.676019 0.441321 0.073143
Si Si7 0.633465 0.655579 0.390723
O O1 0.500000 0.500000 0.500000
O O2 0.212597 0.464461 0.260341
O O3 0.523057 0.389183 0.341041
O O4 0.329534 0.363113 0.461186
O O5 0.076861 0.584100 0.338444
O O6 0.087791 0.601640 0.117320
O O7 0.856439 0.497556 0.124799
O O8 0.126022 0.849822 0.558515
O O9 0.785756 0.885714 0.362270
O O10 0.000000 0.000000 0.500000
O O11 0.382209 0.750000 0.726109
O O12 0.327465 0.607081 0.808303
O O13 0.220955 0.750000 0.122507
O O14 0.430417 0.625869 0.279416
O O15 0.321794 0.627906 0.025041
O O16 0.500000 0.500000 0.000000
O O17 0.651782 0.750000 0.372760
#
# Coordination Sequence:
#
# PCOD8077742 Si02
#       7
#     4   4   4   4   4   4   4
#     4  12  21  40  68  96 132 162 215 263 337 399
#     4  12  24  41  71  95 126 173 219 265 323 395
#     4  12  21  39  66 100 130 168 212 267 331 403
#     4  12  25  42  67 100 135 170 216 279 335 385
#     4  11  25  44  64  94 133 172 219 271 321 375
#     4  12  26  46  69  92 131 178 231 265 315 385
#     4  11  22  38  63  96 132 168 210 270 330 381
#
# _framework density 20.720680000000002
#
# number of rings (size 3 to 8) (size 9 to 14) (size 15 to 20)
#    0.000    0.286    5.714    3.429    0.000    2.286 
#    0.000    5.000    0.000    0.000    0.000    0.000 
#    0.000    0.000    0.000    0.000    0.000    0.000 
#
# Total GULP energy -347344.008406 kJ/mol
# GULP energy per Si atom -12405.143157 kJ/mol
# Density = 2.067352 g / cm^3
# Si number density = 20.720680 Si / 1000 Ang^3
#
#
#
# Elastic Constant Matrix: (Units=GPa)
#
#
# Indices 1 2 3 4 5 6 
#
# 1 134.3071 70.9232 35.6321 0.0000 -0.9760 0.0000
# 2 70.9232 104.7746 51.4798 0.0000 6.9837 0.0000
# 3 35.6321 51.4798 72.8098 0.0000 -2.7703 0.0000
# 4 0.0000 0.0000 0.0000 27.1301 0.0000 -5.4560
# 5 -0.9760 6.9837 -2.7703 0.0000 45.9551 0.0000
# 6 0.0000 0.0000 0.0000 -5.4560 0.0000 36.5002
#
#
#
# Elastic Compliance Matrix: (Units=1/GPa)
#
#
# Indices 1 2 3 4 5 6 
#
# 1 0.011685 -0.008006 -0.000002 0.000000 0.001465 0.000000
# 2 -0.008006 0.020494 -0.010721 0.000000 -0.003931 0.000000
# 3 -0.000002 -0.010721 0.021427 0.000000 0.002921 0.000000
# 4 0.000000 0.000000 0.000000 0.038002 0.000000 0.005680
# 5 0.001465 -0.003931 0.002921 0.000000 0.022565 0.000000
# 6 0.000000 0.000000 0.000000 0.005680 0.000000 0.028246
#
#
# Mechanical properties :
#
#
# Convention : Reuss Voigt Hill
#
# Bulk Modulus (GPa) = 61.93326 69.77354 65.85340
# Shear Modulus (GPa) = 26.98932 32.17418 29.58175
#
# Velocity S-wave (km/s) = 3.61297 3.94478 3.78252
# Velocity P-wave (km/s) = 6.88181 7.38206 7.13632
#
# Compressibility (1/GPa) = 0.01614641
#
# Stress axis : x y z
#
# Youngs Moduli (GPa) = 85.58324 48.79590 46.67037
#
# Poissons Ratio (x) = 0.39067 0.00009
# Poissons Ratio (y) = 0.68519 0.50037
# Poissons Ratio (z) = 0.00016 0.52316
#
# Static dielectric constant tensor:
#      x y z
#    x 3.957000 0.000000 0.066840 
#    y 0.000000 3.754850 0.000000 
#    z 0.066840 0.000000 4.103510 
# 
# 
# High freq. dielectric constant tensor:
#      x y z
#    x 1.829090 0.000000 -0.006820 
#    y 0.000000 1.814260 0.000000 
#    z -0.006820 0.000000 1.808840 
# 
# From -- ./inp_files/31966.got.cif
#   From: 2010.06.25/outbox.cif.g09.slc.cpg/sg11_16_cif.got.tgz:31966.got - 2010.06.27 23:14:04.
