data_PCOD8077646
_publ_section_title
;
Structure prediction by ZEFSAII (Michael W. Deem and Ramdas Pophale) SiO2 
 PCOD8077646
Probable space group: P 21/M
;
_chemical_formula_sum "Si O2"
_cell_formula_units_Z 28
_cell_length_a 24.447983
_cell_length_b 8.318770
_cell_length_c 9.496788
_cell_angle_alpha 90.000000
_cell_angle_beta 137.041803
_cell_angle_gamma 90.000000
_cell_volume 1316.200904
_symmetry_space_group_name_H-M "P 21/M"
_symmetry_group_IT_number 11
_symmetry_cell_setting 'monoclinic'
loop_
_space_group_symop_operation_xyz
x,y,z
-x,1/2+y,-z
-x,-y,-z
x,1/2-y,z
loop_
_atom_site_type_symbol
_atom_site_label
_atom_site_fract_x
_atom_site_fract_y
_atom_site_fract_z
Si Si1 0.190170 0.937727 0.581461
Si Si2 0.496209 0.935316 0.336770
Si Si3 0.747148 0.562745 0.574002
Si Si4 0.575881 0.064243 0.228714
Si Si5 0.330766 0.064759 0.029248
Si Si6 0.913898 0.938552 0.381910
Si Si7 0.772373 0.062114 0.929556
O O1 0.210046 0.750000 0.624052
O O2 0.187176 0.999958 0.415225
O O3 0.108337 0.974569 0.511878
O O4 0.258060 0.040675 0.786709
O O5 0.520626 0.750000 0.372934
O O6 0.500000 0.000000 0.500000
O O7 0.558457 0.036475 0.360703
O O8 0.405384 0.961432 0.111500
O O9 0.758937 0.750000 0.624160
O O10 0.658018 0.527900 0.344842
O O11 0.763692 0.466966 0.747942
O O12 0.588940 0.250000 0.219712
O O13 0.500000 0.000000 0.000000
O O14 0.356584 0.250000 0.083499
O O15 0.305897 0.008673 0.139373
O O16 0.915164 0.750000 0.411019
O O17 0.000000 0.000000 0.500000
O O18 0.851939 0.978441 0.140152
O O19 0.778401 0.250000 0.973169
#
# Coordination Sequence:
#
# PCOD8077646 Si02
#       7
#     4   4   4   4   4   4   4
#     4  11  22  39  62  90 119 155 196 240 288 346
#     4  12  24  39  56  80 111 149 195 249 303 355
#     4  12  24  41  61  87 121 160 201 248 300 358
#     4  12  25  42  60  84 116 157 203 253 306 360
#     4  11  21  37  58  83 113 152 197 245 295 353
#     4  11  22  41  67  97 127 160 196 239 289 349
#     4  11  22  39  62  91 122 159 200 246 297 353
#
# _framework density 21.273347999999999
#
# number of rings (size 3 to 8) (size 9 to 14) (size 15 to 20)
#    0.000    0.571    0.000   12.429    0.000    0.000 
#    0.000    0.714    0.000    0.000    0.000    0.000 
#    0.000    0.000    0.000    0.000    0.000    0.000 
#
# Total GULP energy -347367.711314 kJ/mol
# GULP energy per Si atom -12405.989690 kJ/mol
# Density = 2.122493 g / cm^3
# Si number density = 21.273348 Si / 1000 Ang^3
#
#
#
# Elastic Constant Matrix: (Units=GPa)
#
#
# Indices 1 2 3 4 5 6 
#
# 1 115.2708 18.6033 16.6475 0.0000 -4.4920 0.0000
# 2 18.6033 118.4707 9.6529 0.0000 -2.5671 0.0000
# 3 16.6475 9.6529 40.4378 0.0000 -7.3788 0.0000
# 4 0.0000 0.0000 0.0000 33.7530 0.0000 -1.7721
# 5 -4.4920 -2.5671 -7.3788 0.0000 39.2097 0.0000
# 6 0.0000 0.0000 0.0000 -1.7721 0.0000 38.8970
#
#
#
# Elastic Compliance Matrix: (Units=1/GPa)
#
#
# Indices 1 2 3 4 5 6 
#
# 1 0.009387 -0.001180 -0.003522 0.000000 0.000335 0.000000
# 2 -0.001180 0.008758 -0.001579 0.000000 0.000141 0.000000
# 3 -0.003522 -0.001579 0.027405 0.000000 0.004650 0.000000
# 4 0.000000 0.000000 0.000000 0.029698 0.000000 0.001353
# 5 0.000335 0.000141 0.004650 0.000000 0.026427 0.000000
# 6 0.000000 0.000000 0.000000 0.001353 0.000000 0.025771
#
#
# Mechanical properties :
#
#
# Convention : Reuss Voigt Hill
#
# Bulk Modulus (GPa) = 30.31361 40.44296 35.37828
# Shear Modulus (GPa) = 33.11196 37.65699 35.38447
#
# Velocity S-wave (km/s) = 3.94953 4.21188 4.08281
# Velocity P-wave (km/s) = 5.92274 6.53495 6.23636
#
# Compressibility (1/GPa) = 0.03298848
#
# Stress axis : x y z
#
# Youngs Moduli (GPa) = 106.52664 114.18257 36.49006
#
# Poissons Ratio (x) = 0.13472 0.12851
# Poissons Ratio (y) = 0.12569 0.05762
# Poissons Ratio (z) = 0.37516 0.18031
#
# Static dielectric constant tensor:
#      x y z
#    x 4.265860 0.000000 -0.088430 
#    y 0.000000 4.075770 0.000000 
#    z -0.088430 0.000000 3.671470 
# 
# 
# High freq. dielectric constant tensor:
#      x y z
#    x 1.845680 0.000000 -0.014920 
#    y 0.000000 1.852760 0.000000 
#    z -0.014920 0.000000 1.815940 
# 
# From -- ./inp_files/28590.got.cif
#   From: 2010.06.25/outbox.cif.g09.slc.cpg/sg11_15_cif.got.tgz:28590.got - 2010.06.27 23:14:04.
