data_PCOD8077130
_publ_section_title
;
Structure prediction by ZEFSAII (Michael W. Deem and Ramdas Pophale) SiO2 
 PCOD8077130
Probable space group: P 21/M
;
_chemical_formula_sum "Si O2"
_cell_formula_units_Z 20
_cell_length_a 7.752880
_cell_length_b 25.771647
_cell_length_c 8.748743
_cell_angle_alpha 90.000000
_cell_angle_beta 144.145512
_cell_angle_gamma 90.000000
_cell_volume 1023.876135
_symmetry_space_group_name_H-M "P 21/M"
_symmetry_group_IT_number 11
_symmetry_cell_setting 'monoclinic'
loop_
_space_group_symop_operation_xyz
x,y,z
-x,1/2+y,-z
-x,-y,-z
x,1/2-y,z
loop_
_atom_site_type_symbol
_atom_site_label
_atom_site_fract_x
_atom_site_fract_y
_atom_site_fract_z
Si Si1 0.171639 0.691377 0.506294
Si Si2 0.091682 0.599533 0.252029
Si Si3 0.579787 0.854602 0.044701
Si Si4 0.301092 0.929529 0.084083
Si Si5 0.863199 0.994028 0.567803
O O1 0.221271 0.750000 0.484515
O O2 0.261021 0.651448 0.434031
O O3 0.363051 0.681711 0.793767
O O4 0.827717 0.681649 0.302624
O O5 0.113963 0.596124 0.085905
O O6 0.234681 0.549678 0.437574
O O7 0.746238 0.603744 0.053393
O O8 0.391757 0.883948 0.035989
O O9 0.583397 0.956849 0.360819
O O10 0.105565 0.971353 0.856397
O O11 0.000000 0.000000 0.500000
#
# Coordination Sequence:
#
# PCOD8077130 Si02
#       5
#     4   4   4   4   4
#     4  10  22  43  66  85 119 160 203 257 309 348
#     4  10  25  38  65  89 126 154 210 243 306 355
#     4  10  22  40  63  86 122 156 200 247 299 359
#     4  12  24  39  63  92 128 159 200 244 303 360
#     4  12  23  39  62  91 128 167 197 240 301 369
#
# _framework density 19.533612999999999
#
# number of rings (size 3 to 8) (size 9 to 14) (size 15 to 20)
#    1.200    0.000    2.000    4.800    5.600    0.000 
#    0.000    2.000    0.000    0.000    0.000    0.000 
#    0.000    0.000    0.000    0.000    0.000    0.000 
#
# Total GULP energy -247952.647332 kJ/mol
# GULP energy per Si atom -12397.632367 kJ/mol
# Density = 1.948915 g / cm^3
# Si number density = 19.533613 Si / 1000 Ang^3
#
#
#
# Elastic Constant Matrix: (Units=GPa)
#
#
# Indices 1 2 3 4 5 6 
#
# 1 121.1620 33.3043 18.3107 0.0000 -25.2962 0.0000
# 2 33.3043 113.3255 24.8916 0.0000 -17.8302 0.0000
# 3 18.3107 24.8916 96.8339 0.0000 1.8466 0.0000
# 4 0.0000 0.0000 0.0000 30.3499 0.0000 -6.7315
# 5 -25.2962 -17.8302 1.8466 0.0000 23.1732 0.0000
# 6 0.0000 0.0000 0.0000 -6.7315 0.0000 7.6998
#
#
#
# Elastic Compliance Matrix: (Units=1/GPa)
#
#
# Indices 1 2 3 4 5 6 
#
# 1 0.011296 -0.001015 -0.002098 0.000000 0.011717 0.000000
# 2 -0.001015 0.010908 -0.002755 0.000000 0.007505 0.000000
# 3 -0.002098 -0.002755 0.011534 0.000000 -0.005330 0.000000
# 4 0.000000 0.000000 0.000000 0.040875 0.000000 0.035735
# 5 0.011717 0.007505 -0.005330 0.000000 0.062142 0.000000
# 6 0.000000 0.000000 0.000000 0.035735 0.000000 0.161115
#
#
# Mechanical properties :
#
#
# Convention : Reuss Voigt Hill
#
# Bulk Modulus (GPa) = 45.45431 53.81498 49.63464
# Shear Modulus (GPa) = 15.77580 29.23223 22.50402
#
# Velocity S-wave (km/s) = 2.84495 3.87267 3.39789
# Velocity P-wave (km/s) = 5.84055 6.89975 6.39212
#
# Compressibility (1/GPa) = 0.02200012
#
# Stress axis : x y z
#
# Youngs Moduli (GPa) = 88.52825 91.67240 86.70300
#
# Poissons Ratio (x) = 0.09307 0.18194
# Poissons Ratio (y) = 0.08988 0.23888
# Poissons Ratio (z) = 0.18577 0.25257
#
# Static dielectric constant tensor:
#      x y z
#    x 3.500550 0.000000 0.000000 
#    y 0.000000 3.452810 0.000000 
#    z 0.000000 0.000000 3.617530 
# 
# 
# High freq. dielectric constant tensor:
#      x y z
#    x 1.743960 0.000000 -0.001390 
#    y 0.000000 1.755400 0.000000 
#    z -0.001390 0.000000 1.771920 
# 
# From -- ./inp_files/10502.got.cif
#   From: 2010.06.25/outbox.cif.g09.slc.cpg/sg11_6_cif.got.tgz:10502.got - 2010.06.27 23:14:04.
