data_PCOD8077789
_publ_section_title
;
Structure prediction by ZEFSAII (Michael W. Deem and Ramdas Pophale) SiO2 
 PCOD8077789
Probable space group: P 21/M
;
_chemical_formula_sum "Si O2"
_cell_formula_units_Z 28
_cell_length_a 26.506390
_cell_length_b 8.987966
_cell_length_c 9.566234
_cell_angle_alpha 90.000000
_cell_angle_beta 140.716637
_cell_angle_gamma 90.000000
_cell_volume 1442.991694
_symmetry_space_group_name_H-M "P 21/M"
_symmetry_group_IT_number 11
_symmetry_cell_setting 'monoclinic'
loop_
_space_group_symop_operation_xyz
x,y,z
-x,1/2+y,-z
-x,-y,-z
x,1/2-y,z
loop_
_atom_site_type_symbol
_atom_site_label
_atom_site_fract_x
_atom_site_fract_y
_atom_site_fract_z
Si Si1 0.583958 0.426611 0.707107
Si Si2 0.989726 0.925583 0.626068
Si Si3 0.833946 0.417225 0.299810
Si Si4 0.314897 0.918255 0.819907
Si Si5 0.725533 0.076240 0.812573
Si Si6 0.936192 0.574917 0.964642
Si Si7 0.754894 0.922895 0.582164
O O1 0.500000 0.500000 0.500000
O O2 0.576759 0.250000 0.689792
O O3 0.645012 0.478428 0.717279
O O4 0.615351 0.477609 0.927853
O O5 0.002712 0.750000 0.649176
O O6 0.901044 0.964871 0.489432
O O7 0.000000 0.000000 0.500000
O O8 0.055120 0.999261 0.865940
O O9 0.869984 0.250000 0.373042
O O10 0.766547 0.426396 0.270228
O O11 0.800081 0.457949 0.074023
O O12 0.332665 0.750000 0.810813
O O13 0.307938 0.016329 0.665919
O O14 0.720375 0.250000 0.768833
O O15 0.736471 0.991215 0.692487
O O16 0.954097 0.750000 0.009851
O O17 0.845138 0.542798 0.724204
O O18 0.000000 0.500000 0.000000
O O19 0.740218 0.750000 0.565977
#
# Coordination Sequence:
#
# PCOD8077789 Si02
#       7
#     4   4   4   4   4   4   4
#     4   9  19  37  61  89 114 140 176 216 262 322
#     4  12  24  36  52  76 106 142 185 234 283 330
#     4   9  18  35  57  78 101 136 183 230 275 328
#     4   9  19  36  58  81 108 142 177 214 264 326
#     4   9  19  36  58  82 110 145 182 220 272 332
#     4  11  24  40  56  79 111 147 189 236 284 335
#     4  11  23  36  53  81 112 142 185 232 271 317
#
# _framework density 19.404132000000001
#
# number of rings (size 3 to 8) (size 9 to 14) (size 15 to 20)
#    0.000    2.000    0.000    5.571    0.000    9.143 
#    0.000    3.571    0.000    0.000    0.000    0.000 
#    0.000    0.000    0.000    0.000    0.000    0.000 
#
# Total GULP energy -347186.700287 kJ/mol
# GULP energy per Si atom -12399.525010 kJ/mol
# Density = 1.935997 g / cm^3
# Si number density = 19.404132 Si / 1000 Ang^3
#
#
#
# Elastic Constant Matrix: (Units=GPa)
#
#
# Indices 1 2 3 4 5 6 
#
# 1 55.2661 36.1344 31.2624 0.0000 -12.6194 0.0000
# 2 36.1344 98.0743 54.0324 0.0000 -5.5315 0.0000
# 3 31.2624 54.0324 112.2433 0.0000 -9.5838 0.0000
# 4 0.0000 0.0000 0.0000 32.8727 0.0000 1.4826
# 5 -12.6194 -5.5315 -9.5838 0.0000 36.7185 0.0000
# 6 0.0000 0.0000 0.0000 1.4826 0.0000 31.8064
#
#
#
# Elastic Compliance Matrix: (Units=1/GPa)
#
#
# Indices 1 2 3 4 5 6 
#
# 1 0.026471 -0.007654 -0.003078 0.000000 0.007141 0.000000
# 2 -0.007654 0.016094 -0.005762 0.000000 -0.001710 0.000000
# 3 -0.003078 -0.005762 0.012658 0.000000 0.001378 0.000000
# 4 0.000000 0.000000 0.000000 0.030484 0.000000 -0.001421
# 5 0.007141 -0.001710 0.001378 0.000000 0.029790 0.000000
# 6 0.000000 0.000000 0.000000 -0.001421 0.000000 0.031506
#
#
# Mechanical properties :
#
#
# Convention : Reuss Voigt Hill
#
# Bulk Modulus (GPa) = 44.97536 56.49356 50.73446
# Shear Modulus (GPa) = 26.68033 29.88983 28.28508
#
# Velocity S-wave (km/s) = 3.71210 3.92903 3.82210
# Velocity P-wave (km/s) = 6.44992 7.05411 6.75877
#
# Compressibility (1/GPa) = 0.02223440
#
# Stress axis : x y z
#
# Youngs Moduli (GPa) = 37.77776 62.13385 79.00210
#
# Poissons Ratio (x) = 0.47558 0.24320
# Poissons Ratio (y) = 0.28915 0.45519
# Poissons Ratio (z) = 0.11630 0.35800
#
# Static dielectric constant tensor:
#      x y z
#    x 3.590130 0.000000 0.150950 
#    y 0.000000 3.652990 0.000000 
#    z 0.150950 0.000000 4.060840 
# 
# 
# High freq. dielectric constant tensor:
#      x y z
#    x 1.747720 0.000000 -0.011450 
#    y 0.000000 1.751740 0.000000 
#    z -0.011450 0.000000 1.761160 
# 
# From -- ./inp_files/28526.got.cif
#   From: 2010.06.25/outbox.cif.g09.slc.cpg/sg11_15_cif.got.tgz:28526.got - 2010.06.27 23:14:04.
