data_PCOD8077141
_publ_section_title
;
Structure prediction by ZEFSAII (Michael W. Deem and Ramdas Pophale) SiO2 
 PCOD8077141
Probable space group: P 21/M
;
_chemical_formula_sum "Si O2"
_cell_formula_units_Z 28
_cell_length_a 11.895315
_cell_length_b 8.779407
_cell_length_c 15.598254
_cell_angle_alpha 90.000000
_cell_angle_beta 58.409449
_cell_angle_gamma 90.000000
_cell_volume 1387.591252
_symmetry_space_group_name_H-M "P 21/M"
_symmetry_group_IT_number 11
_symmetry_cell_setting 'monoclinic'
loop_
_space_group_symop_operation_xyz
x,y,z
-x,1/2+y,-z
-x,-y,-z
x,1/2-y,z
loop_
_atom_site_type_symbol
_atom_site_label
_atom_site_fract_x
_atom_site_fract_y
_atom_site_fract_z
Si Si1 0.422284 0.930152 0.609750
Si Si2 0.400373 0.424409 0.158803
Si Si3 0.899730 0.071069 0.472666
Si Si4 0.874835 0.069247 0.291610
Si Si5 0.617351 0.427785 0.656347
Si Si6 0.689523 0.425536 0.972168
Si Si7 0.056356 0.431235 0.063521
O O1 0.424437 0.750000 0.600276
O O2 0.272378 0.992285 0.669135
O O3 0.500000 0.000000 0.500000
O O4 0.492702 0.979995 0.669394
O O5 0.362227 0.250000 0.193130
O O6 0.363366 0.529393 0.252957
O O7 0.312177 0.483381 0.115954
O O8 0.553574 0.442536 0.076852
O O9 0.918852 0.250000 0.472014
O O10 0.926142 0.012866 0.364701
O O11 0.749780 0.024720 0.553725
O O12 0.000000 0.000000 0.500000
O O13 0.871007 0.250000 0.293056
O O14 0.972333 0.009068 0.178762
O O15 0.588276 0.250000 0.658111
O O16 0.723560 0.250000 0.940601
O O17 0.796827 0.504387 0.989000
O O18 0.056736 0.250000 0.058126
O O19 0.000000 0.500000 0.000000
#
# Coordination Sequence:
#
# PCOD8077141 Si02
#       7
#     4   4   4   4   4   4   4
#     4  11  21  39  63  88 119 157 200 247 300 360
#     4  10  22  40  64  91 121 160 201 249 308 368
#     4  10  22  41  61  88 124 162 202 249 300 362
#     4   9  21  42  63  84 120 163 202 249 307 359
#     4  11  23  39  61  92 125 156 198 253 304 358
#     4  10  22  42  64  89 122 158 202 256 309 366
#     4  11  24  42  64  90 122 165 210 258 309 367
#
# _framework density 20.178853
#
# number of rings (size 3 to 8) (size 9 to 14) (size 15 to 20)
#    0.000    1.714    1.429    2.143    4.000    2.857 
#    0.000    2.857    0.000    0.000    0.000    0.000 
#    0.000    0.000    0.000    0.000    0.000    0.000 
#
# Total GULP energy -347294.998665 kJ/mol
# GULP energy per Si atom -12403.392809 kJ/mol
# Density = 2.013292 g / cm^3
# Si number density = 20.178853 Si / 1000 Ang^3
#
#
#
# Elastic Constant Matrix: (Units=GPa)
#
#
# Indices 1 2 3 4 5 6 
#
# 1 144.7765 44.9075 41.4826 0.0000 19.5884 0.0000
# 2 44.9075 58.9208 27.9303 0.0000 -5.3960 0.0000
# 3 41.4826 27.9303 102.9748 0.0000 20.6277 0.0000
# 4 0.0000 0.0000 0.0000 32.7087 0.0000 5.9543
# 5 19.5884 -5.3960 20.6277 0.0000 26.4991 0.0000
# 6 0.0000 0.0000 0.0000 5.9543 0.0000 38.2385
#
#
#
# Elastic Compliance Matrix: (Units=1/GPa)
#
#
# Indices 1 2 3 4 5 6 
#
# 1 0.011244 -0.009593 0.000152 0.000000 -0.010384 0.000000
# 2 -0.009593 0.029950 -0.008176 0.000000 0.019555 0.000000
# 3 0.000152 -0.008176 0.014482 0.000000 -0.013051 0.000000
# 4 0.000000 0.000000 0.000000 0.031465 0.000000 -0.004900
# 5 -0.010384 0.019555 -0.013051 0.000000 0.059554 0.000000
# 6 0.000000 0.000000 0.000000 -0.004900 0.000000 0.026915
#
#
# Mechanical properties :
#
#
# Convention : Reuss Voigt Hill
#
# Bulk Modulus (GPa) = 48.91838 59.47923 54.19880
# Shear Modulus (GPa) = 23.18498 32.31271 27.74884
#
# Velocity S-wave (km/s) = 3.39333 4.00599 3.71232
# Velocity P-wave (km/s) = 6.29666 7.13703 6.72998
#
# Compressibility (1/GPa) = 0.02044221
#
# Stress axis : x y z
#
# Youngs Moduli (GPa) = 88.93540 33.38890 69.05310
#
# Poissons Ratio (x) = 0.32030 -0.01053
# Poissons Ratio (y) = 0.85317 0.56459
# Poissons Ratio (z) = -0.01356 0.27299
#
# Static dielectric constant tensor:
#      x y z
#    x 3.837740 0.000000 -0.010550 
#    y 0.000000 3.607650 0.000000 
#    z -0.010550 0.000000 3.789020 
# 
# 
# High freq. dielectric constant tensor:
#      x y z
#    x 1.801530 0.000000 0.006400 
#    y 0.000000 1.780350 0.000000 
#    z 0.006400 0.000000 1.793800 
# 
# From -- ./inp_files/38400.got.cif
#   From: 2010.06.25/outbox.cif.g09.slc.cpg/sg11_20_cif.got.tgz:38400.got - 2010.06.27 23:14:04.
