data_PCOD8077117
_publ_section_title
;
Structure prediction by ZEFSAII (Michael W. Deem and Ramdas Pophale) SiO2 
 PCOD8077117
Probable space group: P 21/M
;
_chemical_formula_sum "Si O2"
_cell_formula_units_Z 32
_cell_length_a 25.978749
_cell_length_b 8.595833
_cell_length_c 14.142286
_cell_angle_alpha 90.000000
_cell_angle_beta 149.713222
_cell_angle_gamma 90.000000
_cell_volume 1592.719200
_symmetry_space_group_name_H-M "P 21/M"
_symmetry_group_IT_number 11
_symmetry_cell_setting 'monoclinic'
loop_
_space_group_symop_operation_xyz
x,y,z
-x,1/2+y,-z
-x,-y,-z
x,1/2-y,z
loop_
_atom_site_type_symbol
_atom_site_label
_atom_site_fract_x
_atom_site_fract_y
_atom_site_fract_z
Si Si1 0.406037 0.565593 0.908594
Si Si2 0.820043 0.434281 0.951023
Si Si3 0.317809 0.935039 0.439775
Si Si4 0.451792 0.433904 0.181642
Si Si5 0.269126 0.566606 0.989589
Si Si6 0.961359 0.067986 0.694001
Si Si7 0.906263 0.932833 0.409061
Si Si8 0.770457 0.067664 0.506254
O O1 0.412873 0.750000 0.923470
O O2 0.403720 0.499771 0.009866
O O3 0.500000 0.500000 0.000000
O O4 0.303931 0.505837 0.694291
O O5 0.837924 0.250000 0.976299
O O6 0.740296 0.492562 0.745900
O O7 0.778124 0.488506 0.986020
O O8 0.925797 0.519509 0.096920
O O9 0.318586 0.750000 0.443615
O O10 0.433697 0.998464 0.621192
O O11 0.260104 0.005108 0.440536
O O12 0.452418 0.250000 0.177474
O O13 0.380894 0.490785 0.155550
O O14 0.281038 0.750000 0.005086
O O15 0.197547 0.511389 0.790676
O O16 0.956695 0.250000 0.660746
O O17 0.887072 0.027577 0.664319
O O18 0.922458 0.968702 0.544131
O O19 0.899855 0.750000 0.382164
O O20 0.000000 0.000000 0.500000
O O21 0.753582 0.250000 0.488093
#
# Coordination Sequence:
#
# PCOD8077117 Si02
#       8
#     4   4   4   4   4   4   4   4
#     4  11  20  35  60  89 122 157 194 240 300 364
#     4  10  22  40  62  83 114 160 205 248 296 350
#     4   9  19  39  62  84 114 158 205 247 294 352
#     4  11  22  38  62  89 118 157 203 248 299 359
#     4  11  23  39  59  88 123 157 197 246 302 356
#     4  11  22  37  61  90 122 157 195 244 298 353
#     4  12  23  38  62  90 121 157 196 242 297 358
#     4   9  19  36  59  86 118 156 193 237 295 351
#
# _framework density 20.091425999999998
#
# number of rings (size 3 to 8) (size 9 to 14) (size 15 to 20)
#    0.000    1.500    2.500    3.375    0.000    2.500 
#    0.000    3.125    0.000    0.000    0.000    0.000 
#    0.000    0.000    0.000    0.000    0.000    0.000 
#
# Total GULP energy -396887.175885 kJ/mol
# GULP energy per Si atom -12402.724246 kJ/mol
# Density = 2.004570 g / cm^3
# Si number density = 20.091426 Si / 1000 Ang^3
#
#
#
# Elastic Constant Matrix: (Units=GPa)
#
#
# Indices 1 2 3 4 5 6 
#
# 1 107.8625 21.7309 71.7778 0.0000 25.9554 0.0000
# 2 21.7309 47.8605 17.1694 0.0000 4.8575 0.0000
# 3 71.7778 17.1694 138.2787 0.0000 5.7932 0.0000
# 4 0.0000 0.0000 0.0000 26.7234 0.0000 4.8315
# 5 25.9554 4.8575 5.7932 0.0000 37.7976 0.0000
# 6 0.0000 0.0000 0.0000 4.8315 0.0000 28.2927
#
#
#
# Elastic Compliance Matrix: (Units=1/GPa)
#
#
# Indices 1 2 3 4 5 6 
#
# 1 0.018436 -0.004190 -0.008597 0.000000 -0.010804 0.000000
# 2 -0.004190 0.023041 -0.000687 0.000000 0.000022 0.000000
# 3 -0.008597 -0.000687 0.011603 0.000000 0.004213 0.000000
# 4 0.000000 0.000000 0.000000 0.038613 0.000000 -0.006594
# 5 -0.010804 0.000022 0.004213 0.000000 0.033227 0.000000
# 6 0.000000 0.000000 0.000000 -0.006594 0.000000 0.036471
#
#
# Mechanical properties :
#
#
# Convention : Reuss Voigt Hill
#
# Bulk Modulus (GPa) = 38.26710 57.26199 47.76454
# Shear Modulus (GPa) = 25.37457 30.78432 28.07944
#
# Velocity S-wave (km/s) = 3.55766 3.91859 3.74248
# Velocity P-wave (km/s) = 5.99698 7.00260 6.51921
#
# Compressibility (1/GPa) = 0.02613211
#
# Stress axis : x y z
#
# Youngs Moduli (GPa) = 54.24255 43.40132 86.18526
#
# Poissons Ratio (x) = 0.18186 0.74091
# Poissons Ratio (y) = 0.22729 0.05918
# Poissons Ratio (z) = 0.46631 0.02980
#
# Static dielectric constant tensor:
#      x y z
#    x 3.963230 0.000000 0.037890 
#    y 0.000000 3.488770 0.000000 
#    z 0.037890 0.000000 3.835770 
# 
# 
# High freq. dielectric constant tensor:
#      x y z
#    x 1.796690 0.000000 0.010670 
#    y 0.000000 1.765840 0.000000 
#    z 0.010670 0.000000 1.787540 
# 
# From -- ./inp_files/56209.got.cif
#   From: 2010.06.25/outbox.cif.g09.slc.cpg/sg11_29_cif.got.tgz:56209.got - 2010.06.27 23:14:04.
