data_PCOD8077534
_publ_section_title
;
Structure prediction by ZEFSAII (Michael W. Deem and Ramdas Pophale) SiO2 
 PCOD8077534
Probable space group: P 21/M
;
_chemical_formula_sum "Si O2"
_cell_formula_units_Z 20
_cell_length_a 19.320266
_cell_length_b 9.144225
_cell_length_c 9.612909
_cell_angle_alpha 90.000000
_cell_angle_beta 138.274090
_cell_angle_gamma 90.000000
_cell_volume 1130.335122
_symmetry_space_group_name_H-M "P 21/M"
_symmetry_group_IT_number 11
_symmetry_cell_setting 'monoclinic'
loop_
_space_group_symop_operation_xyz
x,y,z
-x,1/2+y,-z
-x,-y,-z
x,1/2-y,z
loop_
_atom_site_type_symbol
_atom_site_label
_atom_site_fract_x
_atom_site_fract_y
_atom_site_fract_z
Si Si1 0.437072 0.423211 0.155608
Si Si2 0.276048 0.421966 0.688714
Si Si3 0.672600 0.075920 0.508899
Si Si4 0.107898 0.418871 0.661847
Si Si5 0.276050 0.421967 0.139432
O O1 0.434253 0.250000 0.151373
O O2 0.554006 0.484031 0.331007
O O3 0.376940 0.476465 0.203788
O O4 0.376933 0.476472 0.927028
O O5 0.283202 0.250000 0.665703
O O6 0.268626 0.514241 0.537068
O O7 0.173300 0.459265 0.622653
O O8 0.677377 0.250000 0.516067
O O9 0.731373 0.014238 0.731189
O O10 0.081482 0.250000 0.622234
O O11 0.000000 0.500000 0.500000
O O12 0.173306 0.459279 0.897248
O O13 0.283194 0.250000 0.183887
#
# Coordination Sequence:
#
# PCOD8077534 Si02
#       5
#     4   4   4   4   4
#     4   8  16  31  50  71  99 134 171 200 230 281
#     4   9  18  34  52  71  98 134 166 195 240 298
#     4  11  20  29  46  77 108 131 160 203 240 274
#     4   9  19  36  58  76  92 121 164 207 249 295
#     4   9  18  34  52  71  98 134 166 195 240 298
#
# _framework density 17.693867000000001
#
# number of rings (size 3 to 8) (size 9 to 14) (size 15 to 20)
#    0.000    2.800    0.000    4.200    0.000    1.600 
#    0.000    6.000    0.000    0.000    0.000    0.000 
#    0.000    0.000    0.000    0.000    0.000    0.000 
#
# Total GULP energy -247980.129579 kJ/mol
# GULP energy per Si atom -12399.006479 kJ/mol
# Density = 1.765360 g / cm^3
# Si number density = 17.693867 Si / 1000 Ang^3
#
#
#
# Elastic Constant Matrix: (Units=GPa)
#
#
# Indices 1 2 3 4 5 6 
#
# 1 115.3354 58.1571 94.8715 0.0000 -7.9631 0.0000
# 2 58.1571 62.2783 58.4400 0.0000 -5.0398 0.0000
# 3 94.8715 58.4400 116.3133 0.0000 -9.5307 0.0000
# 4 0.0000 0.0000 0.0000 26.7605 0.0000 2.4501
# 5 -7.9631 -5.0398 -9.5307 0.0000 39.0879 0.0000
# 6 0.0000 0.0000 0.0000 2.4501 0.0000 26.8954
#
#
#
# Elastic Compliance Matrix: (Units=1/GPa)
#
#
# Indices 1 2 3 4 5 6 
#
# 1 0.028894 -0.009208 -0.018934 0.000000 0.000082 0.000000
# 2 -0.009208 0.033316 -0.009215 0.000000 0.000173 0.000000
# 3 -0.018934 -0.009215 0.028834 0.000000 0.001985 0.000000
# 4 0.000000 0.000000 0.000000 0.037683 0.000000 -0.003433
# 5 0.000082 0.000173 0.001985 0.000000 0.026106 0.000000
# 6 0.000000 0.000000 0.000000 -0.003433 0.000000 0.037494
#
#
# Mechanical properties :
#
#
# Convention : Reuss Voigt Hill
#
# Bulk Modulus (GPa) = 61.23620 79.65158 70.44389
# Shear Modulus (GPa) = 18.34968 24.04599 21.19783
#
# Velocity S-wave (km/s) = 3.22384 3.69046 3.46502
# Velocity P-wave (km/s) = 6.96716 7.95447 7.47713
#
# Compressibility (1/GPa) = 0.01633021
#
# Stress axis : x y z
#
# Youngs Moduli (GPa) = 34.60941 30.01537 34.68135
#
# Poissons Ratio (x) = 0.27637 0.65667
# Poissons Ratio (y) = 0.31867 0.31958
# Poissons Ratio (z) = 0.65531 0.27659
#
# Static dielectric constant tensor:
#      x y z
#    x 3.313600 0.000000 0.037640 
#    y 0.000000 2.992310 0.000000 
#    z 0.037640 0.000000 3.311550 
# 
# 
# High freq. dielectric constant tensor:
#      x y z
#    x 1.681520 0.000000 -0.009470 
#    y 0.000000 1.665190 0.000000 
#    z -0.009470 0.000000 1.682040 
# 
# From -- ./inp_files/16001.got.cif
#   From: 2010.06.25/outbox.cif.g09.slc.cpg/sg11_9_cif.got.tgz:16001.got - 2010.06.27 23:14:04.
