data_PCOD8077088
_publ_section_title
;
Structure prediction by ZEFSAII (Michael W. Deem and Ramdas Pophale) SiO2 
 PCOD8077088
Probable space group: P 21/M
;
_chemical_formula_sum "Si O2"
_cell_formula_units_Z 26
_cell_length_a 9.009325
_cell_length_b 20.125459
_cell_length_c 9.185574
_cell_angle_alpha 90.000000
_cell_angle_beta 47.575579
_cell_angle_gamma 90.000000
_cell_volume 1229.417766
_symmetry_space_group_name_H-M "P 21/M"
_symmetry_group_IT_number 11
_symmetry_cell_setting 'monoclinic'
loop_
_space_group_symop_operation_xyz
x,y,z
-x,1/2+y,-z
-x,-y,-z
x,1/2-y,z
loop_
_atom_site_type_symbol
_atom_site_label
_atom_site_fract_x
_atom_site_fract_y
_atom_site_fract_z
Si Si1 0.674306 0.867143 0.376003
Si Si2 0.226251 0.250000 0.478730
Si Si3 0.272700 0.021739 0.170584
Si Si4 0.815673 0.858169 0.959786
Si Si5 0.763357 0.130733 0.430490
Si Si6 0.791640 0.250000 0.629885
Si Si7 0.851126 0.521993 0.437471
Si Si8 0.418134 0.250000 0.059611
O O1 0.762216 0.815117 0.431243
O O2 0.433570 0.867913 0.539751
O O3 0.756595 0.940154 0.362537
O O4 0.748576 0.846261 0.168075
O O5 0.406226 0.250000 0.242341
O O6 0.021564 0.250000 0.523569
O O7 0.229502 0.067901 0.061853
O O8 0.245099 0.053215 0.350645
O O9 0.094126 0.966158 0.278174
O O10 0.500000 0.000000 0.000000
O O11 0.692123 0.813593 0.931351
O O12 0.053551 0.844407 0.791434
O O13 0.737905 0.183004 0.577944
O O14 0.798854 0.056541 0.468314
O O15 0.653033 0.250000 0.864769
#
# Coordination Sequence:
#
# PCOD8077088 Si02
#       8
#     4   2   4   4   4   2   4   2
#     4  12  25  43  66 102 140 171 219 281 338 388
#     4  12  28  42  68 100 134 166 230 286 322 392
#     4  10  22  39  65  94 132 178 220 263 324 392
#     4  11  23  41  69  95 131 176 222 264 334 403
#     4  11  23  44  70  96 135 182 216 273 335 400
#     4  12  25  43  73  93 128 177 228 270 337 396
#     4  10  24  40  66 100 140 172 225 275 324 394
#     4  12  23  43  69  93 122 175 226 268 331 400
#
# _framework density 21.148223000000002
#
# number of rings (size 3 to 8) (size 9 to 14) (size 15 to 20)
#    0.000    0.923    3.077    3.231    4.308    4.923 
#    0.000    0.000    0.000    0.000    0.000    0.000 
#    0.000    0.000    0.000    0.000    0.000    0.000 
#
# Total GULP energy -322372.735858 kJ/mol
# GULP energy per Si atom -12398.951379 kJ/mol
# Density = 2.110009 g / cm^3
# Si number density = 21.148223 Si / 1000 Ang^3
#
#
#
# Elastic Constant Matrix: (Units=GPa)
#
#
# Indices 1 2 3 4 5 6 
#
# 1 100.2548 25.1955 33.8532 0.0000 -12.7956 0.0000
# 2 25.1955 89.0134 27.9923 0.0000 7.7257 0.0000
# 3 33.8532 27.9923 138.1574 0.0000 -11.8561 0.0000
# 4 0.0000 0.0000 0.0000 30.4038 0.0000 8.8349
# 5 -12.7956 7.7257 -11.8561 0.0000 50.0791 0.0000
# 6 0.0000 0.0000 0.0000 8.8349 0.0000 39.6351
#
#
#
# Elastic Compliance Matrix: (Units=1/GPa)
#
#
# Indices 1 2 3 4 5 6 
#
# 1 0.011785 -0.002956 -0.002033 0.000000 0.002986 0.000000
# 2 -0.002956 0.013049 -0.002202 0.000000 -0.003290 0.000000
# 3 -0.002033 -0.002202 0.008336 0.000000 0.001794 0.000000
# 4 0.000000 0.000000 0.000000 0.035169 0.000000 -0.007839
# 5 0.002986 -0.003290 0.001794 0.000000 0.021663 0.000000
# 6 0.000000 0.000000 0.000000 -0.007839 0.000000 0.026978
#
#
# Mechanical properties :
#
#
# Convention : Reuss Voigt Hill
#
# Bulk Modulus (GPa) = 53.22104 55.72307 54.47206
# Shear Modulus (GPa) = 36.33110 40.04924 38.19017
#
# Velocity S-wave (km/s) = 4.14928 4.35643 4.25412
# Velocity P-wave (km/s) = 6.94088 7.19102 7.06705
#
# Compressibility (1/GPa) = 0.01878956
#
# Stress axis : x y z
#
# Youngs Moduli (GPa) = 84.85493 76.63528 119.95799
#
# Poissons Ratio (x) = 0.22651 0.24383
# Poissons Ratio (y) = 0.25080 0.26414
# Poissons Ratio (z) = 0.17248 0.16874
#
# Static dielectric constant tensor:
#      x y z
#    x 3.953820 0.000000 -0.190330 
#    y 0.000000 3.654800 0.000000 
#    z -0.190330 0.000000 4.037990 
# 
# 
# High freq. dielectric constant tensor:
#      x y z
#    x 1.835050 0.000000 -0.010150 
#    y 0.000000 1.824370 0.000000 
#    z -0.010150 0.000000 1.840160 
# 
# From -- ./inp_files/14540.got.cif
#   From: 2010.06.25/outbox.cif.g09.slc.cpg/sg11_8_cif.got.tgz:14540.got - 2010.06.27 23:14:04.
