data_PCOD8077869
_publ_section_title
;
Structure prediction by ZEFSAII (Michael W. Deem and Ramdas Pophale) SiO2 
 PCOD8077869
Probable space group: P 21/M
;
_chemical_formula_sum "Si O2"
_cell_formula_units_Z 28
_cell_length_a 31.295132
_cell_length_b 8.515376
_cell_length_c 32.126110
_cell_angle_alpha 90.000000
_cell_angle_beta 170.786481
_cell_angle_gamma 90.000000
_cell_volume 1370.781817
_symmetry_space_group_name_H-M "P 21/M"
_symmetry_group_IT_number 11
_symmetry_cell_setting 'monoclinic'
loop_
_space_group_symop_operation_xyz
x,y,z
-x,1/2+y,-z
-x,-y,-z
x,1/2-y,z
loop_
_atom_site_type_symbol
_atom_site_label
_atom_site_fract_x
_atom_site_fract_y
_atom_site_fract_z
Si Si1 0.074556 0.935323 0.192321
Si Si2 0.358364 0.066249 0.622075
Si Si3 0.494907 0.564198 0.330511
Si Si4 0.674901 0.934679 0.082353
Si Si5 0.209631 0.434403 0.900307
Si Si6 0.215557 0.434547 0.238683
Si Si7 0.895167 0.565080 0.442414
O O1 0.084912 0.750000 0.195715
O O2 0.285396 0.987283 0.429202
O O3 0.142229 0.019190 0.214601
O O4 0.786104 0.987296 0.929891
O O5 0.350630 0.250000 0.620613
O O6 0.430944 0.019438 0.645065
O O7 0.074912 0.998711 0.361051
O O8 0.575740 0.997755 0.861585
O O9 0.483192 0.750000 0.326678
O O10 0.725764 0.750000 0.137555
O O11 0.712984 0.988594 0.071508
O O12 0.887714 0.031332 0.313576
O O13 0.377613 0.976307 0.810020
O O14 0.203454 0.250000 0.897592
O O15 0.500000 0.500000 0.500000
O O16 0.222130 0.250000 0.240842
O O17 0.000000 0.500000 0.000000
O O18 0.841261 0.750000 0.387529
O O19 0.000000 0.500000 0.500000
#
# Coordination Sequence:
#
# PCOD8077869 Si02
#       7
#     4   4   4   4   4   4   4
#     4  12  25  42  65  95 126 163 209 258 309 368
#     4  11  24  41  64  92 126 164 208 257 308 367
#     4  11  24  43  64  91 126 167 208 255 312 367
#     4  11  24  43  64  91 126 164 205 254 307 366
#     4  11  24  41  64  92 126 164 205 254 311 366
#     4  12  25  44  67  94 128 166 207 256 309 368
#     4  12  25  42  65  93 124 162 205 254 307 366
#
# _framework density 20.426297999999999
#
# number of rings (size 3 to 8) (size 9 to 14) (size 15 to 20)
#    0.000    0.571    0.000    8.571    0.000   11.429 
#    0.000    0.000    0.000    0.000    0.000    0.000 
#    0.000    0.000    0.000    0.000    0.000    0.000 
#
# Total GULP energy -347399.972919 kJ/mol
# GULP energy per Si atom -12407.141890 kJ/mol
# Density = 2.037981 g / cm^3
# Si number density = 20.426298 Si / 1000 Ang^3
#
#
#
# Elastic Constant Matrix: (Units=GPa)
#
#
# Indices 1 2 3 4 5 6 
#
# 1 143.6049 71.6772 87.7991 0.0000 -3.4084 0.0000
# 2 71.6772 112.2086 46.3250 0.0000 -1.8790 0.0000
# 3 87.7991 46.3250 197.5378 0.0000 -0.3606 0.0000
# 4 0.0000 0.0000 0.0000 45.6250 0.0000 0.7768
# 5 -3.4084 -1.8790 -0.3606 0.0000 52.8826 0.0000
# 6 0.0000 0.0000 0.0000 0.7768 0.0000 43.3569
#
#
#
# Elastic Compliance Matrix: (Units=1/GPa)
#
#
# Indices 1 2 3 4 5 6 
#
# 1 0.012703 -0.006393 -0.004146 0.000000 0.000563 0.000000
# 2 -0.006393 0.013091 -0.000228 0.000000 0.000052 0.000000
# 3 -0.004146 -0.000228 0.006958 0.000000 -0.000228 0.000000
# 4 0.000000 0.000000 0.000000 0.021925 0.000000 -0.000393
# 5 0.000563 0.000052 -0.000228 0.000000 0.018946 0.000000
# 6 0.000000 0.000000 0.000000 -0.000393 0.000000 0.023071
#
#
# Mechanical properties :
#
#
# Convention : Reuss Voigt Hill
#
# Bulk Modulus (GPa) = 89.14786 96.10599 92.62693
# Shear Modulus (GPa) = 40.99461 44.87623 42.93542
#
# Velocity S-wave (km/s) = 4.48476 4.69228 4.58970
# Velocity P-wave (km/s) = 8.39975 8.74694 8.57510
#
# Compressibility (1/GPa) = 0.01121732
#
# Stress axis : x y z
#
# Youngs Moduli (GPa) = 78.72433 76.38817 143.71942
#
# Poissons Ratio (x) = 0.48837 0.59579
# Poissons Ratio (y) = 0.50331 0.03281
# Poissons Ratio (z) = 0.32635 0.01744
#
# Static dielectric constant tensor:
#      x y z
#    x 3.888330 0.000000 0.021260 
#    y 0.000000 3.987050 0.000000 
#    z 0.021260 0.000000 3.898480 
# 
# 
# High freq. dielectric constant tensor:
#      x y z
#    x 1.823410 0.000000 0.000250 
#    y 0.000000 1.819430 0.000000 
#    z 0.000250 0.000000 1.823640 
# 
# From -- ./inp_files/73877.got.cif
#   From: 2010.06.25/outbox.cif.g09.slc.cpg/sg11_37_cif.got.tgz:73877.got - 2010.06.27 23:14:04.
