data_PCOD8077818
_publ_section_title
;
Structure prediction by ZEFSAII (Michael W. Deem and Ramdas Pophale) SiO2 
 PCOD8077818
Probable space group: P 21/M
;
_chemical_formula_sum "Si O2"
_cell_formula_units_Z 28
_cell_length_a 11.526209
_cell_length_b 13.730410
_cell_length_c 10.239302
_cell_angle_alpha 90.000000
_cell_angle_beta 124.260813
_cell_angle_gamma 90.000000
_cell_volume 1339.289755
_symmetry_space_group_name_H-M "P 21/M"
_symmetry_group_IT_number 11
_symmetry_cell_setting 'monoclinic'
loop_
_space_group_symop_operation_xyz
x,y,z
-x,1/2+y,-z
-x,-y,-z
x,1/2-y,z
loop_
_atom_site_type_symbol
_atom_site_label
_atom_site_fract_x
_atom_site_fract_y
_atom_site_fract_z
Si Si1 0.130781 0.953458 0.817444
Si Si2 0.388247 0.137161 0.613114
Si Si3 0.224946 0.862856 0.613211
Si Si4 0.824329 0.499961 0.649240
Si Si5 0.272463 0.141237 0.820521
Si Si6 0.548152 0.641220 0.821459
Si Si7 0.686691 0.453462 0.818137
O O1 0.158553 0.884654 0.711795
O O2 0.155182 0.066636 0.795772
O O3 0.231186 0.920361 0.999640
O O4 0.969561 0.941357 0.759035
O O5 0.365762 0.250000 0.567585
O O6 0.326016 0.107836 0.713839
O O7 0.553291 0.115434 0.712914
O O8 0.303374 0.074818 0.453775
O O9 0.202314 0.750000 0.567882
O O10 0.151182 0.924995 0.453750
O O11 0.387911 0.892281 0.715220
O O12 0.789217 0.441375 0.759358
O O13 0.206364 0.250000 0.775534
O O14 0.408082 0.138557 0.999456
O O15 0.568972 0.750000 0.776227
O O16 0.640553 0.566631 0.796467
#
# Coordination Sequence:
#
# PCOD8077818 Si02
#       7
#     4   4   4   4   4   4   4
#     4  11  23  42  65  90 125 166 209 253 304 371
#     4  11  23  39  64  93 125 162 208 262 313 363
#     4  11  23  39  64  93 125 162 208 262 313 363
#     4  12  25  42  59  96 128 168 202 254 313 372
#     4   9  18  35  62  93 122 158 206 258 310 364
#     4   9  18  35  62  93 122 158 206 258 310 364
#     4  11  23  42  65  90 125 166 209 253 304 371
#
# _framework density 20.906603
#
# number of rings (size 3 to 8) (size 9 to 14) (size 15 to 20)
#    0.000    1.429    2.857    2.143    0.000    6.286 
#    0.000    0.000    0.000    5.143    0.000    0.000 
#    0.000    0.000    0.000    0.000    0.000    0.000 
#
# Total GULP energy -347321.773023 kJ/mol
# GULP energy per Si atom -12404.349037 kJ/mol
# Density = 2.085902 g / cm^3
# Si number density = 20.906603 Si / 1000 Ang^3
#
#
#
# Elastic Constant Matrix: (Units=GPa)
#
#
# Indices 1 2 3 4 5 6 
#
# 1 96.7383 7.8044 46.7829 0.0000 0.4738 0.0000
# 2 7.8044 66.7350 23.2401 0.0000 1.6827 0.0000
# 3 46.7829 23.2401 74.3732 0.0000 -3.7814 0.0000
# 4 0.0000 0.0000 0.0000 2.8372 0.0000 -1.2025
# 5 0.4738 1.6827 -3.7814 0.0000 31.1258 0.0000
# 6 0.0000 0.0000 0.0000 -1.2025 0.0000 19.0697
#
#
#
# Elastic Compliance Matrix: (Units=1/GPa)
#
#
# Indices 1 2 3 4 5 6 
#
# 1 0.015105 0.001806 -0.010145 0.000000 -0.001560 0.000000
# 2 0.001806 0.017106 -0.006570 0.000000 -0.001750 0.000000
# 3 -0.010145 -0.006570 0.022043 0.000000 0.003188 0.000000
# 4 0.000000 0.000000 0.000000 0.362135 0.000000 0.022835
# 5 -0.001560 -0.001750 0.003188 0.000000 0.032633 0.000000
# 6 0.000000 0.000000 0.000000 0.022835 0.000000 0.053879
#
#
# Mechanical properties :
#
#
# Convention : Reuss Voigt Hill
#
# Bulk Modulus (GPa) = 40.92597 43.72238 42.32417
# Shear Modulus (GPa) = 9.24446 21.27449 15.25947
#
# Velocity S-wave (km/s) = 2.10509 3.19344 2.70457
# Velocity P-wave (km/s) = 5.05239 5.87844 5.48100
#
# Compressibility (1/GPa) = 0.02443436
#
# Stress axis : x y z
#
# Youngs Moduli (GPa) = 66.20133 58.46046 45.36687
#
# Poissons Ratio (x) = -0.10557 0.46026
# Poissons Ratio (y) = -0.11955 0.29806
# Poissons Ratio (z) = 0.67164 0.38409
#
# Static dielectric constant tensor:
#      x y z
#    x 3.544320 0.000000 0.025270 
#    y 0.000000 3.746460 0.000000 
#    z 0.025270 0.000000 3.815830 
# 
# 
# High freq. dielectric constant tensor:
#      x y z
#    x 1.807230 0.000000 0.001650 
#    y 0.000000 1.815720 0.000000 
#    z 0.001650 0.000000 1.824560 
# 
# From -- ./inp_files/18140.got.cif
#   From: 2010.06.25/outbox.cif.g09.slc.cpg/sg11_10_cif.got.tgz:18140.got - 2010.06.27 23:14:04.
