data_PCOD8077888
_publ_section_title
;
Structure prediction by ZEFSAII (Michael W. Deem and Ramdas Pophale) SiO2 
 PCOD8077888
Probable space group: P 21/M
;
_chemical_formula_sum "Si O2"
_cell_formula_units_Z 24
_cell_length_a 7.753575
_cell_length_b 21.988957
_cell_length_c 11.110833
_cell_angle_alpha 90.000000
_cell_angle_beta 141.382368
_cell_angle_gamma 90.000000
_cell_volume 1182.282852
_symmetry_space_group_name_H-M "P 21/M"
_symmetry_group_IT_number 11
_symmetry_cell_setting 'monoclinic'
loop_
_space_group_symop_operation_xyz
x,y,z
-x,1/2+y,-z
-x,-y,-z
x,1/2-y,z
loop_
_atom_site_type_symbol
_atom_site_label
_atom_site_fract_x
_atom_site_fract_y
_atom_site_fract_z
Si Si1 0.664515 0.491704 0.968737
Si Si2 0.406906 0.112547 0.673035
Si Si3 0.254432 0.452455 0.364738
Si Si4 0.937732 0.178571 0.555458
Si Si5 0.611170 0.886770 0.791198
Si Si6 0.901142 0.178778 0.813201
O O1 0.570511 0.430131 0.853909
O O2 0.610028 0.547762 0.852174
O O3 0.500000 0.500000 0.000000
O O4 0.986813 0.488849 0.175174
O O5 0.212585 0.073945 0.476364
O O6 0.625038 0.148230 0.711201
O O7 0.222440 0.158924 0.648522
O O8 0.500000 0.500000 0.500000
O O9 0.320069 0.396393 0.311689
O O10 0.895637 0.250000 0.514953
O O11 0.686217 0.144028 0.354058
O O12 0.949856 0.160085 0.701697
O O13 0.834488 0.841802 0.968028
O O14 0.864966 0.250000 0.808920
#
# Coordination Sequence:
#
# PCOD8077888 Si02
#       6
#     4   4   4   4   4   4
#     4  12  26  40  66 102 135 174 216 274 340 397
#     4  12  24  44  69  99 135 173 222 274 333 398
#     4  12  24  41  67 102 134 176 217 270 338 404
#     4  11  26  45  68  98 131 176 228 275 327 392
#     4  12  23  43  68  96 135 172 222 271 333 399
#     4  11  24  45  69  93 130 178 222 274 329 385
#
# _framework density 20.299713000000001
#
# number of rings (size 3 to 8) (size 9 to 14) (size 15 to 20)
#    0.000    0.333    5.000    4.500    2.333    1.333 
#    0.000    0.000    0.000    0.000    0.000    0.000 
#    0.000    0.000    0.000    0.000    0.000    0.000 
#
# Total GULP energy -297774.958422 kJ/mol
# GULP energy per Si atom -12407.289934 kJ/mol
# Density = 2.025351 g / cm^3
# Si number density = 20.299713 Si / 1000 Ang^3
#
#
#
# Elastic Constant Matrix: (Units=GPa)
#
#
# Indices 1 2 3 4 5 6 
#
# 1 132.8018 42.6558 45.9656 0.0000 -1.7486 0.0000
# 2 42.6558 86.9624 46.8491 0.0000 -0.4382 0.0000
# 3 45.9656 46.8491 134.9455 0.0000 6.7289 0.0000
# 4 0.0000 0.0000 0.0000 38.2284 0.0000 0.6821
# 5 -1.7486 -0.4382 6.7289 0.0000 26.3694 0.0000
# 6 0.0000 0.0000 0.0000 0.6821 0.0000 40.0533
#
#
#
# Elastic Compliance Matrix: (Units=1/GPa)
#
#
# Indices 1 2 3 4 5 6 
#
# 1 0.009371 -0.003496 -0.002032 0.000000 0.001082 0.000000
# 2 -0.003496 0.015509 -0.004249 0.000000 0.001110 0.000000
# 3 -0.002032 -0.004249 0.009711 0.000000 -0.002683 0.000000
# 4 0.000000 0.000000 0.000000 0.026167 0.000000 -0.000446
# 5 0.001082 0.001110 -0.002683 0.000000 0.038698 0.000000
# 6 0.000000 0.000000 0.000000 -0.000446 0.000000 0.024974
#
#
# Mechanical properties :
#
#
# Convention : Reuss Voigt Hill
#
# Bulk Modulus (GPa) = 66.50303 69.51674 68.00988
# Shear Modulus (GPa) = 33.55823 35.54618 34.55220
#
# Velocity S-wave (km/s) = 4.07029 4.18912 4.13013
# Velocity P-wave (km/s) = 7.41090 7.59722 7.50464
#
# Compressibility (1/GPa) = 0.01503691
#
# Stress axis : x y z
#
# Youngs Moduli (GPa) = 106.71736 64.48053 102.97245
#
# Poissons Ratio (x) = 0.22544 0.20924
# Poissons Ratio (y) = 0.37310 0.43749
# Poissons Ratio (z) = 0.21685 0.27395
#
# Static dielectric constant tensor:
#      x y z
#    x 3.916580 0.000000 -0.273810 
#    y 0.000000 3.517510 0.000000 
#    z -0.273810 0.000000 4.165130 
# 
# 
# High freq. dielectric constant tensor:
#      x y z
#    x 1.804030 0.000000 -0.004510 
#    y 0.000000 1.800240 0.000000 
#    z -0.004510 0.000000 1.811080 
# 
# From -- ./inp_files/10438.got.cif
#   From: 2010.06.25/outbox.cif.g09.slc.cpg/sg11_6_cif.got.tgz:10438.got - 2010.06.27 23:14:04.
