data_PCOD8077446
_publ_section_title
;
Structure prediction by ZEFSAII (Michael W. Deem and Ramdas Pophale) SiO2 
 PCOD8077446
Probable space group: P 21/M
;
_chemical_formula_sum "Si O2"
_cell_formula_units_Z 20
_cell_length_a 9.287748
_cell_length_b 18.911704
_cell_length_c 5.137072
_cell_angle_alpha 90.000000
_cell_angle_beta 111.345804
_cell_angle_gamma 90.000000
_cell_volume 840.413889
_symmetry_space_group_name_H-M "P 21/M"
_symmetry_group_IT_number 11
_symmetry_cell_setting 'monoclinic'
loop_
_space_group_symop_operation_xyz
x,y,z
-x,1/2+y,-z
-x,-y,-z
x,1/2-y,z
loop_
_atom_site_type_symbol
_atom_site_label
_atom_site_fract_x
_atom_site_fract_y
_atom_site_fract_z
Si Si1 0.187505 0.052869 0.287118
Si Si2 0.857209 0.827554 0.353366
Si Si3 0.589918 0.868704 0.865711
Si Si4 0.592419 0.331168 0.767139
Si Si5 0.893125 0.098134 0.781438
O O1 0.225091 0.112808 0.525183
O O2 0.183907 0.972729 0.396865
O O3 0.328488 0.057001 0.169877
O O4 0.019530 0.072173 0.068562
O O5 0.872787 0.750000 0.497219
O O6 0.739270 0.819336 0.031851
O O7 0.028373 0.853328 0.386630
O O8 0.481841 0.877624 0.048568
O O9 0.493851 0.836586 0.564816
O O10 0.588580 0.250000 0.857345
O O11 0.767991 0.355911 0.850687
#
# Coordination Sequence:
#
# PCOD8077446 Si02
#       5
#     4   4   4   4   4
#     4  10  23  47  69  98 135 183 231 274 332 412
#     4  11  22  42  71  99 132 179 230 278 338 405
#     4  11  25  44  70  97 135 181 223 279 339 406
#     4  12  25  44  67 102 139 174 224 285 342 397
#     4  10  25  43  67 100 138 181 224 283 338 401
#
# _framework density 23.797799000000001
#
# number of rings (size 3 to 8) (size 9 to 14) (size 15 to 20)
#    0.000    1.200    2.000    3.000    2.800    6.400 
#    0.000    0.000    0.000    0.000    0.000    0.000 
#    0.000    0.000    0.000    0.000    0.000    0.000 
#
# Total GULP energy -247832.859748 kJ/mol
# GULP energy per Si atom -12391.642987 kJ/mol
# Density = 2.374363 g / cm^3
# Si number density = 23.797799 Si / 1000 Ang^3
#
#
#
# Elastic Constant Matrix: (Units=GPa)
#
#
# Indices 1 2 3 4 5 6 
#
# 1 157.4767 20.2719 33.6558 0.0000 -20.9638 0.0000
# 2 20.2719 74.8731 14.8197 0.0000 -8.0657 0.0000
# 3 33.6558 14.8197 73.1886 0.0000 -17.2555 0.0000
# 4 0.0000 0.0000 0.0000 17.1841 0.0000 -11.8705
# 5 -20.9638 -8.0657 -17.2555 0.0000 32.6461 0.0000
# 6 0.0000 0.0000 0.0000 -11.8705 0.0000 20.5621
#
#
#
# Elastic Compliance Matrix: (Units=1/GPa)
#
#
# Indices 1 2 3 4 5 6 
#
# 1 0.007449 -0.001191 -0.002429 0.000000 0.003206 0.000000
# 2 -0.001191 0.014247 -0.001928 0.000000 0.001736 0.000000
# 3 -0.002429 -0.001928 0.016782 0.000000 0.006834 0.000000
# 4 0.000000 0.000000 0.000000 0.096794 0.000000 0.055879
# 5 0.003206 0.001736 0.006834 0.000000 0.036731 0.000000
# 6 0.000000 0.000000 0.000000 0.055879 0.000000 0.080892
#
#
# Mechanical properties :
#
#
# Convention : Reuss Voigt Hill
#
# Bulk Modulus (GPa) = 36.51849 49.22590 42.87220
# Shear Modulus (GPa) = 18.30713 29.86454 24.08584
#
# Velocity S-wave (km/s) = 2.77660 3.54634 3.18481
# Velocity P-wave (km/s) = 5.06537 6.12362 5.61946
#
# Compressibility (1/GPa) = 0.02738339
#
# Stress axis : x y z
#
# Youngs Moduli (GPa) = 134.24204 70.19031 59.58832
#
# Poissons Ratio (x) = 0.08359 0.14472
# Poissons Ratio (y) = 0.15986 0.11488
# Poissons Ratio (z) = 0.32602 0.13532
#
# Static dielectric constant tensor:
#      x y z
#    x 4.389740 0.000000 0.014850 
#    y 0.000000 4.390930 0.000000 
#    z 0.014850 0.000000 4.116160 
# 
# 
# High freq. dielectric constant tensor:
#      x y z
#    x 1.958930 0.000000 0.004190 
#    y 0.000000 1.931620 0.000000 
#    z 0.004190 0.000000 1.927160 
# 
# From -- ./inp_files/2203.got.cif
#   From: 2010.06.25/outbox.cif.g09.slc.cpg/sg11_2_cif.got.tgz:2203.got - 2010.06.27 23:14:04.
