data_PCOD8077169
_publ_section_title
;
Structure prediction by ZEFSAII (Michael W. Deem and Ramdas Pophale) SiO2 
 PCOD8077169
Probable space group: P 21/M
;
_chemical_formula_sum "Si O2"
_cell_formula_units_Z 24
_cell_length_a 10.861425
_cell_length_b 10.848914
_cell_length_c 25.055467
_cell_angle_alpha 90.000000
_cell_angle_beta 23.438660
_cell_angle_gamma 90.000000
_cell_volume 1174.368464
_symmetry_space_group_name_H-M "P 21/M"
_symmetry_group_IT_number 11
_symmetry_cell_setting 'monoclinic'
loop_
_space_group_symop_operation_xyz
x,y,z
-x,1/2+y,-z
-x,-y,-z
x,1/2-y,z
loop_
_atom_site_type_symbol
_atom_site_label
_atom_site_fract_x
_atom_site_fract_y
_atom_site_fract_z
Si Si1 0.459705 0.250000 0.073552
Si Si2 0.604953 0.250000 0.893881
Si Si3 0.277138 0.250000 0.584619
Si Si4 0.686622 0.943746 0.719124
Si Si5 0.328087 0.612527 0.759898
Si Si6 0.216498 0.115695 0.505711
Si Si7 0.047235 0.750000 0.642804
Si Si8 0.310677 0.000813 0.966517
O O1 0.621137 0.376531 0.027742
O O2 0.108775 0.250000 0.236181
O O3 0.462348 0.250000 0.009256
O O4 0.494981 0.123144 0.910689
O O5 0.979840 0.250000 0.741818
O O6 0.274648 0.128533 0.546753
O O7 0.582563 0.250000 0.499448
O O8 0.565531 0.876876 0.714793
O O9 0.937826 0.867288 0.653006
O O10 0.391909 0.977107 0.872570
O O11 0.882131 0.062216 0.624686
O O12 0.194619 0.750000 0.801617
O O13 0.497719 0.553048 0.640115
O O14 0.053617 0.520649 0.883555
O O15 0.201442 0.250000 0.484475
#
# Coordination Sequence:
#
# PCOD8077169 Si02
#       8
#     2   2   2   4   4   4   2   4
#     4  10  26  42  60  97 131 166 212 265 313 370
#     4  12  22  43  67  92 132 170 211 257 317 376
#     4  10  22  41  60  95 119 165 213 260 307 383
#     4  11  21  43  60  93 128 162 208 259 318 371
#     4  11  22  39  68  93 124 168 212 257 317 380
#     4   9  21  39  59  91 124 158 216 249 309 374
#     4  10  24  38  65  88 126 165 204 266 309 375
#     4  11  23  43  65  95 129 166 212 261 317 378
#
# _framework density 20.436516000000001
#
# number of rings (size 3 to 8) (size 9 to 14) (size 15 to 20)
#    0.500    1.000    3.333    1.500    2.333    2.000 
#    1.500    0.000    0.000    0.000    0.000    0.000 
#    0.000    0.000    0.000    0.000    0.000    0.000 
#
# Total GULP energy -297417.599546 kJ/mol
# GULP energy per Si atom -12392.399981 kJ/mol
# Density = 2.039000 g / cm^3
# Si number density = 20.436516 Si / 1000 Ang^3
#
#
#
# Elastic Constant Matrix: (Units=GPa)
#
#
# Indices 1 2 3 4 5 6 
#
# 1 58.2859 9.3376 19.3647 0.0000 -0.2734 0.0000
# 2 9.3376 76.2607 1.4445 0.0000 -8.9212 0.0000
# 3 19.3647 1.4445 91.9888 0.0000 -6.1769 0.0000
# 4 0.0000 0.0000 0.0000 20.8069 0.0000 -8.5574
# 5 -0.2734 -8.9212 -6.1769 0.0000 32.5694 0.0000
# 6 0.0000 0.0000 0.0000 -8.5574 0.0000 15.3520
#
#
#
# Elastic Compliance Matrix: (Units=1/GPa)
#
#
# Indices 1 2 3 4 5 6 
#
# 1 0.018868 -0.002381 -0.004019 0.000000 -0.001256 0.000000
# 2 -0.002381 0.013848 0.000544 0.000000 0.003876 0.000000
# 3 -0.004019 0.000544 0.011867 0.000000 0.002366 0.000000
# 4 0.000000 0.000000 0.000000 0.062356 0.000000 0.034758
# 5 -0.001256 0.003876 0.002366 0.000000 0.032204 0.000000
# 6 0.000000 0.000000 0.000000 0.034758 0.000000 0.084512
#
#
# Mechanical properties :
#
#
# Convention : Reuss Voigt Hill
#
# Bulk Modulus (GPa) = 30.42205 31.86990 31.14597
# Shear Modulus (GPa) = 20.29854 26.83822 23.56838
#
# Velocity S-wave (km/s) = 3.15500 3.62781 3.39964
# Velocity P-wave (km/s) = 5.30947 5.75990 5.53927
#
# Compressibility (1/GPa) = 0.03287089
#
# Stress axis : x y z
#
# Youngs Moduli (GPa) = 53.00099 72.21472 84.26569
#
# Poissons Ratio (x) = 0.17194 0.33865
# Poissons Ratio (y) = 0.12620 -0.04585
# Poissons Ratio (z) = 0.21300 -0.03929
#
# Static dielectric constant tensor:
#      x y z
#    x 3.412240 0.000000 0.224010 
#    y 0.000000 3.793780 0.000000 
#    z 0.224010 0.000000 3.800670 
# 
# 
# High freq. dielectric constant tensor:
#      x y z
#    x 1.781400 0.000000 0.014500 
#    y 0.000000 1.795700 0.000000 
#    z 0.014500 0.000000 1.815250 
# 
# From -- ./inp_files/71406.got.cif
#   From: 2010.06.25/outbox.cif.g09.slc.cpg/sg11_36_cif.got.tgz:71406.got - 2010.06.27 23:14:04.
