data_PCOD8077939
_publ_section_title
;
Structure prediction by ZEFSAII (Michael W. Deem and Ramdas Pophale) SiO2 
 PCOD8077939
Probable space group: P 21/M
;
_chemical_formula_sum "Si O2"
_cell_formula_units_Z 32
_cell_length_a 23.249725
_cell_length_b 9.224509
_cell_length_c 28.882112
_cell_angle_alpha 90.000000
_cell_angle_beta 162.532251
_cell_angle_gamma 90.000000
_cell_volume 1859.326875
_symmetry_space_group_name_H-M "P 21/M"
_symmetry_group_IT_number 11
_symmetry_cell_setting 'monoclinic'
loop_
_space_group_symop_operation_xyz
x,y,z
-x,1/2+y,-z
-x,-y,-z
x,1/2-y,z
loop_
_atom_site_type_symbol
_atom_site_label
_atom_site_fract_x
_atom_site_fract_y
_atom_site_fract_z
Si Si1 0.727662 0.920345 0.036141
Si Si2 0.713435 0.581286 0.540914
Si Si3 0.056481 0.921456 0.868816
Si Si4 0.993647 0.919445 0.680380
Si Si5 0.708640 0.079164 0.768631
Si Si6 0.563123 0.410694 0.115182
Si Si7 0.011558 0.081323 0.078195
Si Si8 0.203055 0.086893 0.770333
O O1 0.782681 0.750000 0.079599
O O2 0.509683 0.941407 0.888063
O O3 0.758733 0.989602 0.009060
O O4 0.862026 0.014079 0.172104
O O5 0.693146 0.750000 0.534621
O O6 0.866670 0.522071 0.696025
O O7 0.783082 0.554343 0.541141
O O8 0.503952 0.511811 0.387563
O O9 0.090425 0.750000 0.887930
O O10 0.036450 0.964952 0.906655
O O11 0.038252 0.750000 0.708205
O O12 0.022253 0.998567 0.652818
O O13 0.704931 0.250000 0.757225
O O14 0.829229 0.039618 0.906962
O O15 0.801594 0.005292 0.795063
O O16 0.650700 0.250000 0.178652
O O17 0.729129 0.520723 0.226791
O O18 0.377815 0.422570 0.940131
O O19 0.061104 0.250000 0.112883
O O20 0.134940 0.250000 0.709057
#
# Coordination Sequence:
#
# PCOD8077939 Si02
#       8
#     4   4   4   4   4   4   4   4
#     4   9  16  25  37  55  78 104 137 173 206 243
#     4   8  15  27  43  61  81 109 141 169 201 245
#     4   9  17  29  43  60  84 111 137 167 206 249
#     4   9  15  24  37  52  76 108 137 168 208 248
#     4   9  17  31  48  63  82 109 139 169 202 243
#     4   8  14  22  31  46  71 103 136 168 202 241
#     4   9  18  31  46  64  85 108 135 169 207 245
#     4   9  15  21  31  49  73 103 140 174 202 240
#
# _framework density 17.210528
#
# number of rings (size 3 to 8) (size 9 to 14) (size 15 to 20)
#    0.000    3.250    0.000    2.625    0.000    4.500 
#    0.000    3.125    0.000    0.000    0.000    0.000 
#    0.000    1.000    0.000    2.000    0.000    5.375 
#
# Total GULP energy -396488.089413 kJ/mol
# GULP energy per Si atom -12390.252794 kJ/mol
# Density = 1.717136 g / cm^3
# Si number density = 17.210528 Si / 1000 Ang^3
#
#
#
# Elastic Constant Matrix: (Units=GPa)
#
#
# Indices 1 2 3 4 5 6 
#
# 1 130.4428 59.3308 57.3140 0.0000 42.2383 0.0000
# 2 59.3308 86.0973 28.6501 0.0000 23.6311 0.0000
# 3 57.3140 28.6501 31.8283 0.0000 16.6038 0.0000
# 4 0.0000 0.0000 0.0000 15.8616 0.0000 11.7489
# 5 42.2383 23.6311 16.6038 0.0000 23.8677 0.0000
# 6 0.0000 0.0000 0.0000 11.7489 0.0000 27.8735
#
#
#
# Elastic Compliance Matrix: (Units=1/GPa)
#
#
# Indices 1 2 3 4 5 6 
#
# 1 0.058092 -0.000726 -0.079579 0.000000 -0.046726 0.000000
# 2 -0.000726 0.018077 -0.009885 0.000000 -0.009736 0.000000
# 3 -0.079579 -0.009885 0.164879 0.000000 0.035916 0.000000
# 4 0.000000 0.000000 0.000000 0.091665 0.000000 -0.038638
# 5 -0.046726 -0.009736 0.035916 0.000000 0.109241 0.000000
# 6 0.000000 0.000000 0.000000 -0.038638 0.000000 0.052162
#
#
# Mechanical properties :
#
#
# Convention : Reuss Voigt Hill
#
# Bulk Modulus (GPa) = 16.48310 59.88425 38.18368
# Shear Modulus (GPa) = 7.19715 20.39213 13.79464
#
# Velocity S-wave (km/s) = 2.04717 3.44592 2.83419
# Velocity P-wave (km/s) = 3.89692 7.12061 5.73974
#
# Compressibility (1/GPa) = 0.06066819
#
# Stress axis : x y z
#
# Youngs Moduli (GPa) = 17.21408 55.31951 6.06504
#
# Poissons Ratio (x) = 0.04018 0.48265
# Poissons Ratio (y) = 0.01250 0.05995
# Poissons Ratio (z) = 1.36987 0.54684
#
# Static dielectric constant tensor:
#      x y z
#    x 3.485250 0.000000 0.542600 
#    y 0.000000 3.207070 0.000000 
#    z 0.542600 0.000000 3.096480 
# 
# 
# High freq. dielectric constant tensor:
#      x y z
#    x 1.659800 0.000000 0.045320 
#    y 0.000000 1.659080 0.000000 
#    z 0.045320 0.000000 1.618180 
# 
# From -- ./inp_files/43674.got.cif
#   From: 2010.06.25/outbox.cif.g09.slc.cpg/sg11_22_cif.got.tgz:43674.got - 2010.06.27 23:14:04.
