data_PCOD8077997
_publ_section_title
;
Structure prediction by ZEFSAII (Michael W. Deem and Ramdas Pophale) SiO2 
 PCOD8077997
Probable space group: P 21/M
;
_chemical_formula_sum "Si O2"
_cell_formula_units_Z 32
_cell_length_a 15.000000
_cell_length_b 21.000000
_cell_length_c 15.000000
_cell_angle_alpha 90.000000
_cell_angle_beta 160.000000
_cell_angle_gamma 90.000000
_cell_volume 1616.045177
_symmetry_space_group_name_H-M "P 21/M"
_symmetry_group_IT_number 11
_symmetry_cell_setting 'monoclinic'
loop_
_space_group_symop_operation_xyz
x,y,z
-x,1/2+y,-z
-x,-y,-z
x,1/2-y,z
loop_
_atom_site_type_symbol
_atom_site_label
_atom_site_fract_x
_atom_site_fract_y
_atom_site_fract_z
Si Si1 0.643253 0.541543 0.061122
Si Si2 0.608761 0.821543 0.550769
Si Si3 0.239492 0.376044 0.674083
Si Si4 0.212402 0.985188 0.331460
Si Si5 0.765084 0.321786 0.129631
Si Si6 0.240067 0.070905 0.195562
Si Si7 0.819773 0.177603 0.986885
Si Si8 0.209494 0.001123 0.536420
O O1 0.731923 0.606459 0.194117
O O2 0.915972 0.509928 0.292222
O O3 0.500000 0.500000 0.000000
O O4 0.433831 0.549748 0.782067
O O5 0.532241 0.750000 0.505654
O O6 0.653350 0.858009 0.686367
O O7 0.374012 0.853240 0.270393
O O8 0.878110 0.825043 0.751387
O O9 0.310570 0.433063 0.672961
O O10 0.946456 0.353778 0.375799
O O11 0.460740 0.322868 0.868525
O O12 0.514964 0.968194 0.609337
O O13 0.178822 0.003807 0.401790
O O14 0.146942 0.044707 0.205282
O O15 0.001464 0.930910 0.101894
O O16 0.864016 0.250000 0.215156
O O17 0.795097 0.355683 0.060664
O O18 0.717165 0.250000 0.898343
#
# Coordination Sequence:
#
# PCOD8077997 Si02
#       8
#     4   4   4   4   4   4   4   4
#     4  10  20  37  55  82 111 129 178 237 264 317
#     4  10  19  34  54  75 101 143 181 223 273 310
#     4  11  21  35  55  80 107 147 177 219 274 307
#     4  10  22  36  53  79 109 148 175 218 277 322
#     4  11  22  34  49  78 113 146 181 214 255 325
#     4  10  21  37  51  78 115 137 181 227 258 326
#     4   9  19  31  46  72 106 137 179 218 248 307
#     4  11  21  36  58  82 107 144 184 221 277 333
#
# _framework density 19.801427
#
# number of rings (size 3 to 8) (size 9 to 14) (size 15 to 20)
#    0.000    1.750    0.000    6.375    3.500    2.000 
#    0.000    0.000    0.000    0.000    0.000   17.500 
#    0.000    0.000    0.000    0.000    0.000    0.000 
#
# Total GULP energy -396458.164698 kJ/mol
# GULP energy per Si atom -12389.317647 kJ/mol
# Density = 1.975636 g / cm^3
# Si number density = 19.801427 Si / 1000 Ang^3
#
#
#
# Elastic Constant Matrix: (Units=GPa)
#
#
# Indices 1 2 3 4 5 6 
#
# 1 67.1991 19.9592 28.8409 0.0000 -14.2763 0.0000
# 2 19.9592 42.6282 13.3235 0.0000 -10.2870 0.0000
# 3 28.8409 13.3235 152.1580 0.0000 -19.9573 0.0000
# 4 0.0000 0.0000 0.0000 29.8001 0.0000 -5.3769
# 5 -14.2763 -10.2870 -19.9573 0.0000 35.1085 0.0000
# 6 0.0000 0.0000 0.0000 -5.3769 0.0000 13.0999
#
#
#
# Elastic Compliance Matrix: (Units=1/GPa)
#
#
# Indices 1 2 3 4 5 6 
#
# 1 0.018921 -0.007081 -0.002409 0.000000 0.004250 0.000000
# 2 -0.007081 0.028149 -0.000452 0.000000 0.005111 0.000000
# 3 -0.002409 -0.000452 0.007480 0.000000 0.003140 0.000000
# 4 0.000000 0.000000 0.000000 0.036241 0.000000 0.014875
# 5 0.004250 0.005111 0.003140 0.000000 0.033494 0.000000
# 6 0.000000 0.000000 0.000000 0.014875 0.000000 0.082442
#
#
# Mechanical properties :
#
#
# Convention : Reuss Voigt Hill
#
# Bulk Modulus (GPa) = 28.84655 42.91473 35.88064
# Shear Modulus (GPa) = 20.99375 28.92579 24.95977
#
# Velocity S-wave (km/s) = 3.25963 3.82618 3.55421
# Velocity P-wave (km/s) = 5.36343 6.42177 5.91631
#
# Compressibility (1/GPa) = 0.03466619
#
# Stress axis : x y z
#
# Youngs Moduli (GPa) = 52.85134 35.52555 133.68674
#
# Poissons Ratio (x) = 0.25154 0.32205
# Poissons Ratio (y) = 0.37422 0.06046
# Poissons Ratio (z) = 0.12732 0.01607
#
# Static dielectric constant tensor:
#      x y z
#    x 3.530650 0.000000 -0.279640 
#    y 0.000000 3.487020 0.000000 
#    z -0.279640 0.000000 4.259550 
# 
# 
# High freq. dielectric constant tensor:
#      x y z
#    x 1.744190 0.000000 -0.005200 
#    y 0.000000 1.730170 0.000000 
#    z -0.005200 0.000000 1.818720 
# 
# From -- ./inp_files/52734.got.cif
#   From: 2010.06.25/outbox.ucp.g09.slc.cvg/sg11_27_cif.got.tgz:52734.got - 2010.06.28 13:43:20.
