data_PCOD8077520
_publ_section_title
;
Structure prediction by ZEFSAII (Michael W. Deem and Ramdas Pophale) SiO2 
 PCOD8077520
Probable space group: P 21/M
;
_chemical_formula_sum "Si O2"
_cell_formula_units_Z 22
_cell_length_a 23.206376
_cell_length_b 9.869144
_cell_length_c 12.800923
_cell_angle_alpha 90.000000
_cell_angle_beta 21.899471
_cell_angle_gamma 90.000000
_cell_volume 1093.484742
_symmetry_space_group_name_H-M "P 21/M"
_symmetry_group_IT_number 11
_symmetry_cell_setting 'monoclinic'
loop_
_space_group_symop_operation_xyz
x,y,z
-x,1/2+y,-z
-x,-y,-z
x,1/2-y,z
loop_
_atom_site_type_symbol
_atom_site_label
_atom_site_fract_x
_atom_site_fract_y
_atom_site_fract_z
Si Si1 0.497720 0.958029 0.785127
Si Si2 0.782921 0.404722 0.858249
Si Si3 0.011693 0.983387 0.308567
Si Si4 0.468628 0.250000 0.912715
Si Si5 0.005831 0.250000 0.198651
Si Si6 0.760746 0.750000 0.373026
Si Si7 0.858729 0.750000 0.449200
Si Si8 0.648908 0.250000 0.819047
O O1 0.661844 0.882830 0.508803
O O2 0.400500 0.940613 0.840836
O O3 0.384560 0.888133 0.061296
O O4 0.528533 0.116078 0.753212
O O5 0.812739 0.250000 0.773136
O O6 0.876167 0.500608 0.621736
O O7 0.837164 0.426995 0.885859
O O8 0.960202 0.882080 0.303409
O O9 0.061774 0.121705 0.170070
O O10 0.284443 0.250000 0.230300
O O11 0.532265 0.250000 0.921099
O O12 0.823130 0.250000 0.486136
O O13 0.082560 0.250000 0.955751
O O14 0.805024 0.750000 0.419863
#
# Coordination Sequence:
#
# PCOD8077520 Si02
#       8
#     4   4   4   2   2   2   2   2
#     4  11  21  40  63  94 123 162 200 264 307 371
#     4  11  19  37  65  96 124 155 201 259 314 363
#     4  11  23  36  64  97 129 155 202 261 312 364
#     4  12  22  33  63  97 123 153 213 261 315 355
#     4  12  24  46  59  92 122 176 208 249 310 375
#     4  11  28  42  63  83 132 173 214 244 306 372
#     4  12  22  39  60 101 127 160 204 264 303 369
#     4  11  20  38  63  85 130 162 203 250 318 361
#
# _framework density 20.119164000000001
#
# number of rings (size 3 to 8) (size 9 to 14) (size 15 to 20)
#    0.000    0.727    9.091    0.545    2.545    1.455 
#    0.000    0.909    0.000    0.000    0.000    0.000 
#    0.000    0.000    0.000    0.000    0.000    0.000 
#
# Total GULP energy -272828.696838 kJ/mol
# GULP energy per Si atom -12401.304402 kJ/mol
# Density = 2.007337 g / cm^3
# Si number density = 20.119164 Si / 1000 Ang^3
#
#
#
# Elastic Constant Matrix: (Units=GPa)
#
#
# Indices 1 2 3 4 5 6 
#
# 1 98.7534 34.4602 26.4923 0.0000 -32.8297 0.0000
# 2 34.4602 151.4758 27.4368 0.0000 -12.2976 0.0000
# 3 26.4923 27.4368 80.4518 0.0000 -1.3464 0.0000
# 4 0.0000 0.0000 0.0000 13.7120 0.0000 -13.4909
# 5 -32.8297 -12.2976 -1.3464 0.0000 29.8457 0.0000
# 6 0.0000 0.0000 0.0000 -13.4909 0.0000 49.2834
#
#
#
# Elastic Compliance Matrix: (Units=1/GPa)
#
#
# Indices 1 2 3 4 5 6 
#
# 1 0.018618 -0.001703 -0.005223 0.000000 0.019543 0.000000
# 2 -0.001703 0.007433 -0.001956 0.000000 0.001101 0.000000
# 3 -0.005223 -0.001956 0.014718 0.000000 -0.005887 0.000000
# 4 0.000000 0.000000 0.000000 0.099811 0.000000 0.027322
# 5 0.019543 0.001101 -0.005887 0.000000 0.055190 0.000000
# 6 0.000000 0.000000 0.000000 0.027322 0.000000 0.027770
#
#
# Mechanical properties :
#
#
# Convention : Reuss Voigt Hill
#
# Bulk Modulus (GPa) = 43.46703 56.38440 49.92571
# Shear Modulus (GPa) = 20.08253 34.72097 27.40175
#
# Velocity S-wave (km/s) = 3.16282 4.15874 3.69449
# Velocity P-wave (km/s) = 5.91520 7.15166 6.56262
#
# Compressibility (1/GPa) = 0.02300594
#
# Stress axis : x y z
#
# Youngs Moduli (GPa) = 53.71005 134.53961 67.94327
#
# Poissons Ratio (x) = 0.22912 0.35488
# Poissons Ratio (y) = 0.09147 0.13287
# Poissons Ratio (z) = 0.28053 0.26311
#
# Static dielectric constant tensor:
#      x y z
#    x 3.804640 0.000000 -0.376580 
#    y 0.000000 3.783360 0.000000 
#    z -0.376580 0.000000 3.296370 
# 
# 
# High freq. dielectric constant tensor:
#      x y z
#    x 1.791070 0.000000 -0.037620 
#    y 0.000000 1.797720 0.000000 
#    z -0.037620 0.000000 1.742640 
# 
# From -- ./inp_files/56066.got.cif
#   From: 2010.06.25/outbox.cif.g09.slc.cpg/sg11_29_cif.got.tgz:56066.got - 2010.06.27 23:14:04.
