data_PCOD8077284
_publ_section_title
;
Structure prediction by ZEFSAII (Michael W. Deem and Ramdas Pophale) SiO2 
 PCOD8077284
Probable space group: P 21/M
;
_chemical_formula_sum "Si O2"
_cell_formula_units_Z 20
_cell_length_a 7.433241
_cell_length_b 23.539702
_cell_length_c 7.675750
_cell_angle_alpha 90.000000
_cell_angle_beta 35.301478
_cell_angle_gamma 90.000000
_cell_volume 776.133923
_symmetry_space_group_name_H-M "P 21/M"
_symmetry_group_IT_number 11
_symmetry_cell_setting 'monoclinic'
loop_
_space_group_symop_operation_xyz
x,y,z
-x,1/2+y,-z
-x,-y,-z
x,1/2-y,z
loop_
_atom_site_type_symbol
_atom_site_label
_atom_site_fract_x
_atom_site_fract_y
_atom_site_fract_z
Si Si1 0.650695 0.250000 0.638367
Si Si2 0.211941 0.061587 0.145957
Si Si3 0.578329 0.349652 0.239696
Si Si4 0.134605 0.561666 0.249427
Si Si5 0.786137 0.848046 0.148131
Si Si6 0.676700 0.750000 0.771048
O O1 0.487439 0.305643 0.691312
O O2 0.028115 0.250000 0.326605
O O3 0.623740 0.250000 0.868497
O O4 0.133895 0.085315 0.406204
O O5 0.042111 0.000756 0.247971
O O6 0.580246 0.052905 0.841365
O O7 0.118872 0.106046 0.072068
O O8 0.357904 0.377926 0.562893
O O9 0.346636 0.306519 0.325487
O O10 0.758930 0.396802 0.986037
O O11 0.882588 0.316250 0.078271
#
# Coordination Sequence:
#
# PCOD8077284 Si02
#       6
#     2   4   4   4   4   2
#     4  12  26  46  70  94 131 180 229 274 332 406
#     4  10  22  42  67  97 135 179 225 269 323 399
#     4  12  25  42  67 101 138 173 221 282 341 394
#     4  10  22  42  67  97 135 179 225 269 323 399
#     4  12  25  42  67 101 138 173 221 282 341 394
#     4  12  26  46  70  94 131 180 229 274 332 406
#
# _framework density 25.768751000000002
#
# number of rings (size 3 to 8) (size 9 to 14) (size 15 to 20)
#    0.000    0.800    0.000    7.200    0.000    4.800 
#    0.000    0.000    0.000    0.000    0.000    0.000 
#    0.000    0.000    0.000    0.000    0.000    0.000 
#
# Total GULP energy -247846.568569 kJ/mol
# GULP energy per Si atom -12392.328428 kJ/mol
# Density = 2.571010 g / cm^3
# Si number density = 25.768751 Si / 1000 Ang^3
#
#
#
# Elastic Constant Matrix: (Units=GPa)
#
#
# Indices 1 2 3 4 5 6 
#
# 1 49.2280 8.0134 13.2057 0.0000 -5.4081 0.0000
# 2 8.0134 105.0550 28.4256 0.0000 19.9372 0.0000
# 3 13.2057 28.4256 136.7520 0.0000 17.3734 0.0000
# 4 0.0000 0.0000 0.0000 37.1739 0.0000 15.5123
# 5 -5.4081 19.9372 17.3734 0.0000 67.1144 0.0000
# 6 0.0000 0.0000 0.0000 15.5123 0.0000 68.0836
#
#
#
# Elastic Compliance Matrix: (Units=1/GPa)
#
#
# Indices 1 2 3 4 5 6 
#
# 1 0.021433 -0.001590 -0.002087 0.000000 0.002740 0.000000
# 2 -0.001590 0.010640 -0.001696 0.000000 -0.002850 0.000000
# 3 -0.002087 -0.001696 0.008090 0.000000 -0.001759 0.000000
# 4 0.000000 0.000000 0.000000 0.029727 0.000000 -0.006773
# 5 0.002740 -0.002850 -0.001759 0.000000 0.016423 0.000000
# 6 0.000000 0.000000 0.000000 -0.006773 0.000000 0.016231
#
#
# Mechanical properties :
#
#
# Convention : Reuss Voigt Hill
#
# Bulk Modulus (GPa) = 33.99456 43.36936 38.68196
# Shear Modulus (GPa) = 40.61870 50.56706 45.59288
#
# Velocity S-wave (km/s) = 3.97454 4.43464 4.21088
# Velocity P-wave (km/s) = 5.85521 6.56415 6.21979
#
# Compressibility (1/GPa) = 0.02941647
#
# Stress axis : x y z
#
# Youngs Moduli (GPa) = 46.65614 93.98624 123.60899
#
# Poissons Ratio (x) = 0.14944 0.25801
# Poissons Ratio (y) = 0.07419 0.20964
# Poissons Ratio (z) = 0.09739 0.15940
#
# Static dielectric constant tensor:
#      x y z
#    x 4.803260 0.000000 -0.109120 
#    y 0.000000 4.397130 0.000000 
#    z -0.109120 0.000000 5.084980 
# 
# 
# High freq. dielectric constant tensor:
#      x y z
#    x 2.028250 0.000000 -0.005790 
#    y 0.000000 2.010860 0.000000 
#    z -0.005790 0.000000 2.066380 
# 
# From -- ./inp_files/14902.got.cif
#   From: 2010.06.25/outbox.cif.g09.slc.cpg/sg11_8_cif.got.tgz:14902.got - 2010.06.27 23:14:04.
