data_PCOD8077860
_publ_section_title
;
Structure prediction by ZEFSAII (Michael W. Deem and Ramdas Pophale) SiO2 
 PCOD8077860
Probable space group: P 21/M
;
_chemical_formula_sum "Si O2"
_cell_formula_units_Z 28
_cell_length_a 5.981998
_cell_length_b 31.633960
_cell_length_c 9.141526
_cell_angle_alpha 90.000000
_cell_angle_beta 48.834878
_cell_angle_gamma 90.000000
_cell_volume 1302.288522
_symmetry_space_group_name_H-M "P 21/M"
_symmetry_group_IT_number 11
_symmetry_cell_setting 'monoclinic'
loop_
_space_group_symop_operation_xyz
x,y,z
-x,1/2+y,-z
-x,-y,-z
x,1/2-y,z
loop_
_atom_site_type_symbol
_atom_site_label
_atom_site_fract_x
_atom_site_fract_y
_atom_site_fract_z
Si Si1 0.682527 0.532394 0.514116
Si Si2 0.670403 0.477773 0.798400
Si Si3 0.379799 0.618885 0.597208
Si Si4 0.054208 0.333046 0.016855
Si Si5 0.061996 0.330540 0.685674
Si Si6 0.114157 0.750000 0.748969
Si Si7 0.159938 0.250000 0.468266
Si Si8 0.374009 0.612183 0.273803
O O1 0.500000 0.500000 0.500000
O O2 0.706680 0.514234 0.664870
O O3 0.537683 0.577911 0.592630
O O4 0.000364 0.537141 0.297962
O O5 0.503719 0.434619 0.820297
O O6 0.500000 0.500000 0.000000
O O7 0.590314 0.659168 0.478324
O O8 0.248783 0.608737 0.493443
O O9 0.139027 0.631091 0.821470
O O10 0.045848 0.290782 0.115384
O O11 0.946894 0.321363 0.899579
O O12 0.380006 0.352293 0.859864
O O13 0.003537 0.290337 0.608879
O O14 0.902101 0.373239 0.703212
O O15 0.982244 0.750000 0.636521
O O16 0.475380 0.750000 0.642608
#
# Coordination Sequence:
#
# PCOD8077860 Si02
#       8
#     4   4   4   4   4   2   2   4
#     4  11  24  43  66  93 135 183 232 291 352 424
#     4  11  26  42  63  99 135 181 238 293 357 421
#     4  11  23  45  67  99 140 180 232 287 359 425
#     4  11  27  43  75 104 137 184 237 289 361 436
#     4  11  25  46  71 101 141 179 231 291 355 427
#     4  12  27  51  76 111 142 196 244 288 373 436
#     4  12  27  49  80 103 152 190 234 304 365 432
#     4  11  25  43  66 102 140 182 232 297 356 426
#
# _framework density 21.500612
#
# number of rings (size 3 to 8) (size 9 to 14) (size 15 to 20)
#    0.000    0.857    4.286    1.286    8.000    2.286 
#    0.000    0.000    0.000    0.000    0.000    0.000 
#    0.000    0.000    0.000    0.000    0.000    0.000 
#
# Total GULP energy -346892.944721 kJ/mol
# GULP energy per Si atom -12389.033740 kJ/mol
# Density = 2.145168 g / cm^3
# Si number density = 21.500612 Si / 1000 Ang^3
#
#
#
# Elastic Constant Matrix: (Units=GPa)
#
#
# Indices 1 2 3 4 5 6 
#
# 1 90.3628 26.6842 45.4277 0.0000 16.6474 0.0000
# 2 26.6842 136.5530 46.7558 0.0000 11.7828 0.0000
# 3 45.4277 46.7558 131.2564 0.0000 14.8309 0.0000
# 4 0.0000 0.0000 0.0000 43.7275 0.0000 3.1161
# 5 16.6474 11.7828 14.8309 0.0000 35.5650 0.0000
# 6 0.0000 0.0000 0.0000 3.1161 0.0000 35.9449
#
#
#
# Elastic Compliance Matrix: (Units=1/GPa)
#
#
# Indices 1 2 3 4 5 6 
#
# 1 0.014256 -0.000996 -0.004053 0.000000 -0.004652 0.000000
# 2 -0.000996 0.008498 -0.002536 0.000000 -0.001291 0.000000
# 3 -0.004053 -0.002536 0.010091 0.000000 -0.001471 0.000000
# 4 0.000000 0.000000 0.000000 0.023011 0.000000 -0.001995
# 5 -0.004652 -0.001291 -0.001471 0.000000 0.031336 0.000000
# 6 0.000000 0.000000 0.000000 -0.001995 0.000000 0.027993
#
#
# Mechanical properties :
#
#
# Convention : Reuss Voigt Hill
#
# Bulk Modulus (GPa) = 56.58495 66.21196 61.39845
# Shear Modulus (GPa) = 36.69789 39.00110 37.84950
#
# Velocity S-wave (km/s) = 4.13586 4.26367 4.20025
# Velocity P-wave (km/s) = 7.01300 7.42299 7.22090
#
# Compressibility (1/GPa) = 0.01767254
#
# Stress axis : x y z
#
# Youngs Moduli (GPa) = 70.14836 117.67857 99.09721
#
# Poissons Ratio (x) = 0.11726 0.40166
# Poissons Ratio (y) = 0.06990 0.25134
# Poissons Ratio (z) = 0.28432 0.29846
#
# Static dielectric constant tensor:
#      x y z
#    x 4.209630 0.000000 0.053710 
#    y 0.000000 3.633740 0.000000 
#    z 0.053710 0.000000 3.696270 
# 
# 
# High freq. dielectric constant tensor:
#      x y z
#    x 1.841080 0.000000 0.007590 
#    y 0.000000 1.869500 0.000000 
#    z 0.007590 0.000000 1.844770 
# 
# From -- ./inp_files/10816.got.cif
#   From: 2010.06.25/outbox.cif.g09.slc.cpg/sg11_6_cif.got.tgz:10816.got - 2010.06.27 23:14:04.
