data_PCOD8077977
_publ_section_title
;
Structure prediction by ZEFSAII (Michael W. Deem and Ramdas Pophale) SiO2 
 PCOD8077977
Probable space group: P 21/M
;
_chemical_formula_sum "Si O2"
_cell_formula_units_Z 24
_cell_length_a 9.203915
_cell_length_b 18.253402
_cell_length_c 9.203914
_cell_angle_alpha 90.000000
_cell_angle_beta 85.401974
_cell_angle_gamma 90.000000
_cell_volume 1541.306465
_symmetry_space_group_name_H-M "P 21/M"
_symmetry_group_IT_number 11
_symmetry_cell_setting 'monoclinic'
loop_
_space_group_symop_operation_xyz
x,y,z
-x,1/2+y,-z
-x,-y,-z
x,1/2-y,z
loop_
_atom_site_type_symbol
_atom_site_label
_atom_site_fract_x
_atom_site_fract_y
_atom_site_fract_z
Si Si1 0.116560 0.938990 0.655485
Si Si2 0.076372 0.333942 0.151937
Si Si3 0.868848 0.446893 0.676022
Si Si4 0.848063 0.333942 0.923628
Si Si5 0.323978 0.053107 0.131152
Si Si6 0.344515 0.938990 0.883440
O O1 0.164615 0.925251 0.486579
O O2 0.261859 0.947260 0.738141
O O3 0.020464 0.870153 0.714123
O O4 0.024682 0.013564 0.679003
O O5 0.102156 0.250000 0.192816
O O6 0.232099 0.372688 0.125600
O O7 0.995187 0.342156 0.004813
O O8 0.874400 0.372688 0.767901
O O9 0.740942 0.500000 0.740942
O O10 0.807184 0.250000 0.897844
O O11 0.714123 0.370153 0.020464
O O12 0.486579 0.074749 0.164615
O O13 0.320997 0.013564 0.975318
#
# Coordination Sequence:
#
# PCOD8077977 Si02
#       6
#     4   4   4   4   4   4
#     4   9  17  29  45  65  88 113 143 178 214 253
#     4   9  17  29  45  64  85 111 143 177 213 253
#     4   9  17  29  45  65  87 113 143 176 214 253
#     4   9  17  29  45  64  85 111 143 177 213 253
#     4   9  17  29  45  65  87 113 143 176 214 253
#     4   9  17  29  45  65  88 113 143 178 214 253
#
# _framework density 15.571206
#
# number of rings (size 3 to 8) (size 9 to 14) (size 15 to 20)
#    0.000    3.000    0.000    1.000    0.000    6.000 
#    0.000    0.000    0.000    0.000    0.000    0.000 
#    0.000    0.000    0.000    0.000    0.000    0.000 
#
# Total GULP energy -297635.778426 kJ/mol
# GULP energy per Si atom -12401.490768 kJ/mol
# Density = 1.553576 g / cm^3
# Si number density = 15.571206 Si / 1000 Ang^3
#
#
#
# Elastic Constant Matrix: (Units=GPa)
#
#
# Indices 1 2 3 4 5 6 
#
# 1 123.4949 53.3868 55.6513 0.0000 5.6034 0.0000
# 2 53.3868 111.4275 53.3868 0.0000 6.7138 0.0000
# 3 55.6513 53.3868 123.4949 0.0000 5.6034 0.0000
# 4 0.0000 0.0000 0.0000 17.4273 0.0000 3.1457
# 5 5.6034 6.7138 5.6034 0.0000 17.3574 0.0000
# 6 0.0000 0.0000 0.0000 3.1457 0.0000 17.4273
#
#
#
# Elastic Compliance Matrix: (Units=1/GPa)
#
#
# Indices 1 2 3 4 5 6 
#
# 1 0.011297 -0.003697 -0.003443 0.000000 -0.001106 0.000000
# 2 -0.003697 0.012668 -0.003697 0.000000 -0.002513 0.000000
# 3 -0.003443 -0.003697 0.011297 0.000000 -0.001106 0.000000
# 4 0.000000 0.000000 0.000000 0.059314 0.000000 -0.010706
# 5 -0.001106 -0.002513 -0.001106 0.000000 0.059299 0.000000
# 6 0.000000 0.000000 0.000000 -0.010706 0.000000 0.059314
#
#
# Mechanical properties :
#
#
# Convention : Reuss Voigt Hill
#
# Bulk Modulus (GPa) = 73.58009 75.91857 74.74933
# Shear Modulus (GPa) = 20.88643 23.50855 22.19749
#
# Velocity S-wave (km/s) = 3.66642 3.88976 3.77974
# Velocity P-wave (km/s) = 8.07961 8.30874 8.19498
#
# Compressibility (1/GPa) = 0.01359063
#
# Stress axis : x y z
#
# Youngs Moduli (GPa) = 88.51829 78.93873 88.51828
#
# Poissons Ratio (x) = 0.29180 0.30474
# Poissons Ratio (y) = 0.32721 0.32721
# Poissons Ratio (z) = 0.30474 0.29180
#
# Static dielectric constant tensor:
#      x y z
#    x 2.938430 0.000000 -0.017960 
#    y 0.000000 2.944160 0.000000 
#    z -0.017960 0.000000 2.938430 
# 
# 
# High freq. dielectric constant tensor:
#      x y z
#    x 1.593350 0.000000 -0.000770 
#    y 0.000000 1.593200 0.000000 
#    z -0.000770 0.000000 1.593350 
# 
# From -- ./inp_files/13180.got.cif
#   From: 2010.06.25/outbox.cif.g09.slc.cpg/sg11_7_cif.got.tgz:13180.got - 2010.06.27 23:14:04.
