data_PCOD8077296
_publ_section_title
;
Structure prediction by ZEFSAII (Michael W. Deem and Ramdas Pophale) SiO2 
 PCOD8077296
Probable space group: P 21/M
;
_chemical_formula_sum "Si O2"
_cell_formula_units_Z 28
_cell_length_a 14.438200
_cell_length_b 17.565654
_cell_length_c 5.379571
_cell_angle_alpha 90.000000
_cell_angle_beta 69.677077
_cell_angle_gamma 90.000000
_cell_volume 1279.417010
_symmetry_space_group_name_H-M "P 21/M"
_symmetry_group_IT_number 11
_symmetry_cell_setting 'monoclinic'
loop_
_space_group_symop_operation_xyz
x,y,z
-x,1/2+y,-z
-x,-y,-z
x,1/2-y,z
loop_
_atom_site_type_symbol
_atom_site_label
_atom_site_fract_x
_atom_site_fract_y
_atom_site_fract_z
Si Si1 0.738932 0.900146 0.083839
Si Si2 0.551184 0.661294 0.477543
Si Si3 0.565650 0.339081 0.919128
Si Si4 0.123993 0.485145 0.727424
Si Si5 0.055086 0.904712 0.180871
Si Si6 0.955275 0.750000 0.214745
Si Si7 0.256578 0.953839 0.230027
Si Si8 0.174025 0.250000 0.167895
O O1 0.654453 0.882769 0.365407
O O2 0.844918 0.918459 0.108554
O O3 0.755661 0.825172 0.897117
O O4 0.704491 0.976375 0.971684
O O5 0.573805 0.750000 0.471418
O O6 0.489203 0.641828 0.286699
O O7 0.497081 0.634901 0.781188
O O8 0.592539 0.250000 0.911963
O O9 0.666000 0.386421 0.827031
O O10 0.230011 0.510301 0.520054
O O11 0.044583 0.445801 0.613653
O O12 0.071934 0.558124 0.895516
O O13 0.151216 0.917407 0.254963
O O14 0.033573 0.817428 0.158222
O O15 0.883475 0.750000 0.519358
O O16 0.894870 0.750000 0.013123
#
# Coordination Sequence:
#
# PCOD8077296 Si02
#       8
#     4   4   4   4   4   2   4   2
#     4  11  24  42  70 102 133 177 221 281 344 401
#     4  10  23  45  70  99 136 177 219 282 345 392
#     4  10  25  46  68  98 138 178 227 278 330 400
#     4  10  22  43  64  97 136 176 221 280 333 403
#     4  10  23  41  65  95 136 179 223 272 341 389
#     4  12  26  42  68 100 133 179 228 278 324 405
#     4  11  25  41  68  98 134 185 225 278 331 399
#     4  12  26  44  68 104 137 169 230 284 332 405
#
# _framework density 21.884969000000002
#
# number of rings (size 3 to 8) (size 9 to 14) (size 15 to 20)
#    0.000    1.429    2.143    1.286    9.000    1.143 
#    1.286    0.000    0.000    0.000    0.000    0.000 
#    0.000    0.000    0.000    0.000    0.000    0.000 
#
# Total GULP energy -347013.239188 kJ/mol
# GULP energy per Si atom -12393.329971 kJ/mol
# Density = 2.183516 g / cm^3
# Si number density = 21.884969 Si / 1000 Ang^3
#
#
#
# Elastic Constant Matrix: (Units=GPa)
#
#
# Indices 1 2 3 4 5 6 
#
# 1 67.4011 46.1545 26.1447 0.0000 -14.0230 0.0000
# 2 46.1545 111.7763 27.7359 0.0000 -17.9049 0.0000
# 3 26.1447 27.7359 100.4269 0.0000 -8.9437 0.0000
# 4 0.0000 0.0000 0.0000 31.6559 0.0000 -18.3816
# 5 -14.0230 -17.9049 -8.9437 0.0000 38.4874 0.0000
# 6 0.0000 0.0000 0.0000 -18.3816 0.0000 34.8982
#
#
#
# Elastic Compliance Matrix: (Units=1/GPa)
#
#
# Indices 1 2 3 4 5 6 
#
# 1 0.022200 -0.007751 -0.003308 0.000000 0.003714 0.000000
# 2 -0.007751 0.012932 -0.001296 0.000000 0.002891 0.000000
# 3 -0.003308 -0.001296 0.011248 0.000000 0.000806 0.000000
# 4 0.000000 0.000000 0.000000 0.045509 0.000000 0.023970
# 5 0.003714 0.002891 0.000806 0.000000 0.028868 0.000000
# 6 0.000000 0.000000 0.000000 0.023970 0.000000 0.041280
#
#
# Mechanical properties :
#
#
# Convention : Reuss Voigt Hill
#
# Bulk Modulus (GPa) = 46.14734 53.29717 49.72225
# Shear Modulus (GPa) = 25.77706 32.97957 29.37832
#
# Velocity S-wave (km/s) = 3.43570 3.88616 3.66785
# Velocity P-wave (km/s) = 6.07213 6.67402 6.38017
#
# Compressibility (1/GPa) = 0.02166972
#
# Stress axis : x y z
#
# Youngs Moduli (GPa) = 45.04466 77.32948 88.90141
#
# Poissons Ratio (x) = 0.59939 0.29409
# Poissons Ratio (y) = 0.34915 0.11523
# Poissons Ratio (z) = 0.14901 0.10023
#
# Static dielectric constant tensor:
#      x y z
#    x 3.814570 0.000000 -0.003570 
#    y 0.000000 4.014770 0.000000 
#    z -0.003570 0.000000 4.055200 
# 
# 
# High freq. dielectric constant tensor:
#      x y z
#    x 1.857670 0.000000 -0.005470 
#    y 0.000000 1.871110 0.000000 
#    z -0.005470 0.000000 1.860500 
# 
# From -- ./inp_files/6790.got.cif
#   From: 2010.06.25/outbox.cif.g09.slc.cpg/sg11_4_cif.got.tgz:6790.got - 2010.06.27 23:14:04.
