data_PCOD8077227
_publ_section_title
;
Structure prediction by ZEFSAII (Michael W. Deem and Ramdas Pophale) SiO2 
 PCOD8077227
Probable space group: P 21/M
;
_chemical_formula_sum "Si O2"
_cell_formula_units_Z 18
_cell_length_a 11.800187
_cell_length_b 9.709948
_cell_length_c 8.017919
_cell_angle_alpha 90.000000
_cell_angle_beta 107.223224
_cell_angle_gamma 90.000000
_cell_volume 877.491399
_symmetry_space_group_name_H-M "P 21/M"
_symmetry_group_IT_number 11
_symmetry_cell_setting 'monoclinic'
loop_
_space_group_symop_operation_xyz
x,y,z
-x,1/2+y,-z
-x,-y,-z
x,1/2-y,z
loop_
_atom_site_type_symbol
_atom_site_label
_atom_site_fract_x
_atom_site_fract_y
_atom_site_fract_z
Si Si1 0.876538 0.984738 0.037514
Si Si2 0.289689 0.513713 0.323745
Si Si3 0.237806 0.750000 0.868333
Si Si4 0.569930 0.250000 0.781795
Si Si5 0.829270 0.250000 0.526754
Si Si6 0.901366 0.750000 0.313163
Si Si7 0.678054 0.750000 0.446871
O O1 0.840607 0.125491 0.105343
O O2 0.882680 0.880668 0.190915
O O3 0.778551 0.941237 0.859112
O O4 0.000000 0.000000 0.000000
O O5 0.394641 0.612288 0.304210
O O6 0.197956 0.611280 0.383223
O O7 0.340310 0.388841 0.454603
O O8 0.250999 0.750000 0.674878
O O9 0.369039 0.750000 0.008762
O O10 0.427159 0.250000 0.737437
O O11 0.969100 0.250000 0.545500
O O12 0.806767 0.750000 0.420463
#
# Coordination Sequence:
#
# PCOD8077227 Si02
#       7
#     4   4   2   2   2   2   2
#     4  11  21  39  59  88 122 163 197 241 307 376
#     4  10  22  41  66  88 120 163 207 247 299 362
#     4  10  23  38  62  83 122 164 199 248 309 357
#     4   9  22  46  63  85 120 171 207 238 303 364
#     4  11  22  41  58  94 123 160 197 249 318 362
#     4  12  25  36  60  96 132 152 196 257 311 355
#     4  12  24  39  63  96 123 153 209 264 289 348
#
# _framework density 20.513024000000001
#
# number of rings (size 3 to 8) (size 9 to 14) (size 15 to 20)
#    0.000    1.333    2.222    4.000    3.111    1.778 
#    0.000   14.444    0.000    0.000    0.000    0.000 
#    0.000    0.000    0.000    0.000    0.000    0.000 
#
# Total GULP energy -223200.605890 kJ/mol
# GULP energy per Si atom -12400.033661 kJ/mol
# Density = 2.046634 g / cm^3
# Si number density = 20.513024 Si / 1000 Ang^3
#
#
#
# Elastic Constant Matrix: (Units=GPa)
#
#
# Indices 1 2 3 4 5 6 
#
# 1 67.5008 6.6953 25.5976 0.0000 17.7545 0.0000
# 2 6.6953 110.7825 42.6489 0.0000 11.7794 0.0000
# 3 25.5976 42.6489 123.0081 0.0000 7.6683 0.0000
# 4 0.0000 0.0000 0.0000 26.1205 0.0000 1.1191
# 5 17.7545 11.7794 7.6683 0.0000 32.3237 0.0000
# 6 0.0000 0.0000 0.0000 1.1191 0.0000 13.8239
#
#
#
# Elastic Compliance Matrix: (Units=1/GPa)
#
#
# Indices 1 2 3 4 5 6 
#
# 1 0.018699 0.001363 -0.003748 0.000000 -0.009878 0.000000
# 2 0.001363 0.010808 -0.003795 0.000000 -0.003787 0.000000
# 3 -0.003748 -0.003795 0.010161 0.000000 0.001031 0.000000
# 4 0.000000 0.000000 0.000000 0.038417 0.000000 -0.003110
# 5 -0.009878 -0.003787 0.001031 0.000000 0.037499 0.000000
# 6 0.000000 0.000000 0.000000 -0.003110 0.000000 0.072590
#
#
# Mechanical properties :
#
#
# Convention : Reuss Voigt Hill
#
# Bulk Modulus (GPa) = 36.61864 50.13058 43.37461
# Shear Modulus (GPa) = 23.85079 29.54357 26.69718
#
# Velocity S-wave (km/s) = 3.41356 3.79916 3.61151
# Velocity P-wave (km/s) = 5.78158 6.61334 6.21140
#
# Compressibility (1/GPa) = 0.02730850
#
# Stress axis : x y z
#
# Youngs Moduli (GPa) = 53.47862 92.52456 98.41584
#
# Poissons Ratio (x) = -0.12613 0.36887
# Poissons Ratio (y) = -0.07290 0.37348
# Poissons Ratio (z) = 0.20044 0.35112
#
# Static dielectric constant tensor:
#      x y z
#    x 3.380350 0.000000 -0.066200 
#    y 0.000000 3.725730 0.000000 
#    z -0.066200 0.000000 3.920220 
# 
# 
# High freq. dielectric constant tensor:
#      x y z
#    x 1.786590 0.000000 0.006820 
#    y 0.000000 1.816620 0.000000 
#    z 0.006820 0.000000 1.813320 
# 
# From -- ./inp_files/15770.got.cif
#   From: 2010.06.25/outbox.cif.g09.slc.cpg/sg11_8_cif.got.tgz:15770.got - 2010.06.27 23:14:04.
