data_PCOD8077214
_publ_section_title
;
Structure prediction by ZEFSAII (Michael W. Deem and Ramdas Pophale) SiO2 
 PCOD8077214
Probable space group: P 21/M
;
_chemical_formula_sum "Si O2"
_cell_formula_units_Z 28
_cell_length_a 13.856329
_cell_length_b 21.674973
_cell_length_c 8.403986
_cell_angle_alpha 90.000000
_cell_angle_beta 149.994032
_cell_angle_gamma 90.000000
_cell_volume 1262.235583
_symmetry_space_group_name_H-M "P 21/M"
_symmetry_group_IT_number 11
_symmetry_cell_setting 'monoclinic'
loop_
_space_group_symop_operation_xyz
x,y,z
-x,1/2+y,-z
-x,-y,-z
x,1/2-y,z
loop_
_atom_site_type_symbol
_atom_site_label
_atom_site_fract_x
_atom_site_fract_y
_atom_site_fract_z
Si Si1 0.515380 0.180456 0.994109
Si Si2 0.199440 0.373053 0.341643
Si Si3 0.456946 0.593197 0.685565
Si Si4 0.134035 0.997888 0.342740
Si Si5 0.162148 0.416498 0.931165
Si Si6 0.814197 0.178554 0.904839
Si Si7 0.085025 0.820431 0.595423
O O1 0.473150 0.250000 0.986402
O O2 0.458396 0.137742 0.059180
O O3 0.739024 0.171138 0.274386
O O4 0.387542 0.165880 0.656055
O O5 0.193388 0.431269 0.457197
O O6 0.215211 0.393847 0.182844
O O7 0.011090 0.330612 0.088246
O O8 0.322792 0.542381 0.576662
O O9 0.639136 0.558564 0.863416
O O10 0.347222 0.633769 0.397232
O O11 0.005010 0.969333 0.302239
O O12 0.000000 0.000000 0.000000
O O13 0.091148 0.360303 0.721077
O O14 0.748778 0.250000 0.797592
O O15 0.848988 0.158153 0.135833
O O16 0.013545 0.750000 0.500889
#
# Coordination Sequence:
#
# PCOD8077214 Si02
#       7
#     4   4   4   4   4   4   4
#     4  11  23  42  65  97 132 169 215 268 321 386
#     4  11  23  42  66  92 135 168 213 269 320 379
#     4  12  23  42  70  95 128 174 212 266 326 378
#     4  10  22  45  65  93 132 166 220 266 315 379
#     4  11  23  42  66  97 126 172 214 260 324 381
#     4  11  22  40  64  95 129 169 214 268 324 383
#     4  10  22  41  64  94 134 166 214 269 318 384
#
# _framework density 22.182862
#
# number of rings (size 3 to 8) (size 9 to 14) (size 15 to 20)
#    0.000    1.143    4.286    2.571    0.000    7.429 
#    2.571    1.429    0.000    0.000    0.000    0.000 
#    0.000    0.000    0.000    0.000    0.000    0.000 
#
# Total GULP energy -347226.149887 kJ/mol
# GULP energy per Si atom -12400.933925 kJ/mol
# Density = 2.213237 g / cm^3
# Si number density = 22.182862 Si / 1000 Ang^3
#
#
#
# Elastic Constant Matrix: (Units=GPa)
#
#
# Indices 1 2 3 4 5 6 
#
# 1 89.4471 18.0991 21.9211 0.0000 18.3040 0.0000
# 2 18.0991 57.3693 20.9582 0.0000 13.4510 0.0000
# 3 21.9211 20.9582 84.3376 0.0000 11.1902 0.0000
# 4 0.0000 0.0000 0.0000 34.4785 0.0000 -2.0705
# 5 18.3040 13.4510 11.1902 0.0000 42.5618 0.0000
# 6 0.0000 0.0000 0.0000 -2.0705 0.0000 18.2667
#
#
#
# Elastic Compliance Matrix: (Units=1/GPa)
#
#
# Indices 1 2 3 4 5 6 
#
# 1 0.013078 -0.002291 -0.002259 0.000000 -0.004306 0.000000
# 2 -0.002291 0.020649 -0.003938 0.000000 -0.004505 0.000000
# 3 -0.002259 -0.003938 0.013603 0.000000 -0.001361 0.000000
# 4 0.000000 0.000000 0.000000 0.029202 0.000000 0.003310
# 5 -0.004306 -0.004505 -0.001361 0.000000 0.027129 0.000000
# 6 0.000000 0.000000 0.000000 0.003310 0.000000 0.055119
#
#
# Mechanical properties :
#
#
# Convention : Reuss Voigt Hill
#
# Bulk Modulus (GPa) = 32.94381 39.23453 36.08917
# Shear Modulus (GPa) = 26.89990 30.40645 28.65317
#
# Velocity S-wave (km/s) = 3.48608 3.70634 3.59789
# Velocity P-wave (km/s) = 5.57557 6.00343 5.79345
#
# Compressibility (1/GPa) = 0.03035471
#
# Stress axis : x y z
#
# Youngs Moduli (GPa) = 76.46344 48.42932 73.51158
#
# Poissons Ratio (x) = 0.11096 0.16603
# Poissons Ratio (y) = 0.17519 0.28949
# Poissons Ratio (z) = 0.17270 0.19072
#
# Static dielectric constant tensor:
#      x y z
#    x 4.092070 0.000000 0.125770 
#    y 0.000000 4.128370 0.000000 
#    z 0.125770 0.000000 3.989410 
# 
# 
# High freq. dielectric constant tensor:
#      x y z
#    x 1.873410 0.000000 0.004170 
#    y 0.000000 1.871350 0.000000 
#    z 0.004170 0.000000 1.878070 
# 
# From -- ./inp_files/23237.got.cif
#   From: 2010.06.25/outbox.cif.g09.slc.cpg/sg11_12_cif.got.tgz:23237.got - 2010.06.27 23:14:04.
