data_PCOD8077720
_publ_section_title
;
Structure prediction by ZEFSAII (Michael W. Deem and Ramdas Pophale) SiO2 
 PCOD8077720
Probable space group: P 21/M
;
_chemical_formula_sum "Si O2"
_cell_formula_units_Z 32
_cell_length_a 18.067774
_cell_length_b 8.777755
_cell_length_c 11.540060
_cell_angle_alpha 90.000000
_cell_angle_beta 91.710339
_cell_angle_gamma 90.000000
_cell_volume 1829.374605
_symmetry_space_group_name_H-M "P 21/M"
_symmetry_group_IT_number 11
_symmetry_cell_setting 'monoclinic'
loop_
_space_group_symop_operation_xyz
x,y,z
-x,1/2+y,-z
-x,-y,-z
x,1/2-y,z
loop_
_atom_site_type_symbol
_atom_site_label
_atom_site_fract_x
_atom_site_fract_y
_atom_site_fract_z
Si Si1 0.067250 0.925039 0.384259
Si Si2 0.510243 0.429771 0.625652
Si Si3 0.622250 0.068503 0.240032
Si Si4 0.419146 0.428370 0.991961
Si Si5 0.641150 0.926186 0.759543
Si Si6 0.908690 0.577067 0.376210
Si Si7 0.762438 0.428254 0.387574
Si Si8 0.226392 0.574688 0.344961
O O1 0.068402 0.750000 0.432236
O O2 0.139510 0.947206 0.306116
O O3 0.988172 0.954760 0.314854
O O4 0.074727 0.043039 0.489062
O O5 0.500000 0.500000 0.500000
O O6 0.499214 0.250000 0.619092
O O7 0.453130 0.503314 0.711803
O O8 0.592135 0.469003 0.673336
O O9 0.617893 0.250000 0.240680
O O10 0.691551 0.004067 0.317063
O O11 0.629659 0.007781 0.109824
O O12 0.427105 0.250000 0.967013
O O13 0.500000 0.500000 0.000000
O O14 0.376058 0.461970 0.108241
O O15 0.626382 0.750000 0.729972
O O16 0.726262 0.969443 0.738505
O O17 0.884008 0.750000 0.359668
O O18 0.838857 0.479613 0.328114
O O19 0.758902 0.250000 0.377618
O O20 0.761089 0.480243 0.521409
O O21 0.250750 0.750000 0.332063
#
# Coordination Sequence:
#
# PCOD8077720 Si02
#       8
#     4   4   4   4   4   4   4   4
#     4   8  15  27  42  65  99 135 167 201 243 292
#     4  12  24  37  55  76 102 134 168 204 251 306
#     4  11  22  37  56  77 102 132 171 213 256 304
#     4  11  23  39  58  76  98 130 170 217 262 305
#     4  11  23  37  53  75 102 130 168 213 256 301
#     4   9  15  24  43  69  97 132 170 203 238 290
#     4   9  19  33  48  71 105 138 164 202 252 302
#     4   9  17  31  50  72 103 139 170 202 249 304
#
# _framework density 17.492315999999999
#
# number of rings (size 3 to 8) (size 9 to 14) (size 15 to 20)
#    0.000    2.000    1.250    4.125    0.000    6.000 
#    0.000    0.000    0.000    0.000    0.000    0.875 
#    0.000    0.000    0.000    0.000    0.000    0.000 
#
# Total GULP energy -396663.855909 kJ/mol
# GULP energy per Si atom -12395.745497 kJ/mol
# Density = 1.745250 g / cm^3
# Si number density = 17.492316 Si / 1000 Ang^3
#
#
#
# Elastic Constant Matrix: (Units=GPa)
#
#
# Indices 1 2 3 4 5 6 
#
# 1 123.0465 29.8353 34.5020 0.0000 -18.5223 0.0000
# 2 29.8353 64.2401 35.3253 0.0000 -7.9999 0.0000
# 3 34.5020 35.3253 70.1289 0.0000 -12.2371 0.0000
# 4 0.0000 0.0000 0.0000 24.6621 0.0000 -1.4420
# 5 -18.5223 -7.9999 -12.2371 0.0000 13.0499 0.0000
# 6 0.0000 0.0000 0.0000 -1.4420 0.0000 30.8450
#
#
#
# Elastic Compliance Matrix: (Units=1/GPa)
#
#
# Indices 1 2 3 4 5 6 
#
# 1 0.011182 -0.002509 -0.002076 0.000000 0.012386 0.000000
# 2 -0.002509 0.022238 -0.009816 0.000000 0.000866 0.000000
# 3 -0.002076 -0.009816 0.022312 0.000000 0.011958 0.000000
# 4 0.000000 0.000000 0.000000 0.040659 0.000000 0.001901
# 5 0.012386 0.000866 0.011958 0.000000 0.105954 0.000000
# 6 0.000000 0.000000 0.000000 0.001901 0.000000 0.032509
#
#
# Mechanical properties :
#
#
# Convention : Reuss Voigt Hill
#
# Bulk Modulus (GPa) = 37.13438 50.74898 43.94168
# Shear Modulus (GPa) = 18.33972 24.22825 21.28398
#
# Velocity S-wave (km/s) = 3.24148 3.72570 3.49200
# Velocity P-wave (km/s) = 5.94009 6.89804 6.43691
#
# Compressibility (1/GPa) = 0.02692923
#
# Stress axis : x y z
#
# Youngs Moduli (GPa) = 89.42896 44.96908 44.81913
#
# Poissons Ratio (x) = 0.11284 0.09305
# Poissons Ratio (y) = 0.22440 0.43994
# Poissons Ratio (z) = 0.18566 0.44141
#
# Static dielectric constant tensor:
#      x y z
#    x 3.707530 0.000000 -0.020170 
#    y 0.000000 3.303980 0.000000 
#    z -0.020170 0.000000 3.079720 
# 
# 
# High freq. dielectric constant tensor:
#      x y z
#    x 1.692580 0.000000 -0.004750 
#    y 0.000000 1.684350 0.000000 
#    z -0.004750 0.000000 1.626520 
# 
# From -- ./inp_files/40640.got.cif
#   From: 2010.06.25/outbox.cif.g09.slc.cpg/sg11_21_cif.got.tgz:40640.got - 2010.06.27 23:14:04.
