data_PCOD8077179
_publ_section_title
;
Structure prediction by ZEFSAII (Michael W. Deem and Ramdas Pophale) SiO2 
 PCOD8077179
Probable space group: P 21/M
;
_chemical_formula_sum "Si O2"
_cell_formula_units_Z 32
_cell_length_a 11.948577
_cell_length_b 8.888114
_cell_length_c 15.280190
_cell_angle_alpha 90.000000
_cell_angle_beta 90.499758
_cell_angle_gamma 90.000000
_cell_volume 1622.699254
_symmetry_space_group_name_H-M "P 21/M"
_symmetry_group_IT_number 11
_symmetry_cell_setting 'monoclinic'
loop_
_space_group_symop_operation_xyz
x,y,z
-x,1/2+y,-z
-x,-y,-z
x,1/2-y,z
loop_
_atom_site_type_symbol
_atom_site_label
_atom_site_fract_x
_atom_site_fract_y
_atom_site_fract_z
Si Si1 0.621687 0.927092 0.494966
Si Si2 0.283280 0.078807 0.151936
Si Si3 0.735122 0.919499 0.168497
Si Si4 0.772784 0.072424 0.346220
Si Si5 0.490974 0.917245 0.090040
Si Si6 0.789562 0.579513 0.650473
Si Si7 0.121435 0.427699 0.998128
Si Si8 0.995223 0.926889 0.406316
O O1 0.608814 0.750000 0.478737
O O2 0.686650 0.961547 0.585880
O O3 0.500000 0.000000 0.500000
O O4 0.689124 0.997072 0.414637
O O5 0.307247 0.250000 0.125395
O O6 0.242280 0.063108 0.249725
O O7 0.399689 0.992374 0.151319
O O8 0.193085 0.012956 0.082018
O O9 0.769754 0.750000 0.198246
O O10 0.608627 0.919496 0.137607
O O11 0.815823 0.975230 0.090788
O O12 0.737250 0.037188 0.247377
O O13 0.773786 0.250000 0.363065
O O14 0.896073 0.004392 0.353166
O O15 0.450439 0.750000 0.069884
O O16 0.500000 0.000000 0.000000
O O17 0.830081 0.750000 0.630007
O O18 0.888058 0.459994 0.639654
O O19 0.107010 0.250000 0.003640
O O20 0.000000 0.500000 0.000000
O O21 0.973867 0.750000 0.412795
O O22 0.000000 0.000000 0.500000
#
# Coordination Sequence:
#
# PCOD8077179 Si02
#       8
#     4   4   4   4   4   4   4   4
#     4  11  24  43  65  93 132 170 209 261 316 377
#     4  10  22  42  64  92 127 163 206 258 310 369
#     4  10  23  43  63  91 128 166 208 262 317 371
#     4  12  26  43  66  95 126 168 216 263 320 377
#     4  11  22  40  66  93 124 164 210 259 315 372
#     4  10  23  42  66  94 127 168 211 257 315 374
#     4  10  22  41  62  88 127 166 204 255 313 369
#     4  12  24  42  68  95 127 165 212 265 317 375
#
# _framework density 19.720230000000001
#
# number of rings (size 3 to 8) (size 9 to 14) (size 15 to 20)
#    0.000    1.250    2.500    3.000    3.500    3.000 
#    0.000    0.000    0.000    0.000    0.000    0.000 
#    0.000    0.000    0.000    0.000    0.000    0.000 
#
# Total GULP energy -396874.687190 kJ/mol
# GULP energy per Si atom -12402.333975 kJ/mol
# Density = 1.967535 g / cm^3
# Si number density = 19.720230 Si / 1000 Ang^3
#
#
#
# Elastic Constant Matrix: (Units=GPa)
#
#
# Indices 1 2 3 4 5 6 
#
# 1 129.7575 58.1863 44.1742 0.0000 -6.9896 0.0000
# 2 58.1863 120.3589 51.4773 0.0000 -4.3418 0.0000
# 3 44.1742 51.4773 122.0971 0.0000 1.8109 0.0000
# 4 0.0000 0.0000 0.0000 22.6980 0.0000 1.3149
# 5 -6.9896 -4.3418 1.8109 0.0000 23.1354 0.0000
# 6 0.0000 0.0000 0.0000 1.3149 0.0000 38.3326
#
#
#
# Elastic Compliance Matrix: (Units=1/GPa)
#
#
# Indices 1 2 3 4 5 6 
#
# 1 0.010359 -0.004023 -0.002089 0.000000 0.002538 0.000000
# 2 -0.004023 0.011816 -0.003545 0.000000 0.001280 0.000000
# 3 -0.002089 -0.003545 0.010472 0.000000 -0.002116 0.000000
# 4 0.000000 0.000000 0.000000 0.044145 0.000000 -0.001514
# 5 0.002538 0.001280 -0.002116 0.000000 0.044396 0.000000
# 6 0.000000 0.000000 0.000000 -0.001514 0.000000 0.026139
#
#
# Mechanical properties :
#
#
# Convention : Reuss Voigt Hill
#
# Bulk Modulus (GPa) = 75.00709 75.54323 75.27516
# Shear Modulus (GPa) = 29.22525 31.39156 30.30841
#
# Velocity S-wave (km/s) = 3.85384 3.99412 3.92461
# Velocity P-wave (km/s) = 7.61058 7.72407 7.66754
#
# Compressibility (1/GPa) = 0.01333207
#
# Stress axis : x y z
#
# Youngs Moduli (GPa) = 96.53907 84.63404 95.49081
#
# Poissons Ratio (x) = 0.34044 0.19952
# Poissons Ratio (y) = 0.38833 0.33853
# Poissons Ratio (z) = 0.20171 0.30004
#
# Static dielectric constant tensor:
#      x y z
#    x 3.771430 0.000000 -0.097660 
#    y 0.000000 3.703500 0.000000 
#    z -0.097660 0.000000 3.674470 
# 
# 
# High freq. dielectric constant tensor:
#      x y z
#    x 1.781140 0.000000 0.000060 
#    y 0.000000 1.771810 0.000000 
#    z 0.000060 0.000000 1.780360 
# 
# From -- ./inp_files/49322.got.cif
#   From: 2010.06.25/outbox.cif.g09.slc.cpg/sg11_25_cif.got.tgz:49322.got - 2010.06.27 23:14:04.
