data_PCOD8077146
_publ_section_title
;
Structure prediction by ZEFSAII (Michael W. Deem and Ramdas Pophale) SiO2 
 PCOD8077146
Probable space group: P 21/M
;
_chemical_formula_sum "Si O2"
_cell_formula_units_Z 16
_cell_length_a 9.135746
_cell_length_b 14.090058
_cell_length_c 4.689683
_cell_angle_alpha 90.000000
_cell_angle_beta 101.426498
_cell_angle_gamma 90.000000
_cell_volume 591.705996
_symmetry_space_group_name_H-M "P 21/M"
_symmetry_group_IT_number 11
_symmetry_cell_setting 'monoclinic'
loop_
_space_group_symop_operation_xyz
x,y,z
-x,1/2+y,-z
-x,-y,-z
x,1/2-y,z
loop_
_atom_site_type_symbol
_atom_site_label
_atom_site_fract_x
_atom_site_fract_y
_atom_site_fract_z
Si Si1 0.208123 0.750000 0.893159
Si Si2 0.520291 0.145159 0.921023
Si Si3 0.864414 0.948484 0.291231
Si Si4 0.998258 0.250000 0.685010
Si Si5 0.335277 0.025909 0.266219
O O1 0.156291 0.750000 0.201449
O O2 0.312950 0.657540 0.875582
O O3 0.054848 0.750000 0.662152
O O4 0.473728 0.250000 0.776860
O O5 0.407296 0.114391 0.124186
O O6 0.546124 0.063484 0.683821
O O7 0.903660 0.841950 0.217348
O O8 0.717291 0.944128 0.438851
O O9 0.814187 0.000703 0.978749
O O10 0.000000 0.000000 0.500000
#
# Coordination Sequence:
#
# PCOD8077146 Si02
#       5
#     2   4   4   2   4
#     4  10  22  40  64  94 128 172 218 252 332 380
#     4   9  23  43  71  93 133 169 214 275 321 383
#     4  12  26  42  68  95 138 168 218 265 318 390
#     4  12  24  40  66  94 130 180 210 268 322 388
#     4  11  24  45  65 103 124 173 218 268 323 381
#
# _framework density 27.040455999999999
#
# number of rings (size 3 to 8) (size 9 to 14) (size 15 to 20)
#    0.750    0.500    0.000    5.250    3.500    6.000 
#    0.000    0.000    0.000    0.000    0.000    0.000 
#    0.000    0.000    0.000    0.000    0.000    0.000 
#
# Total GULP energy -198338.718510 kJ/mol
# GULP energy per Si atom -12396.169907 kJ/mol
# Density = 2.697891 g / cm^3
# Si number density = 27.040456 Si / 1000 Ang^3
#
#
#
# Elastic Constant Matrix: (Units=GPa)
#
#
# Indices 1 2 3 4 5 6 
#
# 1 106.9365 9.4275 2.0840 0.0000 -5.5891 0.0000
# 2 9.4275 133.8247 -14.5402 0.0000 -7.1835 0.0000
# 3 2.0840 -14.5402 52.7910 0.0000 -21.9534 0.0000
# 4 0.0000 0.0000 0.0000 28.3610 0.0000 9.8962
# 5 -5.5891 -7.1835 -21.9534 0.0000 33.3187 0.0000
# 6 0.0000 0.0000 0.0000 9.8962 0.0000 42.3748
#
#
#
# Elastic Compliance Matrix: (Units=1/GPa)
#
#
# Indices 1 2 3 4 5 6 
#
# 1 0.009480 -0.000574 0.000107 0.000000 0.001537 0.000000
# 2 -0.000574 0.008192 0.004096 0.000000 0.004369 0.000000
# 3 0.000107 0.004096 0.028156 0.000000 0.019453 0.000000
# 4 0.000000 0.000000 0.000000 0.038388 0.000000 -0.008965
# 5 0.001537 0.004369 0.019453 0.000000 0.044030 0.000000
# 6 0.000000 0.000000 0.000000 -0.008965 0.000000 0.025693
#
#
# Mechanical properties :
#
#
# Convention : Reuss Voigt Hill
#
# Bulk Modulus (GPa) = 18.83712 31.94386 25.39049
# Shear Modulus (GPa) = 30.41793 40.58297 35.50045
#
# Velocity S-wave (km/s) = 3.35760 3.87825 3.62728
# Velocity P-wave (km/s) = 4.69177 5.64743 5.19163
#
# Compressibility (1/GPa) = 0.05308668
#
# Stress axis : x y z
#
# Youngs Moduli (GPa) = 105.48326 122.06422 35.51636
#
# Poissons Ratio (x) = 0.07003 -0.00380
# Poissons Ratio (y) = 0.06052 -0.14547
# Poissons Ratio (z) = -0.01128 -0.49996
#
# Static dielectric constant tensor:
#      x y z
#    x 5.052950 0.000000 0.206390 
#    y 0.000000 4.866270 0.000000 
#    z 0.206390 0.000000 4.712700 
# 
# 
# High freq. dielectric constant tensor:
#      x y z
#    x 2.117140 0.000000 0.016560 
#    y 0.000000 2.083950 0.000000 
#    z 0.016560 0.000000 2.080130 
# 
# From -- ./inp_files/1536.got.cif
#   From: 2010.06.25/outbox.cif.g09.slc.cpg/sg11_1_cif.got.tgz:1536.got - 2010.06.27 23:14:04.
