data_PCOD8077521
_publ_section_title
;
Structure prediction by ZEFSAII (Michael W. Deem and Ramdas Pophale) SiO2 
 PCOD8077521
Probable space group: P 21/M
;
_chemical_formula_sum "Si O2"
_cell_formula_units_Z 24
_cell_length_a 9.404492
_cell_length_b 14.451123
_cell_length_c 8.754656
_cell_angle_alpha 90.000000
_cell_angle_beta 96.189347
_cell_angle_gamma 90.000000
_cell_volume 1182.870299
_symmetry_space_group_name_H-M "P 21/M"
_symmetry_group_IT_number 11
_symmetry_cell_setting 'monoclinic'
loop_
_space_group_symop_operation_xyz
x,y,z
-x,1/2+y,-z
-x,-y,-z
x,1/2-y,z
loop_
_atom_site_type_symbol
_atom_site_label
_atom_site_fract_x
_atom_site_fract_y
_atom_site_fract_z
Si Si1 0.502965 0.099910 0.426424
Si Si2 0.658788 0.518011 0.076058
Si Si3 0.259951 0.361989 0.185369
Si Si4 0.761815 0.351715 0.269195
Si Si5 0.307446 0.152973 0.656647
Si Si6 0.945202 0.593401 0.571455
O O1 0.420384 0.112520 0.256061
O O2 0.664807 0.126663 0.406543
O O3 0.424026 0.166688 0.536215
O O4 0.500000 0.000000 0.500000
O O5 0.741653 0.422340 0.124170
O O6 0.644857 0.567395 0.237158
O O7 0.500000 0.500000 0.000000
O O8 0.753763 0.585017 0.978878
O O9 0.233565 0.250000 0.170026
O O10 0.153408 0.415047 0.288695
O O11 0.726953 0.250000 0.199267
O O12 0.920123 0.348634 0.356446
O O13 0.308461 0.250000 0.749867
O O14 0.148592 0.143202 0.568651
O O15 0.000000 0.500000 0.500000
#
# Coordination Sequence:
#
# PCOD8077521 Si02
#       6
#     4   4   4   4   4   4
#     4  11  19  38  62  93 123 163 213 262 317 371
#     4  12  24  40  63  95 127 168 214 261 311 376
#     4  11  23  41  65  92 129 174 212 250 317 394
#     4  12  23  39  64  94 128 164 209 269 325 368
#     4  11  22  40  65  92 124 165 214 259 308 381
#     4  11  22  43  67  94 123 164 211 264 316 375
#
# _framework density 20.289629000000001
#
# number of rings (size 3 to 8) (size 9 to 14) (size 15 to 20)
#    0.000    0.667    5.000    5.500    0.000    1.333 
#    0.000    0.000    0.000    2.000    0.000    0.000 
#    0.000    0.000    0.000    0.000    0.000    0.000 
#
# Total GULP energy -297378.545931 kJ/mol
# GULP energy per Si atom -12390.772747 kJ/mol
# Density = 2.024345 g / cm^3
# Si number density = 20.289629 Si / 1000 Ang^3
#
#
#
# Elastic Constant Matrix: (Units=GPa)
#
#
# Indices 1 2 3 4 5 6 
#
# 1 104.3295 24.7249 36.3844 0.0000 7.4522 0.0000
# 2 24.7249 159.3780 51.7534 0.0000 -2.5013 0.0000
# 3 36.3844 51.7534 97.2768 0.0000 2.5069 0.0000
# 4 0.0000 0.0000 0.0000 25.9473 0.0000 3.2995
# 5 7.4522 -2.5013 2.5069 0.0000 34.0043 0.0000
# 6 0.0000 0.0000 0.0000 3.2995 0.0000 16.5127
#
#
#
# Elastic Compliance Matrix: (Units=1/GPa)
#
#
# Indices 1 2 3 4 5 6 
#
# 1 0.011212 -0.000521 -0.003860 0.000000 -0.002211 0.000000
# 2 -0.000521 0.007634 -0.003891 0.000000 0.000963 0.000000
# 3 -0.003860 -0.003891 0.013806 0.000000 -0.000458 0.000000
# 4 0.000000 0.000000 0.000000 0.039544 0.000000 -0.007902
# 5 -0.002211 0.000963 -0.000458 0.000000 0.029997 0.000000
# 6 0.000000 0.000000 0.000000 -0.007902 0.000000 0.062138
#
#
# Mechanical properties :
#
#
# Convention : Reuss Voigt Hill
#
# Bulk Modulus (GPa) = 62.08025 65.18996 63.63510
# Shear Modulus (GPa) = 26.84634 31.83432 29.34033
#
# Velocity S-wave (km/s) = 3.64147 3.96535 3.80685
# Velocity P-wave (km/s) = 6.95297 7.29142 7.12421
#
# Compressibility (1/GPa) = 0.01610818
#
# Stress axis : x y z
#
# Youngs Moduli (GPa) = 89.18673 130.99438 72.43372
#
# Poissons Ratio (x) = 0.06822 0.27957
# Poissons Ratio (y) = 0.04645 0.28187
# Poissons Ratio (z) = 0.34424 0.50975
#
# Static dielectric constant tensor:
#      x y z
#    x 3.975390 0.000000 -0.169510 
#    y 0.000000 5.178260 0.000000 
#    z -0.169510 0.000000 3.869550 
# 
# 
# High freq. dielectric constant tensor:
#      x y z
#    x 1.794490 0.000000 -0.001880 
#    y 0.000000 1.808820 0.000000 
#    z -0.001880 0.000000 1.779680 
# 
# From -- ./inp_files/12604.got.cif
#   From: 2010.06.25/outbox.cif.g09.slc.cpg/sg11_7_cif.got.tgz:12604.got - 2010.06.27 23:14:04.
