data_PCOD8077335
_publ_section_title
;
Structure prediction by ZEFSAII (Michael W. Deem and Ramdas Pophale) SiO2 
 PCOD8077335
Probable space group: P 21/M
;
_chemical_formula_sum "Si O2"
_cell_formula_units_Z 32
_cell_length_a 15.200917
_cell_length_b 14.047902
_cell_length_c 20.592483
_cell_angle_alpha 90.000000
_cell_angle_beta 21.975380
_cell_angle_gamma 90.000000
_cell_volume 1645.520178
_symmetry_space_group_name_H-M "P 21/M"
_symmetry_group_IT_number 11
_symmetry_cell_setting 'monoclinic'
loop_
_space_group_symop_operation_xyz
x,y,z
-x,1/2+y,-z
-x,-y,-z
x,1/2-y,z
loop_
_atom_site_type_symbol
_atom_site_label
_atom_site_fract_x
_atom_site_fract_y
_atom_site_fract_z
Si Si1 0.746813 0.519765 0.697145
Si Si2 0.524315 0.007880 0.243841
Si Si3 0.094507 0.141164 0.022920
Si Si4 0.763030 0.645086 0.803504
Si Si5 0.084938 0.012468 0.636743
Si Si6 0.256869 0.856543 0.203996
Si Si7 0.219614 0.492440 0.692676
Si Si8 0.952559 0.358905 0.971693
O O1 0.578007 0.545069 0.753727
O O2 0.778153 0.612546 0.719277
O O3 0.667281 0.425014 0.789223
O O4 0.000000 0.500000 0.500000
O O5 0.328412 0.991175 0.432916
O O6 0.703750 0.088399 0.143871
O O7 0.654028 0.908648 0.139010
O O8 0.108404 0.250000 0.037056
O O9 0.890877 0.090538 0.204608
O O10 0.048514 0.133067 0.978253
O O11 0.871777 0.750000 0.737288
O O12 0.908887 0.576793 0.751389
O O13 0.486183 0.645413 0.003538
O O14 0.130034 0.030463 0.681573
O O15 0.962162 0.104180 0.688170
O O16 0.191631 0.750000 0.273051
O O17 0.500000 0.500000 0.500000
O O18 0.136845 0.406824 0.796036
O O19 0.917168 0.250000 0.974521
#
# Coordination Sequence:
#
# PCOD8077335 Si02
#       8
#     4   4   4   4   4   4   4   4
#     4  11  21  40  60  87 121 155 204 247 288 347
#     4  11  22  39  63  87 119 159 198 243 297 345
#     4  10  23  42  63  90 121 153 195 243 295 356
#     4  10  23  40  60  85 121 161 198 245 297 349
#     4  11  22  40  60  87 122 155 200 246 291 355
#     4  10  23  40  60  85 121 161 198 245 297 349
#     4  11  23  40  67  90 120 156 194 242 298 351
#     4  10  23  42  63  90 121 153 195 243 295 356
#
# _framework density 19.446739000000001
#
# number of rings (size 3 to 8) (size 9 to 14) (size 15 to 20)
#    0.000    1.500    2.500    4.500    7.000    4.000 
#    0.000    0.000    0.000    0.000    0.000    0.000 
#    0.000    0.000    0.000    0.000    0.000    0.000 
#
# Total GULP energy -396748.648877 kJ/mol
# GULP energy per Si atom -12398.395277 kJ/mol
# Density = 1.940248 g / cm^3
# Si number density = 19.446739 Si / 1000 Ang^3
#
#
#
# Elastic Constant Matrix: (Units=GPa)
#
#
# Indices 1 2 3 4 5 6 
#
# 1 76.0092 -5.3270 10.5444 0.0000 3.8627 0.0000
# 2 -5.3270 104.1440 32.0239 0.0000 2.9291 0.0000
# 3 10.5444 32.0239 118.9267 0.0000 1.9216 0.0000
# 4 0.0000 0.0000 0.0000 11.7193 0.0000 0.3483
# 5 3.8627 2.9291 1.9216 0.0000 33.6053 0.0000
# 6 0.0000 0.0000 0.0000 0.3483 0.0000 19.3497
#
#
#
# Elastic Compliance Matrix: (Units=1/GPa)
#
#
# Indices 1 2 3 4 5 6 
#
# 1 0.013528 0.001196 -0.001496 0.000000 -0.001574 0.000000
# 2 0.001196 0.010594 -0.002944 0.000000 -0.000893 0.000000
# 3 -0.001496 -0.002944 0.009336 0.000000 -0.000105 0.000000
# 4 0.000000 0.000000 0.000000 0.085375 0.000000 -0.001537
# 5 -0.001574 -0.000893 -0.000105 0.000000 0.030022 0.000000
# 6 0.000000 0.000000 0.000000 -0.001537 0.000000 0.051708
#
#
# Mechanical properties :
#
#
# Convention : Reuss Voigt Hill
#
# Bulk Modulus (GPa) = 37.07976 41.50693 39.29335
# Shear Modulus (GPa) = 23.14386 30.39075 26.76731
#
# Velocity S-wave (km/s) = 3.45355 3.95748 3.71407
# Velocity P-wave (km/s) = 5.91704 6.50172 6.21626
#
# Compressibility (1/GPa) = 0.02696889
#
# Stress axis : x y z
#
# Youngs Moduli (GPa) = 73.92261 94.39543 107.11567
#
# Poissons Ratio (x) = -0.11292 0.16025
# Poissons Ratio (y) = -0.08843 0.31538
# Poissons Ratio (z) = 0.11060 0.27792
#
# Static dielectric constant tensor:
#      x y z
#    x 3.504790 0.000000 -0.012160 
#    y 0.000000 3.541290 0.000000 
#    z -0.012160 0.000000 3.689410 
# 
# 
# High freq. dielectric constant tensor:
#      x y z
#    x 1.763980 0.000000 0.002090 
#    y 0.000000 1.757650 0.000000 
#    z 0.002090 0.000000 1.769320 
# 
# From -- ./inp_files/65744.got.cif
#   From: 2010.06.25/outbox.cif.g09.slc.cpg/sg11_33_cif.got.tgz:65744.got - 2010.06.27 23:14:04.
