data_PCOD8077981
_publ_section_title
;
Structure prediction by ZEFSAII (Michael W. Deem and Ramdas Pophale) SiO2 
 PCOD8077981
Probable space group: P 21/M
;
_chemical_formula_sum "Si O2"
_cell_formula_units_Z 24
_cell_length_a 28.746140
_cell_length_b 9.371637
_cell_length_c 12.335668
_cell_angle_alpha 90.000000
_cell_angle_beta 25.250938
_cell_angle_gamma 90.000000
_cell_volume 1417.626320
_symmetry_space_group_name_H-M "P 21/M"
_symmetry_group_IT_number 11
_symmetry_cell_setting 'monoclinic'
loop_
_space_group_symop_operation_xyz
x,y,z
-x,1/2+y,-z
-x,-y,-z
x,1/2-y,z
loop_
_atom_site_type_symbol
_atom_site_label
_atom_site_fract_x
_atom_site_fract_y
_atom_site_fract_z
Si Si1 0.015366 0.584541 0.857524
Si Si2 0.824632 0.416528 0.195215
Si Si3 0.409965 0.412224 0.931817
Si Si4 0.655534 0.416520 0.364277
Si Si5 0.611762 0.584531 0.261102
Si Si6 0.251776 0.912214 0.406421
O O1 0.982612 0.750000 0.940511
O O2 0.143785 0.570999 0.558024
O O3 0.935193 0.508175 0.939763
O O4 0.000000 0.500000 0.000000
O O5 0.855871 0.250000 0.131414
O O6 0.740643 0.454101 0.278067
O O7 0.772115 0.463437 0.420486
O O8 0.408322 0.250000 0.974368
O O9 0.535286 0.463443 0.657277
O O10 0.345569 0.429038 0.952639
O O11 0.351232 0.499982 0.148763
O O12 0.656871 0.250000 0.330356
O O13 0.689874 0.508187 0.185056
O O14 0.500000 0.500000 0.500000
O O15 0.594287 0.750000 0.328789
O O16 0.291063 0.750000 0.326203
#
# Coordination Sequence:
#
# PCOD8077981 Si02
#       6
#     4   4   4   4   4   4
#     4   9  17  30  47  67  90 118 155 193 226 265
#     4   9  18  32  48  68  95 123 151 187 230 272
#     4   9  18  30  45  67  94 122 151 186 226 269
#     4   9  18  32  48  68  95 123 151 187 230 272
#     4   9  17  30  47  67  90 118 155 193 226 265
#     4   9  18  30  45  67  94 122 151 186 226 269
#
# _framework density 16.929708999999999
#
# number of rings (size 3 to 8) (size 9 to 14) (size 15 to 20)
#    0.000    3.000    0.000    3.000    0.000    8.000 
#    0.000    0.000    0.000    1.000    0.000    0.000 
#    0.000    0.000    0.000    0.000    0.000    0.000 
#
# Total GULP energy -297397.746570 kJ/mol
# GULP energy per Si atom -12391.572774 kJ/mol
# Density = 1.689118 g / cm^3
# Si number density = 16.929709 Si / 1000 Ang^3
#
#
#
# Elastic Constant Matrix: (Units=GPa)
#
#
# Indices 1 2 3 4 5 6 
#
# 1 104.6339 35.4912 12.8545 0.0000 -18.6646 0.0000
# 2 35.4912 64.5846 8.8275 0.0000 -8.4713 0.0000
# 3 12.8545 8.8275 10.2813 0.0000 -11.2674 0.0000
# 4 0.0000 0.0000 0.0000 28.1511 0.0000 -0.5804
# 5 -18.6646 -8.4713 -11.2674 0.0000 18.8115 0.0000
# 6 0.0000 0.0000 0.0000 -0.5804 0.0000 29.9923
#
#
#
# Elastic Compliance Matrix: (Units=1/GPa)
#
#
# Indices 1 2 3 4 5 6 
#
# 1 0.013506 -0.006019 -0.000009 0.000000 0.010685 0.000000
# 2 -0.006019 0.020294 -0.018709 0.000000 -0.008039 0.000000
# 3 -0.000009 -0.018709 0.302965 0.000000 0.173030 0.000000
# 4 0.000000 0.000000 0.000000 0.035537 0.000000 0.000688
# 5 0.010685 -0.008039 0.173030 0.000000 0.163778 0.000000
# 6 0.000000 0.000000 0.000000 0.000688 0.000000 0.033355
#
#
# Mechanical properties :
#
#
# Convention : Reuss Voigt Hill
#
# Bulk Modulus (GPa) = 3.48080 32.64959 18.06519
# Shear Modulus (GPa) = 6.99621 23.54607 15.27114
#
# Velocity S-wave (km/s) = 2.03506 3.73341 3.00664
# Velocity P-wave (km/s) = 2.75363 6.15725 4.76939
#
# Compressibility (1/GPa) = 0.28729056
#
# Stress axis : x y z
#
# Youngs Moduli (GPa) = 74.04246 49.27560 3.30071
#
# Poissons Ratio (x) = 0.29660 0.00003
# Poissons Ratio (y) = 0.44568 0.06175
# Poissons Ratio (z) = 0.00064 0.92191
#
# Static dielectric constant tensor:
#      x y z
#    x 3.579390 0.000000 -0.176360 
#    y 0.000000 3.337740 0.000000 
#    z -0.176360 0.000000 3.023730 
# 
# 
# High freq. dielectric constant tensor:
#      x y z
#    x 1.647710 0.000000 -0.009930 
#    y 0.000000 1.660430 0.000000 
#    z -0.009930 0.000000 1.616350 
# 
# From -- ./inp_files/33814.got.cif
#   From: 2010.06.25/outbox.cif.g09.slc.cpg/sg11_17_cif.got.tgz:33814.got - 2010.06.27 23:14:04.
