data_PCOD8077185
_publ_section_title
;
Structure prediction by ZEFSAII (Michael W. Deem and Ramdas Pophale) SiO2 
 PCOD8077185
Probable space group: P 21/M
;
_chemical_formula_sum "Si O2"
_cell_formula_units_Z 28
_cell_length_a 6.530826
_cell_length_b 29.435176
_cell_length_c 8.387861
_cell_angle_alpha 90.000000
_cell_angle_beta 126.441418
_cell_angle_gamma 90.000000
_cell_volume 1297.158129
_symmetry_space_group_name_H-M "P 21/M"
_symmetry_group_IT_number 11
_symmetry_cell_setting 'monoclinic'
loop_
_space_group_symop_operation_xyz
x,y,z
-x,1/2+y,-z
-x,-y,-z
x,1/2-y,z
loop_
_atom_site_type_symbol
_atom_site_label
_atom_site_fract_x
_atom_site_fract_y
_atom_site_fract_z
Si Si1 0.441862 0.800802 0.639988
Si Si2 0.966712 0.658418 0.915021
Si Si3 0.925955 0.937234 0.018335
Si Si4 0.090293 0.046584 0.617344
Si Si5 0.484955 0.802892 0.289614
Si Si6 0.604731 0.014627 0.879558
Si Si7 0.984616 0.642410 0.556955
O O1 0.360912 0.750000 0.645640
O O2 0.415322 0.810216 0.440689
O O3 0.247285 0.832605 0.641553
O O4 0.734511 0.806623 0.833073
O O5 0.956056 0.639769 0.732057
O O6 0.240460 0.680777 0.075788
O O7 0.898330 0.616691 0.000270
O O8 0.969352 0.952790 0.221394
O O9 0.156283 0.951748 0.010002
O O10 0.683138 0.965818 0.836228
O O11 0.386103 0.045206 0.700541
O O12 0.975180 0.091602 0.487324
O O13 0.000000 0.000000 0.500000
O O14 0.541450 0.750000 0.277329
O O15 0.739309 0.831999 0.364570
O O16 0.500000 0.000000 0.000000
#
# Coordination Sequence:
#
# PCOD8077185 Si02
#       7
#     4   4   4   4   4   4   4
#     4  10  23  43  67  98 132 168 213 267 331 396
#     4  11  24  40  68  96 133 168 220 266 328 390
#     4  10  22  41  63  88 125 171 211 267 323 376
#     4  11  25  40  61  92 130 169 221 264 322 384
#     4  10  22  44  68  94 130 170 213 269 330 394
#     4   9  21  39  62  86 119 162 218 262 313 375
#     4  11  25  41  64  98 133 169 217 273 321 389
#
# _framework density 21.585649
#
# number of rings (size 3 to 8) (size 9 to 14) (size 15 to 20)
#    0.000    1.714    0.000    2.571    8.000    6.857 
#    0.000    0.000    0.000    0.000    0.000    0.000 
#    0.000    0.000    0.000    0.000    0.000    0.000 
#
# Total GULP energy -346940.280972 kJ/mol
# GULP energy per Si atom -12390.724320 kJ/mol
# Density = 2.153652 g / cm^3
# Si number density = 21.585649 Si / 1000 Ang^3
#
#
#
# Elastic Constant Matrix: (Units=GPa)
#
#
# Indices 1 2 3 4 5 6 
#
# 1 109.6098 38.9454 34.3984 0.0000 15.6844 0.0000
# 2 38.9454 137.5174 35.2885 0.0000 -1.5792 0.0000
# 3 34.3984 35.2885 86.3052 0.0000 12.8626 0.0000
# 4 0.0000 0.0000 0.0000 30.2696 0.0000 5.4755
# 5 15.6844 -1.5792 12.8626 0.0000 31.7665 0.0000
# 6 0.0000 0.0000 0.0000 5.4755 0.0000 40.6780
#
#
#
# Elastic Compliance Matrix: (Units=1/GPa)
#
#
# Indices 1 2 3 4 5 6 
#
# 1 0.011623 -0.002611 -0.002863 0.000000 -0.004709 0.000000
# 2 -0.002611 0.008816 -0.003002 0.000000 0.002943 0.000000
# 3 -0.002863 -0.003002 0.014651 0.000000 -0.004668 0.000000
# 4 0.000000 0.000000 0.000000 0.033861 0.000000 -0.004558
# 5 -0.004709 0.002943 -0.004668 0.000000 0.035841 0.000000
# 6 0.000000 0.000000 0.000000 -0.004558 0.000000 0.025197
#
#
# Mechanical properties :
#
#
# Convention : Reuss Voigt Hill
#
# Bulk Modulus (GPa) = 55.13666 61.18856 58.16261
# Shear Modulus (GPa) = 32.68214 35.52948 34.10581
#
# Velocity S-wave (km/s) = 3.89532 4.06147 3.97926
# Velocity P-wave (km/s) = 6.76979 7.09947 6.93659
#
# Compressibility (1/GPa) = 0.01813675
#
# Stress axis : x y z
#
# Youngs Moduli (GPa) = 86.03270 113.43581 68.25332
#
# Poissons Ratio (x) = 0.29620 0.19542
# Poissons Ratio (y) = 0.22465 0.20493
# Poissons Ratio (z) = 0.24633 0.34058
#
# Static dielectric constant tensor:
#      x y z
#    x 94.775470 0.000000 88.227030 
#    y 0.000000 4.190280 0.000000 
#    z 88.227030 0.000000 89.319780 
# 
# 
# High freq. dielectric constant tensor:
#      x y z
#    x 1.859720 0.000000 0.011030 
#    y 0.000000 1.862460 0.000000 
#    z 0.011030 0.000000 1.831630 
# 
# From -- ./inp_files/10899.got.cif
#   From: 2010.06.25/outbox.cif.g09.slc.cpg/sg11_6_cif.got.tgz:10899.got - 2010.06.27 23:14:04.
