data_PCOD8077921
_publ_section_title
;
Structure prediction by ZEFSAII (Michael W. Deem and Ramdas Pophale) SiO2 
 PCOD8077921
Probable space group: P 21/M
;
_chemical_formula_sum "Si O2"
_cell_formula_units_Z 28
_cell_length_a 28.673415
_cell_length_b 9.139758
_cell_length_c 13.924530
_cell_angle_alpha 90.000000
_cell_angle_beta 28.475516
_cell_angle_gamma 90.000000
_cell_volume 1739.865128
_symmetry_space_group_name_H-M "P 21/M"
_symmetry_group_IT_number 11
_symmetry_cell_setting 'monoclinic'
loop_
_space_group_symop_operation_xyz
x,y,z
-x,1/2+y,-z
-x,-y,-z
x,1/2-y,z
loop_
_atom_site_type_symbol
_atom_site_label
_atom_site_fract_x
_atom_site_fract_y
_atom_site_fract_z
Si Si1 0.964466 0.918600 0.158155
Si Si2 0.433884 0.923713 0.198350
Si Si3 0.124410 0.080750 0.958055
Si Si4 0.530997 0.582989 0.672789
Si Si5 0.765215 0.582990 0.438570
Si Si6 0.412911 0.918600 0.709711
Si Si7 0.706876 0.919250 0.210661
O O1 0.993803 0.750000 0.096997
O O2 0.846530 0.936487 0.376046
O O3 0.000000 0.000000 0.000000
O O4 0.022601 0.989248 0.143088
O O5 0.441493 0.750000 0.175523
O O6 0.472789 0.972744 0.231895
O O7 0.322529 0.972742 0.382159
O O8 0.500000 0.000000 0.000000
O O9 0.095728 0.250000 0.010788
O O10 0.188235 0.043986 0.748562
O O11 0.187303 0.037964 0.938091
O O12 0.539855 0.750000 0.694139
O O13 0.430892 0.563511 0.791684
O O14 0.625031 0.543984 0.438174
O O15 0.726148 0.750000 0.507845
O O16 0.415396 0.750000 0.675404
O O17 0.500000 0.000000 0.500000
O O18 0.311709 0.989248 0.853979
O O19 0.702243 0.750000 0.191245
#
# Coordination Sequence:
#
# PCOD8077921 Si02
#       7
#     4   4   4   4   4   4   4
#     4   9  17  27  41  61  85 115 146 179 217 260
#     4  12  24  34  48  66  84 112 152 192 227 266
#     4   9  16  27  43  63  90 121 147 178 218 257
#     4   9  17  32  46  58  85 117 146 183 226 260
#     4   9  17  32  46  58  85 117 146 183 226 260
#     4   9  17  27  41  61  85 115 146 179 217 260
#     4   9  16  27  43  63  90 121 147 178 218 257
#
# _framework density 16.093201000000001
#
# number of rings (size 3 to 8) (size 9 to 14) (size 15 to 20)
#    0.000    2.571    1.429    3.857    0.000    6.286 
#    0.000    0.000    0.000    0.000    0.000    0.000 
#    0.000    1.143    0.000    3.714    0.000    5.429 
#
# Total GULP energy -346991.499746 kJ/mol
# GULP energy per Si atom -12392.553562 kJ/mol
# Density = 1.605657 g / cm^3
# Si number density = 16.093201 Si / 1000 Ang^3
#
#
#
# Elastic Constant Matrix: (Units=GPa)
#
#
# Indices 1 2 3 4 5 6 
#
# 1 124.9062 67.6552 40.9363 0.0000 -33.1299 0.0000
# 2 67.6552 112.8683 37.5875 0.0000 -15.2744 0.0000
# 3 40.9363 37.5875 38.2496 0.0000 -10.8921 0.0000
# 4 0.0000 0.0000 0.0000 20.3665 0.0000 -6.6340
# 5 -33.1299 -15.2744 -10.8921 0.0000 20.6762 0.0000
# 6 0.0000 0.0000 0.0000 -6.6340 0.0000 33.4246
#
#
#
# Elastic Compliance Matrix: (Units=1/GPa)
#
#
# Indices 1 2 3 4 5 6 
#
# 1 0.020629 -0.006029 -0.009423 0.000000 0.023637 0.000000
# 2 -0.006029 0.015141 -0.009403 0.000000 -0.003428 0.000000
# 3 -0.009423 -0.009403 0.046108 0.000000 0.002245 0.000000
# 4 0.000000 0.000000 0.000000 0.052494 0.000000 0.010419
# 5 0.023637 -0.003428 0.002245 0.000000 0.084889 0.000000
# 6 0.000000 0.000000 0.000000 0.010419 0.000000 0.031986
#
#
# Mechanical properties :
#
#
# Convention : Reuss Voigt Hill
#
# Bulk Modulus (GPa) = 31.08550 63.15356 47.11953
# Shear Modulus (GPa) = 16.04216 23.54980 19.79598
#
# Velocity S-wave (km/s) = 3.16068 3.82951 3.51106
# Velocity P-wave (km/s) = 5.71645 7.67340 6.76605
#
# Compressibility (1/GPa) = 0.03216934
#
# Stress axis : x y z
#
# Youngs Moduli (GPa) = 48.47562 66.04561 21.68813
#
# Poissons Ratio (x) = 0.39816 0.20436
# Poissons Ratio (y) = 0.29224 0.20393
# Poissons Ratio (z) = 0.45677 0.62103
#
# Static dielectric constant tensor:
#      x y z
#    x 3.814480 0.000000 -0.532060 
#    y 0.000000 3.272960 0.000000 
#    z -0.532060 0.000000 2.767220 
# 
# 
# High freq. dielectric constant tensor:
#      x y z
#    x 1.627050 0.000000 -0.037970 
#    y 0.000000 1.626690 0.000000 
#    z -0.037970 0.000000 1.552300 
# 
# From -- ./inp_files/56409.got.cif
#   From: 2010.06.25/outbox.cif.g09.slc.cpg/sg11_29_cif.got.tgz:56409.got - 2010.06.27 23:14:04.
