data_PCOD8077998
_publ_section_title
;
Structure prediction by ZEFSAII (Michael W. Deem and Ramdas Pophale) SiO2 
 PCOD8077998
Probable space group: P 21/M
;
_chemical_formula_sum "Si O2"
_cell_formula_units_Z 28
_cell_length_a 30.000000
_cell_length_b 9.000000
_cell_length_c 30.000000
_cell_angle_alpha 90.000000
_cell_angle_beta 10.000000
_cell_angle_gamma 90.000000
_cell_volume 1406.550239
_symmetry_space_group_name_H-M "P 21/M"
_symmetry_group_IT_number 11
_symmetry_cell_setting 'monoclinic'
loop_
_space_group_symop_operation_xyz
x,y,z
-x,1/2+y,-z
-x,-y,-z
x,1/2-y,z
loop_
_atom_site_type_symbol
_atom_site_label
_atom_site_fract_x
_atom_site_fract_y
_atom_site_fract_z
Si Si1 0.134697 0.567928 0.246177
Si Si2 0.388109 0.568122 0.273833
Si Si3 0.473218 0.927615 0.478791
Si Si4 0.051695 0.423728 0.045557
Si Si5 0.141851 0.071663 0.058615
Si Si6 0.239020 0.068081 0.238178
Si Si7 0.659777 0.931062 0.582446
O O1 0.130747 0.750000 0.249924
O O2 0.227903 0.497345 0.200082
O O3 0.849634 0.501673 0.519385
O O4 0.339846 0.502838 0.008963
O O5 0.392158 0.750000 0.266570
O O6 0.352054 0.511138 0.358817
O O7 0.474844 0.750000 0.480904
O O8 0.704731 0.990196 0.220444
O O9 0.500000 0.000000 0.500000
O O10 0.211520 0.989827 0.714774
O O11 0.052113 0.250000 0.037651
O O12 0.066653 0.463355 0.082364
O O13 0.152605 0.250000 0.058149
O O14 0.418220 0.994765 0.793086
O O15 0.928213 0.988053 0.298041
O O16 0.238567 0.250000 0.239685
O O17 0.000000 0.000000 0.500000
O O18 0.500000 0.000000 0.000000
O O19 0.655980 0.750000 0.588991
#
# Coordination Sequence:
#
# PCOD8077998 Si02
#       7
#     4   4   4   4   4   4   4
#     4  12  25  44  67  96 130 167 207 259 318 370
#     4  12  25  44  67  94 125 166 213 256 301 368
#     4  10  19  34  54  80 110 146 187 236 291 350
#     4   9  19  35  57  80 109 147 193 240 289 347
#     4  11  22  41  66  90 116 160 211 252 295 364
#     4  12  25  44  67  96 130 170 214 261 312 371
#     4  12  25  42  62  92 129 162 196 252 316 366
#
# _framework density 19.906860999999999
#
# number of rings (size 3 to 8) (size 9 to 14) (size 15 to 20)
#    0.000    0.857    0.000    8.571    0.000    2.286 
#    0.000    4.286    0.000    0.000    0.000    0.000 
#    0.000    0.000    0.000    0.000    0.000    0.000 
#
# Total GULP energy -347083.572381 kJ/mol
# GULP energy per Si atom -12395.841871 kJ/mol
# Density = 1.986155 g / cm^3
# Si number density = 19.906861 Si / 1000 Ang^3
#
#
#
# Elastic Constant Matrix: (Units=GPa)
#
#
# Indices 1 2 3 4 5 6 
#
# 1 86.6884 24.6413 15.4123 0.0000 -3.5064 0.0000
# 2 24.6413 177.2463 31.3300 0.0000 -0.9352 0.0000
# 3 15.4123 31.3300 125.4618 0.0000 -0.8035 0.0000
# 4 0.0000 0.0000 0.0000 42.7738 0.0000 -0.3473
# 5 -3.5064 -0.9352 -0.8035 0.0000 49.1886 0.0000
# 6 0.0000 0.0000 0.0000 -0.3473 0.0000 39.5952
#
#
#
# Elastic Compliance Matrix: (Units=1/GPa)
#
#
# Indices 1 2 3 4 5 6 
#
# 1 0.012192 -0.001493 -0.001120 0.000000 0.000822 0.000000
# 2 -0.001493 0.006086 -0.001336 0.000000 -0.000013 0.000000
# 3 -0.001120 -0.001336 0.008442 0.000000 0.000033 0.000000
# 4 0.000000 0.000000 0.000000 0.023380 0.000000 0.000205
# 5 0.000822 -0.000013 0.000033 0.000000 0.020389 0.000000
# 6 0.000000 0.000000 0.000000 0.000205 0.000000 0.025257
#
#
# Mechanical properties :
#
#
# Convention : Reuss Voigt Hill
#
# Bulk Modulus (GPa) = 53.12896 59.12932 56.12914
# Shear Modulus (GPa) = 45.48838 47.51238 46.50038
#
# Velocity S-wave (km/s) = 4.78542 4.89072 4.83836
# Velocity P-wave (km/s) = 7.56838 7.85237 7.71168
#
# Compressibility (1/GPa) = 0.01882213
#
# Stress axis : x y z
#
# Youngs Moduli (GPa) = 82.01953 164.32386 118.45490
#
# Poissons Ratio (x) = 0.24529 0.13264
# Poissons Ratio (y) = 0.12243 0.15830
# Poissons Ratio (z) = 0.09184 0.21960
#
# Static dielectric constant tensor:
#      x y z
#    x 3.970390 0.000000 -0.427120 
#    y 0.000000 4.144810 0.000000 
#    z -0.427120 0.000000 5.602510 
# 
# 
# High freq. dielectric constant tensor:
#      x y z
#    x 1.796650 0.000000 -0.002340 
#    y 0.000000 1.799270 0.000000 
#    z -0.002340 0.000000 1.817190 
# 
# From -- ./inp_files/73830.got.cif
#   From: 2010.06.25/outbox.ucp.g09.slc.cvg/sg11_37_cif.got.tgz:73830.got - 2010.06.28 13:43:20.
