data_PCOD8077927
_publ_section_title
;
Structure prediction by ZEFSAII (Michael W. Deem and Ramdas Pophale) SiO2 
 PCOD8077927
Probable space group: P 21/M
;
_chemical_formula_sum "Si O2"
_cell_formula_units_Z 12
_cell_length_a 4.603442
_cell_length_b 14.078350
_cell_length_c 7.777046
_cell_angle_alpha 90.000000
_cell_angle_beta 67.186554
_cell_angle_gamma 90.000000
_cell_volume 464.593041
_symmetry_space_group_name_H-M "P 21/M"
_symmetry_group_IT_number 11
_symmetry_cell_setting 'monoclinic'
loop_
_space_group_symop_operation_xyz
x,y,z
-x,1/2+y,-z
-x,-y,-z
x,1/2-y,z
loop_
_atom_site_type_symbol
_atom_site_label
_atom_site_fract_x
_atom_site_fract_y
_atom_site_fract_z
Si Si1 0.465036 0.250000 0.395564
Si Si2 0.935729 0.578915 0.372028
Si Si3 0.599023 0.922165 0.115559
Si Si4 0.855322 0.750000 0.866321
O O1 0.313844 0.156526 0.510727
O O2 0.438733 0.250000 0.195308
O O3 0.842792 0.250000 0.331617
O O4 0.215013 0.469538 0.765459
O O5 0.000000 0.500000 0.500000
O O6 0.273296 0.626879 0.253227
O O7 0.836429 0.843479 0.987321
O O8 0.500000 0.000000 0.000000
#
# Coordination Sequence:
#
# PCOD8077927 Si02
#       4
#     2   4   4   2
#     4  12  26  48  74 106 145 192 241 296 360 432
#     4  12  26  47  74 109 146 190 241 300 361 429
#     4  12  26  47  74 109 146 190 241 300 361 429
#     4  12  26  48  74 106 145 192 241 296 360 432
#
# _framework density 25.829053999999999
#
# number of rings (size 3 to 8) (size 9 to 14) (size 15 to 20)
#    0.000    0.000    0.000   10.000    0.000    5.333 
#    0.000    0.000    0.000    0.000    0.000    0.000 
#    0.000    0.000    0.000    0.000    0.000    0.000 
#
# Total GULP energy -148827.235756 kJ/mol
# GULP energy per Si atom -12402.269646 kJ/mol
# Density = 2.577027 g / cm^3
# Si number density = 25.829054 Si / 1000 Ang^3
#
#
#
# Elastic Constant Matrix: (Units=GPa)
#
#
# Indices 1 2 3 4 5 6 
#
# 1 151.6064 43.3977 50.2234 0.0000 25.0614 0.0000
# 2 43.3977 154.8127 64.4881 0.0000 7.4412 0.0000
# 3 50.2234 64.4881 134.2170 0.0000 -13.4671 0.0000
# 4 0.0000 0.0000 0.0000 19.8752 0.0000 -7.2194
# 5 25.0614 7.4412 -13.4671 0.0000 86.5162 0.0000
# 6 0.0000 0.0000 0.0000 -7.2194 0.0000 32.9503
#
#
#
# Elastic Compliance Matrix: (Units=1/GPa)
#
#
# Indices 1 2 3 4 5 6 
#
# 1 0.008300 -0.000980 -0.002913 0.000000 -0.002774 0.000000
# 2 -0.000980 0.008342 -0.003744 0.000000 -0.001016 0.000000
# 3 -0.002913 -0.003744 0.010622 0.000000 0.002819 0.000000
# 4 0.000000 0.000000 0.000000 0.054664 0.000000 0.011977
# 5 -0.002774 -0.001016 0.002819 0.000000 0.012888 0.000000
# 6 0.000000 0.000000 0.000000 0.011977 0.000000 0.032973
#
#
# Mechanical properties :
#
#
# Convention : Reuss Voigt Hill
#
# Bulk Modulus (GPa) = 83.39445 84.09494 83.74470
# Shear Modulus (GPa) = 33.99943 46.70346 40.35145
#
# Velocity S-wave (km/s) = 3.63206 4.25688 3.95682
# Velocity P-wave (km/s) = 7.06727 7.53593 7.30536
#
# Compressibility (1/GPa) = 0.01199121
#
# Stress axis : x y z
#
# Youngs Moduli (GPa) = 120.48023 119.86977 94.14041
#
# Poissons Ratio (x) = 0.11745 0.27427
# Poissons Ratio (y) = 0.11805 0.35243
# Poissons Ratio (z) = 0.35100 0.44875
#
# Static dielectric constant tensor:
#      x y z
#    x 5.188650 0.000000 -0.050410 
#    y 0.000000 4.336820 0.000000 
#    z -0.050410 0.000000 5.225610 
# 
# 
# High freq. dielectric constant tensor:
#      x y z
#    x 2.063820 0.000000 -0.000620 
#    y 0.000000 2.008670 0.000000 
#    z -0.000620 0.000000 2.058890 
# 
# From -- ./inp_files/225.got.cif
#   From: 2010.06.25/outbox.cif.g09.slc.cpg/sg11_1_cif.got.tgz:225.got - 2010.06.27 23:14:04.
