data_PCOD8077963
_publ_section_title
;
Structure prediction by ZEFSAII (Michael W. Deem and Ramdas Pophale) SiO2 
 PCOD8077963
Probable space group: P 21/M
;
_chemical_formula_sum "Si O2"
_cell_formula_units_Z 28
_cell_length_a 19.925124
_cell_length_b 16.553790
_cell_length_c 11.503821
_cell_angle_alpha 90.000000
_cell_angle_beta 150.000581
_cell_angle_gamma 90.000000
_cell_volume 1897.155662
_symmetry_space_group_name_H-M "P 21/M"
_symmetry_group_IT_number 11
_symmetry_cell_setting 'monoclinic'
loop_
_space_group_symop_operation_xyz
x,y,z
-x,1/2+y,-z
-x,-y,-z
x,1/2-y,z
loop_
_atom_site_type_symbol
_atom_site_label
_atom_site_fract_x
_atom_site_fract_y
_atom_site_fract_z
Si Si1 0.711840 0.340372 0.712930
Si Si2 0.500008 0.844268 0.000016
Si Si3 0.789235 0.159627 0.077376
Si Si4 0.250602 0.052528 0.585561
Si Si5 0.001102 0.840372 0.790352
Si Si6 0.584353 0.052530 0.333740
Si Si7 0.665039 0.052532 0.080687
O O1 0.666606 0.250000 0.605912
O O2 0.686097 0.350183 0.813340
O O3 0.630829 0.409918 0.525154
O O4 0.872742 0.350179 0.931597
O O5 0.500003 0.750000 1.000000
O O6 0.428502 0.875106 0.776754
O O7 0.419747 0.875102 0.991249
O O8 0.651764 0.875105 0.232025
O O9 0.772679 0.250000 0.106046
O O10 0.941135 0.149822 0.255020
O O11 0.763492 0.090082 0.132651
O O12 0.105658 0.090078 0.342162
O O13 0.304507 0.009441 0.549691
O O14 0.245184 0.990553 0.685854
O O15 0.939314 0.750000 0.712007
O O16 0.440672 0.009443 0.136155
#
# Coordination Sequence:
#
# PCOD8077963 Si02
#       7
#     4   4   4   4   4   4   4
#     4   8  16  29  43  59  78 106 139 164 189 231
#     4   9  16  26  43  60  82 110 130 159 199 239
#     4   8  16  29  43  59  78 106 139 164 189 231
#     4   9  17  27  40  63  86 102 128 165 203 238
#     4   8  16  29  43  59  78 106 139 164 189 231
#     4   9  17  27  40  63  86 102 128 165 203 238
#     4   9  17  27  40  63  86 102 128 165 203 238
#
# _framework density 14.758936
#
# number of rings (size 3 to 8) (size 9 to 14) (size 15 to 20)
#    0.857    2.571    0.000    3.000    0.000    1.714 
#    0.000    0.000    0.000    0.000    0.000    0.000 
#    0.000    0.000    0.000    0.000    0.000    0.000 
#
# Total GULP energy -346865.612202 kJ/mol
# GULP energy per Si atom -12388.057579 kJ/mol
# Density = 1.472534 g / cm^3
# Si number density = 14.758936 Si / 1000 Ang^3
#
#
#
# Elastic Constant Matrix: (Units=GPa)
#
#
# Indices 1 2 3 4 5 6 
#
# 1 14.8485 5.3863 -6.1773 0.0000 -0.0024 0.0000
# 2 5.3863 75.0278 5.3823 0.0000 0.0001 0.0000
# 3 -6.1773 5.3823 14.8383 0.0000 -0.0011 0.0000
# 4 0.0000 0.0000 0.0000 23.9912 0.0000 -0.0016
# 5 -0.0024 0.0001 -0.0011 0.0000 10.5090 0.0000
# 6 0.0000 0.0000 0.0000 -0.0016 0.0000 23.9942
#
#
#
# Elastic Compliance Matrix: (Units=1/GPa)
#
#
# Indices 1 2 3 4 5 6 
#
# 1 0.087102 -0.009091 0.039558 0.000000 0.000024 0.000000
# 2 -0.009091 0.014633 -0.009092 0.000000 -0.000003 0.000000
# 3 0.039558 -0.009092 0.087160 0.000000 0.000018 0.000000
# 4 0.000000 0.000000 0.000000 0.041682 0.000000 0.000003
# 5 0.000024 -0.000003 0.000018 0.000000 0.095157 0.000000
# 6 0.000000 0.000000 0.000000 0.000003 0.000000 0.041677
#
#
# Mechanical properties :
#
#
# Convention : Reuss Voigt Hill
#
# Bulk Modulus (GPa) = 4.31696 12.65523 8.48609
# Shear Modulus (GPa) = 12.44170 18.37377 15.40773
#
# Velocity S-wave (km/s) = 2.90659 3.53218 3.23454
# Velocity P-wave (km/s) = 3.76771 5.02278 4.43982
#
# Compressibility (1/GPa) = 0.23164474
#
# Stress axis : x y z
#
# Youngs Moduli (GPa) = 11.48085 68.33731 11.47321
#
# Poissons Ratio (x) = 0.62124 -0.45386
# Poissons Ratio (y) = 0.10437 0.10432
# Poissons Ratio (z) = -0.45416 0.62135
#
# Static dielectric constant tensor:
#      x y z
#    x 2.586490 0.000000 -0.000030 
#    y 0.000000 2.777720 0.000000 
#    z -0.000030 0.000000 2.586430 
# 
# 
# High freq. dielectric constant tensor:
#      x y z
#    x 1.542300 0.000000 0.000000 
#    y 0.000000 1.571240 0.000000 
#    z 0.000000 0.000000 1.542300 
# 
# From -- ./inp_files/43469.got.cif
#   From: 2010.06.25/outbox.cif.g09.slc.cpg/sg11_22_cif.got.tgz:43469.got - 2010.06.27 23:14:04.
