data_PCOD8077009
_publ_section_title
;
Structure prediction by ZEFSAII (Michael W. Deem and Ramdas Pophale) SiO2 
 PCOD8077009
Probable space group: P 21/M
;
_chemical_formula_sum "Si O2"
_cell_formula_units_Z 28
_cell_length_a 9.632371
_cell_length_b 13.911933
_cell_length_c 22.878842
_cell_angle_alpha 90.000000
_cell_angle_beta 153.545635
_cell_angle_gamma 90.000000
_cell_volume 1365.801798
_symmetry_space_group_name_H-M "P 21/M"
_symmetry_group_IT_number 11
_symmetry_cell_setting 'monoclinic'
loop_
_space_group_symop_operation_xyz
x,y,z
-x,1/2+y,-z
-x,-y,-z
x,1/2-y,z
loop_
_atom_site_type_symbol
_atom_site_label
_atom_site_fract_x
_atom_site_fract_y
_atom_site_fract_z
Si Si1 0.769348 0.994085 0.284810
Si Si2 0.664769 0.361998 0.468788
Si Si3 0.697534 0.462150 0.987164
Si Si4 0.348215 0.358416 0.954455
Si Si5 0.641804 0.357957 0.677911
Si Si6 0.585619 0.964828 0.735598
Si Si7 0.767217 0.638218 0.587655
O O1 0.492238 0.943496 0.143904
O O2 0.630633 0.045360 0.289576
O O3 0.012840 0.914103 0.396281
O O4 0.922180 0.075571 0.301437
O O5 0.736004 0.250000 0.499730
O O6 0.531325 0.386901 0.354973
O O7 0.404712 0.392917 0.417878
O O8 0.594413 0.387268 0.997900
O O9 0.629841 0.571484 0.981827
O O10 0.060494 0.443616 0.112133
O O11 0.421223 0.250000 0.003085
O O12 0.003791 0.366721 0.796984
O O13 0.558992 0.250000 0.667253
O O14 0.550113 0.428079 0.696010
O O15 0.454837 0.388037 0.550131
O O16 0.857966 0.750000 0.622788
#
# Coordination Sequence:
#
# PCOD8077009 Si02
#       7
#     4   4   4   4   4   4   4
#     4  12  24  41  63  92 125 167 202 250 307 374
#     4  11  25  42  64  93 123 160 209 260 308 361
#     4  10  23  38  63  89 125 163 205 251 303 367
#     4   9  19  37  62  92 121 159 207 257 305 356
#     4   9  18  36  62  90 121 160 207 254 307 364
#     4  11  24  42  60  91 127 166 201 254 306 365
#     4  10  22  38  63  92 122 157 203 260 311 361
#
# _framework density 20.500779000000001
#
# number of rings (size 3 to 8) (size 9 to 14) (size 15 to 20)
#    0.000    1.714    1.429    2.143    6.000    4.000 
#    0.000    0.000    0.000    5.143    0.000    0.000 
#    0.000    0.000    0.000    0.000    0.000    0.000 
#
# Total GULP energy -347341.694099 kJ/mol
# GULP energy per Si atom -12405.060504 kJ/mol
# Density = 2.045412 g / cm^3
# Si number density = 20.500779 Si / 1000 Ang^3
#
#
#
# Elastic Constant Matrix: (Units=GPa)
#
#
# Indices 1 2 3 4 5 6 
#
# 1 114.4201 17.5687 47.5757 0.0000 10.6716 0.0000
# 2 17.5687 60.9150 33.8223 0.0000 16.7645 0.0000
# 3 47.5757 33.8223 126.4304 0.0000 -0.8392 0.0000
# 4 0.0000 0.0000 0.0000 15.3574 0.0000 -0.5871
# 5 10.6716 16.7645 -0.8392 0.0000 22.8237 0.0000
# 6 0.0000 0.0000 0.0000 -0.5871 0.0000 22.9191
#
#
#
# Elastic Compliance Matrix: (Units=1/GPa)
#
#
# Indices 1 2 3 4 5 6 
#
# 1 0.010996 0.000936 -0.004428 0.000000 -0.005992 0.000000
# 2 0.000936 0.025578 -0.007324 0.000000 -0.019495 0.000000
# 3 -0.004428 -0.007324 0.011587 0.000000 0.007876 0.000000
# 4 0.000000 0.000000 0.000000 0.065179 0.000000 0.001670
# 5 -0.005992 -0.019495 0.007876 0.000000 0.061224 0.000000
# 6 0.000000 0.000000 0.000000 0.001670 0.000000 0.043675
#
#
# Mechanical properties :
#
#
# Convention : Reuss Voigt Hill
#
# Bulk Modulus (GPa) = 37.69403 55.52207 46.60805
# Shear Modulus (GPa) = 20.10336 25.73997 22.92167
#
# Velocity S-wave (km/s) = 3.13487 3.54723 3.34741
# Velocity P-wave (km/s) = 5.61514 6.62713 6.14201
#
# Compressibility (1/GPa) = 0.02652940
#
# Stress axis : x y z
#
# Youngs Moduli (GPa) = 90.94242 39.09585 86.30063
#
# Poissons Ratio (x) = -0.03660 0.38214
# Poissons Ratio (y) = -0.08514 0.63209
# Poissons Ratio (z) = 0.40269 0.28635
#
# Static dielectric constant tensor:
#      x y z
#    x 3.557290 0.000000 0.067330 
#    y 0.000000 3.726140 0.000000 
#    z 0.067330 0.000000 3.756330 
# 
# 
# High freq. dielectric constant tensor:
#      x y z
#    x 1.791080 0.000000 0.004030 
#    y 0.000000 1.801360 0.000000 
#    z 0.004030 0.000000 1.811180 
# 
# From -- ./inp_files/26919.got.cif
#   From: 2010.06.25/outbox.cif.g09.slc.cpg/sg11_14_cif.got.tgz:26919.got - 2010.06.27 23:14:04.
