data_PCOD8077935
_publ_section_title
;
Structure prediction by ZEFSAII (Michael W. Deem and Ramdas Pophale) SiO2 
 PCOD8077935
Probable space group: P 21/M
;
_chemical_formula_sum "Si O2"
_cell_formula_units_Z 32
_cell_length_a 13.727191
_cell_length_b 9.326044
_cell_length_c 26.868921
_cell_angle_alpha 90.000000
_cell_angle_beta 40.175703
_cell_angle_gamma 90.000000
_cell_volume 2219.111447
_symmetry_space_group_name_H-M "P 21/M"
_symmetry_group_IT_number 11
_symmetry_cell_setting 'monoclinic'
loop_
_space_group_symop_operation_xyz
x,y,z
-x,1/2+y,-z
-x,-y,-z
x,1/2-y,z
loop_
_atom_site_type_symbol
_atom_site_label
_atom_site_fract_x
_atom_site_fract_y
_atom_site_fract_z
Si Si1 0.761157 0.085072 0.088432
Si Si2 0.805323 0.417552 0.614615
Si Si3 0.648382 0.582580 0.384260
Si Si4 0.738362 0.914671 0.243478
Si Si5 0.026638 0.086237 0.923478
Si Si6 0.303437 0.916564 0.538892
Si Si7 0.915567 0.082340 0.463112
Si Si8 0.533135 0.580469 0.233041
O O1 0.720765 0.250000 0.114353
O O2 0.608019 0.992915 0.154729
O O3 0.844637 0.065892 0.001552
O O4 0.886556 0.031600 0.078247
O O5 0.827485 0.250000 0.615237
O O6 0.827553 0.456885 0.548098
O O7 0.639454 0.468814 0.695573
O O8 0.925492 0.500366 0.601753
O O9 0.684018 0.750000 0.376389
O O10 0.714507 0.515067 0.307020
O O11 0.730602 0.502471 0.397426
O O12 0.470401 0.550714 0.453626
O O13 0.693360 0.750000 0.268267
O O14 0.623481 0.976231 0.246512
O O15 0.912898 0.934385 0.156909
O O16 0.070015 0.250000 0.923396
O O17 0.282303 0.750000 0.558782
O O18 0.186939 0.969838 0.542547
O O19 0.949401 0.250000 0.446934
O O20 0.547989 0.750000 0.221383
#
# Coordination Sequence:
#
# PCOD8077935 Si02
#       8
#     4   4   4   4   4   4   4   4
#     4   9  15  22  34  53  75  99 128 158 186 220
#     4   9  17  28  42  59  76  98 131 163 188 221
#     4   9  16  26  41  58  74  97 131 162 183 214
#     4   8  13  23  39  55  72  99 132 158 181 215
#     4   8  14  24  36  50  72 102 130 155 186 224
#     4   9  17  28  40  55  77 102 125 153 192 229
#     4   9  17  29  43  57  76 102 128 157 194 230
#     4   9  16  26  39  54  76 105 131 156 188 225
#
# _framework density 14.420185999999999
#
# number of rings (size 3 to 8) (size 9 to 14) (size 15 to 20)
#    0.000    3.250    0.000    1.875    0.000    4.500 
#    0.000    2.500    0.000    4.500    0.000    0.000 
#    0.000    1.000    0.000    2.250    0.000    3.750 
#
# Total GULP energy -396486.733346 kJ/mol
# GULP energy per Si atom -12390.210417 kJ/mol
# Density = 1.438736 g / cm^3
# Si number density = 14.420186 Si / 1000 Ang^3
#
#
#
# Elastic Constant Matrix: (Units=GPa)
#
#
# Indices 1 2 3 4 5 6 
#
# 1 85.5371 28.9558 52.3757 0.0000 -1.8347 0.0000
# 2 28.9558 36.2815 37.3644 0.0000 -2.9445 0.0000
# 3 52.3757 37.3644 130.3656 0.0000 -6.8201 0.0000
# 4 0.0000 0.0000 0.0000 22.1466 0.0000 -2.2076
# 5 -1.8347 -2.9445 -6.8201 0.0000 19.4525 0.0000
# 6 0.0000 0.0000 0.0000 -2.2076 0.0000 19.4123
#
#
#
# Elastic Compliance Matrix: (Units=1/GPa)
#
#
# Indices 1 2 3 4 5 6 
#
# 1 0.017611 -0.009655 -0.004378 0.000000 -0.001335 0.000000
# 2 -0.009655 0.044476 -0.008724 0.000000 0.002763 0.000000
# 3 -0.004378 -0.008724 0.012061 0.000000 0.002495 0.000000
# 4 0.000000 0.000000 0.000000 0.045671 0.000000 0.005194
# 5 -0.001335 0.002763 0.002495 0.000000 0.052574 0.000000
# 6 0.000000 0.000000 0.000000 0.005194 0.000000 0.052104
#
#
# Mechanical properties :
#
#
# Convention : Reuss Voigt Hill
#
# Bulk Modulus (GPa) = 34.92331 54.39733 44.66032
# Shear Modulus (GPa) = 17.88544 21.10151 19.49347
#
# Velocity S-wave (km/s) = 3.52562 3.82950 3.68070
# Velocity P-wave (km/s) = 6.39095 7.57353 7.00723
#
# Compressibility (1/GPa) = 0.02863417
#
# Stress axis : x y z
#
# Youngs Moduli (GPa) = 56.78153 22.48395 82.91436
#
# Poissons Ratio (x) = 0.21708 0.36302
# Poissons Ratio (y) = 0.54822 0.72334
# Poissons Ratio (z) = 0.24860 0.19615
#
# Static dielectric constant tensor:
#      x y z
#    x 2.560080 0.000000 -0.004220 
#    y 0.000000 2.740400 0.000000 
#    z -0.004220 0.000000 3.184840 
# 
# 
# High freq. dielectric constant tensor:
#      x y z
#    x 1.501260 0.000000 -0.004130 
#    y 0.000000 1.543590 0.000000 
#    z -0.004130 0.000000 1.559610 
# 
# From -- ./inp_files/71510.got.cif
#   From: 2010.06.25/outbox.cif.g09.slc.cpg/sg11_36_cif.got.tgz:71510.got - 2010.06.27 23:14:04.
