data_PCOD8077514
_publ_section_title
;
Structure prediction by ZEFSAII (Michael W. Deem and Ramdas Pophale) SiO2 
 PCOD8077514
Probable space group: P 21/M
;
_chemical_formula_sum "Si O2"
_cell_formula_units_Z 32
_cell_length_a 16.543985
_cell_length_b 17.443241
_cell_length_c 12.877314
_cell_angle_alpha 90.000000
_cell_angle_beta 27.206119
_cell_angle_gamma 90.000000
_cell_volume 1698.994928
_symmetry_space_group_name_H-M "P 21/M"
_symmetry_group_IT_number 11
_symmetry_cell_setting 'monoclinic'
loop_
_space_group_symop_operation_xyz
x,y,z
-x,1/2+y,-z
-x,-y,-z
x,1/2-y,z
loop_
_atom_site_type_symbol
_atom_site_label
_atom_site_fract_x
_atom_site_fract_y
_atom_site_fract_z
Si Si1 0.191640 0.483282 0.998796
Si Si2 0.270931 0.833698 0.408511
Si Si3 0.037476 0.335201 0.081273
Si Si4 0.431471 0.961738 0.346271
Si Si5 0.155473 0.559274 0.837423
Si Si6 0.988783 0.948249 0.412465
Si Si7 0.727224 0.159678 0.824942
Si Si8 0.598663 0.940683 0.810025
O O1 0.174777 0.402707 0.954265
O O2 0.365216 0.479343 0.868838
O O3 0.210418 0.554226 0.895423
O O4 0.030084 0.501600 0.261389
O O5 0.356468 0.750000 0.297536
O O6 0.417404 0.880320 0.304537
O O7 0.225222 0.866384 0.346919
O O8 0.087627 0.830411 0.677203
O O9 0.123281 0.250000 0.964451
O O10 0.922191 0.358193 0.110480
O O11 0.323360 0.964296 0.576390
O O12 0.353987 0.023241 0.355273
O O13 0.000000 0.500000 0.000000
O O14 0.789111 0.914497 0.637092
O O15 0.133027 0.880186 0.256981
O O16 0.000000 0.000000 0.500000
O O17 0.739228 0.250000 0.830898
O O18 0.525438 0.132143 0.072304
O O19 0.500000 0.000000 0.000000
#
# Coordination Sequence:
#
# PCOD8077514 Si02
#       8
#     4   4   4   4   4   4   4   4
#     4  11  21  34  57  88 113 147 198 241 284 352
#     4   9  18  33  52  78 113 149 183 237 297 342
#     4   9  18  34  55  79 112 145 185 238 293 343
#     4  11  19  34  57  84 114 147 190 242 285 348
#     4   9  19  35  55  82 109 144 190 231 288 341
#     4  12  22  38  62  88 120 160 202 243 297 355
#     4  11  23  39  57  85 122 155 201 251 297 353
#     4  12  21  36  60  86 117 155 201 240 292 353
#
# _framework density 18.834665000000001
#
# number of rings (size 3 to 8) (size 9 to 14) (size 15 to 20)
#    0.000    1.500    3.750    3.375    0.000    1.000 
#    0.000    0.625    0.000    6.000    0.000    0.000 
#    0.000    0.000    0.000    0.000    0.000    0.000 
#
# Total GULP energy -396581.377837 kJ/mol
# GULP energy per Si atom -12393.168057 kJ/mol
# Density = 1.879180 g / cm^3
# Si number density = 18.834665 Si / 1000 Ang^3
#
#
#
# Elastic Constant Matrix: (Units=GPa)
#
#
# Indices 1 2 3 4 5 6 
#
# 1 93.8435 35.5882 32.0243 0.0000 -6.2083 0.0000
# 2 35.5882 79.1870 31.0692 0.0000 -1.0044 0.0000
# 3 32.0243 31.0692 74.9757 0.0000 -14.4489 0.0000
# 4 0.0000 0.0000 0.0000 21.0161 0.0000 -2.9249
# 5 -6.2083 -1.0044 -14.4489 0.0000 45.8279 0.0000
# 6 0.0000 0.0000 0.0000 -2.9249 0.0000 25.3836
#
#
#
# Elastic Compliance Matrix: (Units=1/GPa)
#
#
# Indices 1 2 3 4 5 6 
#
# 1 0.013777 -0.004678 -0.003839 0.000000 0.000553 0.000000
# 2 -0.004678 0.016801 -0.005340 0.000000 -0.001949 0.000000
# 3 -0.003839 -0.005340 0.018172 0.000000 0.005092 0.000000
# 4 0.000000 0.000000 0.000000 0.048358 0.000000 0.005572
# 5 0.000553 -0.001949 0.005092 0.000000 0.023459 0.000000
# 6 0.000000 0.000000 0.000000 0.005572 0.000000 0.040038
#
#
# Mechanical properties :
#
#
# Convention : Reuss Voigt Hill
#
# Bulk Modulus (GPa) = 47.53912 49.48551 48.51232
# Shear Modulus (GPa) = 25.59775 28.40049 26.99912
#
# Velocity S-wave (km/s) = 3.69056 3.88736 3.79024
# Velocity P-wave (km/s) = 6.59207 6.81758 6.70577
#
# Compressibility (1/GPa) = 0.02103531
#
# Stress axis : x y z
#
# Youngs Moduli (GPa) = 72.58506 59.51979 55.03113
#
# Poissons Ratio (x) = 0.27845 0.21128
# Poissons Ratio (y) = 0.33957 0.29385
# Poissons Ratio (z) = 0.27867 0.31781
#
# Static dielectric constant tensor:
#      x y z
#    x 3.508810 0.000000 -0.480480 
#    y 0.000000 3.748470 0.000000 
#    z -0.480480 0.000000 2.707250 
# 
# 
# High freq. dielectric constant tensor:
#      x y z
#    x 1.737110 0.000000 0.002010 
#    y 0.000000 1.714550 0.000000 
#    z 0.002010 0.000000 1.723870 
# 
# From -- ./inp_files/39996.got.cif
#   From: 2010.06.25/outbox.cif.g09.slc.cpg/sg11_20_cif.got.tgz:39996.got - 2010.06.27 23:14:04.
