data_PCOD8077994
_publ_section_title
;
Structure prediction by ZEFSAII (Michael W. Deem and Ramdas Pophale) SiO2 
 PCOD8077994
Probable space group: P 21/M
;
_chemical_formula_sum "Si O2"
_cell_formula_units_Z 20
_cell_length_a 27.000000
_cell_length_b 9.000000
_cell_length_c 9.000000
_cell_angle_alpha 90.000000
_cell_angle_beta 30.000000
_cell_angle_gamma 90.000000
_cell_volume 1093.500000
_symmetry_space_group_name_H-M "P 21/M"
_symmetry_group_IT_number 11
_symmetry_cell_setting 'monoclinic'
loop_
_space_group_symop_operation_xyz
x,y,z
-x,1/2+y,-z
-x,-y,-z
x,1/2-y,z
loop_
_atom_site_type_symbol
_atom_site_label
_atom_site_fract_x
_atom_site_fract_y
_atom_site_fract_z
Si Si1 0.150213 0.422844 0.364395
Si Si2 0.938988 0.573719 0.894139
Si Si3 0.393140 0.574556 0.244465
Si Si4 0.208560 0.925002 0.930213
Si Si5 0.754566 0.919045 0.572549
O O1 0.134607 0.250000 0.363654
O O2 0.223501 0.439676 0.312503
O O3 0.042343 0.496400 0.668742
O O4 0.215995 0.512696 0.075871
O O5 0.956488 0.750000 0.832473
O O6 0.891213 0.505996 0.869347
O O7 0.857489 0.531969 0.229146
O O8 0.410636 0.750000 0.187160
O O9 0.312119 0.533130 0.581363
O O10 0.341444 0.516220 0.226697
O O11 0.500000 0.500000 0.000000
O O12 0.189835 0.750000 0.973615
O O13 0.729001 0.750000 0.595992
#
# Coordination Sequence:
#
# PCOD8077994 Si02
#       5
#     4   4   4   4   4
#     4  11  21  33  51  78 111 143 173 213 258 303
#     4  10  19  33  53  76 106 145 180 213 253 303
#     4  10  21  38  61  81 100 130 171 217 264 314
#     4  10  21  36  53  77 106 138 176 215 255 307
#     4   9  20  36  54  78 107 138 176 216 257 305
#
# _framework density 18.289895000000001
#
# number of rings (size 3 to 8) (size 9 to 14) (size 15 to 20)
#    0.000    2.000    0.000    3.600    0.000    4.800 
#    0.000    1.000    0.000    0.000    0.000    0.000 
#    0.000    0.000    0.000    0.000    0.000    0.000 
#
# Total GULP energy -247912.713461 kJ/mol
# GULP energy per Si atom -12395.635673 kJ/mol
# Density = 1.824827 g / cm^3
# Si number density = 18.289895 Si / 1000 Ang^3
#
#
#
# Elastic Constant Matrix: (Units=GPa)
#
#
# Indices 1 2 3 4 5 6 
#
# 1 87.9271 33.2538 45.8966 0.0000 -20.3132 0.0000
# 2 33.2538 98.3153 39.3134 0.0000 -19.0497 0.0000
# 3 45.8966 39.3134 85.6724 0.0000 -27.7231 0.0000
# 4 0.0000 0.0000 0.0000 36.2544 0.0000 -6.4701
# 5 -20.3132 -19.0497 -27.7231 0.0000 36.8067 0.0000
# 6 0.0000 0.0000 0.0000 -6.4701 0.0000 35.0396
#
#
#
# Elastic Compliance Matrix: (Units=1/GPa)
#
#
# Indices 1 2 3 4 5 6 
#
# 1 0.016462 -0.002287 -0.006893 0.000000 0.002710 0.000000
# 2 -0.002287 0.013002 -0.003930 0.000000 0.002507 0.000000
# 3 -0.006893 -0.003930 0.020203 0.000000 0.009379 0.000000
# 4 0.000000 0.000000 0.000000 0.028523 0.000000 0.005267
# 5 0.002710 0.002507 0.009379 0.000000 0.037027 0.000000
# 6 0.000000 0.000000 0.000000 0.005267 0.000000 0.029512
#
#
# Mechanical properties :
#
#
# Convention : Reuss Voigt Hill
#
# Bulk Modulus (GPa) = 42.64667 56.53801 49.59234
# Shear Modulus (GPa) = 27.96985 31.85021 29.91003
#
# Velocity S-wave (km/s) = 3.91481 4.17755 4.04831
# Velocity P-wave (km/s) = 6.61831 7.36536 7.00180
#
# Compressibility (1/GPa) = 0.02344849
#
# Stress axis : x y z
#
# Youngs Moduli (GPa) = 60.74656 76.91054 49.49640
#
# Poissons Ratio (x) = 0.17587 0.34116
# Poissons Ratio (y) = 0.13891 0.19452
# Poissons Ratio (z) = 0.41871 0.30226
#
# Static dielectric constant tensor:
#      x y z
#    x 3.440450 0.000000 -0.031430 
#    y 0.000000 3.572470 0.000000 
#    z -0.031430 0.000000 3.373230 
# 
# 
# High freq. dielectric constant tensor:
#      x y z
#    x 1.712650 0.000000 -0.006830 
#    y 0.000000 1.729520 0.000000 
#    z -0.006830 0.000000 1.704780 
# 
# From -- ./inp_files/15926.got.cif
#   From: 2010.06.25/outbox.ucp.g09.slc.cvg/sg11_8_cif.got.tgz:15926.got - 2010.06.28 13:43:20.
