data_PCOD8077339
_publ_section_title
;
Structure prediction by ZEFSAII (Michael W. Deem and Ramdas Pophale) SiO2 
 PCOD8077339
Probable space group: P 21/M
;
_chemical_formula_sum "Si O2"
_cell_formula_units_Z 20
_cell_length_a 8.909306
_cell_length_b 8.281456
_cell_length_c 25.686314
_cell_angle_alpha 90.000000
_cell_angle_beta 150.119017
_cell_angle_gamma 90.000000
_cell_volume 944.182764
_symmetry_space_group_name_H-M "P 21/M"
_symmetry_group_IT_number 11
_symmetry_cell_setting 'monoclinic'
loop_
_space_group_symop_operation_xyz
x,y,z
-x,1/2+y,-z
-x,-y,-z
x,1/2-y,z
loop_
_atom_site_type_symbol
_atom_site_label
_atom_site_fract_x
_atom_site_fract_y
_atom_site_fract_z
Si Si1 0.312679 0.935966 0.491802
Si Si2 0.684543 0.441654 0.104709
Si Si3 0.341950 0.937262 0.697028
Si Si4 0.352203 0.565245 0.311356
Si Si5 0.338694 0.059451 0.102597
O O1 0.225157 0.750000 0.457140
O O2 0.500000 0.000000 0.500000
O O3 0.511173 0.951145 0.603314
O O4 0.015090 0.043036 0.406884
O O5 0.719338 0.250000 0.115054
O O6 0.516408 0.506180 0.105757
O O7 0.007584 0.522792 0.198454
O O8 0.500000 0.500000 0.000000
O O9 0.420895 0.750000 0.711606
O O10 0.494572 0.004198 0.795635
O O11 0.466954 0.042021 0.687459
O O12 0.384229 0.750000 0.338799
O O13 0.341614 0.250000 0.102490
O O14 0.000000 0.000000 0.000000
#
# Coordination Sequence:
#
# PCOD8077339 Si02
#       5
#     4   4   4   4   4
#     4  12  25  43  66  94 126 164 208 258 312 374
#     4  11  23  41  63  92 126 164 209 260 314 376
#     4  11  23  42  65  92 125 165 209 259 314 373
#     4  12  25  42  64  93 126 165 209 259 315 375
#     4  10  23  40  62  89 122 160 203 252 306 366
#
# _framework density 21.18234
#
# number of rings (size 3 to 8) (size 9 to 14) (size 15 to 20)
#    0.000    0.800    0.000    7.800    0.000    8.000 
#    0.000    0.000    0.000    0.000    0.000    0.000 
#    0.000    0.000    0.000    0.000    0.000    0.000 
#
# Total GULP energy -248167.700634 kJ/mol
# GULP energy per Si atom -12408.385032 kJ/mol
# Density = 2.113413 g / cm^3
# Si number density = 21.182340 Si / 1000 Ang^3
#
#
#
# Elastic Constant Matrix: (Units=GPa)
#
#
# Indices 1 2 3 4 5 6 
#
# 1 167.8005 15.3440 62.9890 0.0000 -0.9112 0.0000
# 2 15.3440 69.8322 4.7803 0.0000 -3.4565 0.0000
# 3 62.9890 4.7803 152.5905 0.0000 -1.9888 0.0000
# 4 0.0000 0.0000 0.0000 37.1939 0.0000 1.6249
# 5 -0.9112 -3.4565 -1.9888 0.0000 50.0377 0.0000
# 6 0.0000 0.0000 0.0000 1.6249 0.0000 36.8709
#
#
#
# Elastic Compliance Matrix: (Units=1/GPa)
#
#
# Indices 1 2 3 4 5 6 
#
# 1 0.007183 -0.001382 -0.002923 0.000000 -0.000081 0.000000
# 2 -0.001382 0.014664 0.000124 0.000000 0.000993 0.000000
# 3 -0.002923 0.000124 0.007760 0.000000 0.000264 0.000000
# 4 0.000000 0.000000 0.000000 0.026938 0.000000 -0.001187
# 5 -0.000081 0.000993 0.000264 0.000000 0.020063 0.000000
# 6 0.000000 0.000000 0.000000 -0.001187 0.000000 0.027174
#
#
# Mechanical properties :
#
#
# Convention : Reuss Voigt Hill
#
# Bulk Modulus (GPa) = 47.07000 61.82775 54.44887
# Shear Modulus (GPa) = 41.93787 45.29450 43.61618
#
# Velocity S-wave (km/s) = 4.45438 4.62921 4.54263
# Velocity P-wave (km/s) = 6.98032 7.60424 7.29895
#
# Compressibility (1/GPa) = 0.02124496
#
# Stress axis : x y z
#
# Youngs Moduli (GPa) = 139.22690 68.19246 128.87409
#
# Poissons Ratio (x) = 0.09425 0.37666
# Poissons Ratio (y) = 0.19243 -0.01599
# Poissons Ratio (z) = 0.40692 -0.00846
#
# Static dielectric constant tensor:
#      x y z
#    x 4.118810 0.000000 -0.161820 
#    y 0.000000 3.784190 0.000000 
#    z -0.161820 0.000000 3.927510 
# 
# 
# High freq. dielectric constant tensor:
#      x y z
#    x 1.850380 0.000000 -0.001100 
#    y 0.000000 1.834140 0.000000 
#    z -0.001100 0.000000 1.847800 
# 
# From -- ./inp_files/27976.got.cif
#   From: 2010.06.25/outbox.cif.g09.slc.cpg/sg11_14_cif.got.tgz:27976.got - 2010.06.27 23:14:04.
