data_PCOD8077327
_publ_section_title
;
Structure prediction by ZEFSAII (Michael W. Deem and Ramdas Pophale) SiO2 
 PCOD8077327
Probable space group: P 21/M
;
_chemical_formula_sum "Si O2"
_cell_formula_units_Z 28
_cell_length_a 9.204144
_cell_length_b 9.139819
_cell_length_c 29.136242
_cell_angle_alpha 90.000000
_cell_angle_beta 142.193266
_cell_angle_gamma 90.000000
_cell_volume 1502.501627
_symmetry_space_group_name_H-M "P 21/M"
_symmetry_group_IT_number 11
_symmetry_cell_setting 'monoclinic'
loop_
_space_group_symop_operation_xyz
x,y,z
-x,1/2+y,-z
-x,-y,-z
x,1/2-y,z
loop_
_atom_site_type_symbol
_atom_site_label
_atom_site_fract_x
_atom_site_fract_y
_atom_site_fract_z
Si Si1 0.516077 0.577286 0.137211
Si Si2 0.640612 0.923743 0.994294
Si Si3 0.998459 0.421862 0.267368
Si Si4 0.663907 0.577789 0.731633
Si Si5 0.754749 0.420171 0.435155
Si Si6 0.425710 0.081722 0.436490
Si Si7 0.812531 0.080280 0.859595
O O1 0.521836 0.750000 0.128006
O O2 0.771292 0.523278 0.217864
O O3 0.323758 0.538233 0.127938
O O4 0.452956 0.487073 0.076460
O O5 0.597718 0.750000 0.985002
O O6 0.915287 0.965536 0.067099
O O7 0.500000 0.000000 0.000000
O O8 0.931540 0.250000 0.249904
O O9 0.129272 0.465733 0.252562
O O10 0.165548 0.458665 0.352503
O O11 0.668169 0.750000 0.739804
O O12 0.406875 0.528243 0.648147
O O13 0.698498 0.503608 0.788894
O O14 0.806038 0.250000 0.443689
O O15 0.615656 0.460337 0.446024
O O16 0.000000 0.500000 0.500000
O O17 0.434013 0.250000 0.450859
O O18 0.500000 0.000000 0.500000
O O19 0.786543 0.250000 0.842212
#
# Coordination Sequence:
#
# PCOD8077327 Si02
#       7
#     4   4   4   4   4   4   4
#     4  11  23  38  56  82 113 143 177 220 267 317
#     4  11  23  40  61  84 110 143 181 220 263 316
#     4   9  19  37  57  78 106 143 183 224 269 320
#     4   9  19  36  57  78 104 140 182 222 265 318
#     4   9  19  35  53  77 107 140 178 222 268 318
#     4   9  19  35  54  77 108 142 180 224 271 322
#     4  10  23  39  55  80 113 143 175 218 268 317
#
# _framework density 18.635584999999999
#
# number of rings (size 3 to 8) (size 9 to 14) (size 15 to 20)
#    0.000    2.286    0.000    3.857    0.000    8.000 
#    0.000    8.571    0.000    0.000    0.000    0.000 
#    0.000    0.000    0.000    0.000    0.000    0.000 
#
# Total GULP energy -347190.387029 kJ/mol
# GULP energy per Si atom -12399.656680 kJ/mol
# Density = 1.859317 g / cm^3
# Si number density = 18.635585 Si / 1000 Ang^3
#
#
#
# Elastic Constant Matrix: (Units=GPa)
#
#
# Indices 1 2 3 4 5 6 
#
# 1 123.2108 63.1557 87.0701 0.0000 6.8570 0.0000
# 2 63.1557 74.7192 70.9525 0.0000 2.0584 0.0000
# 3 87.0701 70.9525 160.1999 0.0000 0.7974 0.0000
# 4 0.0000 0.0000 0.0000 40.0480 0.0000 -2.9030
# 5 6.8570 2.0584 0.7974 0.0000 40.7398 0.0000
# 6 0.0000 0.0000 0.0000 -2.9030 0.0000 36.1234
#
#
#
# Elastic Compliance Matrix: (Units=1/GPa)
#
#
# Indices 1 2 3 4 5 6 
#
# 1 0.016343 -0.009197 -0.004798 0.000000 -0.002192 0.000000
# 2 -0.009197 0.028312 -0.007542 0.000000 0.000265 0.000000
# 3 -0.004798 -0.007542 0.012186 0.000000 0.000950 0.000000
# 4 0.000000 0.000000 0.000000 0.025116 0.000000 0.002018
# 5 -0.002192 0.000265 0.000950 0.000000 0.024883 0.000000
# 6 0.000000 0.000000 0.000000 0.002018 0.000000 0.027845
#
#
# Mechanical properties :
#
#
# Convention : Reuss Voigt Hill
#
# Bulk Modulus (GPa) = 72.64323 88.94296 80.79309
# Shear Modulus (GPa) = 27.42000 32.51234 29.96617
#
# Velocity S-wave (km/s) = 3.84002 4.18142 4.01435
# Velocity P-wave (km/s) = 7.66332 8.43466 8.05822
#
# Compressibility (1/GPa) = 0.01376591
#
# Stress axis : x y z
#
# Youngs Moduli (GPa) = 61.18653 35.32129 82.06319
#
# Poissons Ratio (x) = 0.32486 0.39378
# Poissons Ratio (y) = 0.56274 0.61890
# Poissons Ratio (z) = 0.29360 0.26638
#
# Static dielectric constant tensor:
#      x y z
#    x 3.750520 0.000000 0.129090 
#    y 0.000000 3.353910 0.000000 
#    z 0.129090 0.000000 3.600190 
# 
# 
# High freq. dielectric constant tensor:
#      x y z
#    x 1.726290 0.000000 0.001890 
#    y 0.000000 1.720870 0.000000 
#    z 0.001890 0.000000 1.740610 
# 
# From -- ./inp_files/26076.got.cif
#   From: 2010.06.25/outbox.cif.g09.slc.cpg/sg11_14_cif.got.tgz:26076.got - 2010.06.27 23:14:04.
