data_PCOD8077248
_publ_section_title
;
Structure prediction by ZEFSAII (Michael W. Deem and Ramdas Pophale) SiO2 
 PCOD8077248
Probable space group: P 21/M
;
_chemical_formula_sum "Si O2"
_cell_formula_units_Z 26
_cell_length_a 13.414571
_cell_length_b 14.010371
_cell_length_c 15.797412
_cell_angle_alpha 90.000000
_cell_angle_beta 152.823602
_cell_angle_gamma 90.000000
_cell_volume 1356.042629
_symmetry_space_group_name_H-M "P 21/M"
_symmetry_group_IT_number 11
_symmetry_cell_setting 'monoclinic'
loop_
_space_group_symop_operation_xyz
x,y,z
-x,1/2+y,-z
-x,-y,-z
x,1/2-y,z
loop_
_atom_site_type_symbol
_atom_site_label
_atom_site_fract_x
_atom_site_fract_y
_atom_site_fract_z
Si Si1 0.133208 0.446458 0.528457
Si Si2 0.082418 0.250000 0.704486
Si Si3 0.431533 0.750000 0.988022
Si Si4 0.628866 0.081937 0.932344
Si Si5 0.098967 0.638526 0.020587
Si Si6 0.246755 0.983720 0.288798
Si Si7 0.070403 0.750000 0.589106
Si Si8 0.011584 0.444667 0.743150
O O1 0.386968 0.455956 0.737902
O O2 0.065605 0.337267 0.476531
O O3 0.000000 0.500000 0.500000
O O4 0.095128 0.489653 0.408157
O O5 0.906126 0.250000 0.495100
O O6 0.054793 0.339878 0.742557
O O7 0.310942 0.250000 0.828493
O O8 0.316767 0.750000 0.809880
O O9 0.355203 0.656518 0.979647
O O10 0.724760 0.130463 0.920896
O O11 0.758549 0.987200 0.054724
O O12 0.043299 0.750000 0.994526
O O13 0.874378 0.583306 0.826870
O O14 0.212008 0.592965 0.188300
O O15 0.148953 0.937816 0.299208
O O16 0.500000 0.000000 0.500000
#
# Coordination Sequence:
#
# PCOD8077248 Si02
#       8
#     4   2   2   4   4   4   2   4
#     4  12  23  39  61  90 128 166 209 261 306 357
#     4  12  26  42  57  91 129 168 207 254 307 376
#     4  12  22  38  63  90 128 161 208 254 305 369
#     4  11  22  40  64  95 123 163 208 260 309 367
#     4  10  22  41  68  97 128 159 209 269 319 375
#     4  10  23  45  66  96 127 164 211 263 324 386
#     4  12  24  38  58  91 125 163 213 260 296 361
#     4  11  25  41  65  89 127 167 211 253 318 377
#
# _framework density 19.173438000000001
#
# number of rings (size 3 to 8) (size 9 to 14) (size 15 to 20)
#    0.000    0.923    5.385    0.923    3.231    1.846 
#    0.000    0.000    0.000    0.000    0.000    0.000 
#    0.000    0.000    0.000    0.000    0.000    0.000 
#
# Total GULP energy -322505.616945 kJ/mol
# GULP energy per Si atom -12404.062190 kJ/mol
# Density = 1.912980 g / cm^3
# Si number density = 19.173438 Si / 1000 Ang^3
#
#
#
# Elastic Constant Matrix: (Units=GPa)
#
#
# Indices 1 2 3 4 5 6 
#
# 1 124.4474 65.9146 57.6605 0.0000 -10.4126 0.0000
# 2 65.9146 153.5594 45.7766 0.0000 -3.1456 0.0000
# 3 57.6605 45.7766 130.4700 0.0000 4.0182 0.0000
# 4 0.0000 0.0000 0.0000 25.5303 0.0000 -9.5073
# 5 -10.4126 -3.1456 4.0182 0.0000 34.9101 0.0000
# 6 0.0000 0.0000 0.0000 -9.5073 0.0000 35.8778
#
#
#
# Elastic Compliance Matrix: (Units=1/GPa)
#
#
# Indices 1 2 3 4 5 6 
#
# 1 0.012423 -0.004001 -0.004205 0.000000 0.003829 0.000000
# 2 -0.004001 0.008593 -0.001238 0.000000 -0.000276 0.000000
# 3 -0.004205 -0.001238 0.010035 0.000000 -0.002521 0.000000
# 4 0.000000 0.000000 0.000000 0.043458 0.000000 0.011516
# 5 0.003829 -0.000276 -0.002521 0.000000 0.030052 0.000000
# 6 0.000000 0.000000 0.000000 0.011516 0.000000 0.030924
#
#
# Mechanical properties :
#
#
# Convention : Reuss Voigt Hill
#
# Bulk Modulus (GPa) = 82.21161 83.02003 82.61582
# Shear Modulus (GPa) = 31.56046 35.20530 33.38288
#
# Velocity S-wave (km/s) = 4.06156 4.28968 4.17718
# Velocity P-wave (km/s) = 8.06015 8.24188 8.15152
#
# Compressibility (1/GPa) = 0.01216373
#
# Stress axis : x y z
#
# Youngs Moduli (GPa) = 80.49608 116.37525 99.65265
#
# Poissons Ratio (x) = 0.46558 0.41899
# Poissons Ratio (y) = 0.32204 0.12340
# Poissons Ratio (z) = 0.33845 0.14411
#
# Static dielectric constant tensor:
#      x y z
#    x 3.628880 0.000000 -0.122570 
#    y 0.000000 3.711390 0.000000 
#    z -0.122570 0.000000 3.618940 
# 
# 
# High freq. dielectric constant tensor:
#      x y z
#    x 1.754080 0.000000 -0.010230 
#    y 0.000000 1.754360 0.000000 
#    z -0.010230 0.000000 1.756580 
# 
# From -- ./inp_files/50464.got.cif
#   From: 2010.06.25/outbox.cif.g09.slc.cpg/sg11_26_cif.got.tgz:50464.got - 2010.06.27 23:14:04.
