data_PCOD8077277
_publ_section_title
;
Structure prediction by ZEFSAII (Michael W. Deem and Ramdas Pophale) SiO2 
 PCOD8077277
Probable space group: P 21/M
;
_chemical_formula_sum "Si O2"
_cell_formula_units_Z 26
_cell_length_a 8.687140
_cell_length_b 21.250245
_cell_length_c 8.328484
_cell_angle_alpha 90.000000
_cell_angle_beta 49.581047
_cell_angle_gamma 90.000000
_cell_volume 1170.512797
_symmetry_space_group_name_H-M "P 21/M"
_symmetry_group_IT_number 11
_symmetry_cell_setting 'monoclinic'
loop_
_space_group_symop_operation_xyz
x,y,z
-x,1/2+y,-z
-x,-y,-z
x,1/2-y,z
loop_
_atom_site_type_symbol
_atom_site_label
_atom_site_fract_x
_atom_site_fract_y
_atom_site_fract_z
Si Si1 0.140066 0.503816 0.656453
Si Si2 0.671743 0.250000 0.761135
Si Si3 0.726045 0.008657 0.782737
Si Si4 0.694885 0.124944 0.272762
Si Si5 0.259820 0.250000 0.860237
Si Si6 0.762613 0.868515 0.355198
Si Si7 0.129553 0.750000 0.689508
Si Si8 0.821912 0.363002 0.827787
O O1 0.250299 0.483799 0.414359
O O2 0.244519 0.563812 0.665336
O O3 0.173068 0.440566 0.743627
O O4 0.901366 0.518933 0.783636
O O5 0.481407 0.250000 0.777498
O O6 0.860301 0.250000 0.510644
O O7 0.674209 0.307348 0.881419
O O8 0.764072 0.082721 0.743998
O O9 0.500000 0.000000 0.000000
O O10 0.454084 0.129286 0.414866
O O11 0.765179 0.188237 0.310841
O O12 0.790621 0.117666 0.033590
O O13 0.231005 0.315840 0.787424
O O14 0.105450 0.250000 0.111159
O O15 0.940160 0.846593 0.357939
#
# Coordination Sequence:
#
# PCOD8077277 Si02
#       8
#     4   2   4   4   2   4   2   4
#     4  10  24  41  68 105 138 178 230 278 334 402
#     4  12  26  46  68  96 134 174 222 292 342 400
#     4  10  22  42  65  99 144 181 216 275 341 401
#     4  12  23  43  71 102 135 179 229 278 335 407
#     4  12  25  45  69 101 130 175 232 280 345 404
#     4  11  23  44  71 101 135 178 223 284 332 406
#     4  12  25  43  67  99 132 175 228 280 335 404
#     4  11  25  42  68  99 135 174 227 277 340 401
#
# _framework density 22.212485999999998
#
# number of rings (size 3 to 8) (size 9 to 14) (size 15 to 20)
#    0.000    0.923    3.077    3.231    0.000    6.154 
#    0.000    0.000    0.000    0.000    0.000    0.000 
#    0.000    0.000    0.000    0.000    0.000    0.000 
#
# Total GULP energy -322195.918435 kJ/mol
# GULP energy per Si atom -12392.150709 kJ/mol
# Density = 2.216193 g / cm^3
# Si number density = 22.212486 Si / 1000 Ang^3
#
#
#
# Elastic Constant Matrix: (Units=GPa)
#
#
# Indices 1 2 3 4 5 6 
#
# 1 84.6432 52.1490 49.4106 0.0000 -12.6343 0.0000
# 2 52.1490 132.0274 20.4237 0.0000 7.6279 0.0000
# 3 49.4106 20.4237 111.0806 0.0000 -21.0263 0.0000
# 4 0.0000 0.0000 0.0000 95.4866 0.0000 -18.1389
# 5 -12.6343 7.6279 -21.0263 0.0000 38.8321 0.0000
# 6 0.0000 0.0000 0.0000 -18.1389 0.0000 41.7366
#
#
#
# Elastic Compliance Matrix: (Units=1/GPa)
#
#
# Indices 1 2 3 4 5 6 
#
# 1 0.021414 -0.007594 -0.007273 0.000000 0.004521 0.000000
# 2 -0.007594 0.010727 0.000601 0.000000 -0.004253 0.000000
# 3 -0.007273 0.000601 0.012988 0.000000 0.004548 0.000000
# 4 0.000000 0.000000 0.000000 0.011415 0.000000 0.004961
# 5 0.004521 -0.004253 0.004548 0.000000 0.030521 0.000000
# 6 0.000000 0.000000 0.000000 0.004961 0.000000 0.026116
#
#
# Mechanical properties :
#
#
# Convention : Reuss Voigt Hill
#
# Bulk Modulus (GPa) = 60.25785 63.52420 61.89102
# Shear Modulus (GPa) = 33.95711 48.92894 41.44302
#
# Velocity S-wave (km/s) = 3.91415 4.69846 4.32412
# Velocity P-wave (km/s) = 6.90031 7.62197 7.27010
#
# Compressibility (1/GPa) = 0.01659535
#
# Stress axis : x y z
#
# Youngs Moduli (GPa) = 46.69942 93.22702 76.99319
#
# Poissons Ratio (x) = 0.70798 0.55998
# Poissons Ratio (y) = 0.35464 -0.04626
# Poissons Ratio (z) = 0.33965 -0.05601
#
# Static dielectric constant tensor:
#      x y z
#    x 4.098540 0.000000 -0.254090 
#    y 0.000000 4.208900 0.000000 
#    z -0.254090 0.000000 4.074510 
# 
# 
# High freq. dielectric constant tensor:
#      x y z
#    x 1.878640 0.000000 -0.020490 
#    y 0.000000 1.889720 0.000000 
#    z -0.020490 0.000000 1.870440 
# 
# From -- ./inp_files/14514.got.cif
#   From: 2010.06.25/outbox.cif.g09.slc.cpg/sg11_8_cif.got.tgz:14514.got - 2010.06.27 23:14:04.
