data_PCOD8077020
_publ_section_title
;
Structure prediction by ZEFSAII (Michael W. Deem and Ramdas Pophale) SiO2 
 PCOD8077020
Probable space group: P 21/M
;
_chemical_formula_sum "Si O2"
_cell_formula_units_Z 32
_cell_length_a 20.116079
_cell_length_b 8.837855
_cell_length_c 20.390557
_cell_angle_alpha 90.000000
_cell_angle_beta 29.459327
_cell_angle_gamma 90.000000
_cell_volume 1782.841581
_symmetry_space_group_name_H-M "P 21/M"
_symmetry_group_IT_number 11
_symmetry_cell_setting 'monoclinic'
loop_
_space_group_symop_operation_xyz
x,y,z
-x,1/2+y,-z
-x,-y,-z
x,1/2-y,z
loop_
_atom_site_type_symbol
_atom_site_label
_atom_site_fract_x
_atom_site_fract_y
_atom_site_fract_z
Si Si1 0.858316 0.573109 0.640020
Si Si2 0.380152 0.929645 0.913401
Si Si3 0.066901 0.574361 0.790815
Si Si4 0.835040 0.429674 0.795622
Si Si5 0.784293 0.428820 0.065355
Si Si6 0.110204 0.926702 0.607660
Si Si7 0.316063 0.073023 0.336532
Si Si8 0.141073 0.573162 0.863366
O O1 0.881542 0.750000 0.630720
O O2 0.798155 0.499885 0.757192
O O3 0.750931 0.538896 0.675634
O O4 0.000000 0.500000 0.500000
O O5 0.378637 0.750000 0.916399
O O6 0.331271 0.992435 0.884109
O O7 0.530689 0.988590 0.798127
O O8 0.277563 0.990309 0.056991
O O9 0.027170 0.750000 0.829422
O O10 0.136277 0.536930 0.661991
O O11 0.173483 0.532943 0.759033
O O12 0.929604 0.481689 0.915105
O O13 0.835948 0.250000 0.789025
O O14 0.982439 0.481739 0.691313
O O15 0.784062 0.250000 0.059410
O O16 0.756872 0.480689 0.165502
O O17 0.084409 0.750000 0.617398
O O18 0.243044 0.980210 0.456181
O O19 0.309109 0.250000 0.360044
O O20 0.123549 0.750000 0.886714
O O21 0.000000 0.500000 0.000000
#
# Coordination Sequence:
#
# PCOD8077020 Si02
#       8
#     4   4   4   4   4   4   4   4
#     4  11  22  36  56  79 105 135 173 214 257 306
#     4   9  19  35  54  78 105 134 173 214 255 304
#     4   9  17  28  44  72 106 133 164 210 256 297
#     4  11  21  35  57  80 104 134 168 213 261 306
#     4   9  15  27  49  73  99 133 170 206 247 301
#     4  11  21  33  52  77 105 136 174 214 253 306
#     4  10  22  39  56  74 101 137 173 213 258 305
#     4   8  14  24  41  68 100 132 164 202 250 296
#
# _framework density 17.948875000000001
#
# number of rings (size 3 to 8) (size 9 to 14) (size 15 to 20)
#    0.000    2.250    2.500    1.125    0.000    1.500 
#    0.000    1.875    0.000    0.750    0.000    0.000 
#    0.000    0.000    0.000    0.000    0.000    0.125 
#
# Total GULP energy -396514.704478 kJ/mol
# GULP energy per Si atom -12391.084515 kJ/mol
# Density = 1.790802 g / cm^3
# Si number density = 17.948875 Si / 1000 Ang^3
#
#
#
# Elastic Constant Matrix: (Units=GPa)
#
#
# Indices 1 2 3 4 5 6 
#
# 1 174.3442 38.2488 72.5460 0.0000 17.2772 0.0000
# 2 38.2488 38.8440 19.9574 0.0000 5.5134 0.0000
# 3 72.5460 19.9574 94.6934 0.0000 1.3192 0.0000
# 4 0.0000 0.0000 0.0000 18.0571 0.0000 4.5045
# 5 17.2772 5.5134 1.3192 0.0000 30.8864 0.0000
# 6 0.0000 0.0000 0.0000 4.5045 0.0000 19.2020
#
#
#
# Elastic Compliance Matrix: (Units=1/GPa)
#
#
# Indices 1 2 3 4 5 6 
#
# 1 0.010193 -0.006101 -0.006463 0.000000 -0.004337 0.000000
# 2 -0.006101 0.033281 -0.002306 0.000000 -0.002430 0.000000
# 3 -0.006463 -0.002306 0.015951 0.000000 0.003346 0.000000
# 4 0.000000 0.000000 0.000000 0.058822 0.000000 -0.013799
# 5 -0.004337 -0.002430 0.003346 0.000000 0.035093 0.000000
# 6 0.000000 0.000000 0.000000 -0.013799 0.000000 0.055315
#
#
# Mechanical properties :
#
#
# Convention : Reuss Voigt Hill
#
# Bulk Modulus (GPa) = 33.68685 63.26513 48.47599
# Shear Modulus (GPa) = 20.13755 25.43772 22.78763
#
# Velocity S-wave (km/s) = 3.35317 3.76870 3.56699
# Velocity P-wave (km/s) = 5.81383 7.36623 6.63559
#
# Compressibility (1/GPa) = 0.02968518
#
# Stress axis : x y z
#
# Youngs Moduli (GPa) = 98.10317 30.04679 62.69085
#
# Poissons Ratio (x) = 0.18332 0.40517
# Poissons Ratio (y) = 0.59853 0.14459
# Poissons Ratio (z) = 0.63404 0.06930
#
# Static dielectric constant tensor:
#      x y z
#    x 4.182370 0.000000 0.314890 
#    y 0.000000 3.227700 0.000000 
#    z 0.314890 0.000000 3.223850 
# 
# 
# High freq. dielectric constant tensor:
#      x y z
#    x 1.718300 0.000000 0.022640 
#    y 0.000000 1.686040 0.000000 
#    z 0.022640 0.000000 1.660840 
# 
# From -- ./inp_files/66428.got.cif
#   From: 2010.06.25/outbox.cif.g09.slc.cpg/sg11_34_cif.got.tgz:66428.got - 2010.06.27 23:14:04.
