data_PCOD8077096
_publ_section_title
;
Structure prediction by ZEFSAII (Michael W. Deem and Ramdas Pophale) SiO2 
 PCOD8077096
Probable space group: P 21/M
;
_chemical_formula_sum "Si O2"
_cell_formula_units_Z 32
_cell_length_a 15.391790
_cell_length_b 12.258350
_cell_length_c 18.115143
_cell_angle_alpha 90.000000
_cell_angle_beta 153.963950
_cell_angle_gamma 90.000000
_cell_volume 1500.253616
_symmetry_space_group_name_H-M "P 21/M"
_symmetry_group_IT_number 11
_symmetry_cell_setting 'monoclinic'
loop_
_space_group_symop_operation_xyz
x,y,z
-x,1/2+y,-z
-x,-y,-z
x,1/2-y,z
loop_
_atom_site_type_symbol
_atom_site_label
_atom_site_fract_x
_atom_site_fract_y
_atom_site_fract_z
Si Si1 0.727361 0.035079 0.011179
Si Si2 0.321108 0.369222 0.665283
Si Si3 0.281188 0.983054 0.265599
Si Si4 0.074541 0.622151 0.975535
Si Si5 0.360675 0.621786 0.479883
Si Si6 0.218342 0.435997 0.736412
Si Si7 0.918519 0.490984 0.623054
Si Si8 0.505582 0.371724 0.076916
O O1 0.539770 0.115482 0.867230
O O2 0.816510 0.040621 0.997777
O O3 0.638559 0.917807 0.967898
O O4 0.906300 0.064674 0.205297
O O5 0.305331 0.250000 0.619843
O O6 0.172732 0.383555 0.621604
O O7 0.263564 0.441878 0.550698
O O8 0.461326 0.041426 0.359546
O O9 0.168528 0.899685 0.126590
O O10 0.337026 0.904420 0.375545
O O11 0.152518 0.085243 0.196570
O O12 0.091486 0.750000 0.966766
O O13 0.407674 0.750000 0.526513
O O14 0.167838 0.591944 0.381677
O O15 0.292991 0.559874 0.778794
O O16 0.016666 0.427915 0.629120
O O17 0.390648 0.371834 0.911300
O O18 0.565376 0.250000 0.145145
#
# Coordination Sequence:
#
# PCOD8077096 Si02
#       8
#     4   4   4   4   4   4   4   4
#     4  10  22  40  59  95 127 158 209 263 301 384
#     4  11  23  39  61  88 124 169 208 256 318 368
#     4  10  23  42  64  96 124 159 218 260 310 398
#     4  11  21  40  66  92 128 168 206 263 324 375
#     4  11  23  43  66  91 127 166 205 264 326 374
#     4   9  20  37  58  88 128 159 212 265 301 378
#     4  11  23  41  61  93 125 162 210 268 305 385
#     4   9  18  36  63  90 125 170 207 256 319 366
#
# _framework density 21.329726999999998
#
# number of rings (size 3 to 8) (size 9 to 14) (size 15 to 20)
#    0.000    1.750    1.250    3.375    0.000    4.000 
#    0.000    8.750    0.000    0.000    0.000    0.000 
#    0.000    0.000    0.000    0.000    0.000    0.000 
#
# Total GULP energy -396523.804395 kJ/mol
# GULP energy per Si atom -12391.368887 kJ/mol
# Density = 2.128118 g / cm^3
# Si number density = 21.329727 Si / 1000 Ang^3
#
#
#
# Elastic Constant Matrix: (Units=GPa)
#
#
# Indices 1 2 3 4 5 6 
#
# 1 106.9532 25.4123 14.9436 0.0000 15.5665 0.0000
# 2 25.4123 99.5797 22.4998 0.0000 -0.1752 0.0000
# 3 14.9436 22.4998 64.2617 0.0000 8.8715 0.0000
# 4 0.0000 0.0000 0.0000 14.4664 0.0000 -1.2664
# 5 15.5665 -0.1752 8.8715 0.0000 30.8372 0.0000
# 6 0.0000 0.0000 0.0000 -1.2664 0.0000 20.3336
#
#
#
# Elastic Compliance Matrix: (Units=1/GPa)
#
#
# Indices 1 2 3 4 5 6 
#
# 1 0.010849 -0.002575 -0.000899 0.000000 -0.005232 0.000000
# 2 -0.002575 0.011559 -0.003787 0.000000 0.002455 0.000000
# 3 -0.000899 -0.003787 0.017741 0.000000 -0.004672 0.000000
# 4 0.000000 0.000000 0.000000 0.069505 0.000000 0.004329
# 5 -0.005232 0.002455 -0.004672 0.000000 0.036428 0.000000
# 6 0.000000 0.000000 0.000000 0.004329 0.000000 0.049449
#
#
# Mechanical properties :
#
#
# Convention : Reuss Voigt Hill
#
# Bulk Modulus (GPa) = 39.02072 44.05622 41.53847
# Shear Modulus (GPa) = 22.87326 26.99003 24.93164
#
# Velocity S-wave (km/s) = 3.27825 3.56107 3.42258
# Velocity P-wave (km/s) = 5.71516 6.13253 5.92752
#
# Compressibility (1/GPa) = 0.02562741
#
# Stress axis : x y z
#
# Youngs Moduli (GPa) = 92.17615 86.51019 56.36516
#
# Poissons Ratio (x) = 0.22273 0.05067
# Poissons Ratio (y) = 0.23732 0.21348
# Poissons Ratio (z) = 0.08287 0.32765
#
# Static dielectric constant tensor:
#      x y z
#    x 4.008270 0.000000 0.074860 
#    y 0.000000 3.542580 0.000000 
#    z 0.074860 0.000000 3.888820 
# 
# 
# High freq. dielectric constant tensor:
#      x y z
#    x 1.847990 0.000000 0.001980 
#    y 0.000000 1.807580 0.000000 
#    z 0.001980 0.000000 1.837570 
# 
# From -- ./inp_files/60420.got.cif
#   From: 2010.06.25/outbox.cif.g09.slc.cpg/sg11_31_cif.got.tgz:60420.got - 2010.06.27 23:14:04.
