data_PCOD8077393
_publ_section_title
;
Structure prediction by ZEFSAII (Michael W. Deem and Ramdas Pophale) SiO2 
 PCOD8077393
Probable space group: P 21/M
;
_chemical_formula_sum "Si O2"
_cell_formula_units_Z 24
_cell_length_a 9.410171
_cell_length_b 14.862599
_cell_length_c 14.432000
_cell_angle_alpha 90.000000
_cell_angle_beta 36.384880
_cell_angle_gamma 90.000000
_cell_volume 1197.359785
_symmetry_space_group_name_H-M "P 21/M"
_symmetry_group_IT_number 11
_symmetry_cell_setting 'monoclinic'
loop_
_space_group_symop_operation_xyz
x,y,z
-x,1/2+y,-z
-x,-y,-z
x,1/2-y,z
loop_
_atom_site_type_symbol
_atom_site_label
_atom_site_fract_x
_atom_site_fract_y
_atom_site_fract_z
Si Si1 0.251727 0.509119 0.083578
Si Si2 0.087585 0.649507 0.673644
Si Si3 0.282362 0.003743 0.860815
Si Si4 0.491360 0.916044 0.575418
Si Si5 0.690769 0.143888 0.636677
Si Si6 0.018619 0.646052 0.333247
O O1 0.096916 0.418558 0.180650
O O2 0.117801 0.595440 0.192268
O O3 0.500000 0.500000 0.000000
O O4 0.323630 0.532148 0.941603
O O5 0.974738 0.750000 0.727117
O O6 0.326670 0.657059 0.610520
O O7 0.159814 0.614018 0.533101
O O8 0.426797 0.098556 0.775627
O O9 0.376081 0.938131 0.733786
O O10 0.000000 0.000000 0.000000
O O11 0.738541 0.873061 0.477741
O O12 0.500000 0.000000 0.500000
O O13 0.644180 0.250000 0.660089
O O14 0.853065 0.113114 0.639112
O O15 0.072765 0.750000 0.290891
#
# Coordination Sequence:
#
# PCOD8077393 Si02
#       6
#     4   4   4   4   4   4
#     4  12  25  41  66  95 130 172 207 264 327 384
#     4  11  24  44  68  94 126 171 220 263 316 383
#     4  12  23  41  63  94 128 166 214 257 325 385
#     4  12  22  42  69  93 125 169 216 265 318 379
#     4  10  23  42  67  94 125 170 221 266 313 378
#     4  11  24  44  66  95 130 171 219 267 316 379
#
# _framework density 20.044101000000001
#
# number of rings (size 3 to 8) (size 9 to 14) (size 15 to 20)
#    0.000    0.667    6.667    0.500    2.333    2.667 
#    0.000    1.667    0.000    0.000    0.000    0.000 
#    0.000    0.000    0.000    0.000    0.000    0.000 
#
# Total GULP energy -297428.975910 kJ/mol
# GULP energy per Si atom -12392.873996 kJ/mol
# Density = 1.999848 g / cm^3
# Si number density = 20.044101 Si / 1000 Ang^3
#
#
#
# Elastic Constant Matrix: (Units=GPa)
#
#
# Indices 1 2 3 4 5 6 
#
# 1 119.1794 29.8533 43.8214 0.0000 7.5630 0.0000
# 2 29.8533 74.6279 36.1768 0.0000 6.3733 0.0000
# 3 43.8214 36.1768 115.1145 0.0000 16.2958 0.0000
# 4 0.0000 0.0000 0.0000 16.3301 0.0000 -6.1303
# 5 7.5630 6.3733 16.2958 0.0000 58.1594 0.0000
# 6 0.0000 0.0000 0.0000 -6.1303 0.0000 32.1325
#
#
#
# Elastic Compliance Matrix: (Units=1/GPa)
#
#
# Indices 1 2 3 4 5 6 
#
# 1 0.010164 -0.002580 -0.003031 0.000000 -0.000190 0.000000
# 2 -0.002580 0.016470 -0.004150 0.000000 -0.000306 0.000000
# 3 -0.003031 -0.004150 0.011481 0.000000 -0.002368 0.000000
# 4 0.000000 0.000000 0.000000 0.065961 0.000000 0.012584
# 5 -0.000190 -0.000306 -0.002368 0.000000 0.017916 0.000000
# 6 0.000000 0.000000 0.000000 0.012584 0.000000 0.033522
#
#
# Mechanical properties :
#
#
# Convention : Reuss Voigt Hill
#
# Bulk Modulus (GPa) = 53.79123 58.73610 56.26367
# Shear Modulus (GPa) = 27.58874 34.59574 31.09224
#
# Velocity S-wave (km/s) = 3.71401 4.15900 3.94279
# Velocity P-wave (km/s) = 6.72953 7.24086 6.98987
#
# Compressibility (1/GPa) = 0.01859039
#
# Stress axis : x y z
#
# Youngs Moduli (GPa) = 98.38990 60.71620 87.10397
#
# Poissons Ratio (x) = 0.15665 0.26405
# Poissons Ratio (y) = 0.25385 0.36152
# Poissons Ratio (z) = 0.29826 0.25200
#
# Static dielectric constant tensor:
#      x y z
#    x 4.032740 0.000000 0.006350 
#    y 0.000000 4.057140 0.000000 
#    z 0.006350 0.000000 3.772540 
# 
# 
# High freq. dielectric constant tensor:
#      x y z
#    x 1.807400 0.000000 0.003340 
#    y 0.000000 1.770880 0.000000 
#    z 0.003340 0.000000 1.791780 
# 
# From -- ./inp_files/21977.got.cif
#   From: 2010.06.25/outbox.cif.g09.slc.cpg/sg11_11_cif.got.tgz:21977.got - 2010.06.27 23:14:04.
