data_PCOD8077917
_publ_section_title
;
Structure prediction by ZEFSAII (Michael W. Deem and Ramdas Pophale) SiO2 
 PCOD8077917
Probable space group: P 21/M
;
_chemical_formula_sum "Si O2"
_cell_formula_units_Z 20
_cell_length_a 9.649973
_cell_length_b 22.720816
_cell_length_c 8.137946
_cell_angle_alpha 90.000000
_cell_angle_beta 147.480920
_cell_angle_gamma 90.000000
_cell_volume 959.198037
_symmetry_space_group_name_H-M "P 21/M"
_symmetry_group_IT_number 11
_symmetry_cell_setting 'monoclinic'
loop_
_space_group_symop_operation_xyz
x,y,z
-x,1/2+y,-z
-x,-y,-z
x,1/2-y,z
loop_
_atom_site_type_symbol
_atom_site_label
_atom_site_fract_x
_atom_site_fract_y
_atom_site_fract_z
Si Si1 0.762252 0.750000 0.684265
Si Si2 0.262369 0.750000 0.957939
Si Si3 0.250013 0.015329 0.149028
Si Si4 0.249967 0.532062 0.807745
Si Si5 0.749001 0.341290 0.339257
Si Si6 0.751126 0.847035 0.947710
O O1 0.528531 0.750000 0.322908
O O2 0.748131 0.809512 0.777683
O O3 0.028672 0.750000 0.852033
O O4 0.247542 0.805739 0.825258
O O5 0.500000 0.000000 0.500000
O O6 0.250056 0.083254 0.091432
O O7 0.250010 0.967579 0.003689
O O8 0.000000 0.000000 0.000000
O O9 0.249500 0.593279 0.719620
O O10 0.000000 0.500000 0.500000
O O11 0.500000 0.500000 0.000000
O O12 0.997848 0.328092 0.698895
O O13 0.496791 0.328086 0.194689
#
# Coordination Sequence:
#
# PCOD8077917 Si02
#       6
#     2   2   4   4   4   4
#     4  12  28  46  68 100 136 170 224 282 338 386
#     4  12  28  46  70 104 126 176 226 290 330 376
#     4  12  26  41  67 102 140 173 217 271 342 391
#     4  12  23  44  67 102 133 172 220 275 321 401
#     4  12  24  46  72  95 133 178 229 268 329 399
#     4  12  25  47  69  97 135 184 219 268 334 410
#
# _framework density 20.850753000000001
#
# number of rings (size 3 to 8) (size 9 to 14) (size 15 to 20)
#    0.000    0.000    4.000    6.000    5.600    0.000 
#    0.000    0.000    0.000    0.000    0.000    0.000 
#    0.000    0.000    0.000    0.000    0.000    0.000 
#
# Total GULP energy -248021.166154 kJ/mol
# GULP energy per Si atom -12401.058308 kJ/mol
# Density = 2.080330 g / cm^3
# Si number density = 20.850753 Si / 1000 Ang^3
#
#
#
# Elastic Constant Matrix: (Units=GPa)
#
#
# Indices 1 2 3 4 5 6 
#
# 1 144.1908 18.8268 50.9818 0.0000 17.2354 0.0000
# 2 18.8268 83.5183 22.3443 0.0000 0.9849 0.0000
# 3 50.9818 22.3443 181.4451 0.0000 -0.6822 0.0000
# 4 0.0000 0.0000 0.0000 23.2713 0.0000 -15.4275
# 5 17.2354 0.9849 -0.6822 0.0000 54.8784 0.0000
# 6 0.0000 0.0000 0.0000 -15.4275 0.0000 51.7182
#
#
#
# Elastic Compliance Matrix: (Units=1/GPa)
#
#
# Indices 1 2 3 4 5 6 
#
# 1 0.008164 -0.001234 -0.002152 0.000000 -0.002569 0.000000
# 2 -0.001234 0.012571 -0.001201 0.000000 0.000147 0.000000
# 3 -0.002152 -0.001201 0.006267 0.000000 0.000775 0.000000
# 4 0.000000 0.000000 0.000000 0.053564 0.000000 0.015978
# 5 -0.002569 0.000147 0.000775 0.000000 0.019036 0.000000
# 6 0.000000 0.000000 0.000000 0.015978 0.000000 0.024102
#
#
# Mechanical properties :
#
#
# Convention : Reuss Voigt Hill
#
# Bulk Modulus (GPa) = 56.08977 65.93997 61.01487
# Shear Modulus (GPa) = 36.01791 47.10700 41.56245
#
# Velocity S-wave (km/s) = 4.16073 4.75831 4.46952
# Velocity P-wave (km/s) = 7.07398 7.86652 7.48075
#
# Compressibility (1/GPa) = 0.01782856
#
# Stress axis : x y z
#
# Youngs Moduli (GPa) = 122.48566 79.54693 159.57545
#
# Poissons Ratio (x) = 0.09820 0.34334
# Poissons Ratio (y) = 0.15120 0.19160
# Poissons Ratio (z) = 0.26354 0.09551
#
# Static dielectric constant tensor:
#      x y z
#    x 4.267620 0.000000 -0.082810 
#    y 0.000000 4.110480 0.000000 
#    z -0.082810 0.000000 4.105370 
# 
# 
# High freq. dielectric constant tensor:
#      x y z
#    x 1.840980 0.000000 0.002210 
#    y 0.000000 1.828120 0.000000 
#    z 0.002210 0.000000 1.845330 
# 
# From -- ./inp_files/10411.got.cif
#   From: 2010.06.25/outbox.cif.g09.slc.cpg/sg11_6_cif.got.tgz:10411.got - 2010.06.27 23:14:04.
