data_PCOD8077413
_publ_section_title
;
Structure prediction by ZEFSAII (Michael W. Deem and Ramdas Pophale) SiO2 
 PCOD8077413
Probable space group: P 21/M
;
_chemical_formula_sum "Si O2"
_cell_formula_units_Z 24
_cell_length_a 9.017241
_cell_length_b 15.031146
_cell_length_c 17.597961
_cell_angle_alpha 90.000000
_cell_angle_beta 30.673172
_cell_angle_gamma 90.000000
_cell_volume 1216.795821
_symmetry_space_group_name_H-M "P 21/M"
_symmetry_group_IT_number 11
_symmetry_cell_setting 'monoclinic'
loop_
_space_group_symop_operation_xyz
x,y,z
-x,1/2+y,-z
-x,-y,-z
x,1/2-y,z
loop_
_atom_site_type_symbol
_atom_site_label
_atom_site_fract_x
_atom_site_fract_y
_atom_site_fract_z
Si Si1 0.574049 0.148043 0.136439
Si Si2 0.714768 0.145139 0.724056
Si Si3 0.654494 0.852238 0.605813
Si Si4 0.727727 0.988973 0.835526
Si Si5 0.169607 0.070525 0.871992
Si Si6 0.319013 0.527361 0.652094
O O1 0.474743 0.250000 0.173598
O O2 0.498895 0.105795 0.252337
O O3 0.367102 0.091249 0.175013
O O4 0.915783 0.141829 0.965653
O O5 0.693718 0.250000 0.756546
O O6 0.757962 0.083690 0.779307
O O7 0.428651 0.116842 0.804218
O O8 0.000231 0.127925 0.546729
O O9 0.588298 0.750000 0.637048
O O10 0.487323 0.885616 0.605428
O O11 0.006145 0.953184 0.756912
O O12 0.500000 0.000000 0.000000
O O13 0.297294 0.038545 0.734630
O O14 0.000000 0.000000 0.000000
O O15 0.500000 0.500000 0.500000
#
# Coordination Sequence:
#
# PCOD8077413 Si02
#       6
#     4   4   4   4   4   4
#     4  11  24  43  68  95 125 166 222 272 313 382
#     4  11  24  43  67  93 127 174 218 266 320 386
#     4  10  23  43  65  95 128 168 221 267 318 386
#     4  12  24  42  63  95 130 166 213 262 329 387
#     4  12  22  43  68  94 126 171 220 261 318 386
#     4  12  24  40  66  95 130 173 208 265 329 381
#
# _framework density 19.723935000000001
#
# number of rings (size 3 to 8) (size 9 to 14) (size 15 to 20)
#    0.000    0.667    6.667    0.500    2.333    2.667 
#    0.000    1.667    0.000    0.000    0.000    0.000 
#    0.000    0.000    0.000    0.000    0.000    0.000 
#
# Total GULP energy -297408.663617 kJ/mol
# GULP energy per Si atom -12392.027651 kJ/mol
# Density = 1.967904 g / cm^3
# Si number density = 19.723935 Si / 1000 Ang^3
#
#
#
# Elastic Constant Matrix: (Units=GPa)
#
#
# Indices 1 2 3 4 5 6 
#
# 1 126.4017 51.1146 47.5782 0.0000 -11.1320 0.0000
# 2 51.1146 78.4991 39.4806 0.0000 0.1415 0.0000
# 3 47.5782 39.4806 134.2298 0.0000 4.7745 0.0000
# 4 0.0000 0.0000 0.0000 30.1078 0.0000 -5.0951
# 5 -11.1320 0.1415 4.7745 0.0000 56.5268 0.0000
# 6 0.0000 0.0000 0.0000 -5.0951 0.0000 25.7608
#
#
#
# Elastic Compliance Matrix: (Units=1/GPa)
#
#
# Indices 1 2 3 4 5 6 
#
# 1 0.011584 -0.006382 -0.002318 0.000000 0.002493 0.000000
# 2 -0.006382 0.018473 -0.003134 0.000000 -0.001038 0.000000
# 3 -0.002318 -0.003134 0.009237 0.000000 -0.001229 0.000000
# 4 0.000000 0.000000 0.000000 0.034364 0.000000 0.006797
# 5 0.002493 -0.001038 -0.001229 0.000000 0.018288 0.000000
# 6 0.000000 0.000000 0.000000 0.006797 0.000000 0.040163
#
#
# Mechanical properties :
#
#
# Convention : Reuss Voigt Hill
#
# Bulk Modulus (GPa) = 63.99487 68.38638 66.19062
# Shear Modulus (GPa) = 31.05886 35.87624 33.46755
#
# Velocity S-wave (km/s) = 3.97253 4.26951 4.12369
# Velocity P-wave (km/s) = 7.31827 7.68453 7.50363
#
# Compressibility (1/GPa) = 0.01562625
#
# Stress axis : x y z
#
# Youngs Moduli (GPa) = 86.32730 54.13390 108.26028
#
# Poissons Ratio (x) = 0.34547 0.25090
# Poissons Ratio (y) = 0.55091 0.33933
# Poissons Ratio (z) = 0.20007 0.16968
#
# Static dielectric constant tensor:
#      x y z
#    x 3.710970 0.000000 0.082530 
#    y 0.000000 3.573130 0.000000 
#    z 0.082530 0.000000 4.106910 
# 
# 
# High freq. dielectric constant tensor:
#      x y z
#    x 1.777610 0.000000 -0.004100 
#    y 0.000000 1.764320 0.000000 
#    z -0.004100 0.000000 1.792860 
# 
# From -- ./inp_files/58071.got.cif
#   From: 2010.06.25/outbox.cif.g09.slc.cpg/sg11_30_cif.got.tgz:58071.got - 2010.06.27 23:14:04.
