data_PCOD8077417
_publ_section_title
;
Structure prediction by ZEFSAII (Michael W. Deem and Ramdas Pophale) SiO2 
 PCOD8077417
Probable space group: P 21/M
;
_chemical_formula_sum "Si O2"
_cell_formula_units_Z 24
_cell_length_a 9.204555
_cell_length_b 25.175561
_cell_length_c 4.933598
_cell_angle_alpha 90.000000
_cell_angle_beta 81.431182
_cell_angle_gamma 90.000000
_cell_volume 1130.500327
_symmetry_space_group_name_H-M "P 21/M"
_symmetry_group_IT_number 11
_symmetry_cell_setting 'monoclinic'
loop_
_space_group_symop_operation_xyz
x,y,z
-x,1/2+y,-z
-x,-y,-z
x,1/2-y,z
loop_
_atom_site_type_symbol
_atom_site_label
_atom_site_fract_x
_atom_site_fract_y
_atom_site_fract_z
Si Si1 0.860802 0.528009 0.910088
Si Si2 0.465145 0.889150 0.526522
Si Si3 0.033994 0.811318 0.284568
Si Si4 0.388685 0.952813 0.038815
Si Si5 0.197907 0.098463 0.574405
Si Si6 0.229657 0.690258 0.747072
O O1 0.782995 0.561701 0.167497
O O2 0.765655 0.478152 0.831821
O O3 0.886008 0.566715 0.644233
O O4 0.000000 0.500000 0.000000
O O5 0.439224 0.905798 0.223708
O O6 0.636987 0.884826 0.557818
O O7 0.384042 0.834091 0.610655
O O8 0.381260 0.931611 0.735796
O O9 0.989826 0.750000 0.225202
O O10 0.105320 0.814602 0.556762
O O11 0.890202 0.848297 0.322926
O O12 0.153583 0.834553 0.036994
O O13 0.500000 0.000000 0.000000
O O14 0.272515 0.750000 0.803015
#
# Coordination Sequence:
#
# PCOD8077417 Si02
#       6
#     4   4   4   4   4   4
#     4  12  27  41  61  94 128 169 211 261 303 374
#     4  12  24  40  68  93 124 170 208 259 312 374
#     4  10  23  43  66  92 127 164 204 262 320 372
#     4  12  23  43  62  89 131 169 205 253 315 367
#     4  12  24  43  63  95 128 164 214 257 312 373
#     4  10  23  43  66  95 124 161 211 259 316 380
#
# _framework density 21.22954
#
# number of rings (size 3 to 8) (size 9 to 14) (size 15 to 20)
#    0.000    0.667    3.333    4.000    7.000    0.667 
#    0.000    0.000    0.000   10.000    0.000    0.000 
#    0.000    0.000    0.000    0.000    0.000    0.000 
#
# Total GULP energy -297585.653179 kJ/mol
# GULP energy per Si atom -12399.402216 kJ/mol
# Density = 2.118122 g / cm^3
# Si number density = 21.229540 Si / 1000 Ang^3
#
#
#
# Elastic Constant Matrix: (Units=GPa)
#
#
# Indices 1 2 3 4 5 6 
#
# 1 116.8020 60.2926 17.9033 0.0000 -5.2915 0.0000
# 2 60.2926 89.0656 28.4285 0.0000 -10.8663 0.0000
# 3 17.9033 28.4285 103.8102 0.0000 -5.0517 0.0000
# 4 0.0000 0.0000 0.0000 35.4221 0.0000 -9.0991
# 5 -5.2915 -10.8663 -5.0517 0.0000 30.8910 0.0000
# 6 0.0000 0.0000 0.0000 -9.0991 0.0000 37.9762
#
#
#
# Elastic Compliance Matrix: (Units=1/GPa)
#
#
# Indices 1 2 3 4 5 6 
#
# 1 0.013188 -0.009093 0.000171 0.000000 -0.000912 0.000000
# 2 -0.009093 0.019034 -0.003421 0.000000 0.004578 0.000000
# 3 0.000171 -0.003421 0.010567 0.000000 0.000554 0.000000
# 4 0.000000 0.000000 0.000000 0.030082 0.000000 0.007208
# 5 -0.000912 0.004578 0.000554 0.000000 0.033917 0.000000
# 6 0.000000 0.000000 0.000000 0.007208 0.000000 0.028059
#
#
# Mechanical properties :
#
#
# Convention : Reuss Voigt Hill
#
# Bulk Modulus (GPa) = 55.24103 58.10295 56.67199
# Shear Modulus (GPa) = 30.19895 34.39477 32.29686
#
# Velocity S-wave (km/s) = 3.77569 4.02946 3.90464
# Velocity P-wave (km/s) = 6.71455 7.00550 6.86157
#
# Compressibility (1/GPa) = 0.01810249
#
# Stress axis : x y z
#
# Youngs Moduli (GPa) = 75.82712 52.53739 94.63147
#
# Poissons Ratio (x) = 0.47775 -0.01623
# Poissons Ratio (y) = 0.68953 0.32377
# Poissons Ratio (z) = -0.01300 0.17975
#
# Static dielectric constant tensor:
#      x y z
#    x 2.717610 0.000000 -0.898540 
#    y 0.000000 3.777330 0.000000 
#    z -0.898540 0.000000 3.325050 
# 
# 
# High freq. dielectric constant tensor:
#      x y z
#    x 1.827950 0.000000 -0.001790 
#    y 0.000000 1.830200 0.000000 
#    z -0.001790 0.000000 1.850200 
# 
# From -- ./inp_files/2742.got.cif
#   From: 2010.06.25/outbox.cif.g09.slc.cpg/sg11_2_cif.got.tgz:2742.got - 2010.06.27 23:14:04.
