data_PCOD8077125
_publ_section_title
;
Structure prediction by ZEFSAII (Michael W. Deem and Ramdas Pophale) SiO2 
 PCOD8077125
Probable space group: P 21/M
;
_chemical_formula_sum "Si O2"
_cell_formula_units_Z 32
_cell_length_a 15.557596
_cell_length_b 13.435446
_cell_length_c 21.498937
_cell_angle_alpha 90.000000
_cell_angle_beta 162.078377
_cell_angle_gamma 90.000000
_cell_volume 1382.805978
_symmetry_space_group_name_H-M "P 21/M"
_symmetry_group_IT_number 11
_symmetry_cell_setting 'monoclinic'
loop_
_space_group_symop_operation_xyz
x,y,z
-x,1/2+y,-z
-x,-y,-z
x,1/2-y,z
loop_
_atom_site_type_symbol
_atom_site_label
_atom_site_fract_x
_atom_site_fract_y
_atom_site_fract_z
Si Si1 0.992124 0.631205 0.450692
Si Si2 0.169098 0.357815 0.156486
Si Si3 0.626907 0.131770 0.024344
Si Si4 0.889112 0.555263 0.158947
Si Si5 0.244465 0.541982 0.289782
Si Si6 0.303104 0.635226 0.785642
Si Si7 0.322380 0.942174 0.562866
Si Si8 0.445664 0.855777 0.314589
O O1 0.017490 0.750000 0.467158
O O2 0.071408 0.591502 0.576172
O O3 0.220834 0.586438 0.561318
O O4 0.684232 0.599785 0.213874
O O5 0.264191 0.250000 0.250526
O O6 0.120512 0.448320 0.168835
O O7 0.384881 0.387838 0.250260
O O8 0.863569 0.344391 0.921777
O O9 0.675421 0.250000 0.048108
O O10 0.836248 0.064855 0.127246
O O11 0.691624 0.093693 0.139701
O O12 0.014804 0.584265 0.178761
O O13 0.097768 0.591727 0.356643
O O14 0.608425 0.618009 0.968630
O O15 0.500000 0.500000 0.500000
O O16 0.390379 0.625535 0.348890
O O17 0.239601 0.750000 0.747780
O O18 0.367711 0.061490 0.591207
O O19 0.606140 0.750000 0.416209
#
# Coordination Sequence:
#
# PCOD8077125 Si02
#       8
#     4   4   4   4   4   4   4   4
#     4  10  22  41  67  96 128 172 217 267 325 378
#     4  10  22  40  62  88 127 172 212 263 320 377
#     4  10  23  46  66  90 133 170 212 269 322 386
#     4  12  24  39  64  94 125 162 214 265 325 379
#     4  11  22  41  59  92 125 162 209 259 313 384
#     4  10  23  41  65  95 126 166 219 267 320 385
#     4  11  21  39  63  93 129 164 216 264 321 381
#     4  10  23  42  62  88 132 177 214 260 316 382
#
# _framework density 23.141352999999999
#
# number of rings (size 3 to 8) (size 9 to 14) (size 15 to 20)
#    0.000    1.500    3.750    2.250    3.500    3.000 
#    0.000    0.000    0.000    0.000    0.000    0.000 
#    0.000    0.000    0.000    0.000    0.000    0.000 
#
# Total GULP energy -396444.560652 kJ/mol
# GULP energy per Si atom -12388.892520 kJ/mol
# Density = 2.308868 g / cm^3
# Si number density = 23.141353 Si / 1000 Ang^3
#
#
#
# Elastic Constant Matrix: (Units=GPa)
#
#
# Indices 1 2 3 4 5 6 
#
# 1 74.5119 -1.7201 29.1533 0.0000 -12.0349 0.0000
# 2 -1.7201 28.0121 13.9476 0.0000 -16.6681 0.0000
# 3 29.1533 13.9476 73.1686 0.0000 -22.4133 0.0000
# 4 0.0000 0.0000 0.0000 137.2221 0.0000 -57.5101
# 5 -12.0349 -16.6681 -22.4133 0.0000 37.0867 0.0000
# 6 0.0000 0.0000 0.0000 -57.5101 0.0000 44.2104
#
#
#
# Elastic Compliance Matrix: (Units=1/GPa)
#
#
# Indices 1 2 3 4 5 6 
#
# 1 0.016958 0.007154 -0.006688 0.000000 0.004676 0.000000
# 2 0.007154 0.052354 -0.006027 0.000000 0.022209 0.000000
# 3 -0.006688 -0.006027 0.019618 0.000000 0.006977 0.000000
# 4 0.000000 0.000000 0.000000 0.016023 0.000000 0.020843
# 5 0.004676 0.022209 0.006977 0.000000 0.042679 0.000000
# 6 0.000000 0.000000 0.000000 0.020843 0.000000 0.049732
#
#
# Mechanical properties :
#
#
# Convention : Reuss Voigt Hill
#
# Bulk Modulus (GPa) = 12.85230 28.71715 20.78473
# Shear Modulus (GPa) = 21.32909 52.65796 36.99352
#
# Velocity S-wave (km/s) = 3.03922 4.77539 4.00257
# Velocity P-wave (km/s) = 4.22868 6.54539 5.51017
#
# Compressibility (1/GPa) = 0.07780706
#
# Stress axis : x y z
#
# Youngs Moduli (GPa) = 58.97000 19.10079 50.97381
#
# Poissons Ratio (x) = -0.13664 0.34091
# Poissons Ratio (y) = -0.42186 0.30723
# Poissons Ratio (z) = 0.39438 0.11512
#
# Static dielectric constant tensor:
#      x y z
#    x 4.035020 0.000000 -0.237480 
#    y 0.000000 4.167020 0.000000 
#    z -0.237480 0.000000 4.424180 
# 
# 
# High freq. dielectric constant tensor:
#      x y z
#    x 1.900630 0.000000 -0.006280 
#    y 0.000000 1.925000 0.000000 
#    z -0.006280 0.000000 1.928890 
# 
# From -- ./inp_files/65783.got.cif
#   From: 2010.06.25/outbox.cif.g09.slc.cpg/sg11_33_cif.got.tgz:65783.got - 2010.06.27 23:14:04.
