data_PCOD8077941
_publ_section_title
;
Structure prediction by ZEFSAII (Michael W. Deem and Ramdas Pophale) SiO2 
 PCOD8077941
Probable space group: P 21/M
;
_chemical_formula_sum "Si O2"
_cell_formula_units_Z 28
_cell_length_a 16.187025
_cell_length_b 9.627758
_cell_length_c 13.578571
_cell_angle_alpha 90.000000
_cell_angle_beta 65.555784
_cell_angle_gamma 90.000000
_cell_volume 1926.467238
_symmetry_space_group_name_H-M "P 21/M"
_symmetry_group_IT_number 11
_symmetry_cell_setting 'monoclinic'
loop_
_space_group_symop_operation_xyz
x,y,z
-x,1/2+y,-z
-x,-y,-z
x,1/2-y,z
loop_
_atom_site_type_symbol
_atom_site_label
_atom_site_fract_x
_atom_site_fract_y
_atom_site_fract_z
Si Si1 0.051656 0.409827 0.608742
Si Si2 0.133909 0.910870 0.407011
Si Si3 0.306655 0.089906 0.995956
Si Si4 0.497624 0.592879 0.095333
Si Si5 0.125276 0.410170 0.986554
Si Si6 0.023368 0.410973 0.843430
Si Si7 0.301109 0.588175 0.195804
O O1 0.077324 0.250000 0.578033
O O2 0.121910 0.502732 0.512953
O O3 0.948665 0.440052 0.626683
O O4 0.062016 0.451705 0.717741
O O5 0.140106 0.750000 0.433226
O O6 0.225802 0.963928 0.309754
O O7 0.296855 0.250000 0.034301
O O8 0.230921 0.053272 0.951805
O O9 0.292484 0.995968 0.098919
O O10 0.406551 0.064823 0.895234
O O11 0.496505 0.750000 0.057884
O O12 0.401224 0.564144 0.197678
O O13 0.500000 0.500000 0.000000
O O14 0.103924 0.250000 0.020412
O O15 0.066158 0.500859 0.090486
O O16 0.101198 0.445163 0.885217
O O17 0.994573 0.250000 0.859586
O O18 0.284324 0.750000 0.179310
#
# Coordination Sequence:
#
# PCOD8077941 Si02
#       7
#     4   4   4   4   4   4   4
#     4   9  17  28  40  54  74  99 125 155 189 223
#     4   9  17  27  39  56  75  96 125 157 188 223
#     4   9  16  25  38  58  82 104 126 154 187 223
#     4   8  14  24  37  54  77 102 126 152 184 223
#     4   9  17  27  40  59  80 102 128 156 187 223
#     4   9  17  29  42  56  77 103 130 158 187 223
#     4   9  16  26  40  57  78 104 130 155 186 225
#
# _framework density 14.534376999999999
#
# number of rings (size 3 to 8) (size 9 to 14) (size 15 to 20)
#    0.000    3.143    0.000    0.857    0.000    2.857 
#    0.000    2.857    0.000    0.000    0.000    1.000 
#    0.000    0.000    0.000    0.000    0.000    0.000 
#
# Total GULP energy -346918.737280 kJ/mol
# GULP energy per Si atom -12389.954903 kJ/mol
# Density = 1.450130 g / cm^3
# Si number density = 14.534377 Si / 1000 Ang^3
#
#
#
# Elastic Constant Matrix: (Units=GPa)
#
#
# Indices 1 2 3 4 5 6 
#
# 1 115.6128 32.8488 55.7689 0.0000 -15.5859 0.0000
# 2 32.8488 39.1559 36.3817 0.0000 -3.8936 0.0000
# 3 55.7689 36.3817 95.0181 0.0000 -9.7426 0.0000
# 4 0.0000 0.0000 0.0000 22.4110 0.0000 -1.4415
# 5 -15.5859 -3.8936 -9.7426 0.0000 22.6150 0.0000
# 6 0.0000 0.0000 0.0000 -1.4415 0.0000 16.4798
#
#
#
# Elastic Compliance Matrix: (Units=1/GPa)
#
#
# Indices 1 2 3 4 5 6 
#
# 1 0.013660 -0.006185 -0.005015 0.000000 0.006189 0.000000
# 2 -0.006185 0.042444 -0.012878 0.000000 -0.002503 0.000000
# 3 -0.005015 -0.012878 0.018640 0.000000 0.002357 0.000000
# 4 0.000000 0.000000 0.000000 0.044873 0.000000 0.003925
# 5 0.006189 -0.002503 0.002357 0.000000 0.049068 0.000000
# 6 0.000000 0.000000 0.000000 0.003925 0.000000 0.061024
#
#
# Mechanical properties :
#
#
# Convention : Reuss Voigt Hill
#
# Bulk Modulus (GPa) = 37.60940 55.53173 46.57056
# Shear Modulus (GPa) = 17.43803 20.62031 19.02917
#
# Velocity S-wave (km/s) = 3.46754 3.77069 3.62229
# Velocity P-wave (km/s) = 6.47797 7.56621 7.04314
#
# Compressibility (1/GPa) = 0.02658910
#
# Stress axis : x y z
#
# Youngs Moduli (GPa) = 73.20481 23.56022 53.64722
#
# Poissons Ratio (x) = 0.14572 0.26903
# Poissons Ratio (y) = 0.45277 0.69088
# Poissons Ratio (z) = 0.36711 0.30341
#
# Static dielectric constant tensor:
#      x y z
#    x 3.252170 0.000000 -0.168250 
#    y 0.000000 2.877450 0.000000 
#    z -0.168250 0.000000 2.735860 
# 
# 
# High freq. dielectric constant tensor:
#      x y z
#    x 1.555900 0.000000 -0.013190 
#    y 0.000000 1.562160 0.000000 
#    z -0.013190 0.000000 1.521720 
# 
# From -- ./inp_files/38643.got.cif
#   From: 2010.06.25/outbox.cif.g09.slc.cpg/sg11_20_cif.got.tgz:38643.got - 2010.06.27 23:14:04.
