data_PCOD8077063
_publ_section_title
;
Structure prediction by ZEFSAII (Michael W. Deem and Ramdas Pophale) SiO2 
 PCOD8077063
Probable space group: P 21/M
;
_chemical_formula_sum "Si O2"
_cell_formula_units_Z 18
_cell_length_a 8.176940
_cell_length_b 13.674445
_cell_length_c 6.152411
_cell_angle_alpha 90.000000
_cell_angle_beta 76.223599
_cell_angle_gamma 90.000000
_cell_volume 668.142414
_symmetry_space_group_name_H-M "P 21/M"
_symmetry_group_IT_number 11
_symmetry_cell_setting 'monoclinic'
loop_
_space_group_symop_operation_xyz
x,y,z
-x,1/2+y,-z
-x,-y,-z
x,1/2-y,z
loop_
_atom_site_type_symbol
_atom_site_label
_atom_site_fract_x
_atom_site_fract_y
_atom_site_fract_z
Si Si1 0.022265 0.455723 0.757072
Si Si2 0.356032 0.535380 0.731714
Si Si3 0.706063 0.750000 0.662070
Si Si4 0.063945 0.750000 0.342972
Si Si5 0.301246 0.038495 0.226674
Si Si6 0.366063 0.750000 0.570299
O O1 0.960839 0.344927 0.795929
O O2 0.893549 0.516497 0.637278
O O3 0.223059 0.467244 0.637444
O O4 0.000000 0.500000 0.000000
O O5 0.556100 0.501499 0.640144
O O6 0.315500 0.649998 0.709144
O O7 0.328528 0.520584 0.997535
O O8 0.668456 0.654120 0.818860
O O9 0.574089 0.750000 0.494797
O O10 0.905058 0.750000 0.555813
O O11 0.252416 0.750000 0.387268
#
# Coordination Sequence:
#
# PCOD8077063 Si02
#       6
#     4   4   2   2   4   2
#     4  10  23  40  61  87 116 157 207 256 306 368
#     4   9  19  37  62  91 124 163 205 245 288 350
#     4  10  22  39  61  93 130 163 197 245 304 359
#     4  12  26  42  60  88 124 158 198 256 320 370
#     4   9  19  37  62  91 124 163 205 245 288 350
#     4  10  22  39  61  93 130 163 197 245 304 359
#
# _framework density 26.940360999999999
#
# number of rings (size 3 to 8) (size 9 to 14) (size 15 to 20)
#    0.000    2.222    0.000    1.333    0.000   12.444 
#    0.000    6.667    0.000    0.000    0.000    0.000 
#    0.000    0.000    0.000    0.000    0.000    0.000 
#
# Total GULP energy -223018.370953 kJ/mol
# GULP energy per Si atom -12389.909497 kJ/mol
# Density = 2.687904 g / cm^3
# Si number density = 26.940361 Si / 1000 Ang^3
#
#
#
# Elastic Constant Matrix: (Units=GPa)
#
#
# Indices 1 2 3 4 5 6 
#
# 1 276.7854 89.0515 76.5705 0.0000 26.1000 0.0000
# 2 89.0515 212.3521 33.9582 0.0000 33.7432 0.0000
# 3 76.5705 33.9582 83.6249 0.0000 27.9459 0.0000
# 4 0.0000 0.0000 0.0000 29.9319 0.0000 9.4199
# 5 26.1000 33.7432 27.9459 0.0000 47.6384 0.0000
# 6 0.0000 0.0000 0.0000 9.4199 0.0000 48.7347
#
#
#
# Elastic Compliance Matrix: (Units=1/GPa)
#
#
# Indices 1 2 3 4 5 6 
#
# 1 0.005298 -0.001647 -0.004481 0.000000 0.000892 0.000000
# 2 -0.001647 0.005904 0.000257 0.000000 -0.003430 0.000000
# 3 -0.004481 0.000257 0.018903 0.000000 -0.008816 0.000000
# 4 0.000000 0.000000 0.000000 0.035573 0.000000 -0.006876
# 5 0.000892 -0.003430 -0.008816 0.000000 0.028104 0.000000
# 6 0.000000 0.000000 0.000000 -0.006876 0.000000 0.021848
#
#
# Mechanical properties :
#
#
# Convention : Reuss Voigt Hill
#
# Bulk Modulus (GPa) = 54.45658 107.99143 81.22401
# Shear Modulus (GPa) = 37.45529 50.13981 43.79755
#
# Velocity S-wave (km/s) = 3.73272 4.31877 4.03640
# Velocity P-wave (km/s) = 6.23179 8.06483 7.20683
#
# Compressibility (1/GPa) = 0.01836326
#
# Stress axis : x y z
#
# Youngs Moduli (GPa) = 188.74209 169.38091 52.90280
#
# Poissons Ratio (x) = 0.27899 0.23704
# Poissons Ratio (y) = 0.31088 -0.01360
# Poissons Ratio (z) = 0.84569 -0.04354
#
# Static dielectric constant tensor:
#      x y z
#    x 8.401490 0.000000 -0.206540 
#    y 0.000000 5.365320 0.000000 
#    z -0.206540 0.000000 4.695350 
# 
# 
# High freq. dielectric constant tensor:
#      x y z
#    x 2.156020 0.000000 0.013950 
#    y 0.000000 2.076660 0.000000 
#    z 0.013950 0.000000 2.096210 
# 
# From -- ./inp_files/11831.got.cif
#   From: 2010.06.25/outbox.cif.g09.slc.cpg/sg11_6_cif.got.tgz:11831.got - 2010.06.27 23:14:04.
