data_PCOD8077717
_publ_section_title
;
Structure prediction by ZEFSAII (Michael W. Deem and Ramdas Pophale) SiO2 
 PCOD8077717
Probable space group: P 21/M
;
_chemical_formula_sum "Si O2"
_cell_formula_units_Z 28
_cell_length_a 11.587753
_cell_length_b 8.690777
_cell_length_c 14.936696
_cell_angle_alpha 90.000000
_cell_angle_beta 115.090256
_cell_angle_gamma 90.000000
_cell_volume 1362.286392
_symmetry_space_group_name_H-M "P 21/M"
_symmetry_group_IT_number 11
_symmetry_cell_setting 'monoclinic'
loop_
_space_group_symop_operation_xyz
x,y,z
-x,1/2+y,-z
-x,-y,-z
x,1/2-y,z
loop_
_atom_site_type_symbol
_atom_site_label
_atom_site_fract_x
_atom_site_fract_y
_atom_site_fract_z
Si Si1 0.303442 0.931269 0.462342
Si Si2 0.869878 0.068977 0.202871
Si Si3 0.314827 0.928709 0.146757
Si Si4 0.977296 0.432931 0.589668
Si Si5 0.637217 0.568732 0.026814
Si Si6 0.517225 0.428524 0.635668
Si Si7 0.061673 0.431402 0.108329
O O1 0.297423 0.750000 0.461435
O O2 0.159618 0.995302 0.419918
O O3 0.373727 0.993348 0.396028
O O4 0.383669 0.986014 0.575584
O O5 0.855092 0.250000 0.209738
O O6 0.973972 0.025189 0.162908
O O7 0.734081 0.000033 0.130867
O O8 0.911610 0.994665 0.309848
O O9 0.298225 0.750000 0.115590
O O10 0.440627 0.955927 0.247971
O O11 0.196408 0.985076 0.167659
O O12 0.319257 0.027799 0.058744
O O13 0.982406 0.250000 0.588007
O O14 0.000000 0.500000 0.500000
O O15 0.632664 0.750000 0.037272
O O16 0.500000 0.500000 0.000000
O O17 0.496503 0.250000 0.608807
O O18 0.080060 0.250000 0.103751
O O19 0.000000 0.500000 0.000000
#
# Coordination Sequence:
#
# PCOD8077717 Si02
#       7
#     4   4   4   4   4   4   4
#     4   9  19  37  59  86 119 156 198 248 303 360
#     4  11  24  43  66  94 126 162 208 261 315 375
#     4  11  22  38  60  90 127 163 206 253 305 374
#     4  11  24  42  64  90 123 164 210 260 314 372
#     4  12  26  44  65  88 121 163 207 254 310 372
#     4   9  19  35  59  88 119 156 195 245 303 361
#     4  11  22  36  61  93 127 163 203 255 314 374
#
# _framework density 20.553681000000001
#
# number of rings (size 3 to 8) (size 9 to 14) (size 15 to 20)
#    0.000    1.429    1.429    3.857    0.000    6.286 
#    0.000    5.714    0.000    0.000    0.000    0.000 
#    0.000    0.000    0.000    0.000    0.000    0.000 
#
# Total GULP energy -347313.227581 kJ/mol
# GULP energy per Si atom -12404.043842 kJ/mol
# Density = 2.050690 g / cm^3
# Si number density = 20.553681 Si / 1000 Ang^3
#
#
#
# Elastic Constant Matrix: (Units=GPa)
#
#
# Indices 1 2 3 4 5 6 
#
# 1 104.1509 41.7243 54.0291 0.0000 19.0557 0.0000
# 2 41.7243 79.6944 44.1912 0.0000 2.5193 0.0000
# 3 54.0291 44.1912 148.6177 0.0000 11.5238 0.0000
# 4 0.0000 0.0000 0.0000 38.3703 0.0000 3.7107
# 5 19.0557 2.5193 11.5238 0.0000 33.0216 0.0000
# 6 0.0000 0.0000 0.0000 3.7107 0.0000 33.7430
#
#
#
# Elastic Compliance Matrix: (Units=1/GPa)
#
#
# Indices 1 2 3 4 5 6 
#
# 1 0.014835 -0.005815 -0.003119 0.000000 -0.007029 0.000000
# 2 -0.005815 0.017311 -0.003280 0.000000 0.003180 0.000000
# 3 -0.003119 -0.003280 0.008920 0.000000 -0.001063 0.000000
# 4 0.000000 0.000000 0.000000 0.026342 0.000000 -0.002897
# 5 -0.007029 0.003180 -0.001063 0.000000 0.034468 0.000000
# 6 0.000000 0.000000 0.000000 -0.002897 0.000000 0.029954
#
#
# Mechanical properties :
#
#
# Convention : Reuss Voigt Hill
#
# Bulk Modulus (GPa) = 60.10372 68.03915 64.07144
# Shear Modulus (GPa) = 30.90154 33.86151 32.38152
#
# Velocity S-wave (km/s) = 3.88165 4.06330 3.97351
# Velocity P-wave (km/s) = 7.02819 7.42892 7.23133
#
# Compressibility (1/GPa) = 0.01663790
#
# Stress axis : x y z
#
# Youngs Moduli (GPa) = 67.40732 57.76786 112.10470
#
# Poissons Ratio (x) = 0.33594 0.34966
# Poissons Ratio (y) = 0.39199 0.36767
# Poissons Ratio (z) = 0.21025 0.18946
#
# Static dielectric constant tensor:
#      x y z
#    x 3.063710 0.000000 0.411630 
#    y 0.000000 3.766040 0.000000 
#    z 0.411630 0.000000 3.698390 
# 
# 
# High freq. dielectric constant tensor:
#      x y z
#    x 1.801030 0.000000 0.010600 
#    y 0.000000 1.807390 0.000000 
#    z 0.010600 0.000000 1.814760 
# 
# From -- ./inp_files/49466.got.cif
#   From: 2010.06.25/outbox.cif.g09.slc.cpg/sg11_25_cif.got.tgz:49466.got - 2010.06.27 23:14:04.
