data_PCOD8077605
_publ_section_title
;
Structure prediction by ZEFSAII (Michael W. Deem and Ramdas Pophale) SiO2 
 PCOD8077605
Probable space group: P 21/M
;
_chemical_formula_sum "Si O2"
_cell_formula_units_Z 32
_cell_length_a 21.939515
_cell_length_b 8.693758
_cell_length_c 28.435560
_cell_angle_alpha 90.000000
_cell_angle_beta 18.634424
_cell_angle_gamma 90.000000
_cell_volume 1733.030491
_symmetry_space_group_name_H-M "P 21/M"
_symmetry_group_IT_number 11
_symmetry_cell_setting 'monoclinic'
loop_
_space_group_symop_operation_xyz
x,y,z
-x,1/2+y,-z
-x,-y,-z
x,1/2-y,z
loop_
_atom_site_type_symbol
_atom_site_label
_atom_site_fract_x
_atom_site_fract_y
_atom_site_fract_z
Si Si1 0.089832 0.070878 0.582902
Si Si2 0.559713 0.431920 0.407052
Si Si3 0.619329 0.930476 0.555228
Si Si4 0.313195 0.929904 0.159151
Si Si5 0.371593 0.929706 0.303366
Si Si6 0.054867 0.071217 0.910308
Si Si7 0.653347 0.427450 0.163886
Si Si8 0.203210 0.068725 0.338434
O O1 0.132985 0.250000 0.541274
O O2 0.175894 0.023659 0.571373
O O3 0.864627 0.037031 0.746018
O O4 0.194844 0.974670 0.465881
O O5 0.500000 0.500000 0.500000
O O6 0.549834 0.250000 0.417933
O O7 0.416283 0.497819 0.471110
O O8 0.772984 0.480616 0.238808
O O9 0.601734 0.750000 0.562698
O O10 0.449841 0.988678 0.713272
O O11 0.341918 0.750000 0.146220
O O12 0.275435 0.008793 0.236062
O O13 0.500000 0.000000 0.000000
O O14 0.363697 0.750000 0.299099
O O15 0.574393 0.974827 0.177867
O O16 0.356777 0.018870 0.265040
O O17 0.105706 0.250000 0.879761
O O18 0.878758 0.049816 0.003261
O O19 0.000000 0.000000 0.000000
O O20 0.598098 0.250000 0.195974
O O21 0.184289 0.250000 0.350342
O O22 0.000000 0.000000 0.500000
#
# Coordination Sequence:
#
# PCOD8077605 Si02
#       8
#     4   4   4   4   4   4   4   4
#     4   9  18  35  58  81 110 150 193 235 288 350
#     4  11  22  38  57  83 117 155 197 245 293 349
#     4   8  15  32  56  80 107 144 189 234 284 346
#     4  11  23  39  60  86 118 156 196 244 294 349
#     4  11  21  33  55  88 119 148 189 244 296 340
#     4  11  21  36  59  86 116 152 192 240 291 346
#     4   9  18  35  56  81 114 152 191 235 292 351
#     4  12  23  38  60  86 117 153 194 240 290 347
#
# _framework density 18.464766000000001
#
# number of rings (size 3 to 8) (size 9 to 14) (size 15 to 20)
#    0.000    1.750    2.500    4.125    0.000    1.500 
#    0.000    1.875    0.000    6.000    0.000    0.000 
#    0.000    0.000    0.000    0.000    0.000    0.000 
#
# Total GULP energy -396748.982688 kJ/mol
# GULP energy per Si atom -12398.405709 kJ/mol
# Density = 1.842274 g / cm^3
# Si number density = 18.464766 Si / 1000 Ang^3
#
#
#
# Elastic Constant Matrix: (Units=GPa)
#
#
# Indices 1 2 3 4 5 6 
#
# 1 163.9538 54.9292 75.0770 0.0000 -3.4364 0.0000
# 2 54.9292 104.5335 45.1031 0.0000 0.1340 0.0000
# 3 75.0770 45.1031 110.5747 0.0000 -0.5327 0.0000
# 4 0.0000 0.0000 0.0000 31.0773 0.0000 0.8982
# 5 -3.4364 0.1340 -0.5327 0.0000 29.9375 0.0000
# 6 0.0000 0.0000 0.0000 0.8982 0.0000 30.6903
#
#
#
# Elastic Compliance Matrix: (Units=1/GPa)
#
#
# Indices 1 2 3 4 5 6 
#
# 1 0.009453 -0.002672 -0.005324 0.000000 0.001002 0.000000
# 2 -0.002672 0.012365 -0.003232 0.000000 -0.000420 0.000000
# 3 -0.005324 -0.003232 0.013975 0.000000 -0.000348 0.000000
# 4 0.000000 0.000000 0.000000 0.032205 0.000000 -0.000943
# 5 0.001002 -0.000420 -0.000348 0.000000 0.033514 0.000000
# 6 0.000000 0.000000 0.000000 -0.000943 0.000000 0.032611
#
#
# Mechanical properties :
#
#
# Convention : Reuss Voigt Hill
#
# Bulk Modulus (GPa) = 74.96932 81.03118 78.00025
# Shear Modulus (GPa) = 31.05123 31.93785 31.49454
#
# Velocity S-wave (km/s) = 4.10524 4.16344 4.13444
# Velocity P-wave (km/s) = 7.94733 8.19096 8.07006
#
# Compressibility (1/GPa) = 0.01333879
#
# Stress axis : x y z
#
# Youngs Moduli (GPa) = 105.78371 80.87282 71.55626
#
# Poissons Ratio (x) = 0.21606 0.38096
# Poissons Ratio (y) = 0.28261 0.23125
# Poissons Ratio (z) = 0.56319 0.26136
#
# Static dielectric constant tensor:
#      x y z
#    x 7.679690 0.000000 7.656240 
#    y 0.000000 3.389820 0.000000 
#    z 7.656240 0.000000 19.561890 
# 
# 
# High freq. dielectric constant tensor:
#      x y z
#    x 1.729680 0.000000 -0.020570 
#    y 0.000000 1.714990 0.000000 
#    z -0.020570 0.000000 1.693400 
# 
# From -- ./inp_files/72013.got.cif
#   From: 2010.06.25/outbox.cif.g09.slc.cpg/sg11_37_cif.got.tgz:72013.got - 2010.06.27 23:14:04.
