data_PCOD8077116
_publ_section_title
;
Structure prediction by ZEFSAII (Michael W. Deem and Ramdas Pophale) SiO2 
 PCOD8077116
Probable space group: P 21/M
;
_chemical_formula_sum "Si O2"
_cell_formula_units_Z 32
_cell_length_a 11.972105
_cell_length_b 8.428435
_cell_length_c 28.374113
_cell_angle_alpha 90.000000
_cell_angle_beta 146.907681
_cell_angle_gamma 90.000000
_cell_volume 1563.234622
_symmetry_space_group_name_H-M "P 21/M"
_symmetry_group_IT_number 11
_symmetry_cell_setting 'monoclinic'
loop_
_space_group_symop_operation_xyz
x,y,z
-x,1/2+y,-z
-x,-y,-z
x,1/2-y,z
loop_
_atom_site_type_symbol
_atom_site_label
_atom_site_fract_x
_atom_site_fract_y
_atom_site_fract_z
Si Si1 0.624604 0.061479 0.753173
Si Si2 0.356577 0.438439 0.745405
Si Si3 0.913273 0.565027 0.091847
Si Si4 0.840773 0.435011 0.669615
Si Si5 0.556799 0.066101 0.913485
Si Si6 0.464140 0.436826 0.598228
Si Si7 0.219208 0.567732 0.856940
Si Si8 0.089071 0.436059 0.405888
O O1 0.618825 0.250000 0.750575
O O2 0.504362 0.999245 0.756333
O O3 0.517177 0.989799 0.668220
O O4 0.858768 0.002346 0.838552
O O5 0.325887 0.250000 0.734019
O O6 0.451424 0.496013 0.828372
O O7 0.139654 0.520832 0.660442
O O8 0.917478 0.750000 0.105508
O O9 0.821364 0.471475 0.103354
O O10 0.768853 0.528663 0.996039
O O11 0.883455 0.250000 0.694585
O O12 0.629138 0.493476 0.617851
O O13 0.834634 0.466011 0.612066
O O14 0.019868 0.536887 0.755596
O O15 0.610654 0.250000 0.928219
O O16 0.405495 0.037971 0.903773
O O17 0.478984 0.250000 0.608222
O O18 0.237924 0.487819 0.501522
O O19 0.283996 0.750000 0.874956
O O20 0.109211 0.250000 0.402170
#
# Coordination Sequence:
#
# PCOD8077116 Si02
#       8
#     4   4   4   4   4   4   4   4
#     4   9  19  39  63  85 112 155 203 244 290 346
#     4  10  22  40  62  83 113 159 204 243 288 344
#     4  11  22  39  64  89 117 154 196 241 294 351
#     4  11  20  36  61  87 118 157 194 235 292 355
#     4  11  23  39  59  87 122 156 195 240 292 350
#     4   9  19  36  60  88 119 154 193 240 294 349
#     4  12  23  37  60  90 122 153 191 239 293 352
#     4  11  22  36  58  89 122 155 193 243 294 343
#
# _framework density 20.470376999999999
#
# number of rings (size 3 to 8) (size 9 to 14) (size 15 to 20)
#    0.000    1.500    2.500    3.375    0.000    1.500 
#    0.000    3.125    0.000    0.000    0.000    0.000 
#    0.000    0.000    0.000    0.000    0.000    0.000 
#
# Total GULP energy -396909.200465 kJ/mol
# GULP energy per Si atom -12403.412515 kJ/mol
# Density = 2.042379 g / cm^3
# Si number density = 20.470377 Si / 1000 Ang^3
#
#
#
# Elastic Constant Matrix: (Units=GPa)
#
#
# Indices 1 2 3 4 5 6 
#
# 1 140.1189 11.7019 63.1644 0.0000 12.9930 0.0000
# 2 11.7019 66.4290 -18.7604 0.0000 3.8815 0.0000
# 3 63.1644 -18.7604 222.3242 0.0000 -0.9670 0.0000
# 4 0.0000 0.0000 0.0000 28.7437 0.0000 3.1441
# 5 12.9930 3.8815 -0.9670 0.0000 20.0810 0.0000
# 6 0.0000 0.0000 0.0000 3.1441 0.0000 7.0677
#
#
#
# Elastic Compliance Matrix: (Units=1/GPa)
#
#
# Indices 1 2 3 4 5 6 
#
# 1 0.009081 -0.002056 -0.002778 0.000000 -0.005612 0.000000
# 2 -0.002056 0.016060 0.001932 0.000000 -0.001681 0.000000
# 3 -0.002778 0.001932 0.005458 0.000000 0.001687 0.000000
# 4 0.000000 0.000000 0.000000 0.036570 0.000000 -0.016268
# 5 -0.005612 -0.001681 0.001687 0.000000 0.053836 0.000000
# 6 0.000000 0.000000 0.000000 -0.016268 0.000000 0.148727
#
#
# Mechanical properties :
#
#
# Convention : Reuss Voigt Hill
#
# Bulk Modulus (GPa) = 40.33226 60.12045 50.22635
# Shear Modulus (GPa) = 17.61804 36.02955 26.82380
#
# Velocity S-wave (km/s) = 2.93688 4.19988 3.62383
# Velocity P-wave (km/s) = 5.58980 7.27681 6.48837
#
# Compressibility (1/GPa) = 0.02479405
#
# Stress axis : x y z
#
# Youngs Moduli (GPa) = 110.11723 62.26746 183.23195
#
# Poissons Ratio (x) = 0.12804 0.50902
# Poissons Ratio (y) = 0.22644 -0.35402
# Poissons Ratio (z) = 0.30591 -0.12031
#
# Static dielectric constant tensor:
#      x y z
#    x 3.813260 0.000000 -0.062390 
#    y 0.000000 3.423240 0.000000 
#    z -0.062390 0.000000 4.003380 
# 
# 
# High freq. dielectric constant tensor:
#      x y z
#    x 1.795060 0.000000 -0.000320 
#    y 0.000000 1.777000 0.000000 
#    z -0.000320 0.000000 1.818120 
# 
# From -- ./inp_files/73169.got.cif
#   From: 2010.06.25/outbox.cif.g09.slc.cpg/sg11_37_cif.got.tgz:73169.got - 2010.06.27 23:14:04.
