data_PCOD8077607
_publ_section_title
;
Structure prediction by ZEFSAII (Michael W. Deem and Ramdas Pophale) SiO2 
 PCOD8077607
Probable space group: P 21/M
;
_chemical_formula_sum "Si O2"
_cell_formula_units_Z 28
_cell_length_a 27.185676
_cell_length_b 8.617900
_cell_length_c 9.711900
_cell_angle_alpha 90.000000
_cell_angle_beta 39.238444
_cell_angle_gamma 90.000000
_cell_volume 1439.262634
_symmetry_space_group_name_H-M "P 21/M"
_symmetry_group_IT_number 11
_symmetry_cell_setting 'monoclinic'
loop_
_space_group_symop_operation_xyz
x,y,z
-x,1/2+y,-z
-x,-y,-z
x,1/2-y,z
loop_
_atom_site_type_symbol
_atom_site_label
_atom_site_fract_x
_atom_site_fract_y
_atom_site_fract_z
Si Si1 0.320260 0.931453 0.739030
Si Si2 0.784123 0.435150 0.795516
Si Si3 0.567589 0.067635 0.949433
Si Si4 0.509232 0.434536 0.629984
Si Si5 0.180394 0.931969 0.854976
Si Si6 0.915277 0.567403 0.702120
Si Si7 0.257795 0.934305 0.415214
O O1 0.326423 0.750000 0.744524
O O2 0.404697 0.991602 0.511817
O O3 0.262287 0.978004 0.744377
O O4 0.288487 0.995806 0.954499
O O5 0.790656 0.250000 0.781876
O O6 0.862591 0.499211 0.693964
O O7 0.770913 0.500778 0.669892
O O8 0.564493 0.250000 0.936087
O O9 0.552042 0.019447 0.140011
O O10 0.655609 0.005993 0.728944
O O11 0.500000 0.000000 0.000000
O O12 0.500000 0.500000 0.500000
O O13 0.497619 0.250000 0.662107
O O14 0.162296 0.750000 0.908799
O O15 0.192000 0.982749 0.670386
O O16 0.113296 0.023309 0.081329
O O17 0.917032 0.750000 0.683898
O O18 0.000000 0.500000 0.500000
O O19 0.263121 0.750000 0.394476
#
# Coordination Sequence:
#
# PCOD8077607 Si02
#       7
#     4   4   4   4   4   4   4
#     4   8  15  29  50  71 100 140 182 220 263 319
#     4   9  17  34  58  82 105 139 181 222 265 319
#     4  11  22  37  54  77 109 150 194 237 281 329
#     4  11  21  34  51  75 105 142 186 235 284 332
#     4   9  17  34  58  81 102 135 178 218 258 314
#     4  11  22  38  59  85 112 140 171 211 260 317
#     4   9  18  34  58  81 108 146 186 221 270 334
#
# _framework density 19.454405999999999
#
# number of rings (size 3 to 8) (size 9 to 14) (size 15 to 20)
#    0.000    2.286    0.000    4.714    0.000    4.571 
#    0.000   15.714    0.000    0.000    0.000    0.000 
#    0.000    0.000    0.000    0.000    0.000    0.000 
#
# Total GULP energy -346982.948172 kJ/mol
# GULP energy per Si atom -12392.248149 kJ/mol
# Density = 1.941013 g / cm^3
# Si number density = 19.454406 Si / 1000 Ang^3
#
#
#
# Elastic Constant Matrix: (Units=GPa)
#
#
# Indices 1 2 3 4 5 6 
#
# 1 82.4079 20.9210 44.1774 0.0000 6.8105 0.0000
# 2 20.9210 53.9402 23.4335 0.0000 -2.7346 0.0000
# 3 44.1774 23.4335 130.9249 0.0000 7.5547 0.0000
# 4 0.0000 0.0000 0.0000 26.8373 0.0000 0.6863
# 5 6.8105 -2.7346 7.5547 0.0000 42.4447 0.0000
# 6 0.0000 0.0000 0.0000 0.6863 0.0000 25.6028
#
#
#
# Elastic Compliance Matrix: (Units=1/GPa)
#
#
# Indices 1 2 3 4 5 6 
#
# 1 0.015769 -0.004291 -0.004436 0.000000 -0.002017 0.000000
# 2 -0.004291 0.021432 -0.002533 0.000000 0.002520 0.000000
# 3 -0.004436 -0.002533 0.009656 0.000000 -0.001170 0.000000
# 4 0.000000 0.000000 0.000000 0.037287 0.000000 -0.001000
# 5 -0.002017 0.002520 -0.001170 0.000000 0.024254 0.000000
# 6 0.000000 0.000000 0.000000 -0.001000 0.000000 0.039085
#
#
# Mechanical properties :
#
#
# Convention : Reuss Voigt Hill
#
# Bulk Modulus (GPa) = 41.09340 49.37076 45.23208
# Shear Modulus (GPa) = 28.07146 30.89304 29.48225
#
# Velocity S-wave (km/s) = 3.80272 3.98926 3.89711
# Velocity P-wave (km/s) = 6.36001 6.83020 6.59929
#
# Compressibility (1/GPa) = 0.02433481
#
# Stress axis : x y z
#
# Youngs Moduli (GPa) = 63.41495 46.65974 103.56349
#
# Poissons Ratio (x) = 0.20022 0.45946
# Poissons Ratio (y) = 0.27212 0.26237
# Poissons Ratio (z) = 0.28134 0.11821
#
# Static dielectric constant tensor:
#      x y z
#    x 4.021830 0.000000 -0.365330 
#    y 0.000000 4.007960 0.000000 
#    z -0.365330 0.000000 4.143390 
# 
# 
# High freq. dielectric constant tensor:
#      x y z
#    x 1.751670 0.000000 0.009270 
#    y 0.000000 1.726520 0.000000 
#    z 0.009270 0.000000 1.769070 
# 
# From -- ./inp_files/28277.got.cif
#   From: 2010.06.25/outbox.cif.g09.slc.cpg/sg11_15_cif.got.tgz:28277.got - 2010.06.27 23:14:04.
