data_PCOD8077151
_publ_section_title
;
Structure prediction by ZEFSAII (Michael W. Deem and Ramdas Pophale) SiO2 
 PCOD8077151
Probable space group: P 21/M
;
_chemical_formula_sum "Si O2"
_cell_formula_units_Z 32
_cell_length_a 13.188166
_cell_length_b 13.959850
_cell_length_c 8.663596
_cell_angle_alpha 90.000000
_cell_angle_beta 101.408526
_cell_angle_gamma 90.000000
_cell_volume 1563.495174
_symmetry_space_group_name_H-M "P 21/M"
_symmetry_group_IT_number 11
_symmetry_cell_setting 'monoclinic'
loop_
_space_group_symop_operation_xyz
x,y,z
-x,1/2+y,-z
-x,-y,-z
x,1/2-y,z
loop_
_atom_site_type_symbol
_atom_site_label
_atom_site_fract_x
_atom_site_fract_y
_atom_site_fract_z
Si Si1 0.095768 0.448128 0.114514
Si Si2 0.763464 0.142469 0.363267
Si Si3 0.438770 0.859039 0.902056
Si Si4 0.042843 0.531017 0.673911
Si Si5 0.324175 0.137297 0.638500
Si Si6 0.274867 0.509826 0.371436
Si Si7 0.150200 0.142489 0.834092
Si Si8 0.462720 0.963178 0.211902
O O1 0.188326 0.513841 0.210839
O O2 0.040114 0.406111 0.252392
O O3 0.156121 0.372528 0.022558
O O4 0.000000 0.500000 0.000000
O O5 0.799683 0.250000 0.400650
O O6 0.663835 0.134524 0.227860
O O7 0.852106 0.088707 0.297501
O O8 0.744227 0.099645 0.524789
O O9 0.482487 0.750000 0.916581
O O10 0.523207 0.930224 0.854119
O O11 0.414035 0.892788 0.068698
O O12 0.059936 0.427869 0.756373
O O13 0.000000 0.500000 0.500000
O O14 0.340462 0.250000 0.610128
O O15 0.256669 0.120771 0.774041
O O16 0.431275 0.083121 0.697018
O O17 0.270235 0.088042 0.473059
O O18 0.387336 0.525526 0.333084
O O19 0.114788 0.250000 0.787732
#
# Coordination Sequence:
#
# PCOD8077151 Si02
#       8
#     4   4   4   4   4   4   4   4
#     4  10  24  40  66  93 127 169 214 275 324 387
#     4  11  24  42  67  95 128 173 219 267 325 390
#     4  10  23  42  65  96 132 174 220 265 321 393
#     4  11  20  42  67  92 129 167 213 273 329 386
#     4  11  23  42  67  97 133 173 218 266 327 393
#     4  12  24  43  65  96 133 173 218 271 329 383
#     4  10  22  40  65  93 128 166 212 264 322 387
#     4  11  24  40  67  96 135 178 215 263 328 389
#
# _framework density 20.466964000000001
#
# number of rings (size 3 to 8) (size 9 to 14) (size 15 to 20)
#    0.000    1.250    3.750    0.750    7.000    3.000 
#    0.000    0.000    0.000    0.000    0.000    0.000 
#    0.000    0.000    0.000    0.000    0.000    0.000 
#
# Total GULP energy -396540.701159 kJ/mol
# GULP energy per Si atom -12391.896911 kJ/mol
# Density = 2.042038 g / cm^3
# Si number density = 20.466964 Si / 1000 Ang^3
#
#
#
# Elastic Constant Matrix: (Units=GPa)
#
#
# Indices 1 2 3 4 5 6 
#
# 1 101.2142 41.2443 52.2046 0.0000 -19.7066 0.0000
# 2 41.2443 135.0920 47.8945 0.0000 -0.2657 0.0000
# 3 52.2046 47.8945 117.3806 0.0000 -11.4773 0.0000
# 4 0.0000 0.0000 0.0000 23.4778 0.0000 0.1723
# 5 -19.7066 -0.2657 -11.4773 0.0000 46.0966 0.0000
# 6 0.0000 0.0000 0.0000 0.1723 0.0000 17.3318
#
#
#
# Elastic Compliance Matrix: (Units=1/GPa)
#
#
# Indices 1 2 3 4 5 6 
#
# 1 0.014433 -0.002680 -0.004841 0.000000 0.004949 0.000000
# 2 -0.002680 0.009185 -0.002729 0.000000 -0.001772 0.000000
# 3 -0.004841 -0.002729 0.011871 0.000000 0.000870 0.000000
# 4 0.000000 0.000000 0.000000 0.042597 0.000000 -0.000424
# 5 0.004949 -0.001772 0.000870 0.000000 0.024016 0.000000
# 6 0.000000 0.000000 0.000000 -0.000424 0.000000 0.057702
#
#
# Mechanical properties :
#
#
# Convention : Reuss Voigt Hill
#
# Bulk Modulus (GPa) = 66.72212 70.70819 68.71516
# Shear Modulus (GPa) = 26.98328 31.53746 29.26037
#
# Velocity S-wave (km/s) = 3.63489 3.92968 3.78516
# Velocity P-wave (km/s) = 7.09135 7.43050 7.26291
#
# Compressibility (1/GPa) = 0.01498753
#
# Stress axis : x y z
#
# Youngs Moduli (GPa) = 69.28552 108.87737 84.23851
#
# Poissons Ratio (x) = 0.29182 0.40784
# Poissons Ratio (y) = 0.18571 0.22987
# Poissons Ratio (z) = 0.33544 0.29711
#
# Static dielectric constant tensor:
#      x y z
#    x 3.677080 0.000000 -0.109380 
#    y 0.000000 3.926600 0.000000 
#    z -0.109380 0.000000 4.141650 
# 
# 
# High freq. dielectric constant tensor:
#      x y z
#    x 1.804460 0.000000 -0.005190 
#    y 0.000000 1.788760 0.000000 
#    z -0.005190 0.000000 1.818920 
# 
# From -- ./inp_files/18035.got.cif
#   From: 2010.06.25/outbox.cif.g09.slc.cpg/sg11_10_cif.got.tgz:18035.got - 2010.06.27 23:14:04.
