data_PCOD8077557
_publ_section_title
;
Structure prediction by ZEFSAII (Michael W. Deem and Ramdas Pophale) SiO2 
 PCOD8077557
Probable space group: P 21/M
;
_chemical_formula_sum "Si O2"
_cell_formula_units_Z 20
_cell_length_a 21.587781
_cell_length_b 8.834993
_cell_length_c 10.343249
_cell_angle_alpha 90.000000
_cell_angle_beta 35.192137
_cell_angle_gamma 90.000000
_cell_volume 1136.933367
_symmetry_space_group_name_H-M "P 21/M"
_symmetry_group_IT_number 11
_symmetry_cell_setting 'monoclinic'
loop_
_space_group_symop_operation_xyz
x,y,z
-x,1/2+y,-z
-x,-y,-z
x,1/2-y,z
loop_
_atom_site_type_symbol
_atom_site_label
_atom_site_fract_x
_atom_site_fract_y
_atom_site_fract_z
Si Si1 0.781991 0.572915 0.027424
Si Si2 0.436856 0.430368 0.488144
Si Si3 0.014140 0.572556 0.615035
Si Si4 0.542253 0.571101 0.058497
Si Si5 0.224554 0.072429 0.251605
O O1 0.768172 0.750000 0.031895
O O2 0.688111 0.517726 0.283524
O O3 0.766128 0.504509 0.909920
O O4 0.901162 0.535330 0.882183
O O5 0.500000 0.500000 0.500000
O O6 0.451090 0.250000 0.462750
O O7 0.477105 0.499302 0.286739
O O8 0.031047 0.750000 0.572749
O O9 0.120336 0.501719 0.500920
O O10 0.000000 0.500000 0.500000
O O11 0.524250 0.750000 0.090515
O O12 0.500000 0.500000 0.000000
O O13 0.668064 0.529509 0.854370
O O14 0.204930 0.250000 0.283604
#
# Coordination Sequence:
#
# PCOD8077557 Si02
#       5
#     4   4   4   4   4
#     4   8  15  29  48  73 106 136 164 210 266 308
#     4  11  20  34  55  80 109 143 178 218 268 318
#     4   9  16  27  45  72 103 135 170 210 259 311
#     4  11  23  39  55  77 108 143 181 223 270 322
#     4   9  17  32  50  71 104 138 170 215 265 311
#
# _framework density 17.591182
#
# number of rings (size 3 to 8) (size 9 to 14) (size 15 to 20)
#    0.000    2.400    2.000    3.000    0.000    1.600 
#    0.000    3.000    0.000    1.200    0.000    0.000 
#    0.000    0.000    0.000    0.000    0.000    0.000 
#
# Total GULP energy -247803.656333 kJ/mol
# GULP energy per Si atom -12390.182817 kJ/mol
# Density = 1.755114 g / cm^3
# Si number density = 17.591182 Si / 1000 Ang^3
#
#
#
# Elastic Constant Matrix: (Units=GPa)
#
#
# Indices 1 2 3 4 5 6 
#
# 1 118.2937 53.3347 89.7399 0.0000 -21.6542 0.0000
# 2 53.3347 73.5969 59.7847 0.0000 -16.9205 0.0000
# 3 89.7399 59.7847 144.6755 0.0000 -32.8124 0.0000
# 4 0.0000 0.0000 0.0000 27.6764 0.0000 -4.6732
# 5 -21.6542 -16.9205 -32.8124 0.0000 38.9185 0.0000
# 6 0.0000 0.0000 0.0000 -4.6732 0.0000 28.6424
#
#
#
# Elastic Compliance Matrix: (Units=1/GPa)
#
#
# Indices 1 2 3 4 5 6 
#
# 1 0.017474 -0.005801 -0.008418 0.000000 0.000103 0.000000
# 2 -0.005801 0.022531 -0.005221 0.000000 0.002166 0.000000
# 3 -0.008418 -0.005221 0.015720 0.000000 0.006300 0.000000
# 4 0.000000 0.000000 0.000000 0.037155 0.000000 0.006062
# 5 0.000103 0.002166 0.006300 0.000000 0.032005 0.000000
# 6 0.000000 0.000000 0.000000 0.006062 0.000000 0.035902
#
#
# Mechanical properties :
#
#
# Convention : Reuss Voigt Hill
#
# Bulk Modulus (GPa) = 59.36780 82.47608 70.92194
# Shear Modulus (GPa) = 24.35657 27.96124 26.15890
#
# Velocity S-wave (km/s) = 3.72504 3.99118 3.86041
# Velocity P-wave (km/s) = 7.23347 8.25991 7.76367
#
# Compressibility (1/GPa) = 0.01684415
#
# Stress axis : x y z
#
# Youngs Moduli (GPa) = 57.22661 44.38426 63.61316
#
# Poissons Ratio (x) = 0.25748 0.53553
# Poissons Ratio (y) = 0.33199 0.33210
# Poissons Ratio (z) = 0.48176 0.23171
#
# Static dielectric constant tensor:
#      x y z
#    x 5.170610 0.000000 8.042230 
#    y 0.000000 3.354380 0.000000 
#    z 8.042230 0.000000 42.900410 
# 
# 
# High freq. dielectric constant tensor:
#      x y z
#    x 1.654190 0.000000 -0.041970 
#    y 0.000000 1.676100 0.000000 
#    z -0.041970 0.000000 1.679450 
# 
# From -- ./inp_files/23897.got.cif
#   From: 2010.06.25/outbox.cif.g09.slc.cpg/sg11_12_cif.got.tgz:23897.got - 2010.06.27 23:14:04.
