data_PCOD8077272
_publ_section_title
;
Structure prediction by ZEFSAII (Michael W. Deem and Ramdas Pophale) SiO2 
 PCOD8077272
Probable space group: P 21/M
;
_chemical_formula_sum "Si O2"
_cell_formula_units_Z 20
_cell_length_a 15.287954
_cell_length_b 8.395667
_cell_length_c 7.653361
_cell_angle_alpha 90.000000
_cell_angle_beta 76.143106
_cell_angle_gamma 90.000000
_cell_volume 953.739794
_symmetry_space_group_name_H-M "P 21/M"
_symmetry_group_IT_number 11
_symmetry_cell_setting 'monoclinic'
loop_
_space_group_symop_operation_xyz
x,y,z
-x,1/2+y,-z
-x,-y,-z
x,1/2-y,z
loop_
_atom_site_type_symbol
_atom_site_label
_atom_site_fract_x
_atom_site_fract_y
_atom_site_fract_z
Si Si1 0.779169 0.564564 0.420756
Si Si2 0.410154 0.064102 0.128168
Si Si3 0.100405 0.061850 0.960858
Si Si4 0.404021 0.568797 0.498949
Si Si5 0.771346 0.064350 0.810236
O O1 0.783876 0.750000 0.460199
O O2 0.852361 0.510377 0.243470
O O3 0.681361 0.524454 0.379864
O O4 0.795760 0.475570 0.596577
O O5 0.421308 0.250000 0.170039
O O6 0.394114 0.948781 0.298106
O O7 0.316387 0.033041 0.070711
O O8 0.500000 0.000000 0.000000
O O9 0.104156 0.250000 0.983331
O O10 0.145497 0.981431 0.107399
O O11 0.000000 0.000000 0.000000
O O12 0.500000 0.500000 0.500000
O O13 0.399302 0.750000 0.563106
O O14 0.751554 0.250000 0.836062
#
# Coordination Sequence:
#
# PCOD8077272 Si02
#       5
#     4   4   4   4   4
#     4  10  22  42  65  91 126 165 210 262 317 376
#     4  11  22  38  59  87 123 163 208 255 308 371
#     4  11  25  44  68  96 126 164 213 266 321 380
#     4  11  22  37  58  87 123 163 207 254 308 372
#     4  11  23  41  65  93 128 167 209 259 318 380
#
# _framework density 20.970082000000001
#
# number of rings (size 3 to 8) (size 9 to 14) (size 15 to 20)
#    0.000    1.200    0.000    9.000    2.800    4.000 
#    0.000    0.000    0.000    0.000    0.000    0.000 
#    0.000    0.000    0.000    0.000    0.000    0.000 
#
# Total GULP energy -247915.110266 kJ/mol
# GULP energy per Si atom -12395.755513 kJ/mol
# Density = 2.092235 g / cm^3
# Si number density = 20.970082 Si / 1000 Ang^3
#
#
#
# Elastic Constant Matrix: (Units=GPa)
#
#
# Indices 1 2 3 4 5 6 
#
# 1 178.2338 36.5821 70.1023 0.0000 -13.8883 0.0000
# 2 36.5821 92.3126 43.5522 0.0000 -3.5493 0.0000
# 3 70.1023 43.5522 99.9253 0.0000 -17.7531 0.0000
# 4 0.0000 0.0000 0.0000 29.1301 0.0000 0.1882
# 5 -13.8883 -3.5493 -17.7531 0.0000 40.9302 0.0000
# 6 0.0000 0.0000 0.0000 0.1882 0.0000 40.8571
#
#
#
# Elastic Compliance Matrix: (Units=1/GPa)
#
#
# Indices 1 2 3 4 5 6 
#
# 1 0.007784 -0.000661 -0.005107 0.000000 0.000369 0.000000
# 2 -0.000661 0.013780 -0.005818 0.000000 -0.001553 0.000000
# 3 -0.005107 -0.005818 0.017042 0.000000 0.005154 0.000000
# 4 0.000000 0.000000 0.000000 0.034330 0.000000 -0.000158
# 5 0.000369 -0.001553 0.005154 0.000000 0.026658 0.000000
# 6 0.000000 0.000000 0.000000 -0.000158 0.000000 0.024476
#
#
# Mechanical properties :
#
#
# Convention : Reuss Voigt Hill
#
# Bulk Modulus (GPa) = 64.79540 74.54941 69.67240
# Shear Modulus (GPa) = 32.81140 36.86584 34.83862
#
# Velocity S-wave (km/s) = 3.95989 4.19742 4.08039
# Velocity P-wave (km/s) = 7.20234 7.68887 7.44958
#
# Compressibility (1/GPa) = 0.01543319
#
# Stress axis : x y z
#
# Youngs Moduli (GPa) = 128.47399 72.56940 58.67898
#
# Poissons Ratio (x) = 0.04796 0.29968
# Poissons Ratio (y) = 0.08491 0.34140
# Poissons Ratio (z) = 0.65612 0.42222
#
# Static dielectric constant tensor:
#      x y z
#    x 3.900630 0.000000 -0.193760 
#    y 0.000000 3.819670 0.000000 
#    z -0.193760 0.000000 3.494130 
# 
# 
# High freq. dielectric constant tensor:
#      x y z
#    x 1.835140 0.000000 -0.004530 
#    y 0.000000 1.834610 0.000000 
#    z -0.004530 0.000000 1.813000 
# 
# From -- ./inp_files/20173.got.cif
#   From: 2010.06.25/outbox.cif.g09.slc.cpg/sg11_11_cif.got.tgz:20173.got - 2010.06.27 23:14:04.
