data_PCOD8077135
_publ_section_title
;
Structure prediction by ZEFSAII (Michael W. Deem and Ramdas Pophale) SiO2 
 PCOD8077135
Probable space group: P 21/M
;
_chemical_formula_sum "Si O2"
_cell_formula_units_Z 20
_cell_length_a 8.817217
_cell_length_b 23.056622
_cell_length_c 7.784197
_cell_angle_alpha 90.000000
_cell_angle_beta 33.992474
_cell_angle_gamma 90.000000
_cell_volume 884.744950
_symmetry_space_group_name_H-M "P 21/M"
_symmetry_group_IT_number 11
_symmetry_cell_setting 'monoclinic'
loop_
_space_group_symop_operation_xyz
x,y,z
-x,1/2+y,-z
-x,-y,-z
x,1/2-y,z
loop_
_atom_site_type_symbol
_atom_site_label
_atom_site_fract_x
_atom_site_fract_y
_atom_site_fract_z
Si Si1 0.527877 0.151419 0.085546
Si Si2 0.262252 0.962295 0.935827
Si Si3 0.238233 0.961909 0.564502
Si Si4 0.028093 0.651815 0.585316
Si Si5 0.938067 0.750000 0.943689
Si Si6 0.529914 0.250000 0.352878
O O1 0.658150 0.091417 0.022866
O O2 0.464313 0.193084 0.304379
O O3 0.248220 0.138818 0.253439
O O4 0.748119 0.181027 0.750841
O O5 0.251876 0.941424 0.748767
O O6 0.467772 0.015800 0.770043
O O7 0.967445 0.984600 0.269154
O O8 0.157410 0.908011 0.525698
O O9 0.966183 0.692979 0.802908
O O10 0.156493 0.750000 0.890067
O O11 0.645201 0.750000 0.308683
#
# Coordination Sequence:
#
# PCOD8077135 Si02
#       6
#     4   4   4   4   2   2
#     4  12  25  42  66  97 132 164 208 267 323 373
#     4  10  22  40  63  92 128 170 213 254 305 376
#     4  10  22  40  63  92 128 170 213 254 305 376
#     4  12  25  42  66  97 132 164 208 267 323 373
#     4  12  26  46  70  92 124 170 218 260 314 384
#     4  12  26  46  70  92 124 170 218 260 314 384
#
# _framework density 22.605384999999998
#
# number of rings (size 3 to 8) (size 9 to 14) (size 15 to 20)
#    0.000    0.800    0.000    7.200    0.000    9.600 
#    0.000    0.000    0.000    0.000    0.000    0.000 
#    0.000    0.000    0.000    0.000    0.000    0.000 
#
# Total GULP energy -248158.256238 kJ/mol
# GULP energy per Si atom -12407.912812 kJ/mol
# Density = 2.255393 g / cm^3
# Si number density = 22.605385 Si / 1000 Ang^3
#
#
#
# Elastic Constant Matrix: (Units=GPa)
#
#
# Indices 1 2 3 4 5 6 
#
# 1 129.3519 53.2410 28.8486 0.0000 -16.7091 0.0000
# 2 53.2410 82.3620 1.2206 0.0000 6.8822 0.0000
# 3 28.8486 1.2206 109.8926 0.0000 3.9263 0.0000
# 4 0.0000 0.0000 0.0000 13.3735 0.0000 0.6546
# 5 -16.7091 6.8822 3.9263 0.0000 46.8422 0.0000
# 6 0.0000 0.0000 0.0000 0.6546 0.0000 13.9708
#
#
#
# Elastic Compliance Matrix: (Units=1/GPa)
#
#
# Indices 1 2 3 4 5 6 
#
# 1 0.012962 -0.008846 -0.003527 0.000000 0.006219 0.000000
# 2 -0.008846 0.018330 0.002335 0.000000 -0.006044 0.000000
# 3 -0.003527 0.002335 0.010087 0.000000 -0.002446 0.000000
# 4 0.000000 0.000000 0.000000 0.074947 0.000000 -0.003511
# 5 0.006219 -0.006044 -0.002446 0.000000 0.024660 0.000000
# 6 0.000000 0.000000 0.000000 -0.003511 0.000000 0.071742
#
#
# Mechanical properties :
#
#
# Convention : Reuss Voigt Hill
#
# Bulk Modulus (GPa) = 46.94208 54.24745 50.59477
# Shear Modulus (GPa) = 20.84154 30.72371 25.78263
#
# Velocity S-wave (km/s) = 3.03969 3.69064 3.38087
# Velocity P-wave (km/s) = 5.75592 6.49698 6.13765
#
# Compressibility (1/GPa) = 0.02130285
#
# Stress axis : x y z
#
# Youngs Moduli (GPa) = 77.14972 54.55404 99.13692
#
# Poissons Ratio (x) = 0.48260 0.34962
# Poissons Ratio (y) = 0.68249 -0.23145
# Poissons Ratio (z) = 0.27208 -0.12736
#
# Static dielectric constant tensor:
#      x y z
#    x 4.331810 0.000000 -0.045920 
#    y 0.000000 3.840200 0.000000 
#    z -0.045920 0.000000 4.271550 
# 
# 
# High freq. dielectric constant tensor:
#      x y z
#    x 1.911770 0.000000 -0.005790 
#    y 0.000000 1.888380 0.000000 
#    z -0.005790 0.000000 1.906070 
# 
# From -- ./inp_files/14897.got.cif
#   From: 2010.06.25/outbox.cif.g09.slc.cpg/sg11_8_cif.got.tgz:14897.got - 2010.06.27 23:14:04.
