data_PCOD8077585
_publ_section_title
;
Structure prediction by ZEFSAII (Michael W. Deem and Ramdas Pophale) SiO2 
 PCOD8077585
Probable space group: P 21/M
;
_chemical_formula_sum "Si O2"
_cell_formula_units_Z 32
_cell_length_a 9.362965
_cell_length_b 14.530435
_cell_length_c 11.951659
_cell_angle_alpha 90.000000
_cell_angle_beta 108.204817
_cell_angle_gamma 90.000000
_cell_volume 1544.610674
_symmetry_space_group_name_H-M "P 21/M"
_symmetry_group_IT_number 11
_symmetry_cell_setting 'monoclinic'
loop_
_space_group_symop_operation_xyz
x,y,z
-x,1/2+y,-z
-x,-y,-z
x,1/2-y,z
loop_
_atom_site_type_symbol
_atom_site_label
_atom_site_fract_x
_atom_site_fract_y
_atom_site_fract_z
Si Si1 0.682338 0.148465 0.589710
Si Si2 0.137463 0.149477 0.985273
Si Si3 0.141846 0.391693 0.237709
Si Si4 0.327560 0.979486 0.980790
Si Si5 0.338057 0.144372 0.495230
Si Si6 0.182149 0.586266 0.162428
Si Si7 0.826224 0.020319 0.451519
Si Si8 0.184003 0.644996 0.762914
O O1 0.701647 0.250000 0.542407
O O2 0.511513 0.115626 0.537287
O O3 0.733425 0.153624 0.731693
O O4 0.786900 0.077038 0.552121
O O5 0.176530 0.250000 0.944285
O O6 0.178793 0.152237 0.126585
O O7 0.958887 0.133098 0.932782
O O8 0.230385 0.072892 0.939447
O O9 0.278397 0.369952 0.354615
O O10 0.118848 0.500092 0.216688
O O11 0.992724 0.350245 0.256205
O O12 0.273528 0.897607 0.888203
O O13 0.304982 0.945338 0.101765
O O14 0.500000 0.000000 0.000000
O O15 0.315287 0.250000 0.528356
O O16 0.256953 0.078437 0.565782
O O17 0.778670 0.080096 0.333185
O O18 0.000000 0.000000 0.500000
O O19 0.239734 0.750000 0.755041
#
# Coordination Sequence:
#
# PCOD8077585 Si02
#       8
#     4   4   4   4   4   4   4   4
#     4  11  25  43  65  98 132 174 222 271 331 393
#     4  11  22  41  69  97 128 173 223 269 320 391
#     4  11  20  40  68  98 128 169 223 274 319 385
#     4  11  26  43  66 100 139 169 212 274 341 397
#     4  11  24  42  66  95 130 174 222 270 329 388
#     4  11  21  42  68  96 129 176 219 269 328 385
#     4  12  25  41  64  95 135 171 218 275 330 385
#     4  12  24  42  67  96 130 176 224 269 330 399
#
# _framework density 20.717193999999999
#
# number of rings (size 3 to 8) (size 9 to 14) (size 15 to 20)
#    0.000    0.750    5.000    3.000    1.750    2.500 
#    0.000    0.625    0.000    0.000    0.000    0.000 
#    0.000    0.000    0.000    0.000    0.000    0.000 
#
# Total GULP energy -396868.586951 kJ/mol
# GULP energy per Si atom -12402.143342 kJ/mol
# Density = 2.067004 g / cm^3
# Si number density = 20.717194 Si / 1000 Ang^3
#
#
#
# Elastic Constant Matrix: (Units=GPa)
#
#
# Indices 1 2 3 4 5 6 
#
# 1 133.2796 54.1182 48.4048 0.0000 9.7340 0.0000
# 2 54.1182 150.2900 42.2414 0.0000 -6.9696 0.0000
# 3 48.4048 42.2414 103.3030 0.0000 7.4765 0.0000
# 4 0.0000 0.0000 0.0000 23.9930 0.0000 -0.7167
# 5 9.7340 -6.9696 7.4765 0.0000 31.4585 0.0000
# 6 0.0000 0.0000 0.0000 -0.7167 0.0000 21.8518
#
#
#
# Elastic Compliance Matrix: (Units=1/GPa)
#
#
# Indices 1 2 3 4 5 6 
#
# 1 0.010084 -0.002825 -0.003357 0.000000 -0.002948 0.000000
# 2 -0.002825 0.008497 -0.002392 0.000000 0.003325 0.000000
# 3 -0.003357 -0.002392 0.012408 0.000000 -0.002440 0.000000
# 4 0.000000 0.000000 0.000000 0.041720 0.000000 0.001368
# 5 -0.002948 0.003325 -0.002440 0.000000 0.034017 0.000000
# 6 0.000000 0.000000 0.000000 0.001368 0.000000 0.045808
#
#
# Mechanical properties :
#
#
# Convention : Reuss Voigt Hill
#
# Bulk Modulus (GPa) = 72.23791 75.15571 73.69681
# Shear Modulus (GPa) = 28.68707 31.60121 30.14414
#
# Velocity S-wave (km/s) = 3.72519 3.90982 3.81862
# Velocity P-wave (km/s) = 7.31075 7.53247 7.42243
#
# Compressibility (1/GPa) = 0.01384315
#
# Stress axis : x y z
#
# Youngs Moduli (GPa) = 99.16284 117.68395 80.59428
#
# Poissons Ratio (x) = 0.33240 0.27055
# Poissons Ratio (y) = 0.28009 0.19276
# Poissons Ratio (z) = 0.33288 0.28147
#
# Static dielectric constant tensor:
#      x y z
#    x 3.803310 0.000000 -0.184300 
#    y 0.000000 4.103790 0.000000 
#    z -0.184300 0.000000 4.076240 
# 
# 
# High freq. dielectric constant tensor:
#      x y z
#    x 1.795890 0.000000 0.007470 
#    y 0.000000 1.829440 0.000000 
#    z 0.007470 0.000000 1.812130 
# 
# From -- ./inp_files/31920.got.cif
#   From: 2010.06.25/outbox.cif.g09.slc.cpg/sg11_16_cif.got.tgz:31920.got - 2010.06.27 23:14:04.
