data_PCOD8077237
_publ_section_title
;
Structure prediction by ZEFSAII (Michael W. Deem and Ramdas Pophale) SiO2 
 PCOD8077237
Probable space group: P 21/M
;
_chemical_formula_sum "Si O2"
_cell_formula_units_Z 20
_cell_length_a 5.127292
_cell_length_b 13.480492
_cell_length_c 14.228360
_cell_angle_alpha 90.000000
_cell_angle_beta 72.777134
_cell_angle_gamma 90.000000
_cell_volume 939.344486
_symmetry_space_group_name_H-M "P 21/M"
_symmetry_group_IT_number 11
_symmetry_cell_setting 'monoclinic'
loop_
_space_group_symop_operation_xyz
x,y,z
-x,1/2+y,-z
-x,-y,-z
x,1/2-y,z
loop_
_atom_site_type_symbol
_atom_site_label
_atom_site_fract_x
_atom_site_fract_y
_atom_site_fract_z
Si Si1 0.013277 0.750000 0.980526
Si Si2 0.492905 0.914178 0.248990
Si Si3 0.218813 0.895903 0.809261
Si Si4 0.201571 0.104067 0.308163
Si Si5 0.594189 0.250000 0.889972
Si Si6 0.090196 0.250000 0.480217
Si Si7 0.484047 0.250000 0.610088
O O1 0.102743 0.849873 0.917226
O O2 0.147791 0.750000 0.068695
O O3 0.687673 0.750000 0.022998
O O4 0.381630 0.847821 0.176067
O O5 0.604980 0.847408 0.322293
O O6 0.741107 0.984514 0.184892
O O7 0.245512 0.984835 0.312971
O O8 0.511889 0.846428 0.754472
O O9 0.020444 0.868758 0.745565
O O10 0.106432 0.150305 0.416612
O O11 0.341491 0.250000 0.525158
O O12 0.810201 0.250000 0.566957
#
# Coordination Sequence:
#
# PCOD8077237 Si02
#       7
#     2   4   4   4   2   2   2
#     4  12  24  40  66  95 122 153 216 254 296 352
#     4   9  26  43  64  84 132 165 200 239 328 356
#     4  10  22  41  67  88 123 165 201 248 307 367
#     4  10  22  41  67  88 123 165 201 248 307 367
#     4  11  26  41  62  93 126 161 200 261 298 363
#     4  12  24  40  66  95 122 153 216 254 296 352
#     4  11  26  41  62  93 126 161 200 261 298 363
#
# _framework density 21.291443999999998
#
# number of rings (size 3 to 8) (size 9 to 14) (size 15 to 20)
#    1.200    0.400    0.000    3.600    5.600    4.800 
#    0.000    0.000    0.000    0.000    0.000    0.000 
#    0.000    0.000    0.000    0.000    0.000    0.000 
#
# Total GULP energy -247938.597095 kJ/mol
# GULP energy per Si atom -12396.929855 kJ/mol
# Density = 2.124298 g / cm^3
# Si number density = 21.291444 Si / 1000 Ang^3
#
#
#
# Elastic Constant Matrix: (Units=GPa)
#
#
# Indices 1 2 3 4 5 6 
#
# 1 84.8759 12.2052 7.4012 0.0000 16.0812 0.0000
# 2 12.2052 154.1917 56.9663 0.0000 2.1091 0.0000
# 3 7.4012 56.9663 95.0866 0.0000 21.0846 0.0000
# 4 0.0000 0.0000 0.0000 11.8320 0.0000 2.6854
# 5 16.0812 2.1091 21.0846 0.0000 48.0193 0.0000
# 6 0.0000 0.0000 0.0000 2.6854 0.0000 8.0746
#
#
#
# Elastic Compliance Matrix: (Units=1/GPa)
#
#
# Indices 1 2 3 4 5 6 
#
# 1 0.012754 -0.001224 0.000749 0.000000 -0.004546 0.000000
# 2 -0.001224 0.008627 -0.005628 0.000000 0.002502 0.000000
# 3 0.000749 -0.005628 0.015323 0.000000 -0.006732 0.000000
# 4 0.000000 0.000000 0.000000 0.091417 0.000000 -0.030403
# 5 -0.004546 0.002502 -0.006732 0.000000 0.025193 0.000000
# 6 0.000000 0.000000 0.000000 -0.030403 0.000000 0.133957
#
#
# Mechanical properties :
#
#
# Convention : Reuss Voigt Hill
#
# Bulk Modulus (GPa) = 40.82097 54.14440 47.48268
# Shear Modulus (GPa) = 16.25249 30.75728 23.50489
#
# Velocity S-wave (km/s) = 2.76585 3.80489 3.32619
# Velocity P-wave (km/s) = 5.42347 6.69240 6.09107
#
# Compressibility (1/GPa) = 0.02449721
#
# Stress axis : x y z
#
# Youngs Moduli (GPa) = 78.40699 115.90893 65.26122
#
# Poissons Ratio (x) = 0.14186 -0.04885
# Poissons Ratio (y) = 0.09597 0.36731
# Poissons Ratio (z) = -0.05869 0.65237
#
# Static dielectric constant tensor:
#      x y z
#    x 3.708340 0.000000 -0.002890 
#    y 0.000000 3.755310 0.000000 
#    z -0.002890 0.000000 3.644810 
# 
# 
# High freq. dielectric constant tensor:
#      x y z
#    x 1.837980 0.000000 0.007570 
#    y 0.000000 1.845880 0.000000 
#    z 0.007570 0.000000 1.824940 
# 
# From -- ./inp_files/29561.got.cif
#   From: 2010.06.25/outbox.cif.g09.slc.cpg/sg11_15_cif.got.tgz:29561.got - 2010.06.27 23:14:04.
