data_PCOD8077057
_publ_section_title
;
Structure prediction by ZEFSAII (Michael W. Deem and Ramdas Pophale) SiO2 
 PCOD8077057
Probable space group: P 21/M
;
_chemical_formula_sum "Si O2"
_cell_formula_units_Z 28
_cell_length_a 7.120616
_cell_length_b 17.240374
_cell_length_c 14.783860
_cell_angle_alpha 90.000000
_cell_angle_beta 132.355245
_cell_angle_gamma 90.000000
_cell_volume 1341.176233
_symmetry_space_group_name_H-M "P 21/M"
_symmetry_group_IT_number 11
_symmetry_cell_setting 'monoclinic'
loop_
_space_group_symop_operation_xyz
x,y,z
-x,1/2+y,-z
-x,-y,-z
x,1/2-y,z
loop_
_atom_site_type_symbol
_atom_site_label
_atom_site_fract_x
_atom_site_fract_y
_atom_site_fract_z
Si Si1 0.522352 0.087150 0.902245
Si Si2 0.089300 0.338388 0.649108
Si Si3 0.936828 0.890178 0.720199
Si Si4 0.506899 0.588858 0.898491
Si Si5 0.936015 0.838720 0.915499
Si Si6 0.345944 0.337398 0.549937
Si Si7 0.282192 0.547099 0.379950
O O1 0.347198 0.143129 0.786283
O O2 0.502221 0.999122 0.861017
O O3 0.423406 0.093114 0.973067
O O4 0.814302 0.110921 0.985249
O O5 0.008122 0.250000 0.645155
O O6 0.132826 0.348836 0.556416
O O7 0.866986 0.398228 0.598922
O O8 0.230717 0.872623 0.793894
O O9 0.846386 0.849048 0.782710
O O10 0.769209 0.856593 0.585176
O O11 0.905205 0.983777 0.725211
O O12 0.711215 0.637112 0.909129
O O13 0.003663 0.750000 0.956319
O O14 0.451297 0.250000 0.585045
O O15 0.582480 0.395375 0.648214
O O16 0.500000 0.500000 0.500000
#
# Coordination Sequence:
#
# PCOD8077057 Si02
#       7
#     4   4   4   4   4   4   4
#     4  10  22  42  64  92 126 160 209 257 304 373
#     4  11  23  40  65  93 127 166 206 255 312 368
#     4  10  22  40  63  91 123 161 209 257 300 371
#     4  10  22  41  67  91 121 166 208 254 312 363
#     4  11  24  39  63  95 125 162 205 257 313 365
#     4  10  23  40  61  91 128 164 202 254 313 367
#     4  10  22  39  61  88 120 164 211 253 302 361
#
# _framework density 20.877198
#
# number of rings (size 3 to 8) (size 9 to 14) (size 15 to 20)
#    0.000    1.714    1.429    1.714    2.000    9.143 
#    0.000    2.857    0.000    0.000    0.000    0.000 
#    0.000    0.000    0.000    0.000    0.000    0.000 
#
# Total GULP energy -347226.613872 kJ/mol
# GULP energy per Si atom -12400.950495 kJ/mol
# Density = 2.082968 g / cm^3
# Si number density = 20.877198 Si / 1000 Ang^3
#
#
#
# Elastic Constant Matrix: (Units=GPa)
#
#
# Indices 1 2 3 4 5 6 
#
# 1 113.2314 44.3636 18.0809 0.0000 6.3530 0.0000
# 2 44.3636 107.3559 4.5910 0.0000 -0.5810 0.0000
# 3 18.0809 4.5910 57.6638 0.0000 1.8299 0.0000
# 4 0.0000 0.0000 0.0000 18.7376 0.0000 2.9943
# 5 6.3530 -0.5810 1.8299 0.0000 22.4758 0.0000
# 6 0.0000 0.0000 0.0000 2.9943 0.0000 40.9349
#
#
#
# Elastic Compliance Matrix: (Units=1/GPa)
#
#
# Indices 1 2 3 4 5 6 
#
# 1 0.011274 -0.004544 -0.003076 0.000000 -0.003054 0.000000
# 2 -0.004544 0.011180 0.000486 0.000000 0.001534 0.000000
# 3 -0.003076 0.000486 0.018287 0.000000 -0.000607 0.000000
# 4 0.000000 0.000000 0.000000 0.054000 0.000000 -0.003950
# 5 -0.003054 0.001534 -0.000607 0.000000 0.045444 0.000000
# 6 0.000000 0.000000 0.000000 -0.003950 0.000000 0.024718
#
#
# Mechanical properties :
#
#
# Convention : Reuss Voigt Hill
#
# Bulk Modulus (GPa) = 37.77479 45.81354 41.79416
# Shear Modulus (GPa) = 26.59618 30.51072 28.55345
#
# Velocity S-wave (km/s) = 3.57309 3.82702 3.70224
# Velocity P-wave (km/s) = 5.92923 6.44361 6.19176
#
# Compressibility (1/GPa) = 0.02647268
#
# Stress axis : x y z
#
# Youngs Moduli (GPa) = 88.69680 89.44489 54.68330
#
# Poissons Ratio (x) = 0.40643 0.16823
# Poissons Ratio (y) = 0.40303 -0.02658
# Poissons Ratio (z) = 0.27287 -0.04347
#
# Static dielectric constant tensor:
#      x y z
#    x 3.837600 0.000000 0.041140 
#    y 0.000000 4.162170 0.000000 
#    z 0.041140 0.000000 3.614500 
# 
# 
# High freq. dielectric constant tensor:
#      x y z
#    x 1.824150 0.000000 0.005970 
#    y 0.000000 1.833310 0.000000 
#    z 0.005970 0.000000 1.803660 
# 
# From -- ./inp_files/45982.got.cif
#   From: 2010.06.25/outbox.cif.g09.slc.cpg/sg11_23_cif.got.tgz:45982.got - 2010.06.27 23:14:04.
