data_PCOD8077107
_publ_section_title
;
Structure prediction by ZEFSAII (Michael W. Deem and Ramdas Pophale) SiO2 
 PCOD8077107
Probable space group: P 21/M
;
_chemical_formula_sum "Si O2"
_cell_formula_units_Z 32
_cell_length_a 23.153093
_cell_length_b 8.874385
_cell_length_c 15.820117
_cell_angle_alpha 90.000000
_cell_angle_beta 150.062909
_cell_angle_gamma 90.000000
_cell_volume 1622.183630
_symmetry_space_group_name_H-M "P 21/M"
_symmetry_group_IT_number 11
_symmetry_cell_setting 'monoclinic'
loop_
_space_group_symop_operation_xyz
x,y,z
-x,1/2+y,-z
-x,-y,-z
x,1/2-y,z
loop_
_atom_site_type_symbol
_atom_site_label
_atom_site_fract_x
_atom_site_fract_y
_atom_site_fract_z
Si Si1 0.062423 0.570254 0.315507
Si Si2 0.328229 0.919376 0.843631
Si Si3 0.546689 0.925929 0.848880
Si Si4 0.075739 0.429181 0.021994
Si Si5 0.540146 0.075160 0.671718
Si Si6 0.944499 0.417277 0.507449
Si Si7 0.321904 0.925377 0.318100
Si Si8 0.682194 0.072148 0.354990
O O1 0.065596 0.750000 0.321947
O O2 0.024685 0.510345 0.361016
O O3 0.191980 0.507717 0.458737
O O4 0.975271 0.513183 0.132622
O O5 0.377831 0.750000 0.921054
O O6 0.191346 0.916139 0.678335
O O7 0.359463 0.985387 0.790309
O O8 0.377486 0.034891 0.973992
O O9 0.559802 0.750000 0.845631
O O10 0.412862 0.972205 0.696081
O O11 0.591659 0.022525 0.826572
O O12 0.070071 0.250000 0.022387
O O13 0.207406 0.482730 0.195494
O O14 0.000000 0.500000 0.000000
O O15 0.506429 0.250000 0.628967
O O16 0.639878 0.042069 0.729699
O O17 0.425219 0.978235 0.509655
O O18 0.995859 0.250000 0.571158
O O19 0.000000 0.500000 0.500000
O O20 0.298117 0.750000 0.304648
O O21 0.693492 0.250000 0.359444
#
# Coordination Sequence:
#
# PCOD8077107 Si02
#       8
#     4   4   4   4   4   4   4   4
#     4   8  17  35  55  77 108 148 189 228 282 344
#     4   9  18  34  52  73 108 147 184 226 276 332
#     4  11  21  31  53  85 112 143 186 231 279 338
#     4  11  23  38  61  90 120 155 197 244 294 350
#     4  10  22  40  61  85 113 149 191 237 293 350
#     4   9  18  34  56  79 105 144 187 229 281 335
#     4  10  22  42  63  82 113 151 189 239 294 349
#     4   8  16  32  53  76 106 146 187 227 276 333
#
# _framework density 19.726496000000001
#
# number of rings (size 3 to 8) (size 9 to 14) (size 15 to 20)
#    0.000    2.500    0.000    3.375    1.750    3.000 
#    0.000    4.375    0.000    3.000    0.000    0.000 
#    0.000    0.000    0.000    0.000    0.000    0.000 
#
# Total GULP energy -396709.649026 kJ/mol
# GULP energy per Si atom -12397.176532 kJ/mol
# Density = 1.968160 g / cm^3
# Si number density = 19.726496 Si / 1000 Ang^3
#
#
#
# Elastic Constant Matrix: (Units=GPa)
#
#
# Indices 1 2 3 4 5 6 
#
# 1 106.9657 41.7156 31.3199 0.0000 -4.9722 0.0000
# 2 41.7156 61.6089 23.2809 0.0000 0.3655 0.0000
# 3 31.3199 23.2809 68.2184 0.0000 -4.1188 0.0000
# 4 0.0000 0.0000 0.0000 27.8752 0.0000 -0.5957
# 5 -4.9722 0.3655 -4.1188 0.0000 22.5895 0.0000
# 6 0.0000 0.0000 0.0000 -0.5957 0.0000 30.3454
#
#
#
# Elastic Compliance Matrix: (Units=1/GPa)
#
#
# Indices 1 2 3 4 5 6 
#
# 1 0.013533 -0.007907 -0.003364 0.000000 0.002493 0.000000
# 2 -0.007907 0.023303 -0.004500 0.000000 -0.002938 0.000000
# 3 -0.003364 -0.004500 0.017896 0.000000 0.002595 0.000000
# 4 0.000000 0.000000 0.000000 0.035889 0.000000 0.000705
# 5 0.002493 -0.002938 0.002595 0.000000 0.045338 0.000000
# 6 0.000000 0.000000 0.000000 0.000705 0.000000 0.032968
#
#
# Mechanical properties :
#
#
# Convention : Reuss Voigt Hill
#
# Bulk Modulus (GPa) = 43.12230 47.71399 45.41815
# Shear Modulus (GPa) = 24.01540 25.52712 24.77126
#
# Velocity S-wave (km/s) = 3.49294 3.60120 3.54748
# Velocity P-wave (km/s) = 6.17859 6.44451 6.31295
#
# Compressibility (1/GPa) = 0.02318986
#
# Stress axis : x y z
#
# Youngs Moduli (GPa) = 73.89102 42.91275 55.87906
#
# Poissons Ratio (x) = 0.33931 0.18800
# Poissons Ratio (y) = 0.58426 0.25145
# Poissons Ratio (z) = 0.24860 0.19310
#
# Static dielectric constant tensor:
#      x y z
#    x 3.945320 0.000000 -0.027910 
#    y 0.000000 3.673650 0.000000 
#    z -0.027910 0.000000 3.668140 
# 
# 
# High freq. dielectric constant tensor:
#      x y z
#    x 1.778520 0.000000 -0.007420 
#    y 0.000000 1.745690 0.000000 
#    z -0.007420 0.000000 1.766520 
# 
# From -- ./inp_files/55743.got.cif
#   From: 2010.06.25/outbox.cif.g09.slc.cpg/sg11_28_cif.got.tgz:55743.got - 2010.06.27 23:14:04.
