data_PCOD8077161
_publ_section_title
;
Structure prediction by ZEFSAII (Michael W. Deem and Ramdas Pophale) SiO2 
 PCOD8077161
Probable space group: P 21/M
;
_chemical_formula_sum "Si O2"
_cell_formula_units_Z 28
_cell_length_a 5.333161
_cell_length_b 17.038102
_cell_length_c 14.055166
_cell_angle_alpha 90.000000
_cell_angle_beta 107.403801
_cell_angle_gamma 90.000000
_cell_volume 1218.682640
_symmetry_space_group_name_H-M "P 21/M"
_symmetry_group_IT_number 11
_symmetry_cell_setting 'monoclinic'
loop_
_space_group_symop_operation_xyz
x,y,z
-x,1/2+y,-z
-x,-y,-z
x,1/2-y,z
loop_
_atom_site_type_symbol
_atom_site_label
_atom_site_fract_x
_atom_site_fract_y
_atom_site_fract_z
Si Si1 0.343582 0.082524 0.989481
Si Si2 0.316565 0.402118 0.208641
Si Si3 0.482085 0.250000 0.030410
Si Si4 0.210319 0.658451 0.399080
Si Si5 0.929041 0.750000 0.844017
Si Si6 0.235740 0.086910 0.516211
Si Si7 0.796662 0.039791 0.344455
Si Si8 0.028352 0.944123 0.219294
O O1 0.476677 0.166462 0.970421
O O2 0.078548 0.076553 0.897379
O O3 0.282472 0.094933 0.091850
O O4 0.500000 0.000000 0.000000
O O5 0.145595 0.328057 0.224272
O O6 0.610421 0.390599 0.284081
O O7 0.230079 0.484850 0.239213
O O8 0.238380 0.250000 0.076576
O O9 0.760073 0.250000 0.113468
O O10 0.191369 0.750000 0.392250
O O11 0.499133 0.635396 0.470702
O O12 0.174580 0.628348 0.286395
O O13 0.978754 0.628596 0.440513
O O14 0.090709 0.073626 0.398003
O O15 0.307211 0.001714 0.569996
O O16 0.792995 0.973858 0.260633
#
# Coordination Sequence:
#
# PCOD8077161 Si02
#       8
#     4   4   2   4   2   4   4   4
#     4  11  22  41  68  97 139 180 229 277 332 404
#     4  11  22  42  65  97 135 178 227 276 333 400
#     4  10  24  44  62  94 130 181 221 278 332 382
#     4  11  24  44  68  99 137 173 223 281 336 401
#     4  10  24  42  64  86 134 173 219 282 328 384
#     4  10  23  43  67  95 133 172 220 277 343 396
#     4  10  22  40  67  97 127 173 223 277 333 405
#     4  11  23  39  69 100 130 181 224 274 334 403
#
# _framework density 22.975626999999999
#
# number of rings (size 3 to 8) (size 9 to 14) (size 15 to 20)
#    0.000    1.429    2.857    1.714    5.000    2.857 
#    2.571    0.000    1.571    0.000    0.000    0.000 
#    0.000    0.000    0.000    0.000    0.000    0.000 
#
# Total GULP energy -346869.171422 kJ/mol
# GULP energy per Si atom -12388.184694 kJ/mol
# Density = 2.292333 g / cm^3
# Si number density = 22.975627 Si / 1000 Ang^3
#
#
#
# Elastic Constant Matrix: (Units=GPa)
#
#
# Indices 1 2 3 4 5 6 
#
# 1 64.2030 24.6533 19.6045 0.0000 19.8746 0.0000
# 2 24.6533 161.4119 33.4517 0.0000 18.5247 0.0000
# 3 19.6045 33.4517 133.3747 0.0000 29.3870 0.0000
# 4 0.0000 0.0000 0.0000 30.6673 0.0000 5.5834
# 5 19.8746 18.5247 29.3870 0.0000 33.6509 0.0000
# 6 0.0000 0.0000 0.0000 5.5834 0.0000 24.9139
#
#
#
# Elastic Compliance Matrix: (Units=1/GPa)
#
#
# Indices 1 2 3 4 5 6 
#
# 1 0.019525 -0.001756 -0.000126 0.000000 -0.010455 0.000000
# 2 -0.001756 0.006895 -0.001069 0.000000 -0.001825 0.000000
# 3 -0.000126 -0.001069 0.009458 0.000000 -0.007597 0.000000
# 4 0.000000 0.000000 0.000000 0.033995 0.000000 -0.007619
# 5 -0.010455 -0.001825 -0.007597 0.000000 0.043530 0.000000
# 6 0.000000 0.000000 0.000000 -0.007619 0.000000 0.041846
#
#
# Mechanical properties :
#
#
# Convention : Reuss Voigt Hill
#
# Bulk Modulus (GPa) = 33.36092 57.15652 45.25872
# Shear Modulus (GPa) = 29.21546 36.59843 32.90694
#
# Velocity S-wave (km/s) = 3.56980 3.99548 3.78862
# Velocity P-wave (km/s) = 5.61631 6.79824 6.23534
#
# Compressibility (1/GPa) = 0.02997519
#
# Stress axis : x y z
#
# Youngs Moduli (GPa) = 51.21699 145.04278 105.72898
#
# Poissons Ratio (x) = 0.25472 0.01331
# Poissons Ratio (y) = 0.08995 0.11303
# Poissons Ratio (z) = 0.00645 0.15506
#
# Static dielectric constant tensor:
#      x y z
#    x 3.953960 0.000000 0.054610 
#    y 0.000000 4.916720 0.000000 
#    z 0.054610 0.000000 4.298280 
# 
# 
# High freq. dielectric constant tensor:
#      x y z
#    x 1.895030 0.000000 0.014800 
#    y 0.000000 1.912840 0.000000 
#    z 0.014800 0.000000 1.910160 
# 
# From -- ./inp_files/45902.got.cif
#   From: 2010.06.25/outbox.cif.g09.slc.cpg/sg11_23_cif.got.tgz:45902.got - 2010.06.27 23:14:04.
