data_PCOD8077140
_publ_section_title
;
Structure prediction by ZEFSAII (Michael W. Deem and Ramdas Pophale) SiO2 
 PCOD8077140
Probable space group: P 21/M
;
_chemical_formula_sum "Si O2"
_cell_formula_units_Z 32
_cell_length_a 25.997246
_cell_length_b 8.828982
_cell_length_c 15.472680
_cell_angle_alpha 90.000000
_cell_angle_beta 153.088884
_cell_angle_gamma 90.000000
_cell_volume 1607.405594
_symmetry_space_group_name_H-M "P 21/M"
_symmetry_group_IT_number 11
_symmetry_cell_setting 'monoclinic'
loop_
_space_group_symop_operation_xyz
x,y,z
-x,1/2+y,-z
-x,-y,-z
x,1/2-y,z
loop_
_atom_site_type_symbol
_atom_site_label
_atom_site_fract_x
_atom_site_fract_y
_atom_site_fract_z
Si Si1 0.473724 0.074359 0.089092
Si Si2 0.082017 0.428504 0.369801
Si Si3 0.277571 0.074722 0.272257
Si Si4 0.719544 0.925303 0.921731
Si Si5 0.060018 0.928024 0.008242
Si Si6 0.319715 0.925862 0.724751
Si Si7 0.967034 0.926281 0.360818
Si Si8 0.516231 0.425829 0.713061
O O1 0.441178 0.250000 0.032541
O O2 0.592440 0.038988 0.220329
O O3 0.485167 0.028961 0.204929
O O4 0.372674 0.977991 0.895109
O O5 0.076526 0.250000 0.373699
O O6 0.209010 0.478027 0.536795
O O7 0.001876 0.483728 0.171757
O O8 0.044025 0.504764 0.401342
O O9 0.248698 0.250000 0.243118
O O10 0.262038 0.027667 0.149645
O O11 0.404805 0.035385 0.491121
O O12 0.190942 0.979110 0.200902
O O13 0.682019 0.750000 0.873055
O O14 0.623969 0.033525 0.816665
O O15 0.834763 0.957612 0.145936
O O16 0.053108 0.750000 0.008471
O O17 0.000000 0.000000 0.000000
O O18 0.288170 0.750000 0.683653
O O19 0.994145 0.750000 0.405496
O O20 0.000000 0.000000 0.500000
O O21 0.520905 0.250000 0.746201
#
# Coordination Sequence:
#
# PCOD8077140 Si02
#       8
#     4   4   4   4   4   4   4   4
#     4  10  22  41  62  89 124 161 204 253 304 366
#     4  11  24  42  65  95 128 165 208 259 316 375
#     4  10  22  43  65  90 123 161 206 257 309 366
#     4  10  22  42  65  88 121 163 204 252 312 368
#     4  11  25  42  65  95 128 168 210 258 312 373
#     4  10  22  40  64  90 121 162 205 251 308 366
#     4  11  24  42  66  93 127 168 210 259 313 375
#     4  11  24  38  62  93 123 159 204 255 308 365
#
# _framework density 19.907857
#
# number of rings (size 3 to 8) (size 9 to 14) (size 15 to 20)
#    0.000    1.500    1.250    2.625    3.500    5.500 
#    0.000    0.000    0.000    0.000    0.000    0.000 
#    0.000    0.000    0.000    0.000    0.000    0.000 
#
# Total GULP energy -397031.956321 kJ/mol
# GULP energy per Si atom -12407.248635 kJ/mol
# Density = 1.986255 g / cm^3
# Si number density = 19.907857 Si / 1000 Ang^3
#
#
#
# Elastic Constant Matrix: (Units=GPa)
#
#
# Indices 1 2 3 4 5 6 
#
# 1 114.8292 40.2611 39.4247 0.0000 1.0249 0.0000
# 2 40.2611 57.1184 32.4241 0.0000 7.7079 0.0000
# 3 39.4247 32.4241 89.1466 0.0000 12.0356 0.0000
# 4 0.0000 0.0000 0.0000 33.6895 0.0000 3.8967
# 5 1.0249 7.7079 12.0356 0.0000 30.4790 0.0000
# 6 0.0000 0.0000 0.0000 3.8967 0.0000 39.0439
#
#
#
# Elastic Compliance Matrix: (Units=1/GPa)
#
#
# Indices 1 2 3 4 5 6 
#
# 1 0.012312 -0.007237 -0.003173 0.000000 0.002669 0.000000
# 2 -0.007237 0.026506 -0.005881 0.000000 -0.004137 0.000000
# 3 -0.003173 -0.005881 0.015364 0.000000 -0.004473 0.000000
# 4 0.000000 0.000000 0.000000 0.030030 0.000000 -0.002997
# 5 0.002669 -0.004137 -0.004473 0.000000 0.035532 0.000000
# 6 0.000000 0.000000 0.000000 -0.002997 0.000000 0.025911
#
#
# Mechanical properties :
#
#
# Convention : Reuss Voigt Hill
#
# Bulk Modulus (GPa) = 46.30010 53.92378 50.11194
# Shear Modulus (GPa) = 26.96345 30.57477 28.76911
#
# Velocity S-wave (km/s) = 3.68423 3.92320 3.80559
# Velocity P-wave (km/s) = 6.43473 6.90416 6.67357
#
# Compressibility (1/GPa) = 0.02159822
#
# Stress axis : x y z
#
# Youngs Moduli (GPa) = 81.22435 37.72768 65.08864
#
# Poissons Ratio (x) = 0.27304 0.20652
# Poissons Ratio (y) = 0.58783 0.38281
# Poissons Ratio (z) = 0.25771 0.22189
#
# Static dielectric constant tensor:
#      x y z
#    x 3.621860 0.000000 -0.041930 
#    y 0.000000 3.667830 0.000000 
#    z -0.041930 0.000000 3.758260 
# 
# 
# High freq. dielectric constant tensor:
#      x y z
#    x 1.784910 0.000000 0.000740 
#    y 0.000000 1.784300 0.000000 
#    z 0.000740 0.000000 1.787760 
# 
# From -- ./inp_files/55748.got.cif
#   From: 2010.06.25/outbox.cif.g09.slc.cpg/sg11_28_cif.got.tgz:55748.got - 2010.06.27 23:14:04.
