data_PCOD8077590
_publ_section_title
;
Structure prediction by ZEFSAII (Michael W. Deem and Ramdas Pophale) SiO2 
 PCOD8077590
Probable space group: P 21/M
;
_chemical_formula_sum "Si O2"
_cell_formula_units_Z 32
_cell_length_a 11.371430
_cell_length_b 17.976729
_cell_length_c 13.908937
_cell_angle_alpha 90.000000
_cell_angle_beta 147.418057
_cell_angle_gamma 90.000000
_cell_volume 1531.121448
_symmetry_space_group_name_H-M "P 21/M"
_symmetry_group_IT_number 11
_symmetry_cell_setting 'monoclinic'
loop_
_space_group_symop_operation_xyz
x,y,z
-x,1/2+y,-z
-x,-y,-z
x,1/2-y,z
loop_
_atom_site_type_symbol
_atom_site_label
_atom_site_fract_x
_atom_site_fract_y
_atom_site_fract_z
Si Si1 0.023226 0.060043 0.683355
Si Si2 0.138131 0.164845 0.594891
Si Si3 0.420171 0.081356 0.087700
Si Si4 0.662841 0.837312 0.773329
Si Si5 0.596533 0.088951 0.891791
Si Si6 0.639636 0.431363 0.557201
Si Si7 0.100100 0.582471 0.076804
Si Si8 0.179667 0.600613 0.762925
O O1 0.007878 0.119320 0.586825
O O2 0.785453 0.045351 0.565538
O O3 0.109695 0.984262 0.696862
O O4 0.184064 0.090974 0.876479
O O5 0.133499 0.250000 0.623069
O O6 0.387238 0.141007 0.753306
O O7 0.012097 0.154085 0.406910
O O8 0.423388 0.122528 0.190920
O O9 0.598358 0.118286 0.141407
O O10 0.479006 0.994935 0.140523
O O11 0.632234 0.750000 0.763177
O O12 0.523082 0.865648 0.586111
O O13 0.914872 0.856968 0.928527
O O14 0.704923 0.094617 0.862906
O O15 0.775735 0.115192 0.093802
O O16 0.500000 0.500000 0.500000
O O17 0.801121 0.402356 0.750616
O O18 0.000000 0.500000 0.000000
#
# Coordination Sequence:
#
# PCOD8077590 Si02
#       8
#     4   4   4   4   4   4   4   4
#     4  11  22  43  72 102 131 174 233 286 332 408
#     4  12  27  42  65 103 140 178 222 281 356 414
#     4  11  20  44  72 102 129 176 227 280 341 406
#     4  12  28  45  68 107 143 177 227 294 354 406
#     4  11  23  43  70  98 132 173 235 279 328 409
#     4  12  25  42  74 107 133 183 236 284 339 413
#     4  12  23  45  74  99 134 184 239 283 338 414
#     4  11  23  40  70 100 129 172 224 279 337 403
#
# _framework density 20.899713999999999
#
# number of rings (size 3 to 8) (size 9 to 14) (size 15 to 20)
#    0.000    0.500    6.250    2.625    3.500    4.000 
#    0.000    1.250    0.000    0.000    0.000    0.000 
#    0.000    0.000    0.000    0.000    0.000    0.000 
#
# Total GULP energy -396980.227119 kJ/mol
# GULP energy per Si atom -12405.632097 kJ/mol
# Density = 2.085215 g / cm^3
# Si number density = 20.899714 Si / 1000 Ang^3
#
#
#
# Elastic Constant Matrix: (Units=GPa)
#
#
# Indices 1 2 3 4 5 6 
#
# 1 111.9512 23.0437 22.6436 0.0000 11.5714 0.0000
# 2 23.0437 83.2928 44.0006 0.0000 1.2960 0.0000
# 3 22.6436 44.0006 118.3749 0.0000 -1.7967 0.0000
# 4 0.0000 0.0000 0.0000 24.9190 0.0000 3.6015
# 5 11.5714 1.2960 -1.7967 0.0000 33.0892 0.0000
# 6 0.0000 0.0000 0.0000 3.6015 0.0000 17.7083
#
#
#
# Elastic Compliance Matrix: (Units=1/GPa)
#
#
# Indices 1 2 3 4 5 6 
#
# 1 0.009958 -0.002074 -0.001186 0.000000 -0.003465 0.000000
# 2 -0.002074 0.015397 -0.005329 0.000000 -0.000167 0.000000
# 3 -0.001186 -0.005329 0.010674 0.000000 0.001203 0.000000
# 4 0.000000 0.000000 0.000000 0.041345 0.000000 -0.008409
# 5 -0.003465 -0.000167 0.001203 0.000000 0.031505 0.000000
# 6 0.000000 0.000000 0.000000 -0.008409 0.000000 0.058181
#
#
# Mechanical properties :
#
#
# Convention : Reuss Voigt Hill
#
# Bulk Modulus (GPa) = 53.05186 54.77719 53.91453
# Shear Modulus (GPa) = 26.24361 30.07203 28.15782
#
# Velocity S-wave (km/s) = 3.54742 3.79736 3.67452
# Velocity P-wave (km/s) = 6.49754 6.74485 6.62235
#
# Compressibility (1/GPa) = 0.01884948
#
# Stress axis : x y z
#
# Youngs Moduli (GPa) = 100.42623 64.94575 93.68746
#
# Poissons Ratio (x) = 0.13471 0.11115
# Poissons Ratio (y) = 0.20831 0.49927
# Poissons Ratio (z) = 0.11914 0.34610
#
# Static dielectric constant tensor:
#      x y z
#    x 3.901580 0.000000 -0.058170 
#    y 0.000000 3.492210 0.000000 
#    z -0.058170 0.000000 4.137720 
# 
# 
# High freq. dielectric constant tensor:
#      x y z
#    x 1.827860 0.000000 -0.000030 
#    y 0.000000 1.786080 0.000000 
#    z -0.000030 0.000000 1.840330 
# 
# From -- ./inp_files/50722.got.cif
#   From: 2010.06.25/outbox.cif.g09.slc.cpg/sg11_26_cif.got.tgz:50722.got - 2010.06.27 23:14:04.
