data_PCOD8077954
_publ_section_title
;
Structure prediction by ZEFSAII (Michael W. Deem and Ramdas Pophale) SiO2 
 PCOD8077954
Probable space group: P 21/M
;
_chemical_formula_sum "Si O2"
_cell_formula_units_Z 32
_cell_length_a 20.909818
_cell_length_b 9.175396
_cell_length_c 9.653340
_cell_angle_alpha 90.000000
_cell_angle_beta 89.503104
_cell_angle_gamma 90.000000
_cell_volume 1851.980204
_symmetry_space_group_name_H-M "P 21/M"
_symmetry_group_IT_number 11
_symmetry_cell_setting 'monoclinic'
loop_
_space_group_symop_operation_xyz
x,y,z
-x,1/2+y,-z
-x,-y,-z
x,1/2-y,z
loop_
_atom_site_type_symbol
_atom_site_label
_atom_site_fract_x
_atom_site_fract_y
_atom_site_fract_z
Si Si1 0.362765 0.419444 0.364207
Si Si2 0.251373 0.078332 0.176315
Si Si3 0.129425 0.588360 0.170677
Si Si4 0.991078 0.921635 0.145077
Si Si5 0.502946 0.420433 0.354508
Si Si6 0.376088 0.421778 0.676341
Si Si7 0.254612 0.079145 0.859279
Si Si8 0.869676 0.415590 0.159514
O O1 0.347668 0.250000 0.375054
O O2 0.307573 0.491361 0.270158
O O3 0.432211 0.444369 0.289652
O O4 0.360836 0.480594 0.521448
O O5 0.249731 0.250000 0.189974
O O6 0.182517 0.020596 0.230371
O O7 0.264520 0.030757 0.018123
O O8 0.150189 0.750000 0.215254
O O9 0.057631 0.554157 0.229213
O O10 0.126484 0.576671 0.005457
O O11 0.978019 0.750000 0.122433
O O12 0.930476 0.996582 0.222805
O O13 0.000000 0.000000 0.000000
O O14 0.500000 0.500000 0.500000
O O15 0.517491 0.250000 0.373527
O O16 0.560219 0.496184 0.266731
O O17 0.389921 0.250000 0.676905
O O18 0.318202 0.465082 0.776634
O O19 0.239841 0.250000 0.847629
O O20 0.195704 0.993089 0.790678
O O21 0.870965 0.250000 0.214364
#
# Coordination Sequence:
#
# PCOD8077954 Si02
#       8
#     4   4   4   4   4   4   4   4
#     4   8  15  28  45  63  83 108 138 172 209 248
#     4   9  16  27  43  61  82 111 143 171 203 248
#     4   8  15  25  36  55  83 111 136 169 211 248
#     4   9  15  23  36  55  81 111 143 176 211 250
#     4   9  16  28  46  65  85 109 139 175 212 248
#     4   9  17  30  46  64  86 111 140 173 209 250
#     4   9  17  28  43  62  85 113 142 172 207 250
#     4   9  16  25  38  57  83 112 141 174 212 252
#
# _framework density 17.278803
#
# number of rings (size 3 to 8) (size 9 to 14) (size 15 to 20)
#    0.000    3.250    0.000    2.625    0.000    4.000 
#    0.000    3.750    0.000    0.000    0.000    0.875 
#    0.000    0.000    0.000    0.000    0.000    0.000 
#
# Total GULP energy -396465.095812 kJ/mol
# GULP energy per Si atom -12389.534244 kJ/mol
# Density = 1.723948 g / cm^3
# Si number density = 17.278803 Si / 1000 Ang^3
#
#
#
# Elastic Constant Matrix: (Units=GPa)
#
#
# Indices 1 2 3 4 5 6 
#
# 1 146.1443 54.2849 32.2972 0.0000 18.7000 0.0000
# 2 54.2849 66.5276 14.5187 0.0000 3.6271 0.0000
# 3 32.2972 14.5187 29.0551 0.0000 7.2498 0.0000
# 4 0.0000 0.0000 0.0000 9.4616 0.0000 -2.2948
# 5 18.7000 3.6271 7.2498 0.0000 9.9018 0.0000
# 6 0.0000 0.0000 0.0000 -2.2948 0.0000 36.0561
#
#
#
# Elastic Compliance Matrix: (Units=1/GPa)
#
#
# Indices 1 2 3 4 5 6 
#
# 1 0.013945 -0.008973 -0.006443 0.000000 -0.018332 0.000000
# 2 -0.008973 0.022645 -0.004282 0.000000 0.011787 0.000000
# 3 -0.006443 -0.004282 0.049298 0.000000 -0.022357 0.000000
# 4 0.000000 0.000000 0.000000 0.107347 0.000000 0.006832
# 5 -0.018332 0.011787 -0.022357 0.000000 0.147664 0.000000
# 6 0.000000 0.000000 0.000000 0.006832 0.000000 0.028169
#
#
# Mechanical properties :
#
#
# Convention : Reuss Voigt Hill
#
# Bulk Modulus (GPa) = 21.50955 49.32541 35.41748
# Shear Modulus (GPa) = 11.79345 20.45898 16.12622
#
# Velocity S-wave (km/s) = 2.61538 3.44474 3.05830
# Velocity P-wave (km/s) = 4.64713 6.66561 5.74570
#
# Compressibility (1/GPa) = 0.04649098
#
# Stress axis : x y z
#
# Youngs Moduli (GPa) = 71.70879 44.15935 20.28485
#
# Poissons Ratio (x) = 0.39626 0.13070
# Poissons Ratio (y) = 0.64347 0.08686
# Poissons Ratio (z) = 0.46204 0.18909
#
# Static dielectric constant tensor:
#      x y z
#    x 4.040340 0.000000 0.035560 
#    y 0.000000 3.222500 0.000000 
#    z 0.035560 0.000000 2.804850 
# 
# 
# High freq. dielectric constant tensor:
#      x y z
#    x 1.692590 0.000000 -0.000270 
#    y 0.000000 1.660170 0.000000 
#    z -0.000270 0.000000 1.595120 
# 
# From -- ./inp_files/40668.got.cif
#   From: 2010.06.25/outbox.cif.g09.slc.cpg/sg11_21_cif.got.tgz:40668.got - 2010.06.27 23:14:04.
