data_PCOD8077676
_publ_section_title
;
Structure prediction by ZEFSAII (Michael W. Deem and Ramdas Pophale) SiO2 
 PCOD8077676
Probable space group: P 21/M
;
_chemical_formula_sum "Si O2"
_cell_formula_units_Z 32
_cell_length_a 11.385163
_cell_length_b 17.785842
_cell_length_c 14.039392
_cell_angle_alpha 90.000000
_cell_angle_beta 147.292515
_cell_angle_gamma 90.000000
_cell_volume 1536.163136
_symmetry_space_group_name_H-M "P 21/M"
_symmetry_group_IT_number 11
_symmetry_cell_setting 'monoclinic'
loop_
_space_group_symop_operation_xyz
x,y,z
-x,1/2+y,-z
-x,-y,-z
x,1/2-y,z
loop_
_atom_site_type_symbol
_atom_site_label
_atom_site_fract_x
_atom_site_fract_y
_atom_site_fract_z
Si Si1 0.100131 0.419640 0.548133
Si Si2 0.185973 0.838408 0.789158
Si Si3 0.320636 0.087679 0.248958
Si Si4 0.313647 0.335837 0.865327
Si Si5 0.485678 0.571035 0.301493
Si Si6 0.104978 0.104674 0.906419
Si Si7 0.090583 0.933246 0.900828
Si Si8 0.624003 0.337643 0.596640
O O1 0.180344 0.387053 0.702452
O O2 0.293863 0.426067 0.606074
O O3 0.000000 0.500000 0.500000
O O4 0.915637 0.364972 0.379942
O O5 0.152726 0.750000 0.778552
O O6 0.062681 0.879894 0.791103
O O7 0.437340 0.862420 0.961570
O O8 0.481088 0.148593 0.404660
O O9 0.128384 0.065722 0.188622
O O10 0.455916 0.012603 0.320872
O O11 0.222901 0.123241 0.086458
O O12 0.298160 0.250000 0.820577
O O13 0.211517 0.342642 0.900046
O O14 0.505394 0.629473 0.401464
O O15 0.286526 0.597324 0.099391
O O16 0.851448 0.120387 0.742419
O O17 0.141735 0.017979 0.902284
O O18 0.663183 0.250000 0.637796
#
# Coordination Sequence:
#
# PCOD8077676 Si02
#       8
#     4   4   4   4   4   4   4   4
#     4  12  27  43  72 101 130 176 229 279 328 397
#     4  11  26  45  68 100 135 177 224 278 338 399
#     4  11  24  43  69  98 132 172 216 271 332 392
#     4  11  26  46  66  95 140 180 218 278 338 394
#     4  11  23  45  68  99 134 170 220 280 328 392
#     4  11  24  44  68  97 135 173 225 272 324 400
#     4  11  21  44  74  98 129 174 221 274 333 392
#     4  12  26  41  68 103 135 178 218 268 341 400
#
# _framework density 20.831119999999999
#
# number of rings (size 3 to 8) (size 9 to 14) (size 15 to 20)
#    0.000    0.750    3.750    3.375    7.000    5.000 
#    0.000    1.250    0.000    0.000    0.000    0.000 
#    0.000    0.000    0.000    0.000    0.000    0.000 
#
# Total GULP energy -397056.277574 kJ/mol
# GULP energy per Si atom -12408.008674 kJ/mol
# Density = 2.078371 g / cm^3
# Si number density = 20.831120 Si / 1000 Ang^3
#
#
#
# Elastic Constant Matrix: (Units=GPa)
#
#
# Indices 1 2 3 4 5 6 
#
# 1 97.9564 25.6372 31.2157 0.0000 -13.3424 0.0000
# 2 25.6372 80.3780 45.0700 0.0000 -5.4361 0.0000
# 3 31.2157 45.0700 132.5481 0.0000 -20.4684 0.0000
# 4 0.0000 0.0000 0.0000 31.9965 0.0000 -3.9060
# 5 -13.3424 -5.4361 -20.4684 0.0000 17.4617 0.0000
# 6 0.0000 0.0000 0.0000 -3.9060 0.0000 25.8652
#
#
#
# Elastic Compliance Matrix: (Units=1/GPa)
#
#
# Indices 1 2 3 4 5 6 
#
# 1 0.012253 -0.003008 -0.000686 0.000000 0.007622 0.000000
# 2 -0.003008 0.016149 -0.005325 0.000000 -0.003513 0.000000
# 3 -0.000686 -0.005325 0.011209 0.000000 0.010957 0.000000
# 4 0.000000 0.000000 0.000000 0.031840 0.000000 0.004808
# 5 0.007622 -0.003513 0.010957 0.000000 0.074842 0.000000
# 6 0.000000 0.000000 0.000000 0.004808 0.000000 0.039388
#
#
# Mechanical properties :
#
#
# Convention : Reuss Voigt Hill
#
# Bulk Modulus (GPa) = 46.35589 57.19204 51.77396
# Shear Modulus (GPa) = 23.70686 28.99533 26.35110
#
# Velocity S-wave (km/s) = 3.37716 3.73490 3.56052
# Velocity P-wave (km/s) = 6.12441 6.79073 6.46616
#
# Compressibility (1/GPa) = 0.02157223
#
# Stress axis : x y z
#
# Youngs Moduli (GPa) = 81.61554 61.92317 89.21704
#
# Poissons Ratio (x) = 0.18627 0.06118
# Poissons Ratio (y) = 0.24550 0.47510
# Poissons Ratio (z) = 0.05597 0.32975
#
# Static dielectric constant tensor:
#      x y z
#    x 3.872710 0.000000 -0.134820 
#    y 0.000000 3.655470 0.000000 
#    z -0.134820 0.000000 4.205210 
# 
# 
# High freq. dielectric constant tensor:
#      x y z
#    x 1.823060 0.000000 -0.000890 
#    y 0.000000 1.811560 0.000000 
#    z -0.000890 0.000000 1.835270 
# 
# From -- ./inp_files/50718.got.cif
#   From: 2010.06.25/outbox.cif.g09.slc.cpg/sg11_26_cif.got.tgz:50718.got - 2010.06.27 23:14:04.
