data_PCOD8077501
_publ_section_title
;
Structure prediction by ZEFSAII (Michael W. Deem and Ramdas Pophale) SiO2 
 PCOD8077501
Probable space group: P 21/M
;
_chemical_formula_sum "Si O2"
_cell_formula_units_Z 32
_cell_length_a 9.610045
_cell_length_b 14.547309
_cell_length_c 9.955400
_cell_angle_alpha 90.000000
_cell_angle_beta 91.636624
_cell_angle_gamma 90.000000
_cell_volume 1391.200095
_symmetry_space_group_name_H-M "P 21/M"
_symmetry_group_IT_number 11
_symmetry_cell_setting 'monoclinic'
loop_
_space_group_symop_operation_xyz
x,y,z
-x,1/2+y,-z
-x,-y,-z
x,1/2-y,z
loop_
_atom_site_type_symbol
_atom_site_label
_atom_site_fract_x
_atom_site_fract_y
_atom_site_fract_z
Si Si1 0.496314 0.352289 0.937944
Si Si2 0.595647 0.639935 0.551713
Si Si3 0.239510 0.391127 0.084507
Si Si4 0.131920 0.973359 0.721152
Si Si5 0.797985 0.091206 0.985748
Si Si6 0.048858 0.347701 0.833932
Si Si7 0.557309 0.985220 0.309766
Si Si8 0.892713 0.650082 0.642034
O O1 0.475382 0.250000 0.873458
O O2 0.651955 0.358196 0.999809
O O3 0.462487 0.436013 0.834452
O O4 0.401109 0.364605 0.067512
O O5 0.559112 0.750000 0.566865
O O6 0.542577 0.574841 0.674395
O O7 0.525602 0.595450 0.417382
O O8 0.762355 0.625033 0.542706
O O9 0.221724 0.499632 0.102024
O O10 0.172602 0.343233 0.210542
O O11 0.169290 0.357149 0.946168
O O12 0.024117 0.916873 0.625963
O O13 0.066992 0.075174 0.721932
O O14 0.286958 0.974995 0.667286
O O15 0.130166 0.929239 0.869642
O O16 0.900085 0.153728 0.902399
O O17 0.065768 0.250000 0.760062
O O18 0.951753 0.750000 0.607362
#
# Coordination Sequence:
#
# PCOD8077501 Si02
#       8
#     4   4   4   4   4   4   4   4
#     4  12  24  36  60  96 130 167 210 254 304 370
#     4  10  25  47  69  91 117 161 215 262 315 370
#     4  11  20  36  57  86 127 166 205 246 306 370
#     4  11  23  38  62  91 127 162 204 256 308 368
#     4  11  21  36  54  87 132 167 198 251 305 368
#     4  11  20  35  56  86 126 170 205 241 301 370
#     4  11  24  44  69  90 123 164 206 267 314 359
#     4  11  22  39  64  91 125 167 207 249 303 369
#
# _framework density 23.001722000000001
#
# number of rings (size 3 to 8) (size 9 to 14) (size 15 to 20)
#    0.000    1.000    5.000    3.750    1.750    2.000 
#    0.000    0.000    0.000    0.000    0.000    0.000 
#    0.000    0.000    0.000    0.000    0.000    0.000 
#
# Total GULP energy -396700.524494 kJ/mol
# GULP energy per Si atom -12396.891390 kJ/mol
# Density = 2.294937 g / cm^3
# Si number density = 23.001722 Si / 1000 Ang^3
#
#
#
# Elastic Constant Matrix: (Units=GPa)
#
#
# Indices 1 2 3 4 5 6 
#
# 1 114.5856 38.5642 -13.6233 0.0000 -3.2342 0.0000
# 2 38.5642 155.1595 8.5754 0.0000 8.0661 0.0000
# 3 -13.6233 8.5754 22.0746 0.0000 1.4973 0.0000
# 4 0.0000 0.0000 0.0000 8.3927 0.0000 9.6787
# 5 -3.2342 8.0661 1.4973 0.0000 22.3862 0.0000
# 6 0.0000 0.0000 0.0000 9.6787 0.0000 6.0740
#
#
#
# Elastic Compliance Matrix: (Units=1/GPa)
#
#
# Indices 1 2 3 4 5 6 
#
# 1 0.010799 -0.003228 0.007769 0.000000 0.002204 0.000000
# 2 -0.003228 0.007662 -0.004772 0.000000 -0.002908 0.000000
# 3 0.007769 -0.004772 0.051993 0.000000 -0.000636 0.000000
# 4 0.000000 0.000000 0.000000 -0.142247 0.000000 0.226667
# 5 0.002204 -0.002908 -0.000636 0.000000 0.046079 0.000000
# 6 0.000000 0.000000 0.000000 0.226667 0.000000 -0.196551
#
#
# Mechanical properties :
#
#
# Convention : Reuss Voigt Hill
#
# Bulk Modulus (GPa) = 14.28696 39.87247 27.07972
# Shear Modulus (GPa) = -25.19230 24.59081 -0.30074
#
# Velocity S-wave (km/s) = -3.31302 3.27323 -0.36198
# Velocity P-wave (km/s) = 2.90002 5.62651 3.40936
#
# Compressibility (1/GPa) = 0.06999388
#
# Stress axis : x y z
#
# Youngs Moduli (GPa) = 92.59720 130.51064 19.23349
#
# Poissons Ratio (x) = 0.42130 -0.14943
# Poissons Ratio (y) = 0.29892 0.09177
# Poissons Ratio (z) = -0.71943 0.62274
#
# Static dielectric constant tensor:
#      x y z
#    x 4.257680 0.000000 0.017790 
#    y 0.000000 4.432220 0.000000 
#    z 0.017790 0.000000 3.649120 
# 
# 
# High freq. dielectric constant tensor:
#      x y z
#    x 1.916160 0.000000 -0.001280 
#    y 0.000000 1.920670 0.000000 
#    z -0.001280 0.000000 1.872530 
# 
# From -- ./inp_files/31891.got.cif
#   From: 2010.06.25/outbox.cif.g09.slc.cpg/sg11_16_cif.got.tgz:31891.got - 2010.06.27 23:14:04.
