data_PCOD8077617
_publ_section_title
;
Structure prediction by ZEFSAII (Michael W. Deem and Ramdas Pophale) SiO2 
 PCOD8077617
Probable space group: P 21/M
;
_chemical_formula_sum "Si O2"
_cell_formula_units_Z 24
_cell_length_a 15.386590
_cell_length_b 17.475673
_cell_length_c 9.012350
_cell_angle_alpha 90.000000
_cell_angle_beta 33.399613
_cell_angle_gamma 90.000000
_cell_volume 1333.988300
_symmetry_space_group_name_H-M "P 21/M"
_symmetry_group_IT_number 11
_symmetry_cell_setting 'monoclinic'
loop_
_space_group_symop_operation_xyz
x,y,z
-x,1/2+y,-z
-x,-y,-z
x,1/2-y,z
loop_
_atom_site_type_symbol
_atom_site_label
_atom_site_fract_x
_atom_site_fract_y
_atom_site_fract_z
Si Si1 0.948096 0.164223 0.391674
Si Si2 0.105952 0.440753 0.935230
Si Si3 0.130484 0.090807 0.387945
Si Si4 0.353047 0.663188 0.992041
Si Si5 0.289311 0.161334 0.439691
Si Si6 0.200729 0.969712 0.061168
O O1 0.968347 0.250000 0.304773
O O2 0.984314 0.108688 0.205006
O O3 0.067903 0.151638 0.357245
O O4 0.769909 0.148238 0.699661
O O5 0.231339 0.485253 0.863399
O O6 0.202898 0.386456 0.689155
O O7 0.000000 0.500000 0.000000
O O8 0.243239 0.133489 0.341938
O O9 0.983485 0.053785 0.684225
O O10 0.228964 0.024349 0.163605
O O11 0.336043 0.750000 0.954572
O O12 0.524857 0.647999 0.811352
O O13 0.314290 0.604280 0.912889
O O14 0.243378 0.250000 0.524847
#
# Coordination Sequence:
#
# PCOD8077617 Si02
#       6
#     4   4   4   4   4   4
#     4   9  18  36  58  75 103 144 179 215 267 323
#     4  11  21  35  53  82 111 137 179 228 266 318
#     4   9  17  32  57  81 103 134 183 222 256 315
#     4   9  20  36  56  80 109 142 182 222 265 320
#     4  11  22  35  55  84 111 137 177 229 272 311
#     4   9  18  35  54  78 107 142 178 215 266 320
#
# _framework density 17.991161999999999
#
# number of rings (size 3 to 8) (size 9 to 14) (size 15 to 20)
#    0.000    2.333    1.667    2.000    0.000    2.000 
#    0.000    0.000    0.000    0.000    0.000    0.000 
#    0.000    0.000    0.000    0.000    0.000    0.000 
#
# Total GULP energy -297575.299251 kJ/mol
# GULP energy per Si atom -12398.970802 kJ/mol
# Density = 1.795021 g / cm^3
# Si number density = 17.991162 Si / 1000 Ang^3
#
#
#
# Elastic Constant Matrix: (Units=GPa)
#
#
# Indices 1 2 3 4 5 6 
#
# 1 124.0888 84.1873 58.9720 0.0000 1.0979 0.0000
# 2 84.1873 145.0338 60.9564 0.0000 -0.6411 0.0000
# 3 58.9720 60.9564 71.9798 0.0000 -4.2277 0.0000
# 4 0.0000 0.0000 0.0000 24.4733 0.0000 -0.6092
# 5 1.0979 -0.6411 -4.2277 0.0000 20.9353 0.0000
# 6 0.0000 0.0000 0.0000 -0.6092 0.0000 36.7529
#
#
#
# Elastic Compliance Matrix: (Units=1/GPa)
#
#
# Indices 1 2 3 4 5 6 
#
# 1 0.015967 -0.005769 -0.008355 0.000000 -0.002701 0.000000
# 2 -0.005769 0.012837 -0.006178 0.000000 -0.000552 0.000000
# 3 -0.008355 -0.006178 0.026296 0.000000 0.005559 0.000000
# 4 0.000000 0.000000 0.000000 0.040878 0.000000 0.000678
# 5 -0.002701 -0.000552 0.005559 0.000000 0.049014 0.000000
# 6 0.000000 0.000000 0.000000 0.000678 0.000000 0.027220
#
#
# Mechanical properties :
#
#
# Convention : Reuss Voigt Hill
#
# Bulk Modulus (GPa) = 68.97587 83.25929 76.11758
# Shear Modulus (GPa) = 22.97302 25.56477 24.26889
#
# Velocity S-wave (km/s) = 3.57726 3.77366 3.67677
# Velocity P-wave (km/s) = 7.44878 8.08490 7.77335
#
# Compressibility (1/GPa) = 0.01449782
#
# Stress axis : x y z
#
# Youngs Moduli (GPa) = 62.62916 77.89687 38.02880
#
# Poissons Ratio (x) = 0.44937 0.31773
# Poissons Ratio (y) = 0.36129 0.23493
# Poissons Ratio (z) = 0.52326 0.48122
#
# Static dielectric constant tensor:
#      x y z
#    x 3.229080 0.000000 0.060330 
#    y 0.000000 3.646950 0.000000 
#    z 0.060330 0.000000 3.209360 
# 
# 
# High freq. dielectric constant tensor:
#      x y z
#    x 1.687560 0.000000 0.003580 
#    y 0.000000 1.719390 0.000000 
#    z 0.003580 0.000000 1.671810 
# 
# From -- ./inp_files/13115.got.cif
#   From: 2010.06.25/outbox.cif.g09.slc.cpg/sg11_7_cif.got.tgz:13115.got - 2010.06.27 23:14:04.
