data_PCOD8077553
_publ_section_title
;
Structure prediction by ZEFSAII (Michael W. Deem and Ramdas Pophale) SiO2 
 PCOD8077553
Probable space group: P 21/M
;
_chemical_formula_sum "Si O2"
_cell_formula_units_Z 24
_cell_length_a 9.830882
_cell_length_b 9.924705
_cell_length_c 19.220329
_cell_angle_alpha 90.000000
_cell_angle_beta 136.112619
_cell_angle_gamma 90.000000
_cell_volume 1300.039274
_symmetry_space_group_name_H-M "P 21/M"
_symmetry_group_IT_number 11
_symmetry_cell_setting 'monoclinic'
loop_
_space_group_symop_operation_xyz
x,y,z
-x,1/2+y,-z
-x,-y,-z
x,1/2-y,z
loop_
_atom_site_type_symbol
_atom_site_label
_atom_site_fract_x
_atom_site_fract_y
_atom_site_fract_z
Si Si1 0.766115 0.904081 0.616934
Si Si2 0.660944 0.250000 0.015281
Si Si3 0.735217 0.750000 0.903069
Si Si4 0.813316 0.250000 0.922690
Si Si5 0.948111 0.470199 0.171715
Si Si6 0.695579 0.509320 0.796044
Si Si7 0.758176 0.750000 0.074184
Si Si8 0.480962 0.094046 0.595966
O O1 0.706512 0.750000 0.615466
O O2 0.733366 0.920215 0.520658
O O3 0.988472 0.934498 0.724952
O O4 0.634877 0.016775 0.604799
O O5 0.760074 0.383261 0.082397
O O6 0.669043 0.250000 0.934997
O O7 0.434098 0.250000 0.950155
O O8 0.635868 0.619124 0.831587
O O9 0.695370 0.750000 0.970368
O O10 0.964353 0.750000 0.968900
O O11 0.781840 0.380302 0.865291
O O12 0.893738 0.624864 0.143394
O O13 0.133872 0.432909 0.191448
O O14 0.498301 0.471151 0.679467
O O15 0.543993 0.250000 0.624359
#
# Coordination Sequence:
#
# PCOD8077553 Si02
#       8
#     4   2   2   2   4   4   2   4
#     4   9  18  31  51  77 111 143 174 216 278 329
#     4  12  24  38  55  79 109 147 188 224 264 325
#     4  12  22  36  53  77 107 147 184 220 270 322
#     4  12  20  36  55  79 105 147 184 218 268 324
#     4  11  20  36  55  80 108 147 183 219 273 322
#     4  11  20  33  56  82 107 143 180 222 273 320
#     4  12  26  38  53  79 113 147 184 230 266 315
#     4   9  18  31  48  81 113 137 171 225 275 324
#
# _framework density 18.460982000000001
#
# number of rings (size 3 to 8) (size 9 to 14) (size 15 to 20)
#    0.000    1.333    5.000    2.000    7.000    0.000 
#    0.000    0.000    0.000    0.000    0.000    7.000 
#    0.000    0.000    0.000    0.000    0.000    0.000 
#
# Total GULP energy -297419.039070 kJ/mol
# GULP energy per Si atom -12392.459961 kJ/mol
# Density = 1.841896 g / cm^3
# Si number density = 18.460982 Si / 1000 Ang^3
#
#
#
# Elastic Constant Matrix: (Units=GPa)
#
#
# Indices 1 2 3 4 5 6 
#
# 1 51.9175 -2.9167 17.3442 0.0000 -6.6822 0.0000
# 2 -2.9167 108.3620 39.3954 0.0000 -15.6345 0.0000
# 3 17.3442 39.3954 137.0655 0.0000 -28.1446 0.0000
# 4 0.0000 0.0000 0.0000 34.3103 0.0000 -7.4738
# 5 -6.6822 -15.6345 -28.1446 0.0000 16.3650 0.0000
# 6 0.0000 0.0000 0.0000 -7.4738 0.0000 13.7513
#
#
#
# Elastic Compliance Matrix: (Units=1/GPa)
#
#
# Indices 1 2 3 4 5 6 
#
# 1 0.020971 0.002317 -0.001711 0.000000 0.007834 0.000000
# 2 0.002317 0.011166 -0.001728 0.000000 0.008641 0.000000
# 3 -0.001711 -0.001728 0.011635 0.000000 0.017661 0.000000
# 4 0.000000 0.000000 0.000000 0.033060 0.000000 0.017968
# 5 0.007834 0.008641 0.017661 0.000000 0.102934 0.000000
# 6 0.000000 0.000000 0.000000 0.017968 0.000000 0.082486
#
#
# Mechanical properties :
#
#
# Convention : Reuss Voigt Hill
#
# Bulk Modulus (GPa) = 24.08012 44.99896 34.53954
# Shear Modulus (GPa) = 17.96365 29.12013 23.54189
#
# Velocity S-wave (km/s) = 3.12278 3.97594 3.57490
# Velocity P-wave (km/s) = 5.10631 6.74578 5.98247
#
# Compressibility (1/GPa) = 0.04152803
#
# Stress axis : x y z
#
# Youngs Moduli (GPa) = 47.68413 89.55994 85.94413
#
# Poissons Ratio (x) = -0.20749 0.14705
# Poissons Ratio (y) = -0.11047 0.14851
# Poissons Ratio (z) = 0.08159 0.15476
#
# Static dielectric constant tensor:
#      x y z
#    x 2.827310 0.000000 -0.287500 
#    y 0.000000 3.555810 0.000000 
#    z -0.287500 0.000000 4.240020 
# 
# 
# High freq. dielectric constant tensor:
#      x y z
#    x 1.636550 0.000000 -0.024710 
#    y 0.000000 1.741450 0.000000 
#    z -0.024710 0.000000 1.741630 
# 
# From -- ./inp_files/42682.got.cif
#   From: 2010.06.25/outbox.cif.g09.slc.cpg/sg11_22_cif.got.tgz:42682.got - 2010.06.27 23:14:04.
