data_PCOD8077215
_publ_section_title
;
Structure prediction by ZEFSAII (Michael W. Deem and Ramdas Pophale) SiO2 
 PCOD8077215
Probable space group: P 21/M
;
_chemical_formula_sum "Si O2"
_cell_formula_units_Z 32
_cell_length_a 14.819224
_cell_length_b 18.276911
_cell_length_c 11.947158
_cell_angle_alpha 90.000000
_cell_angle_beta 28.833976
_cell_angle_gamma 90.000000
_cell_volume 1560.579960
_symmetry_space_group_name_H-M "P 21/M"
_symmetry_group_IT_number 11
_symmetry_cell_setting 'monoclinic'
loop_
_space_group_symop_operation_xyz
x,y,z
-x,1/2+y,-z
-x,-y,-z
x,1/2-y,z
loop_
_atom_site_type_symbol
_atom_site_label
_atom_site_fract_x
_atom_site_fract_y
_atom_site_fract_z
Si Si1 0.101753 0.329814 0.628634
Si Si2 0.137564 0.666185 0.330572
Si Si3 0.283362 0.022145 0.447419
Si Si4 0.272585 0.433473 0.833331
Si Si5 0.985948 0.667227 0.023944
Si Si6 0.699109 0.061273 0.356007
Si Si7 0.634831 0.031566 0.946859
Si Si8 0.956530 0.560742 0.689972
O O1 0.199382 0.250000 0.510612
O O2 0.256214 0.392086 0.454880
O O3 0.950767 0.340533 0.695957
O O4 0.997903 0.335702 0.859899
O O5 0.188478 0.750000 0.304856
O O6 0.996350 0.636027 0.580238
O O7 0.325838 0.617157 0.121128
O O8 0.508954 0.014959 0.193568
O O9 0.224977 0.995399 0.633127
O O10 0.158405 0.976943 0.493461
O O11 0.269246 0.518290 0.795390
O O12 0.489640 0.411767 0.608762
O O13 0.157284 0.423611 0.072882
O O14 0.188980 0.379094 0.831173
O O15 0.967051 0.750000 0.000270
O O16 0.178802 0.634027 0.768589
O O17 0.500000 0.000000 0.000000
O O18 0.834561 0.991943 0.742397
#
# Coordination Sequence:
#
# PCOD8077215 Si02
#       8
#     4   4   4   4   4   4   4   4
#     4  10  22  41  64  95 130 170 214 265 326 379
#     4  11  25  44  65  92 132 173 211 265 325 381
#     4  12  21  39  71  94 128 166 213 268 317 381
#     4  11  23  39  68  96 129 164 215 265 314 381
#     4  11  23  40  64  92 132 174 209 262 325 384
#     4  11  23  40  64 101 128 166 216 263 320 379
#     4  12  24  40  67  99 123 166 220 266 322 381
#     4  12  23  42  67  96 125 167 217 264 318 383
#
# _framework density 20.505198
#
# number of rings (size 3 to 8) (size 9 to 14) (size 15 to 20)
#    0.000    0.750    6.250    2.250    0.000    1.500 
#    0.000    0.625    0.000    0.000    0.000    0.000 
#    0.000    0.000    0.000    0.000    0.000    0.000 
#
# Total GULP energy -396724.218469 kJ/mol
# GULP energy per Si atom -12397.631827 kJ/mol
# Density = 2.045853 g / cm^3
# Si number density = 20.505198 Si / 1000 Ang^3
#
#
#
# Elastic Constant Matrix: (Units=GPa)
#
#
# Indices 1 2 3 4 5 6 
#
# 1 98.4080 48.4159 40.1063 0.0000 -2.5592 0.0000
# 2 48.4159 138.6395 55.4783 0.0000 -4.5165 0.0000
# 3 40.1063 55.4783 100.2784 0.0000 -8.8254 0.0000
# 4 0.0000 0.0000 0.0000 29.9138 0.0000 2.6731
# 5 -2.5592 -4.5165 -8.8254 0.0000 39.6701 0.0000
# 6 0.0000 0.0000 0.0000 2.6731 0.0000 24.2999
#
#
#
# Elastic Compliance Matrix: (Units=1/GPa)
#
#
# Indices 1 2 3 4 5 6 
#
# 1 0.013162 -0.003197 -0.003522 0.000000 -0.000298 0.000000
# 2 -0.003197 0.010041 -0.004278 0.000000 -0.000015 0.000000
# 3 -0.003522 -0.004278 0.013958 0.000000 0.002391 0.000000
# 4 0.000000 0.000000 0.000000 0.033761 0.000000 -0.003714
# 5 -0.000298 -0.000015 0.002391 0.000000 0.025719 0.000000
# 6 0.000000 0.000000 0.000000 -0.003714 0.000000 0.041561
#
#
# Mechanical properties :
#
#
# Convention : Reuss Voigt Hill
#
# Bulk Modulus (GPa) = 65.92854 69.48076 67.70465
# Shear Modulus (GPa) = 30.25713 31.66513 30.96113
#
# Velocity S-wave (km/s) = 3.84550 3.93396 3.88998
# Velocity P-wave (km/s) = 7.20688 7.38869 7.29835
#
# Compressibility (1/GPa) = 0.01516794
#
# Stress axis : x y z
#
# Youngs Moduli (GPa) = 75.97520 99.59515 71.64481
#
# Poissons Ratio (x) = 0.31840 0.25232
# Poissons Ratio (y) = 0.24289 0.30647
# Poissons Ratio (z) = 0.26757 0.42603
#
# Static dielectric constant tensor:
#      x y z
#    x 3.826500 0.000000 0.068780 
#    y 0.000000 3.771420 0.000000 
#    z 0.068780 0.000000 4.043410 
# 
# 
# High freq. dielectric constant tensor:
#      x y z
#    x 1.812870 0.000000 0.008160 
#    y 0.000000 1.791670 0.000000 
#    z 0.008160 0.000000 1.804760 
# 
# From -- ./inp_files/39953.got.cif
#   From: 2010.06.25/outbox.cif.g09.slc.cpg/sg11_20_cif.got.tgz:39953.got - 2010.06.27 23:14:04.
