data_PCOD8077358
_publ_section_title
;
Structure prediction by ZEFSAII (Michael W. Deem and Ramdas Pophale) SiO2 
 PCOD8077358
Probable space group: P 21/M
;
_chemical_formula_sum "Si O2"
_cell_formula_units_Z 28
_cell_length_a 14.455480
_cell_length_b 8.860906
_cell_length_c 20.993788
_cell_angle_alpha 90.000000
_cell_angle_beta 150.959858
_cell_angle_gamma 90.000000
_cell_volume 1305.332495
_symmetry_space_group_name_H-M "P 21/M"
_symmetry_group_IT_number 11
_symmetry_cell_setting 'monoclinic'
loop_
_space_group_symop_operation_xyz
x,y,z
-x,1/2+y,-z
-x,-y,-z
x,1/2-y,z
loop_
_atom_site_type_symbol
_atom_site_label
_atom_site_fract_x
_atom_site_fract_y
_atom_site_fract_z
Si Si1 0.669885 0.422206 0.422704
Si Si2 0.703664 0.074397 0.115074
Si Si3 0.069877 0.927095 0.107792
Si Si4 0.758179 0.927542 0.023535
Si Si5 0.419231 0.077065 0.752995
Si Si6 0.532195 0.070871 0.588941
Si Si7 0.104589 0.419181 0.659375
O O1 0.612390 0.250000 0.401466
O O2 0.539964 0.489282 0.288188
O O3 0.641217 0.515922 0.470469
O O4 0.879692 0.439311 0.520404
O O5 0.681919 0.250000 0.087328
O O6 0.821014 0.049074 0.249688
O O7 0.500000 0.000000 0.000000
O O8 0.822531 0.992363 0.130461
O O9 0.079605 0.750000 0.101999
O O10 0.273242 0.984219 0.258399
O O11 0.916153 0.973022 0.067814
O O12 0.000000 0.000000 0.000000
O O13 0.726149 0.750000 0.008025
O O14 0.558454 0.008014 0.889229
O O15 0.471201 0.250000 0.771283
O O16 0.203242 0.059239 0.649625
O O17 0.530044 0.250000 0.579687
O O18 0.500000 0.000000 0.500000
O O19 0.154847 0.250000 0.714985
#
# Coordination Sequence:
#
# PCOD8077358 Si02
#       7
#     4   4   4   4   4   4   4
#     4  11  24  42  65  92 126 169 211 262 319 377
#     4  12  24  39  61  91 126 166 210 259 313 375
#     4  10  24  44  68  96 129 167 215 271 328 386
#     4  11  23  40  64  93 126 166 209 261 319 378
#     4  11  22  39  63  94 129 167 209 258 310 378
#     4  11  25  46  68  96 130 171 219 275 333 395
#     4  10  23  41  62  89 127 169 211 257 311 373
#
# _framework density 21.450472999999999
#
# number of rings (size 3 to 8) (size 9 to 14) (size 15 to 20)
#    0.000    1.143    1.429    4.286    2.000    6.286 
#    0.000    0.000    0.000    0.000    0.000    0.000 
#    0.000    0.000    0.000    0.000    0.000    0.000 
#
# Total GULP energy -347230.860814 kJ/mol
# GULP energy per Si atom -12401.102172 kJ/mol
# Density = 2.140165 g / cm^3
# Si number density = 21.450473 Si / 1000 Ang^3
#
#
#
# Elastic Constant Matrix: (Units=GPa)
#
#
# Indices 1 2 3 4 5 6 
#
# 1 130.6211 57.7829 31.4860 0.0000 -15.3982 0.0000
# 2 57.7829 105.0578 42.9368 0.0000 -2.4928 0.0000
# 3 31.4860 42.9368 73.4605 0.0000 -14.2677 0.0000
# 4 0.0000 0.0000 0.0000 34.5633 0.0000 -7.5894
# 5 -15.3982 -2.4928 -14.2677 0.0000 37.8076 0.0000
# 6 0.0000 0.0000 0.0000 -7.5894 0.0000 38.6117
#
#
#
# Elastic Compliance Matrix: (Units=1/GPa)
#
#
# Indices 1 2 3 4 5 6 
#
# 1 0.010700 -0.005544 -0.000615 0.000000 0.003760 0.000000
# 2 -0.005544 0.015533 -0.007491 0.000000 -0.004061 0.000000
# 3 -0.000615 -0.007491 0.019543 0.000000 0.006631 0.000000
# 4 0.000000 0.000000 0.000000 0.030237 0.000000 0.005943
# 5 0.003760 -0.004061 0.006631 0.000000 0.030216 0.000000
# 6 0.000000 0.000000 0.000000 0.005943 0.000000 0.027067
#
#
# Mechanical properties :
#
#
# Convention : Reuss Voigt Hill
#
# Bulk Modulus (GPa) = 54.12959 63.72786 58.92873
# Shear Modulus (GPa) = 29.98381 33.99210 31.98795
#
# Velocity S-wave (km/s) = 3.74279 3.98512 3.86586
# Velocity P-wave (km/s) = 6.63080 7.13784 6.88898
#
# Compressibility (1/GPa) = 0.01847418
#
# Stress axis : x y z
#
# Youngs Moduli (GPa) = 93.45807 64.37717 51.16959
#
# Poissons Ratio (x) = 0.35694 0.03148
# Poissons Ratio (y) = 0.51818 0.38333
# Poissons Ratio (z) = 0.05749 0.48228
#
# Static dielectric constant tensor:
#      x y z
#    x 4.043100 0.000000 -0.053190 
#    y 0.000000 3.910090 0.000000 
#    z -0.053190 0.000000 3.932510 
# 
# 
# High freq. dielectric constant tensor:
#      x y z
#    x 1.859030 0.000000 -0.004260 
#    y 0.000000 1.846660 0.000000 
#    z -0.004260 0.000000 1.834670 
# 
# From -- ./inp_files/65432.got.cif
#   From: 2010.06.25/outbox.cif.g09.slc.cpg/sg11_33_cif.got.tgz:65432.got - 2010.06.27 23:14:04.
