data_PCOD8077089
_publ_section_title
;
Structure prediction by ZEFSAII (Michael W. Deem and Ramdas Pophale) SiO2 
 PCOD8077089
Probable space group: P 21/M
;
_chemical_formula_sum "Si O2"
_cell_formula_units_Z 24
_cell_length_a 4.780606
_cell_length_b 21.472062
_cell_length_c 12.161571
_cell_angle_alpha 90.000000
_cell_angle_beta 130.715367
_cell_angle_gamma 90.000000
_cell_volume 946.220461
_symmetry_space_group_name_H-M "P 21/M"
_symmetry_group_IT_number 11
_symmetry_cell_setting 'monoclinic'
loop_
_space_group_symop_operation_xyz
x,y,z
-x,1/2+y,-z
-x,-y,-z
x,1/2-y,z
loop_
_atom_site_type_symbol
_atom_site_label
_atom_site_fract_x
_atom_site_fract_y
_atom_site_fract_z
Si Si1 0.795560 0.180227 0.514385
Si Si2 0.960156 0.624285 0.758924
Si Si3 0.584929 0.905518 0.302133
Si Si4 0.280585 0.176759 0.086084
Si Si5 0.144206 0.511511 0.335519
Si Si6 0.749017 0.819489 0.167890
O O1 0.821685 0.250000 0.471082
O O2 0.402158 0.150945 0.391015
O O3 0.124877 0.136061 0.549923
O O4 0.860535 0.182196 0.664687
O O5 0.996518 0.647462 0.894814
O O6 0.963086 0.549610 0.759941
O O7 0.310763 0.650371 0.782011
O O8 0.468778 0.864808 0.163959
O O9 0.228300 0.929262 0.277165
O O10 0.798196 0.968707 0.320583
O O11 0.282473 0.250000 0.102829
O O12 0.166235 0.156950 0.933166
O O13 0.500000 0.500000 0.500000
O O14 0.568013 0.750000 0.119294
#
# Coordination Sequence:
#
# PCOD8077089 Si02
#       6
#     4   4   4   4   4   4
#     4   9  19  40  67  96 123 159 215 269 310 369
#     4  12  25  40  65  97 128 166 212 259 313 378
#     4  10  22  39  66  91 120 163 218 253 305 370
#     4  11  24  44  65  94 133 167 202 260 331 380
#     4  12  23  41  62  91 131 172 204 259 317 371
#     4   8  19  43  68  93 127 169 209 261 322 377
#
# _framework density 25.364066999999999
#
# number of rings (size 3 to 8) (size 9 to 14) (size 15 to 20)
#    1.000    0.667    1.667    3.000    2.333    1.333 
#    0.000   10.000    0.000    0.000    0.000    0.000 
#    0.000    0.000    0.000    0.000    0.000    0.000 
#
# Total GULP energy -297514.265079 kJ/mol
# GULP energy per Si atom -12396.427712 kJ/mol
# Density = 2.530634 g / cm^3
# Si number density = 25.364067 Si / 1000 Ang^3
#
#
#
# Elastic Constant Matrix: (Units=GPa)
#
#
# Indices 1 2 3 4 5 6 
#
# 1 73.0302 13.2419 -12.9721 0.0000 1.0437 0.0000
# 2 13.2419 140.6816 5.6925 0.0000 -13.4515 0.0000
# 3 -12.9721 5.6925 54.4895 0.0000 -13.2755 0.0000
# 4 0.0000 0.0000 0.0000 28.8952 0.0000 -20.4878
# 5 1.0437 -13.4515 -13.2755 0.0000 23.8231 0.0000
# 6 0.0000 0.0000 0.0000 -20.4878 0.0000 21.3210
#
#
#
# Elastic Compliance Matrix: (Units=1/GPa)
#
#
# Indices 1 2 3 4 5 6 
#
# 1 0.014623 -0.001468 0.003791 0.000000 0.000643 0.000000
# 2 -0.001468 0.007665 -0.000093 0.000000 0.004341 0.000000
# 3 0.003791 -0.000093 0.022229 0.000000 0.012169 0.000000
# 4 0.000000 0.000000 0.000000 0.108601 0.000000 0.104358
# 5 0.000643 0.004341 0.012169 0.000000 0.051180 0.000000
# 6 0.000000 0.000000 0.000000 0.104358 0.000000 0.147182
#
#
# Mechanical properties :
#
#
# Convention : Reuss Voigt Hill
#
# Bulk Modulus (GPa) = 20.41718 31.12508 25.77113
# Shear Modulus (GPa) = 13.76097 32.29047 23.02572
#
# Velocity S-wave (km/s) = 2.33177 3.57189 3.01625
# Velocity P-wave (km/s) = 3.91365 5.41380 4.72366
#
# Compressibility (1/GPa) = 0.04897837
#
# Stress axis : x y z
#
# Youngs Moduli (GPa) = 68.38312 130.45865 44.98592
#
# Poissons Ratio (x) = 0.19156 -0.17056
# Poissons Ratio (y) = 0.10041 0.00417
# Poissons Ratio (z) = -0.25927 0.01211
#
# Static dielectric constant tensor:
#      x y z
#    x 4.388450 0.000000 -0.153790 
#    y 0.000000 4.792110 0.000000 
#    z -0.153790 0.000000 4.450510 
# 
# 
# High freq. dielectric constant tensor:
#      x y z
#    x 2.005530 0.000000 -0.000390 
#    y 0.000000 2.024070 0.000000 
#    z -0.000390 0.000000 2.008480 
# 
# From -- ./inp_files/46165.got.cif
#   From: 2010.06.25/outbox.cif.g09.slc.cpg/sg11_24_cif.got.tgz:46165.got - 2010.06.27 23:14:04.
