data_PCOD8077010
_publ_section_title
;
Structure prediction by ZEFSAII (Michael W. Deem and Ramdas Pophale) SiO2 
 PCOD8077010
Probable space group: P 21/M
;
_chemical_formula_sum "Si O2"
_cell_formula_units_Z 28
_cell_length_a 6.819116
_cell_length_b 13.860348
_cell_length_c 16.294578
_cell_angle_alpha 90.000000
_cell_angle_beta 120.732086
_cell_angle_gamma 90.000000
_cell_volume 1323.807005
_symmetry_space_group_name_H-M "P 21/M"
_symmetry_group_IT_number 11
_symmetry_cell_setting 'monoclinic'
loop_
_space_group_symop_operation_xyz
x,y,z
-x,1/2+y,-z
-x,-y,-z
x,1/2-y,z
loop_
_atom_site_type_symbol
_atom_site_label
_atom_site_fract_x
_atom_site_fract_y
_atom_site_fract_z
Si Si1 0.118471 0.637604 0.586986
Si Si2 0.399335 0.858825 0.807104
Si Si3 0.655204 0.542768 0.115200
Si Si4 0.830359 0.913608 0.982047
Si Si5 0.098849 0.638655 0.265817
Si Si6 0.721263 0.145810 0.866224
Si Si7 0.760770 0.022914 0.546620
O O1 0.049672 0.750000 0.563794
O O2 0.319922 0.624081 0.696861
O O3 0.210125 0.597576 0.521177
O O4 0.894586 0.577486 0.563683
O O5 0.337119 0.750000 0.822356
O O6 0.271947 0.934953 0.839924
O O7 0.675639 0.874353 0.873815
O O8 0.646819 0.554209 0.014121
O O9 0.411928 0.567355 0.107059
O O10 0.837941 0.619427 0.185910
O O11 0.013830 0.834905 0.050938
O O12 0.000000 0.000000 0.000000
O O13 0.126494 0.750000 0.295812
O O14 0.270123 0.611688 0.227130
O O15 0.155162 0.572575 0.353640
O O16 0.598651 0.250000 0.847876
O O17 0.500000 0.000000 0.500000
#
# Coordination Sequence:
#
# PCOD8077010 Si02
#       7
#     4   4   4   4   4   4   4
#     4  10  24  45  66  96 133 173 218 267 330 401
#     4  11  23  42  65  91 129 173 215 260 317 385
#     4  11  22  41  66  91 127 169 211 263 321 381
#     4  11  23  40  63  91 130 170 216 265 311 374
#     4  10  22  40  64  95 125 159 212 265 321 386
#     4  10  22  38  63  93 125 162 207 264 317 371
#     4  11  24  41  71  96 128 169 214 275 330 390
#
# _framework density 21.151119999999999
#
# number of rings (size 3 to 8) (size 9 to 14) (size 15 to 20)
#    0.000    1.429    2.857    1.714    2.000    2.857 
#    0.000    2.143    0.000    0.000    0.000    0.000 
#    0.000    0.000    0.000    0.000    0.000    0.000 
#
# Total GULP energy -347066.380536 kJ/mol
# GULP energy per Si atom -12395.227876 kJ/mol
# Density = 2.110298 g / cm^3
# Si number density = 21.151120 Si / 1000 Ang^3
#
#
#
# Elastic Constant Matrix: (Units=GPa)
#
#
# Indices 1 2 3 4 5 6 
#
# 1 139.2148 60.2871 55.6765 0.0000 -3.8347 0.0000
# 2 60.2871 142.9738 54.1544 0.0000 -13.5406 0.0000
# 3 55.6765 54.1544 126.2088 0.0000 -12.4792 0.0000
# 4 0.0000 0.0000 0.0000 25.7078 0.0000 1.9343
# 5 -3.8347 -13.5406 -12.4792 0.0000 29.1464 0.0000
# 6 0.0000 0.0000 0.0000 1.9343 0.0000 29.4257
#
#
#
# Elastic Compliance Matrix: (Units=1/GPa)
#
#
# Indices 1 2 3 4 5 6 
#
# 1 0.009713 -0.003053 -0.003121 0.000000 -0.001477 0.000000
# 2 -0.003053 0.009482 -0.002429 0.000000 0.002964 0.000000
# 3 -0.003121 -0.002429 0.010640 0.000000 0.003017 0.000000
# 4 0.000000 0.000000 0.000000 0.039092 0.000000 -0.002570
# 5 -0.001477 0.002964 0.003017 0.000000 0.036784 0.000000
# 6 0.000000 0.000000 0.000000 -0.002570 0.000000 0.034153
#
#
# Mechanical properties :
#
#
# Convention : Reuss Voigt Hill
#
# Bulk Modulus (GPa) = 79.17544 83.18149 81.17846
# Shear Modulus (GPa) = 31.00200 32.74126 31.87163
#
# Velocity S-wave (km/s) = 3.83265 3.93869 3.88603
# Velocity P-wave (km/s) = 7.55646 7.75222 7.65497
#
# Compressibility (1/GPa) = 0.01263018
#
# Stress axis : x y z
#
# Youngs Moduli (GPa) = 102.95723 105.45826 93.98099
#
# Poissons Ratio (x) = 0.32201 0.29328
# Poissons Ratio (y) = 0.31437 0.22825
# Poissons Ratio (z) = 0.32129 0.25613
#
# Static dielectric constant tensor:
#      x y z
#    x 3.759790 0.000000 0.065410 
#    y 0.000000 4.124120 0.000000 
#    z 0.065410 0.000000 3.991270 
# 
# 
# High freq. dielectric constant tensor:
#      x y z
#    x 1.816980 0.000000 0.001920 
#    y 0.000000 1.849380 0.000000 
#    z 0.001920 0.000000 1.839780 
# 
# From -- ./inp_files/57120.got.cif
#   From: 2010.06.25/outbox.cif.g09.slc.cpg/sg11_29_cif.got.tgz:57120.got - 2010.06.27 23:14:04.
