data_PCOD8077779
_publ_section_title
;
Structure prediction by ZEFSAII (Michael W. Deem and Ramdas Pophale) SiO2 
 PCOD8077779
Probable space group: P 21/M
;
_chemical_formula_sum "Si O2"
_cell_formula_units_Z 22
_cell_length_a 8.283212
_cell_length_b 19.260398
_cell_length_c 9.057521
_cell_angle_alpha 90.000000
_cell_angle_beta 134.021490
_cell_angle_gamma 90.000000
_cell_volume 1039.082695
_symmetry_space_group_name_H-M "P 21/M"
_symmetry_group_IT_number 11
_symmetry_cell_setting 'monoclinic'
loop_
_space_group_symop_operation_xyz
x,y,z
-x,1/2+y,-z
-x,-y,-z
x,1/2-y,z
loop_
_atom_site_type_symbol
_atom_site_label
_atom_site_fract_x
_atom_site_fract_y
_atom_site_fract_z
Si Si1 0.050667 0.393064 0.160422
Si Si2 0.430483 0.620411 0.252669
Si Si3 0.808103 0.511145 0.496881
Si Si4 0.985483 0.750000 0.689110
Si Si5 0.521567 0.377573 0.378652
Si Si6 0.563672 0.250000 0.192694
Si Si7 0.389644 0.250000 0.787186
O O1 0.064725 0.455660 0.284542
O O2 0.263349 0.400029 0.184380
O O3 0.067957 0.317939 0.249372
O O4 0.824750 0.405377 0.925323
O O5 0.605100 0.560614 0.315225
O O6 0.467998 0.645988 0.443842
O O7 0.464208 0.683321 0.162913
O O8 0.699229 0.438180 0.469064
O O9 0.000000 0.500000 0.500000
O O10 0.240388 0.750000 0.802409
O O11 0.845470 0.750000 0.447539
O O12 0.581866 0.316489 0.306699
O O13 0.350860 0.250000 0.942596
#
# Coordination Sequence:
#
# PCOD8077779 Si02
#       7
#     4   4   4   2   4   2   2
#     4  11  22  43  69  96 133 180 220 271 328 405
#     4  11  23  44  73  97 131 182 225 266 335 400
#     4  11  25  43  66 101 139 175 219 279 339 387
#     4  12  21  41  69  95 138 170 217 278 331 385
#     4  11  25  43  67  99 137 171 223 276 329 401
#     4  12  26  42  66 102 134 169 224 277 337 394
#     4  12  23  41  71  97 126 177 221 269 336 387
#
# _framework density 21.172521
#
# number of rings (size 3 to 8) (size 9 to 14) (size 15 to 20)
#    0.000    0.727    5.455    4.364    0.000    5.091 
#    0.000    0.000    0.000    0.000    0.000    0.000 
#    0.000    0.000    0.000    0.000    0.000    0.000 
#
# Total GULP energy -272779.529073 kJ/mol
# GULP energy per Si atom -12399.069503 kJ/mol
# Density = 2.112433 g / cm^3
# Si number density = 21.172521 Si / 1000 Ang^3
#
#
#
# Elastic Constant Matrix: (Units=GPa)
#
#
# Indices 1 2 3 4 5 6 
#
# 1 112.1383 34.4357 33.9680 0.0000 0.8792 0.0000
# 2 34.4357 106.5855 34.8691 0.0000 -19.8250 0.0000
# 3 33.9680 34.8691 112.3619 0.0000 17.2807 0.0000
# 4 0.0000 0.0000 0.0000 27.4815 0.0000 6.2010
# 5 0.8792 -19.8250 17.2807 0.0000 38.4094 0.0000
# 6 0.0000 0.0000 0.0000 6.2010 0.0000 35.1851
#
#
#
# Elastic Compliance Matrix: (Units=1/GPa)
#
#
# Indices 1 2 3 4 5 6 
#
# 1 0.010441 -0.002788 -0.002184 0.000000 -0.000695 0.000000
# 2 -0.002788 0.013562 -0.004783 0.000000 0.009216 0.000000
# 3 -0.002184 -0.004783 0.012265 0.000000 -0.007937 0.000000
# 4 0.000000 0.000000 0.000000 0.037895 0.000000 -0.006679
# 5 -0.000695 0.009216 -0.007937 0.000000 0.034379 0.000000
# 6 0.000000 0.000000 0.000000 -0.006679 0.000000 0.029598
#
#
# Mechanical properties :
#
#
# Convention : Reuss Voigt Hill
#
# Bulk Modulus (GPa) = 59.67625 59.73681 59.70653
# Shear Modulus (GPa) = 30.63046 35.40272 33.01659
#
# Velocity S-wave (km/s) = 3.80769 4.09358 3.95322
# Velocity P-wave (km/s) = 6.89770 7.11468 7.00703
#
# Compressibility (1/GPa) = 0.01675709
#
# Stress axis : x y z
#
# Youngs Moduli (GPa) = 95.77833 73.73648 81.53194
#
# Poissons Ratio (x) = 0.20558 0.17808
# Poissons Ratio (y) = 0.26703 0.38998
# Poissons Ratio (z) = 0.20920 0.35269
#
# Static dielectric constant tensor:
#      x y z
#    x 3.891590 0.000000 0.192100 
#    y 0.000000 3.921000 0.000000 
#    z 0.192100 0.000000 3.936890 
# 
# 
# High freq. dielectric constant tensor:
#      x y z
#    x 1.831740 0.000000 0.015000 
#    y 0.000000 1.839210 0.000000 
#    z 0.015000 0.000000 1.837730 
# 
# From -- ./inp_files/13656.got.cif
#   From: 2010.06.25/outbox.cif.g09.slc.cpg/sg11_7_cif.got.tgz:13656.got - 2010.06.27 23:14:04.
