data_PCOD8077290
_publ_section_title
;
Structure prediction by ZEFSAII (Michael W. Deem and Ramdas Pophale) SiO2 
 PCOD8077290
Probable space group: P 21/M
;
_chemical_formula_sum "Si O2"
_cell_formula_units_Z 20
_cell_length_a 14.708149
_cell_length_b 9.568322
_cell_length_c 6.310703
_cell_angle_alpha 90.000000
_cell_angle_beta 83.519176
_cell_angle_gamma 90.000000
_cell_volume 882.444420
_symmetry_space_group_name_H-M "P 21/M"
_symmetry_group_IT_number 11
_symmetry_cell_setting 'monoclinic'
loop_
_space_group_symop_operation_xyz
x,y,z
-x,1/2+y,-z
-x,-y,-z
x,1/2-y,z
loop_
_atom_site_type_symbol
_atom_site_label
_atom_site_fract_x
_atom_site_fract_y
_atom_site_fract_z
Si Si1 0.713380 0.250000 0.751250
Si Si2 0.828748 0.542733 0.249062
Si Si3 0.647338 0.489352 0.500752
Si Si4 0.874242 0.250000 0.382841
Si Si5 0.389359 0.750000 0.815852
Si Si6 0.924897 0.750000 0.491635
Si Si7 0.413379 0.250000 0.261364
Si Si8 0.782733 0.750000 0.902024
O O1 0.661788 0.390457 0.698315
O O2 0.814610 0.250000 0.616973
O O3 0.699997 0.250000 0.008331
O O4 0.740347 0.569710 0.416399
O O5 0.851067 0.378596 0.233719
O O6 0.914991 0.615488 0.342042
O O7 0.808481 0.609262 0.024659
O O8 0.615110 0.392494 0.316872
O O9 0.579833 0.613542 0.587788
O O10 0.978962 0.250000 0.418703
O O11 0.490847 0.750000 0.897337
O O12 0.843733 0.750000 0.680237
O O13 0.325492 0.250000 0.129079
#
# Coordination Sequence:
#
# PCOD8077290 Si02
#       8
#     2   4   4   2   2   2   2   2
#     4   9  23  45  63  94 130 169 212 261 333 381
#     4  10  22  43  64  96 133 171 214 261 324 382
#     4  10  22  45  64  92 133 169 208 274 322 379
#     4  10  22  42  72  94 135 171 211 272 321 371
#     4  11  25  42  69  94 127 167 225 267 320 385
#     4  11  21  42  68  99 129 170 216 269 318 385
#     4  12  23  44  66  98 128 174 212 271 324 378
#     4  11  24  41  66  93 135 169 218 260 322 392
#
# _framework density 22.664315999999999
#
# number of rings (size 3 to 8) (size 9 to 14) (size 15 to 20)
#    0.000    1.600    2.000    2.400    2.800    1.600 
#    7.200    9.000    0.000    0.000    0.000    0.000 
#    0.000    0.000    0.000    0.000    0.000    0.000 
#
# Total GULP energy -247830.826694 kJ/mol
# GULP energy per Si atom -12391.541335 kJ/mol
# Density = 2.261273 g / cm^3
# Si number density = 22.664316 Si / 1000 Ang^3
#
#
#
# Elastic Constant Matrix: (Units=GPa)
#
#
# Indices 1 2 3 4 5 6 
#
# 1 120.2566 27.1593 28.7440 0.0000 11.5424 0.0000
# 2 27.1593 144.3497 40.6987 0.0000 7.8883 0.0000
# 3 28.7440 40.6987 82.2519 0.0000 19.5424 0.0000
# 4 0.0000 0.0000 0.0000 -306.4412 0.0000 -155.0049
# 5 11.5424 7.8883 19.5424 0.0000 22.3938 0.0000
# 6 0.0000 0.0000 0.0000 -155.0049 0.0000 -52.5033
#
#
#
# Elastic Compliance Matrix: (Units=1/GPa)
#
#
# Indices 1 2 3 4 5 6 
#
# 1 0.009301 -0.001006 -0.002142 0.000000 -0.002571 0.000000
# 2 -0.001006 0.008171 -0.003950 0.000000 0.001087 0.000000
# 3 -0.002142 -0.003950 0.018000 0.000000 -0.013213 0.000000
# 4 0.000000 0.000000 0.000000 0.006615 0.000000 -0.019529
# 5 -0.002571 0.001087 -0.013213 0.000000 0.057128 0.000000
# 6 0.000000 0.000000 0.000000 -0.019529 0.000000 0.038608
#
#
# Mechanical properties :
#
#
# Convention : Reuss Voigt Hill
#
# Bulk Modulus (GPa) = 46.99888 60.00691 53.50290
# Shear Modulus (GPa) = 31.42475 -50.62641 -9.60083
#
# Velocity S-wave (km/s) = 3.72765 -4.73138 -2.06041
# Velocity P-wave (km/s) = 6.26970 1.82047 4.24235
#
# Compressibility (1/GPa) = 0.02127710
#
# Stress axis : x y z
#
# Youngs Moduli (GPa) = 107.51046 122.38264 55.55543
#
# Poissons Ratio (x) = 0.12307 0.11901
# Poissons Ratio (y) = 0.10811 0.21944
# Poissons Ratio (z) = 0.23031 0.48341
#
# Static dielectric constant tensor:
#      x y z
#    x 4.012270 0.000000 0.009610 
#    y 0.000000 4.634680 0.000000 
#    z 0.009610 0.000000 3.764070 
# 
# 
# High freq. dielectric constant tensor:
#      x y z
#    x 1.889930 0.000000 0.002510 
#    y 0.000000 1.917000 0.000000 
#    z 0.002510 0.000000 1.873140 
# 
# From -- ./inp_files/6257.got.cif
#   From: 2010.06.25/outbox.cif.g09.slc.cpg/sg11_4_cif.got.tgz:6257.got - 2010.06.27 23:14:04.
