data_PCOD8077531
_publ_section_title
;
Structure prediction by ZEFSAII (Michael W. Deem and Ramdas Pophale) SiO2 
 PCOD8077531
Probable space group: P 21/M
;
_chemical_formula_sum "Si O2"
_cell_formula_units_Z 32
_cell_length_a 20.449469
_cell_length_b 9.087067
_cell_length_c 12.128115
_cell_angle_alpha 90.000000
_cell_angle_beta 116.070330
_cell_angle_gamma 90.000000
_cell_volume 2024.411740
_symmetry_space_group_name_H-M "P 21/M"
_symmetry_group_IT_number 11
_symmetry_cell_setting 'monoclinic'
loop_
_space_group_symop_operation_xyz
x,y,z
-x,1/2+y,-z
-x,-y,-z
x,1/2-y,z
loop_
_atom_site_type_symbol
_atom_site_label
_atom_site_fract_x
_atom_site_fract_y
_atom_site_fract_z
Si Si1 0.107003 0.420225 0.590237
Si Si2 0.762891 0.577335 0.457971
Si Si3 0.481705 0.421250 0.373596
Si Si4 0.010964 0.578355 0.675252
Si Si5 0.670985 0.586380 0.682718
Si Si6 0.194731 0.924717 0.286944
Si Si7 0.045568 0.074107 0.129448
Si Si8 0.608021 0.587215 0.390432
O O1 0.095938 0.250000 0.606749
O O2 0.190099 0.456191 0.616794
O O3 0.085427 0.504348 0.686219
O O4 0.056191 0.471911 0.451120
O O5 0.770659 0.750000 0.497729
O O6 0.793474 0.479891 0.580175
O O7 0.678206 0.538185 0.369036
O O8 0.500000 0.500000 0.500000
O O9 0.496657 0.250000 0.399579
O O10 0.395980 0.451168 0.282507
O O11 0.537411 0.482613 0.321500
O O12 0.023600 0.750000 0.678741
O O13 0.993872 0.528138 0.786232
O O14 0.701625 0.750000 0.730675
O O15 0.736104 0.468806 0.738700
O O16 0.636579 0.584023 0.536072
O O17 0.184507 0.750000 0.277424
O O18 0.125466 0.004902 0.183908
O O19 0.050206 0.250000 0.119295
O O20 0.000000 0.000000 0.000000
O O21 0.582529 0.750000 0.337536
#
# Coordination Sequence:
#
# PCOD8077531 Si02
#       8
#     4   4   4   4   4   4   4   4
#     4   9  16  28  46  64  85 112 141 175 214 256
#     4   9  16  28  41  57  83 115 142 173 215 251
#     4   9  15  22  32  47  70 100 135 169 205 243
#     4   9  18  31  46  64  85 109 136 175 219 255
#     4   8  15  26  37  49  71 105 136 170 211 248
#     4  11  20  28  42  63  81 104 141 180 214 255
#     4  11  22  37  51  64  86 113 142 178 220 262
#     4   8  14  22  34  50  73 104 137 168 204 245
#
# _framework density 15.807062
#
# number of rings (size 3 to 8) (size 9 to 14) (size 15 to 20)
#    0.000    2.750    1.250    3.375    0.000    6.500 
#    0.000    0.000    0.000    0.000    0.000    0.000 
#    0.000    0.000    0.000    1.125    0.000   14.625 
#
# Total GULP energy -396506.300824 kJ/mol
# GULP energy per Si atom -12390.821901 kJ/mol
# Density = 1.577108 g / cm^3
# Si number density = 15.807062 Si / 1000 Ang^3
#
#
#
# Elastic Constant Matrix: (Units=GPa)
#
#
# Indices 1 2 3 4 5 6 
#
# 1 156.6394 58.8343 36.1494 0.0000 15.5589 0.0000
# 2 58.8343 81.6302 28.1777 0.0000 8.3498 0.0000
# 3 36.1494 28.1777 36.8010 0.0000 0.6846 0.0000
# 4 0.0000 0.0000 0.0000 15.9301 0.0000 3.5088
# 5 15.5589 8.3498 0.6846 0.0000 13.5727 0.0000
# 6 0.0000 0.0000 0.0000 3.5088 0.0000 30.6884
#
#
#
# Elastic Compliance Matrix: (Units=1/GPa)
#
#
# Indices 1 2 3 4 5 6 
#
# 1 0.010458 -0.004249 -0.006852 0.000000 -0.009029 0.000000
# 2 -0.004249 0.019732 -0.010809 0.000000 -0.006723 0.000000
# 3 -0.006852 -0.010809 0.041950 0.000000 0.012388 0.000000
# 4 0.000000 0.000000 0.000000 0.064396 0.000000 -0.007363
# 5 -0.009029 -0.006723 0.012388 0.000000 0.087539 0.000000
# 6 0.000000 0.000000 0.000000 -0.007363 0.000000 0.033427
#
#
# Mechanical properties :
#
#
# Convention : Reuss Voigt Hill
#
# Bulk Modulus (GPa) = 35.31142 57.93260 46.62201
# Shear Modulus (GPa) = 16.08953 22.16552 19.12752
#
# Velocity S-wave (km/s) = 3.19387 3.74873 3.48237
# Velocity P-wave (km/s) = 5.99905 7.44760 6.76222
#
# Compressibility (1/GPa) = 0.02831945
#
# Stress axis : x y z
#
# Youngs Moduli (GPa) = 95.61986 50.68002 23.83819
#
# Poissons Ratio (x) = 0.21534 0.16333
# Poissons Ratio (y) = 0.40628 0.25767
# Poissons Ratio (z) = 0.65515 0.54782
#
# Static dielectric constant tensor:
#      x y z
#    x 3.878810 0.000000 0.271410 
#    y 0.000000 2.789160 0.000000 
#    z 0.271410 0.000000 2.448980 
# 
# 
# High freq. dielectric constant tensor:
#      x y z
#    x 1.630580 0.000000 0.019580 
#    y 0.000000 1.611190 0.000000 
#    z 0.019580 0.000000 1.520850 
# 
# From -- ./inp_files/40723.got.cif
#   From: 2010.06.25/outbox.cif.g09.slc.cpg/sg11_21_cif.got.tgz:40723.got - 2010.06.27 23:14:04.
