data_PCOD8077940
_publ_section_title
;
Structure prediction by ZEFSAII (Michael W. Deem and Ramdas Pophale) SiO2 
 PCOD8077940
Probable space group: P 21/M
;
_chemical_formula_sum "Si O2"
_cell_formula_units_Z 32
_cell_length_a 23.025359
_cell_length_b 9.360931
_cell_length_c 9.526449
_cell_angle_alpha 90.000000
_cell_angle_beta 114.798492
_cell_angle_gamma 90.000000
_cell_volume 1863.979735
_symmetry_space_group_name_H-M "P 21/M"
_symmetry_group_IT_number 11
_symmetry_cell_setting 'monoclinic'
loop_
_space_group_symop_operation_xyz
x,y,z
-x,1/2+y,-z
-x,-y,-z
x,1/2-y,z
loop_
_atom_site_type_symbol
_atom_site_label
_atom_site_fract_x
_atom_site_fract_y
_atom_site_fract_z
Si Si1 0.681003 0.916037 0.524545
Si Si2 0.073341 0.414439 0.923402
Si Si3 0.563498 0.915682 0.905734
Si Si4 0.799758 0.092573 0.637158
Si Si5 0.438904 0.416560 0.772580
Si Si6 0.064358 0.914162 0.193816
Si Si7 0.313907 0.416876 0.145265
Si Si8 0.808576 0.411926 0.980561
O O1 0.688335 0.750000 0.504004
O O2 0.619845 0.976035 0.379192
O O3 0.671994 0.953639 0.678432
O O4 0.745885 0.984663 0.527918
O O5 0.096225 0.250000 0.945895
O O6 0.065016 0.466837 0.074116
O O7 0.127032 0.508877 0.898181
O O8 0.001654 0.430763 0.782953
O O9 0.549046 0.750000 0.865584
O O10 0.624819 0.966365 0.880719
O O11 0.502543 0.002321 0.788063
O O12 0.576986 0.949287 0.081905
O O13 0.776288 0.250000 0.570288
O O14 0.871102 0.060654 0.646615
O O15 0.808342 0.080607 0.812930
O O16 0.450341 0.250000 0.756613
O O17 0.067389 0.750000 0.135988
O O18 0.299061 0.250000 0.109872
O O19 0.253752 0.505588 0.025400
O O20 0.807746 0.250000 0.036314
#
# Coordination Sequence:
#
# PCOD8077940 Si02
#       8
#     4   4   4   4   4   4   4   4
#     4   9  17  28  42  61  84 109 137 169 204 242
#     4   9  14  20  32  49  72 105 141 173 205 244
#     4   9  18  32  48  64  83 108 137 168 202 243
#     4   8  14  24  36  52  77 107 137 169 204 241
#     4   9  18  32  47  63  85 110 134 165 206 246
#     4   8  14  22  31  47  73 105 140 174 207 244
#     4   9  17  29  44  62  83 108 139 171 202 241
#     4   9  16  25  36  53  79 108 137 170 208 247
#
# _framework density 17.167569
#
# number of rings (size 3 to 8) (size 9 to 14) (size 15 to 20)
#    0.000    3.250    0.000    1.500    0.000    5.000 
#    0.000    0.000    0.000    0.000    0.000    0.000 
#    0.000    1.000    0.000    2.000    0.000    6.250 
#
# Total GULP energy -396530.698326 kJ/mol
# GULP energy per Si atom -12391.584323 kJ/mol
# Density = 1.712850 g / cm^3
# Si number density = 17.167569 Si / 1000 Ang^3
#
#
#
# Elastic Constant Matrix: (Units=GPa)
#
#
# Indices 1 2 3 4 5 6 
#
# 1 133.5372 63.7542 66.5847 0.0000 52.5168 0.0000
# 2 63.7542 77.8550 33.7943 0.0000 24.2811 0.0000
# 3 66.5847 33.7943 39.6363 0.0000 23.1999 0.0000
# 4 0.0000 0.0000 0.0000 16.9454 0.0000 11.1464
# 5 52.5168 24.2811 23.1999 0.0000 27.1080 0.0000
# 6 0.0000 0.0000 0.0000 11.1464 0.0000 28.9210
#
#
#
# Elastic Compliance Matrix: (Units=1/GPa)
#
#
# Indices 1 2 3 4 5 6 
#
# 1 0.125085 -0.006519 -0.132545 0.000000 -0.123053 0.000000
# 2 -0.006519 0.021373 -0.006930 0.000000 -0.000584 0.000000
# 3 -0.132545 -0.006930 0.200108 0.000000 0.091730 0.000000
# 4 0.000000 0.000000 0.000000 0.079055 0.000000 -0.030469
# 5 -0.123053 -0.000584 0.091730 0.000000 0.197299 0.000000
# 6 0.000000 0.000000 0.000000 -0.030469 0.000000 0.046320
#
#
# Mechanical properties :
#
#
# Convention : Reuss Voigt Hill
#
# Bulk Modulus (GPa) = 18.32256 64.36612 41.34434
# Shear Modulus (GPa) = 5.10506 20.38789 12.74648
#
# Velocity S-wave (km/s) = 1.72630 3.44987 2.72779
# Velocity P-wave (km/s) = 3.83007 7.31048 5.83577
#
# Compressibility (1/GPa) = 0.05457752
#
# Stress axis : x y z
#
# Youngs Moduli (GPa) = 7.99459 46.78859 4.99730
#
# Poissons Ratio (x) = 0.30501 0.66237
# Poissons Ratio (y) = 0.05212 0.03463
# Poissons Ratio (z) = 1.05965 0.32423
#
# Static dielectric constant tensor:
#      x y z
#    x 3.428330 0.000000 0.509580 
#    y 0.000000 3.247680 0.000000 
#    z 0.509580 0.000000 2.938490 
# 
# 
# High freq. dielectric constant tensor:
#      x y z
#    x 1.661280 0.000000 0.046400 
#    y 0.000000 1.666320 0.000000 
#    z 0.046400 0.000000 1.610990 
# 
# From -- ./inp_files/42512.got.cif
#   From: 2010.06.25/outbox.cif.g09.slc.cpg/sg11_22_cif.got.tgz:42512.got - 2010.06.27 23:14:04.
