data_PCOD8077280
_publ_section_title
;
Structure prediction by ZEFSAII (Michael W. Deem and Ramdas Pophale) SiO2 
 PCOD8077280
Probable space group: P 21/M
;
_chemical_formula_sum "Si O2"
_cell_formula_units_Z 28
_cell_length_a 9.487499
_cell_length_b 8.955051
_cell_length_c 24.678519
_cell_angle_alpha 90.000000
_cell_angle_beta 139.229167
_cell_angle_gamma 90.000000
_cell_volume 1369.227039
_symmetry_space_group_name_H-M "P 21/M"
_symmetry_group_IT_number 11
_symmetry_cell_setting 'monoclinic'
loop_
_space_group_symop_operation_xyz
x,y,z
-x,1/2+y,-z
-x,-y,-z
x,1/2-y,z
loop_
_atom_site_type_symbol
_atom_site_label
_atom_site_fract_x
_atom_site_fract_y
_atom_site_fract_z
Si Si1 0.664939 0.072613 0.005998
Si Si2 0.641822 0.075851 0.673253
Si Si3 0.780539 0.421175 0.422233
Si Si4 0.556071 0.425836 0.853302
Si Si5 0.121683 0.575070 0.145981
Si Si6 0.710302 0.925299 0.586842
Si Si7 0.174654 0.581966 0.688142
O O1 0.650397 0.250000 0.007292
O O2 0.608605 0.018337 0.928925
O O3 0.500000 0.000000 0.000000
O O4 0.905115 0.019064 0.088389
O O5 0.636245 0.250000 0.658464
O O6 0.745864 0.041784 0.761248
O O7 0.401002 0.012548 0.599446
O O8 0.769546 0.990557 0.663248
O O9 0.784418 0.250000 0.443230
O O10 0.731419 0.432012 0.344433
O O11 0.000000 0.500000 0.500000
O O12 0.551845 0.250000 0.848368
O O13 0.738965 0.484647 0.864663
O O14 0.317474 0.480590 0.768976
O O15 0.066486 0.750000 0.124107
O O16 0.667101 0.750000 0.577633
O O17 0.922690 0.965027 0.613512
O O18 0.500000 0.000000 0.500000
O O19 0.194361 0.750000 0.716041
#
# Coordination Sequence:
#
# PCOD8077280 Si02
#       7
#     4   4   4   4   4   4   4
#     4  11  25  42  65  96 129 164 205 252 307 372
#     4  11  23  40  63  91 125 166 210 259 312 371
#     4  11  22  38  62  92 125 162 207 258 312 371
#     4  10  22  42  66  93 123 162 208 252 307 370
#     4  10  22  42  66  93 126 163 207 256 309 369
#     4  11  24  42  62  90 126 167 214 263 318 377
#     4  10  23  40  61  91 124 159 206 258 309 369
#
# _framework density 20.449494000000001
#
# number of rings (size 3 to 8) (size 9 to 14) (size 15 to 20)
#    0.000    1.429    1.429    3.000    2.000    5.714 
#    0.000    0.000    0.000    0.000    0.000    0.000 
#    0.000    0.000    0.000    0.000    0.000    0.000 
#
# Total GULP energy -347292.973880 kJ/mol
# GULP energy per Si atom -12403.320496 kJ/mol
# Density = 2.040295 g / cm^3
# Si number density = 20.449494 Si / 1000 Ang^3
#
#
#
# Elastic Constant Matrix: (Units=GPa)
#
#
# Indices 1 2 3 4 5 6 
#
# 1 109.6428 38.1505 29.6524 0.0000 2.8138 0.0000
# 2 38.1505 74.3634 43.1807 0.0000 2.2376 0.0000
# 3 29.6524 43.1807 95.3830 0.0000 11.3148 0.0000
# 4 0.0000 0.0000 0.0000 40.3868 0.0000 2.6974
# 5 2.8138 2.2376 11.3148 0.0000 35.0915 0.0000
# 6 0.0000 0.0000 0.0000 2.6974 0.0000 35.7930
#
#
#
# Elastic Compliance Matrix: (Units=1/GPa)
#
#
# Indices 1 2 3 4 5 6 
#
# 1 0.011203 -0.005064 -0.001167 0.000000 -0.000199 0.000000
# 2 -0.005064 0.020615 -0.007955 0.000000 0.001656 0.000000
# 3 -0.001167 -0.007955 0.014948 0.000000 -0.004219 0.000000
# 4 0.000000 0.000000 0.000000 0.024886 0.000000 -0.001875
# 5 -0.000199 0.001656 -0.004219 0.000000 0.029768 0.000000
# 6 0.000000 0.000000 0.000000 -0.001875 0.000000 0.028080
#
#
# Mechanical properties :
#
#
# Convention : Reuss Voigt Hill
#
# Bulk Modulus (GPa) = 54.36110 55.70628 55.03369
# Shear Modulus (GPa) = 30.48740 33.48131 31.98435
#
# Velocity S-wave (km/s) = 3.86536 4.05071 3.95912
# Velocity P-wave (km/s) = 6.82365 7.01268 6.91881
#
# Compressibility (1/GPa) = 0.01839551
#
# Stress axis : x y z
#
# Youngs Moduli (GPa) = 89.25994 48.50902 66.89701
#
# Poissons Ratio (x) = 0.24566 0.07804
# Poissons Ratio (y) = 0.45203 0.53214
# Poissons Ratio (z) = 0.10413 0.38587
#
# Static dielectric constant tensor:
#      x y z
#    x 4.055120 0.000000 -0.110760 
#    y 0.000000 3.711280 0.000000 
#    z -0.110760 0.000000 3.653420 
# 
# 
# High freq. dielectric constant tensor:
#      x y z
#    x 1.813430 0.000000 -0.000380 
#    y 0.000000 1.800800 0.000000 
#    z -0.000380 0.000000 1.804700 
# 
# From -- ./inp_files/70735.got.cif
#   From: 2010.06.25/outbox.cif.g09.slc.cpg/sg11_36_cif.got.tgz:70735.got - 2010.06.27 23:14:04.
