data_PCOD8077861
_publ_section_title
;
Structure prediction by ZEFSAII (Michael W. Deem and Ramdas Pophale) SiO2 
 PCOD8077861
Probable space group: P 21/M
;
_chemical_formula_sum "Si O2"
_cell_formula_units_Z 26
_cell_length_a 5.469980
_cell_length_b 25.656091
_cell_length_c 7.861169
_cell_angle_alpha 90.000000
_cell_angle_beta 86.985454
_cell_angle_gamma 90.000000
_cell_volume 1101.696507
_symmetry_space_group_name_H-M "P 21/M"
_symmetry_group_IT_number 11
_symmetry_cell_setting 'monoclinic'
loop_
_space_group_symop_operation_xyz
x,y,z
-x,1/2+y,-z
-x,-y,-z
x,1/2-y,z
loop_
_atom_site_type_symbol
_atom_site_label
_atom_site_fract_x
_atom_site_fract_y
_atom_site_fract_z
Si Si1 0.550995 0.611988 0.857407
Si Si2 0.959228 0.362737 0.951442
Si Si3 0.032083 0.250000 0.346465
Si Si4 0.600810 0.750000 0.360685
Si Si5 0.941213 0.421294 0.612009
Si Si6 0.684063 0.975192 0.623995
Si Si7 0.342171 0.835649 0.560218
Si Si8 0.095595 0.250000 0.972014
O O1 0.556838 0.552289 0.789643
O O2 0.538278 0.653212 0.701938
O O3 0.802788 0.623670 0.944940
O O4 0.300341 0.614653 0.975656
O O5 0.930813 0.300438 0.936894
O O6 0.023639 0.385676 0.765022
O O7 0.176429 0.250000 0.516120
O O8 0.873999 0.302855 0.344518
O O9 0.189427 0.250000 0.165179
O O10 0.448996 0.802352 0.400496
O O11 0.670539 0.750000 0.160726
O O12 0.852383 0.477418 0.684992
O O13 0.737001 0.391580 0.508850
O O14 0.167426 0.429885 0.477906
O O15 0.500000 0.000000 0.500000
#
# Coordination Sequence:
#
# PCOD8077861 Si02
#       8
#     4   4   2   2   4   4   4   2
#     4  12  27  49  76 112 153 210 251 319 397 463
#     4  12  30  48  77 113 162 197 258 323 392 462
#     4  11  23  47  70 108 152 203 253 321 383 483
#     4  11  27  43  76 112 148 208 262 318 386 478
#     4  11  27  49  76 112 152 201 261 332 386 472
#     4  11  26  48  81 107 147 204 267 318 397 474
#     4  11  24  47  75 104 153 203 257 309 400 462
#     4  12  26  46  74 114 154 199 263 313 389 463
#
# _framework density 23.599965999999998
#
# number of rings (size 3 to 8) (size 9 to 14) (size 15 to 20)
#    0.000    0.615    3.077    2.769   10.769    3.077 
#    0.000    0.000    0.000    0.000    0.000    0.000 
#    0.000    0.000    0.000    0.000    0.000    0.000 
#
# Total GULP energy -322423.342866 kJ/mol
# GULP energy per Si atom -12400.897803 kJ/mol
# Density = 2.354625 g / cm^3
# Si number density = 23.599966 Si / 1000 Ang^3
#
#
#
# Elastic Constant Matrix: (Units=GPa)
#
#
# Indices 1 2 3 4 5 6 
#
# 1 117.0761 33.6663 43.4015 0.0000 -0.2544 0.0000
# 2 33.6663 130.9887 50.0244 0.0000 0.1779 0.0000
# 3 43.4015 50.0244 127.4936 0.0000 -5.6998 0.0000
# 4 0.0000 0.0000 0.0000 32.7592 0.0000 6.4388
# 5 -0.2544 0.1779 -5.6998 0.0000 38.7243 0.0000
# 6 0.0000 0.0000 0.0000 6.4388 0.0000 23.3992
#
#
#
# Elastic Compliance Matrix: (Units=1/GPa)
#
#
# Indices 1 2 3 4 5 6 
#
# 1 0.010023 -0.001490 -0.002843 0.000000 -0.000346 0.000000
# 2 -0.001490 0.009214 -0.003131 0.000000 -0.000513 0.000000
# 3 -0.002843 -0.003131 0.010106 0.000000 0.001483 0.000000
# 4 0.000000 0.000000 0.000000 0.032271 0.000000 -0.008880
# 5 -0.000346 -0.000513 0.001483 0.000000 0.026042 0.000000
# 6 0.000000 0.000000 0.000000 -0.008880 0.000000 0.045180
#
#
# Mechanical properties :
#
#
# Convention : Reuss Voigt Hill
#
# Bulk Modulus (GPa) = 69.37063 69.97142 69.67103
# Shear Modulus (GPa) = 32.77220 35.54095 34.15658
#
# Velocity S-wave (km/s) = 3.73051 3.88490 3.80849
# Velocity P-wave (km/s) = 6.92920 7.05950 6.99465
#
# Compressibility (1/GPa) = 0.01441532
#
# Stress axis : x y z
#
# Youngs Moduli (GPa) = 99.77010 108.53594 98.95041
#
# Poissons Ratio (x) = 0.16171 0.28131
# Poissons Ratio (y) = 0.14865 0.30980
# Poissons Ratio (z) = 0.28364 0.33981
#
# Static dielectric constant tensor:
#      x y z
#    x 4.818790 0.000000 -0.023440 
#    y 0.000000 4.714610 0.000000 
#    z -0.023440 0.000000 4.210770 
# 
# 
# High freq. dielectric constant tensor:
#      x y z
#    x 1.931990 0.000000 -0.002590 
#    y 0.000000 1.955040 0.000000 
#    z -0.002590 0.000000 1.934620 
# 
# From -- ./inp_files/10590.got.cif
#   From: 2010.06.25/outbox.cif.g09.slc.cpg/sg11_6_cif.got.tgz:10590.got - 2010.06.27 23:14:04.
