data_PCOD8077773
_publ_section_title
;
Structure prediction by ZEFSAII (Michael W. Deem and Ramdas Pophale) SiO2 
 PCOD8077773
Probable space group: P 21/M
;
_chemical_formula_sum "Si O2"
_cell_formula_units_Z 28
_cell_length_a 12.000847
_cell_length_b 19.759306
_cell_length_c 6.543673
_cell_angle_alpha 90.000000
_cell_angle_beta 56.924129
_cell_angle_gamma 90.000000
_cell_volume 1300.237136
_symmetry_space_group_name_H-M "P 21/M"
_symmetry_group_IT_number 11
_symmetry_cell_setting 'monoclinic'
loop_
_space_group_symop_operation_xyz
x,y,z
-x,1/2+y,-z
-x,-y,-z
x,1/2-y,z
loop_
_atom_site_type_symbol
_atom_site_label
_atom_site_fract_x
_atom_site_fract_y
_atom_site_fract_z
Si Si1 0.672449 0.632247 0.985120
Si Si2 0.013404 0.570478 0.107370
Si Si3 0.223790 0.468955 0.417809
Si Si4 0.962117 0.826248 0.798596
Si Si5 0.819551 0.388354 0.705127
Si Si6 0.552453 0.174320 0.086702
Si Si7 0.439535 0.428386 0.507471
O O1 0.591894 0.618559 0.270033
O O2 0.709264 0.559157 0.854183
O O3 0.808276 0.673059 0.883505
O O4 0.574245 0.673621 0.936973
O O5 0.151059 0.586324 0.089895
O O6 0.918218 0.565605 0.401208
O O7 0.000000 0.500000 0.000000
O O8 0.981197 0.630084 0.983809
O O9 0.214556 0.549307 0.409432
O O10 0.302839 0.446760 0.537439
O O11 0.999181 0.750000 0.821810
O O12 0.056944 0.848824 0.518294
O O13 0.690686 0.340248 0.832516
O O14 0.558571 0.250000 0.175310
O O15 0.537770 0.116367 0.271491
O O16 0.500000 0.500000 0.500000
#
# Coordination Sequence:
#
# PCOD8077773 Si02
#       7
#     4   4   4   4   4   4   4
#     4  11  23  46  69  97 133 179 225 286 338 403
#     4  12  24  42  69 102 136 176 227 279 339 402
#     4  11  22  41  69 103 131 172 232 282 336 399
#     4  12  26  43  68 101 135 180 231 283 344 410
#     4  12  25  44  70  99 142 181 223 285 343 410
#     4  11  27  46  66  98 139 183 224 274 346 416
#     4  11  24  42  71 102 132 175 232 286 336 402
#
# _framework density 21.534534000000001
#
# number of rings (size 3 to 8) (size 9 to 14) (size 15 to 20)
#    0.000    0.571    4.286    3.857    2.000    5.714 
#    0.000    0.000    0.000    0.000    0.000    0.000 
#    0.000    0.000    0.000    0.000    0.000    0.000 
#
# Total GULP energy -347170.290794 kJ/mol
# GULP energy per Si atom -12398.938957 kJ/mol
# Density = 2.148552 g / cm^3
# Si number density = 21.534534 Si / 1000 Ang^3
#
#
#
# Elastic Constant Matrix: (Units=GPa)
#
#
# Indices 1 2 3 4 5 6 
#
# 1 66.6317 33.7580 33.5245 0.0000 -10.3008 0.0000
# 2 33.7580 165.5118 45.2990 0.0000 -0.5512 0.0000
# 3 33.5245 45.2990 107.4995 0.0000 -7.1216 0.0000
# 4 0.0000 0.0000 0.0000 28.6559 0.0000 2.2620
# 5 -10.3008 -0.5512 -7.1216 0.0000 34.2947 0.0000
# 6 0.0000 0.0000 0.0000 2.2620 0.0000 22.0344
#
#
#
# Elastic Compliance Matrix: (Units=1/GPa)
#
#
# Indices 1 2 3 4 5 6 
#
# 1 0.019436 -0.002687 -0.004609 0.000000 0.004837 0.000000
# 2 -0.002687 0.007209 -0.002277 0.000000 -0.001164 0.000000
# 3 -0.004609 -0.002277 0.011767 0.000000 0.001023 0.000000
# 4 0.000000 0.000000 0.000000 0.035182 0.000000 -0.003612
# 5 0.004837 -0.001164 0.001023 0.000000 0.030806 0.000000
# 6 0.000000 0.000000 0.000000 -0.003612 0.000000 0.045754
#
#
# Mechanical properties :
#
#
# Convention : Reuss Voigt Hill
#
# Bulk Modulus (GPa) = 51.90222 62.75623 57.32922
# Shear Modulus (GPa) = 28.45426 32.13443 30.29434
#
# Velocity S-wave (km/s) = 3.63896 3.86713 3.75478
# Velocity P-wave (km/s) = 6.46608 7.01035 6.74371
#
# Compressibility (1/GPa) = 0.01926700
#
# Stress axis : x y z
#
# Youngs Moduli (GPa) = 51.45206 138.71169 84.98434
#
# Poissons Ratio (x) = 0.37268 0.39165
# Poissons Ratio (y) = 0.13824 0.19352
# Poissons Ratio (z) = 0.23712 0.31586
#
# Static dielectric constant tensor:
#      x y z
#    x 3.884170 0.000000 -0.172790 
#    y 0.000000 3.841900 0.000000 
#    z -0.172790 0.000000 3.879880 
# 
# 
# High freq. dielectric constant tensor:
#      x y z
#    x 1.856070 0.000000 -0.004800 
#    y 0.000000 1.845220 0.000000 
#    z -0.004800 0.000000 1.850270 
# 
# From -- ./inp_files/4988.got.cif
#   From: 2010.06.25/outbox.cif.g09.slc.cpg/sg11_3_cif.got.tgz:4988.got - 2010.06.27 23:14:04.
