data_PCOD8077858
_publ_section_title
;
Structure prediction by ZEFSAII (Michael W. Deem and Ramdas Pophale) SiO2 
 PCOD8077858
Probable space group: P 21/M
;
_chemical_formula_sum "Si O2"
_cell_formula_units_Z 28
_cell_length_a 5.164634
_cell_length_b 17.381555
_cell_length_c 14.570180
_cell_angle_alpha 90.000000
_cell_angle_beta 114.513461
_cell_angle_gamma 90.000000
_cell_volume 1190.061730
_symmetry_space_group_name_H-M "P 21/M"
_symmetry_group_IT_number 11
_symmetry_cell_setting 'monoclinic'
loop_
_space_group_symop_operation_xyz
x,y,z
-x,1/2+y,-z
-x,-y,-z
x,1/2-y,z
loop_
_atom_site_type_symbol
_atom_site_label
_atom_site_fract_x
_atom_site_fract_y
_atom_site_fract_z
Si Si1 0.863021 0.750000 0.117747
Si Si2 0.206308 0.750000 0.986010
Si Si3 0.830609 0.661191 0.578582
Si Si4 0.542629 0.103273 0.315890
Si Si5 0.097765 0.112301 0.738138
Si Si6 0.211118 0.465811 0.926829
Si Si7 0.454036 0.073680 0.625743
Si Si8 0.150004 0.390641 0.093246
O O1 0.915849 0.681237 0.194428
O O2 0.545947 0.750000 0.027194
O O3 0.107650 0.750000 0.077016
O O4 0.077873 0.824747 0.914884
O O5 0.766940 0.750000 0.540373
O O6 0.696421 0.643405 0.657304
O O7 0.701896 0.598522 0.489908
O O8 0.167065 0.649759 0.632313
O O9 0.437682 0.115342 0.195249
O O10 0.593299 0.015294 0.355232
O O11 0.222853 0.044170 0.819251
O O12 0.312215 0.125372 0.685358
O O13 0.783287 0.092097 0.656977
O O14 0.950927 0.522850 0.903982
O O15 0.500000 0.500000 0.000000
O O16 0.186729 0.387581 0.986375
#
# Coordination Sequence:
#
# PCOD8077858 Si02
#       8
#     2   2   4   4   4   4   4   4
#     4  12  26  44  66 103 152 191 240 296 360 425
#     4  12  26  44  62 101 146 203 230 294 356 431
#     4  12  29  49  76 106 145 184 243 305 366 430
#     4  12  26  50  75 109 141 193 238 301 355 439
#     4  12  25  43  74 107 144 186 243 294 364 431
#     4  11  23  43  69 105 142 188 232 294 337 433
#     4  12  26  49  77 107 140 190 241 303 371 425
#     4  11  26  42  70 100 145 187 241 282 357 419
#
# _framework density 23.528193000000002
#
# number of rings (size 3 to 8) (size 9 to 14) (size 15 to 20)
#    0.000    0.286    2.857    5.571    8.000    0.000 
#    0.000    0.000    0.000    0.000    0.000    0.000 
#    0.000    0.000    0.000    0.000    0.000    0.000 
#
# Total GULP energy -347113.502178 kJ/mol
# GULP energy per Si atom -12396.910792 kJ/mol
# Density = 2.347464 g / cm^3
# Si number density = 23.528193 Si / 1000 Ang^3
#
#
#
# Elastic Constant Matrix: (Units=GPa)
#
#
# Indices 1 2 3 4 5 6 
#
# 1 88.3797 -1.4156 24.0562 0.0000 5.5173 0.0000
# 2 -1.4156 80.9450 18.4967 0.0000 7.8659 0.0000
# 3 24.0562 18.4967 115.6681 0.0000 11.3122 0.0000
# 4 0.0000 0.0000 0.0000 33.6708 0.0000 6.2953
# 5 5.5173 7.8659 11.3122 0.0000 40.8030 0.0000
# 6 0.0000 0.0000 0.0000 6.2953 0.0000 27.6679
#
#
#
# Elastic Compliance Matrix: (Units=1/GPa)
#
#
# Indices 1 2 3 4 5 6 
#
# 1 0.012092 0.000902 -0.002551 0.000000 -0.001102 0.000000
# 2 0.000902 0.013044 -0.002072 0.000000 -0.002062 0.000000
# 3 -0.002551 -0.002072 0.009697 0.000000 -0.001944 0.000000
# 4 0.000000 0.000000 0.000000 0.031019 0.000000 -0.007058
# 5 -0.001102 -0.002062 -0.001944 0.000000 0.025593 0.000000
# 6 0.000000 0.000000 0.000000 -0.007058 0.000000 0.037749
#
#
# Mechanical properties :
#
#
# Convention : Reuss Voigt Hill
#
# Bulk Modulus (GPa) = 36.50890 40.80748 38.65819
# Shear Modulus (GPa) = 34.30108 36.68538 35.49323
#
# Velocity S-wave (km/s) = 3.82235 3.95297 3.88821
# Velocity P-wave (km/s) = 5.91872 6.18193 6.05176
#
# Compressibility (1/GPa) = 0.02739058
#
# Stress axis : x y z
#
# Youngs Moduli (GPa) = 82.69598 76.66587 103.11963
#
# Poissons Ratio (x) = -0.06912 0.26310
# Poissons Ratio (y) = -0.07455 0.21363
# Poissons Ratio (z) = 0.21099 0.15883
#
# Static dielectric constant tensor:
#      x y z
#    x 4.166320 0.000000 -0.242880 
#    y 0.000000 7.049840 0.000000 
#    z -0.242880 0.000000 4.633670 
# 
# 
# High freq. dielectric constant tensor:
#      x y z
#    x 1.935180 0.000000 0.001230 
#    y 0.000000 1.940640 0.000000 
#    z 0.001230 0.000000 1.943040 
# 
# From -- ./inp_files/46109.got.cif
#   From: 2010.06.25/outbox.cif.g09.slc.cpg/sg11_24_cif.got.tgz:46109.got - 2010.06.27 23:14:04.
