data_PCOD8077834
_publ_section_title
;
Structure prediction by ZEFSAII (Michael W. Deem and Ramdas Pophale) SiO2 
 PCOD8077834
Probable space group: P 21/M
;
_chemical_formula_sum "Si O2"
_cell_formula_units_Z 28
_cell_length_a 8.284863
_cell_length_b 14.643583
_cell_length_c 12.502331
_cell_angle_alpha 90.000000
_cell_angle_beta 117.028600
_cell_angle_gamma 90.000000
_cell_volume 1351.120352
_symmetry_space_group_name_H-M "P 21/M"
_symmetry_group_IT_number 11
_symmetry_cell_setting 'monoclinic'
loop_
_space_group_symop_operation_xyz
x,y,z
-x,1/2+y,-z
-x,-y,-z
x,1/2-y,z
loop_
_atom_site_type_symbol
_atom_site_label
_atom_site_fract_x
_atom_site_fract_y
_atom_site_fract_z
Si Si1 0.923781 0.922204 0.055518
Si Si2 0.740599 0.850733 0.811333
Si Si3 0.206232 0.645302 0.291871
Si Si4 0.339346 0.508289 0.867403
Si Si5 0.052973 0.647574 0.751056
Si Si6 0.135159 0.498946 0.443350
Si Si7 0.486757 0.483156 0.682697
O O1 0.085495 0.859136 0.147348
O O2 0.836342 0.958729 0.138712
O O3 0.765144 0.867395 0.945764
O O4 0.000000 0.000000 0.000000
O O5 0.656426 0.750000 0.765326
O O6 0.948312 0.855505 0.832617
O O7 0.612222 0.926471 0.720008
O O8 0.227883 0.750000 0.334787
O O9 0.118475 0.587959 0.362951
O O10 0.400168 0.605224 0.316534
O O11 0.260249 0.610313 0.822197
O O12 0.400150 0.465327 0.773203
O O13 0.500000 0.500000 0.000000
O O14 0.070946 0.750000 0.712030
O O15 0.917990 0.592868 0.633582
O O16 0.339108 0.495688 0.546809
O O17 0.000000 0.500000 0.500000
#
# Coordination Sequence:
#
# PCOD8077834 Si02
#       7
#     4   4   4   4   4   4   4
#     4  12  19  43  69  92 132 176 219 273 345 397
#     4  11  23  40  68  98 129 174 225 273 332 403
#     4  12  26  44  68 100 134 180 227 277 338 403
#     4  12  22  41  70  97 133 173 213 275 341 392
#     4  11  24  44  70  98 130 176 229 270 328 401
#     4  12  24  47  70  95 133 178 222 277 336 390
#     4  12  24  43  69  95 137 175 221 276 334 399
#
# _framework density 20.723542999999999
#
# number of rings (size 3 to 8) (size 9 to 14) (size 15 to 20)
#    0.000    0.286    8.571    0.857    0.000    2.286 
#    0.000    2.857    0.000    0.000    0.000    0.000 
#    0.000    0.000    0.000    0.000    0.000    0.000 
#
# Total GULP energy -347092.540310 kJ/mol
# GULP energy per Si atom -12396.162154 kJ/mol
# Density = 2.067638 g / cm^3
# Si number density = 20.723543 Si / 1000 Ang^3
#
#
#
# Elastic Constant Matrix: (Units=GPa)
#
#
# Indices 1 2 3 4 5 6 
#
# 1 105.3687 54.7829 29.0002 0.0000 -6.4052 0.0000
# 2 54.7829 157.1754 65.8201 0.0000 4.5384 0.0000
# 3 29.0002 65.8201 128.5548 0.0000 25.4931 0.0000
# 4 0.0000 0.0000 0.0000 17.4909 0.0000 3.8607
# 5 -6.4052 4.5384 25.4931 0.0000 53.5888 0.0000
# 6 0.0000 0.0000 0.0000 3.8607 0.0000 25.6350
#
#
#
# Elastic Compliance Matrix: (Units=1/GPa)
#
#
# Indices 1 2 3 4 5 6 
#
# 1 0.011895 -0.003686 -0.001259 0.000000 0.002333 0.000000
# 2 -0.003686 0.009340 -0.004092 0.000000 0.000715 0.000000
# 3 -0.001259 -0.004092 0.011173 0.000000 -0.005119 0.000000
# 4 0.000000 0.000000 0.000000 0.059139 0.000000 -0.008906
# 5 0.002333 0.000715 -0.005119 0.000000 0.021314 0.000000
# 6 0.000000 0.000000 0.000000 -0.008906 0.000000 0.040350
#
#
# Mechanical properties :
#
#
# Convention : Reuss Voigt Hill
#
# Bulk Modulus (GPa) = 69.76442 76.70058 73.23250
# Shear Modulus (GPa) = 28.39863 35.44265 31.92064
#
# Velocity S-wave (km/s) = 3.70585 4.14002 3.92893
# Velocity P-wave (km/s) = 7.21446 7.74239 7.48309
#
# Compressibility (1/GPa) = 0.01433395
#
# Stress axis : x y z
#
# Youngs Moduli (GPa) = 84.06699 107.06243 89.49982
#
# Poissons Ratio (x) = 0.39467 0.11264
# Poissons Ratio (y) = 0.30990 0.36628
# Poissons Ratio (z) = 0.10580 0.43815
#
# Static dielectric constant tensor:
#      x y z
#    x 3.985900 0.000000 0.013310 
#    y 0.000000 3.687100 0.000000 
#    z 0.013310 0.000000 3.666640 
# 
# 
# High freq. dielectric constant tensor:
#      x y z
#    x 1.820180 0.000000 -0.001010 
#    y 0.000000 1.793930 0.000000 
#    z -0.001010 0.000000 1.824570 
# 
# From -- ./inp_files/31960.got.cif
#   From: 2010.06.25/outbox.cif.g09.slc.cpg/sg11_16_cif.got.tgz:31960.got - 2010.06.27 23:14:04.
