data_PCOD8077873
_publ_section_title
;
Structure prediction by ZEFSAII (Michael W. Deem and Ramdas Pophale) SiO2 
 PCOD8077873
Probable space group: P 21/M
;
_chemical_formula_sum "Si O2"
_cell_formula_units_Z 20
_cell_length_a 9.884756
_cell_length_b 14.322369
_cell_length_c 10.652121
_cell_angle_alpha 90.000000
_cell_angle_beta 140.855870
_cell_angle_gamma 90.000000
_cell_volume 951.994311
_symmetry_space_group_name_H-M "P 21/M"
_symmetry_group_IT_number 11
_symmetry_cell_setting 'monoclinic'
loop_
_space_group_symop_operation_xyz
x,y,z
-x,1/2+y,-z
-x,-y,-z
x,1/2-y,z
loop_
_atom_site_type_symbol
_atom_site_label
_atom_site_fract_x
_atom_site_fract_y
_atom_site_fract_z
Si Si1 0.168600 0.750000 0.030383
Si Si2 0.503538 0.250000 0.945577
Si Si3 0.221017 0.250000 0.116067
Si Si4 0.926465 0.409093 0.873711
Si Si5 0.854047 0.059730 0.547679
Si Si6 0.669652 0.250000 0.343516
Si Si7 0.320124 0.051462 0.790817
O O1 0.902802 0.750000 0.835519
O O2 0.271322 0.750000 0.967704
O O3 0.232142 0.844440 0.154464
O O4 0.364776 0.160703 0.809056
O O5 0.552594 0.250000 0.126693
O O6 0.477432 0.250000 0.309038
O O7 0.133315 0.344370 0.982651
O O8 0.803043 0.441512 0.659244
O O9 0.000000 0.500000 0.000000
O O10 0.821225 0.162085 0.467244
O O11 0.098626 0.029581 0.702030
O O12 0.693093 0.989526 0.360229
O O13 0.500000 0.000000 0.000000
#
# Coordination Sequence:
#
# PCOD8077873 Si02
#       7
#     2   2   2   4   4   2   4
#     4   8  23  37  64  95 131 175 218 267 341 399
#     4  12  23  42  69  97 145 174 212 300 347 382
#     4   8  21  39  64  97 124 180 225 271 331 406
#     4   9  20  41  66  86 133 180 217 273 331 394
#     4  11  24  41  69 101 130 174 238 275 327 418
#     4  12  21  40  73  97 128 179 225 282 335 387
#     4  11  25  42  67 103 134 173 225 285 343 399
#
# _framework density 21.008528999999999
#
# number of rings (size 3 to 8) (size 9 to 14) (size 15 to 20)
#    1.200    0.400    2.000    3.000    2.800    0.000 
#    0.000    8.000    0.000    0.000    0.000    0.000 
#    0.000    0.000    0.000    0.000    0.000    0.000 
#
# Total GULP energy -247826.833925 kJ/mol
# GULP energy per Si atom -12391.341696 kJ/mol
# Density = 2.096071 g / cm^3
# Si number density = 21.008529 Si / 1000 Ang^3
#
#
#
# Elastic Constant Matrix: (Units=GPa)
#
#
# Indices 1 2 3 4 5 6 
#
# 1 68.5248 19.5795 24.8556 0.0000 0.3294 0.0000
# 2 19.5795 174.8400 71.3084 0.0000 -29.1096 0.0000
# 3 24.8556 71.3084 112.7740 0.0000 -7.6432 0.0000
# 4 0.0000 0.0000 0.0000 5.5145 0.0000 12.4200
# 5 0.3294 -29.1096 -7.6432 0.0000 32.7175 0.0000
# 6 0.0000 0.0000 0.0000 12.4200 0.0000 19.2895
#
#
#
# Elastic Compliance Matrix: (Units=1/GPa)
#
#
# Indices 1 2 3 4 5 6 
#
# 1 0.015959 -0.000771 -0.003137 0.000000 -0.001579 0.000000
# 2 -0.000771 0.009010 -0.005064 0.000000 0.006841 0.000000
# 3 -0.003137 -0.005064 0.012658 0.000000 -0.001517 0.000000
# 4 0.000000 0.000000 0.000000 -0.402824 0.000000 0.259370
# 5 -0.001579 0.006841 -0.001517 0.000000 0.036313 0.000000
# 6 0.000000 0.000000 0.000000 0.259370 0.000000 -0.115160
#
#
# Mechanical properties :
#
#
# Convention : Reuss Voigt Hill
#
# Bulk Modulus (GPa) = 50.80287 65.29174 58.04730
# Shear Modulus (GPa) = -11.91779 27.53066 7.80643
#
# Velocity S-wave (km/s) = -2.38436 3.62394 1.92974
# Velocity P-wave (km/s) = 4.08097 6.97544 5.71450
#
# Compressibility (1/GPa) = 0.01968393
#
# Stress axis : x y z
#
# Youngs Moduli (GPa) = 62.66078 110.98709 79.00300
#
# Poissons Ratio (x) = 0.08553 0.24784
# Poissons Ratio (y) = 0.04829 0.40004
# Poissons Ratio (z) = 0.19658 0.56200
#
# Static dielectric constant tensor:
#      x y z
#    x 3.560020 0.000000 -0.066900 
#    y 0.000000 4.041400 0.000000 
#    z -0.066900 0.000000 3.619560 
# 
# 
# High freq. dielectric constant tensor:
#      x y z
#    x 1.805830 0.000000 -0.003920 
#    y 0.000000 1.841050 0.000000 
#    z -0.003920 0.000000 1.802020 
# 
# From -- ./inp_files/35770.got.cif
#   From: 2010.06.25/outbox.cif.g09.slc.cpg/sg11_18_cif.got.tgz:35770.got - 2010.06.27 23:14:04.
