data_PCOD8077591
_publ_section_title
;
Structure prediction by ZEFSAII (Michael W. Deem and Ramdas Pophale) SiO2 
 PCOD8077591
Probable space group: P 21/M
;
_chemical_formula_sum "Si O2"
_cell_formula_units_Z 20
_cell_length_a 12.672356
_cell_length_b 14.220359
_cell_length_c 9.222206
_cell_angle_alpha 90.000000
_cell_angle_beta 31.579398
_cell_angle_gamma 90.000000
_cell_volume 870.298856
_symmetry_space_group_name_H-M "P 21/M"
_symmetry_group_IT_number 11
_symmetry_cell_setting 'monoclinic'
loop_
_space_group_symop_operation_xyz
x,y,z
-x,1/2+y,-z
-x,-y,-z
x,1/2-y,z
loop_
_atom_site_type_symbol
_atom_site_label
_atom_site_fract_x
_atom_site_fract_y
_atom_site_fract_z
Si Si1 0.790402 0.394105 0.423018
Si Si2 0.017687 0.452813 0.636017
Si Si3 0.411003 0.250000 0.491847
Si Si4 0.528441 0.750000 0.099987
Si Si5 0.871066 0.750000 0.911111
Si Si6 0.662303 0.074240 0.257763
Si Si7 0.189294 0.250000 0.467431
O O1 0.590940 0.343333 0.715820
O O2 0.789173 0.394424 0.250376
O O3 0.802752 0.497231 0.481417
O O4 0.992742 0.341821 0.235010
O O5 0.000000 0.500000 0.500000
O O6 0.062693 0.342141 0.570278
O O7 0.810168 0.470275 0.965950
O O8 0.552403 0.160042 0.308362
O O9 0.225867 0.250000 0.596595
O O10 0.314705 0.250000 0.762236
O O11 0.758030 0.750000 0.890356
O O12 0.582543 0.750000 0.866172
O O13 0.500000 0.000000 0.500000
#
# Coordination Sequence:
#
# PCOD8077591 Si02
#       7
#     4   4   2   2   2   4   2
#     4  11  24  45  75 107 146 193 250 298 366 433
#     4  12  28  47  73 106 152 195 243 308 373 442
#     4  12  23  43  73 104 148 186 241 305 358 437
#     4  11  25  44  75 108 142 195 242 300 363 446
#     4  11  20  45  74 108 141 189 242 299 354 431
#     4  12  25  45  74 110 143 195 250 299 364 439
#     4  12  28  46  68 104 151 190 241 304 385 424
#
# _framework density 22.980613000000002
#
# number of rings (size 3 to 8) (size 9 to 14) (size 15 to 20)
#    0.000    0.400    2.000    6.600    5.600    1.600 
#    0.000    0.000    0.000    0.000    0.000    0.000 
#    0.000    0.000    0.000    0.000    0.000    0.000 
#
# Total GULP energy -248108.795333 kJ/mol
# GULP energy per Si atom -12405.439767 kJ/mol
# Density = 2.292831 g / cm^3
# Si number density = 22.980613 Si / 1000 Ang^3
#
#
#
# Elastic Constant Matrix: (Units=GPa)
#
#
# Indices 1 2 3 4 5 6 
#
# 1 96.5029 53.1129 32.9791 0.0000 -8.6246 0.0000
# 2 53.1129 161.7268 51.7826 0.0000 -7.6204 0.0000
# 3 32.9791 51.7826 145.8075 0.0000 8.6721 0.0000
# 4 0.0000 0.0000 0.0000 18.9523 0.0000 0.1670
# 5 -8.6246 -7.6204 8.6721 0.0000 40.9935 0.0000
# 6 0.0000 0.0000 0.0000 0.1670 0.0000 43.4500
#
#
#
# Elastic Compliance Matrix: (Units=1/GPa)
#
#
# Indices 1 2 3 4 5 6 
#
# 1 0.013215 -0.003631 -0.001848 0.000000 0.002496 0.000000
# 2 -0.003631 0.008115 -0.002132 0.000000 0.001196 0.000000
# 3 -0.001848 -0.002132 0.008183 0.000000 -0.002516 0.000000
# 4 0.000000 0.000000 0.000000 0.052766 0.000000 -0.000203
# 5 0.002496 0.001196 -0.002516 0.000000 0.025674 0.000000
# 6 0.000000 0.000000 0.000000 -0.000203 0.000000 0.023016
#
#
# Mechanical properties :
#
#
# Convention : Reuss Voigt Hill
#
# Bulk Modulus (GPa) = 69.97005 75.53183 72.75094
# Shear Modulus (GPa) = 33.12278 38.42332 35.77305
#
# Velocity S-wave (km/s) = 3.80061 4.09343 3.94974
# Velocity P-wave (km/s) = 7.05500 7.43509 7.24754
#
# Compressibility (1/GPa) = 0.01429183
#
# Stress axis : x y z
#
# Youngs Moduli (GPa) = 75.66978 123.23611 122.20316
#
# Poissons Ratio (x) = 0.44743 0.22585
# Poissons Ratio (y) = 0.27473 0.26050
# Poissons Ratio (z) = 0.13985 0.26271
#
# Static dielectric constant tensor:
#      x y z
#    x 4.230260 0.000000 0.163820 
#    y 0.000000 4.321420 0.000000 
#    z 0.163820 0.000000 4.179010 
# 
# 
# High freq. dielectric constant tensor:
#      x y z
#    x 1.914800 0.000000 0.004400 
#    y 0.000000 1.920640 0.000000 
#    z 0.004400 0.000000 1.913270 
# 
# From -- ./inp_files/18788.got.cif
#   From: 2010.06.25/outbox.cif.g09.slc.cpg/sg11_10_cif.got.tgz:18788.got - 2010.06.27 23:14:04.
