data_PCOD8077965
_publ_section_title
;
Structure prediction by ZEFSAII (Michael W. Deem and Ramdas Pophale) SiO2 
 PCOD8077965
Probable space group: P 21/M
;
_chemical_formula_sum "Si O2"
_cell_formula_units_Z 20
_cell_length_a 13.620432
_cell_length_b 9.137065
_cell_length_c 10.386373
_cell_angle_alpha 90.000000
_cell_angle_beta 87.532514
_cell_angle_gamma 90.000000
_cell_volume 1291.393670
_symmetry_space_group_name_H-M "P 21/M"
_symmetry_group_IT_number 11
_symmetry_cell_setting 'monoclinic'
loop_
_space_group_symop_operation_xyz
x,y,z
-x,1/2+y,-z
-x,-y,-z
x,1/2-y,z
loop_
_atom_site_type_symbol
_atom_site_label
_atom_site_fract_x
_atom_site_fract_y
_atom_site_fract_z
Si Si1 0.758964 0.076764 0.651223
Si Si2 0.596668 0.915691 0.534596
Si Si3 0.880923 0.079113 0.891489
Si Si4 0.206023 0.415460 0.591533
Si Si5 0.894441 0.578258 0.145551
O O1 0.748349 0.250000 0.639134
O O2 0.809093 0.029620 0.781465
O O3 0.650936 0.000474 0.650054
O O4 0.826261 0.015907 0.528734
O O5 0.570201 0.750000 0.578041
O O6 0.674096 0.914766 0.410408
O O7 0.500000 0.000000 0.500000
O O8 0.872876 0.250000 0.918872
O O9 0.991541 0.035174 0.846102
O O10 0.847855 0.997185 0.022777
O O11 0.166171 0.250000 0.572637
O O12 0.162593 0.481430 0.725594
O O13 0.878767 0.750000 0.130999
#
# Coordination Sequence:
#
# PCOD8077965 Si02
#       5
#     4   4   4   4   4
#     4   9  17  29  45  68  94 120 149 187 226 265
#     4   9  17  30  48  69  91 115 148 187 230 274
#     4   9  18  30  45  67  94 124 156 186 220 264
#     4   8  17  30  45  67  91 118 152 189 226 267
#     4   9  17  31  47  64  92 127 156 185 223 265
#
# _framework density 15.487145
#
# number of rings (size 3 to 8) (size 9 to 14) (size 15 to 20)
#    1.200    2.000    0.000    0.600    0.000    3.200 
#    0.000    0.000    0.000    1.200    0.000    0.000 
#    0.000    0.000    0.000    0.000    0.000    0.000 
#
# Total GULP energy -247791.788552 kJ/mol
# GULP energy per Si atom -12389.589428 kJ/mol
# Density = 1.545190 g / cm^3
# Si number density = 15.487145 Si / 1000 Ang^3
#
#
#
# Elastic Constant Matrix: (Units=GPa)
#
#
# Indices 1 2 3 4 5 6 
#
# 1 60.9751 32.6068 40.9572 0.0000 24.5827 0.0000
# 2 32.6068 73.3356 47.6164 0.0000 16.8029 0.0000
# 3 40.9572 47.6164 99.5202 0.0000 28.5135 0.0000
# 4 0.0000 0.0000 0.0000 28.1076 0.0000 3.2565
# 5 24.5827 16.8029 28.5135 0.0000 20.6330 0.0000
# 6 0.0000 0.0000 0.0000 3.2565 0.0000 21.9679
#
#
#
# Elastic Compliance Matrix: (Units=1/GPa)
#
#
# Indices 1 2 3 4 5 6 
#
# 1 0.034527 -0.006768 -0.001265 0.000000 -0.033875 0.000000
# 2 -0.006768 0.021426 -0.007909 0.000000 0.001544 0.000000
# 3 -0.001265 -0.007909 0.019991 0.000000 -0.019678 0.000000
# 4 0.000000 0.000000 0.000000 0.036199 0.000000 -0.005366
# 5 -0.033875 0.001544 -0.019678 0.000000 0.114762 0.000000
# 6 0.000000 0.000000 0.000000 -0.005366 0.000000 0.046316
#
#
# Mechanical properties :
#
#
# Convention : Reuss Voigt Hill
#
# Bulk Modulus (GPa) = 22.69653 52.91018 37.80336
# Shear Modulus (GPa) = 15.63514 21.65175 18.64344
#
# Velocity S-wave (km/s) = 3.18080 3.74310 3.47335
# Velocity P-wave (km/s) = 5.30819 7.27456 6.36773
#
# Compressibility (1/GPa) = 0.04405960
#
# Stress axis : x y z
#
# Youngs Moduli (GPa) = 28.96324 46.67118 50.02288
#
# Poissons Ratio (x) = 0.31587 0.06330
# Poissons Ratio (y) = 0.19603 0.39561
# Poissons Ratio (z) = 0.03665 0.36910
#
# Static dielectric constant tensor:
#      x y z
#    x 2.771740 0.000000 0.004970 
#    y 0.000000 2.966580 0.000000 
#    z 0.004970 0.000000 2.902600 
# 
# 
# High freq. dielectric constant tensor:
#      x y z
#    x 1.571250 0.000000 0.004550 
#    y 0.000000 1.601460 0.000000 
#    z 0.004550 0.000000 1.578670 
# 
# From -- ./inp_files/20228.got.cif
#   From: 2010.06.25/outbox.cif.g09.slc.cpg/sg11_11_cif.got.tgz:20228.got - 2010.06.27 23:14:04.
