data_PCOD8077353
_publ_section_title
;
Structure prediction by ZEFSAII (Michael W. Deem and Ramdas Pophale) SiO2 
 PCOD8077353
Probable space group: P 21/M
;
_chemical_formula_sum "Si O2"
_cell_formula_units_Z 32
_cell_length_a 8.569335
_cell_length_b 31.886936
_cell_length_c 5.320447
_cell_angle_alpha 90.000000
_cell_angle_beta 86.268799
_cell_angle_gamma 90.000000
_cell_volume 1450.729672
_symmetry_space_group_name_H-M "P 21/M"
_symmetry_group_IT_number 11
_symmetry_cell_setting 'monoclinic'
loop_
_space_group_symop_operation_xyz
x,y,z
-x,1/2+y,-z
-x,-y,-z
x,1/2-y,z
loop_
_atom_site_type_symbol
_atom_site_label
_atom_site_fract_x
_atom_site_fract_y
_atom_site_fract_z
Si Si1 0.240078 0.482551 0.911699
Si Si2 0.305450 0.131165 0.442932
Si Si3 0.104495 0.054121 0.408934
Si Si4 0.504417 0.425920 0.774872
Si Si5 0.381204 0.864357 0.856483
Si Si6 0.249275 0.560908 0.620874
Si Si7 0.874319 0.201587 0.067174
Si Si8 0.934091 0.798890 0.450901
O O1 0.176634 0.467051 0.647335
O O2 0.402986 0.458399 0.952940
O O3 0.265264 0.532559 0.873071
O O4 0.125498 0.475041 0.159149
O O5 0.177759 0.099593 0.334576
O O6 0.382704 0.105974 0.660418
O O7 0.222885 0.173658 0.544171
O O8 0.438979 0.145262 0.232903
O O9 0.921269 0.057996 0.482414
O O10 0.621984 0.396553 0.914070
O O11 0.612878 0.454370 0.581435
O O12 0.291915 0.821618 0.924879
O O13 0.285423 0.889726 0.654873
O O14 0.830129 0.250000 0.071509
O O15 0.968790 0.189202 0.807609
O O16 0.970779 0.189798 0.306692
O O17 0.886516 0.750000 0.453540
#
# Coordination Sequence:
#
# PCOD8077353 Si02
#       8
#     4   4   4   4   4   4   4   4
#     4  11  24  44  62  88 129 167 214 273 317 374
#     4  10  23  41  61  93 128 167 207 262 311 377
#     4  11  24  41  63  92 123 165 217 269 317 374
#     4  10  24  41  59  93 127 172 214 258 316 379
#     4  11  24  40  64  92 130 168 214 254 318 380
#     4  11  25  39  64  92 122 171 217 266 322 372
#     4  10  24  44  68  97 128 162 205 259 311 376
#     4  10  23  44  71 100 127 163 209 258 318 377
#
# _framework density 22.057866000000001
#
# number of rings (size 3 to 8) (size 9 to 14) (size 15 to 20)
#    0.000    1.500    1.250    1.875   10.500    2.000 
#    0.000    0.625    0.000    0.000    0.000    0.000 
#    0.000    0.000    0.000    0.000    0.000    0.000 
#
# Total GULP energy -396749.153630 kJ/mol
# GULP energy per Si atom -12398.411051 kJ/mol
# Density = 2.200766 g / cm^3
# Si number density = 22.057866 Si / 1000 Ang^3
#
#
#
# Elastic Constant Matrix: (Units=GPa)
#
#
# Indices 1 2 3 4 5 6 
#
# 1 125.8346 65.6266 32.5119 0.0000 -17.6924 0.0000
# 2 65.6266 99.4549 22.0472 0.0000 -19.4501 0.0000
# 3 32.5119 22.0472 106.7296 0.0000 -11.3335 0.0000
# 4 0.0000 0.0000 0.0000 19.2733 0.0000 -8.6660
# 5 -17.6924 -19.4501 -11.3335 0.0000 21.7063 0.0000
# 6 0.0000 0.0000 0.0000 -8.6660 0.0000 41.0013
#
#
#
# Elastic Compliance Matrix: (Units=1/GPa)
#
#
# Indices 1 2 3 4 5 6 
#
# 1 0.012721 -0.007420 -0.002062 0.000000 0.002643 0.000000
# 2 -0.007420 0.016732 -0.000261 0.000000 0.008808 0.000000
# 3 -0.002062 -0.000261 0.010426 0.000000 0.003530 0.000000
# 4 0.000000 0.000000 0.000000 0.057334 0.000000 0.012118
# 5 0.002643 0.008808 0.003530 0.000000 0.057960 0.000000
# 6 0.000000 0.000000 0.000000 0.012118 0.000000 0.026951
#
#
# Mechanical properties :
#
#
# Convention : Reuss Voigt Hill
#
# Bulk Modulus (GPa) = 49.03401 63.59896 56.31649
# Shear Modulus (GPa) = 23.99162 30.51842 27.25502
#
# Velocity S-wave (km/s) = 3.30156 3.72366 3.51894
# Velocity P-wave (km/s) = 6.06726 6.88352 6.48824
#
# Compressibility (1/GPa) = 0.02039401
#
# Stress axis : x y z
#
# Youngs Moduli (GPa) = 78.60930 59.76749 95.91273
#
# Poissons Ratio (x) = 0.44349 0.19773
# Poissons Ratio (y) = 0.58330 0.02499
# Poissons Ratio (z) = 0.16206 0.01557
#
# Static dielectric constant tensor:
#      x y z
#    x 4.006300 0.000000 -0.054840 
#    y 0.000000 3.944090 0.000000 
#    z -0.054840 0.000000 3.974870 
# 
# 
# High freq. dielectric constant tensor:
#      x y z
#    x 1.874030 0.000000 -0.005030 
#    y 0.000000 1.864810 0.000000 
#    z -0.005030 0.000000 1.869020 
# 
# From -- ./inp_files/3410.got.cif
#   From: 2010.06.25/outbox.cif.g09.slc.cpg/sg11_2_cif.got.tgz:3410.got - 2010.06.27 23:14:04.
