data_PCOD8077736
_publ_section_title
;
Structure prediction by ZEFSAII (Michael W. Deem and Ramdas Pophale) SiO2 
 PCOD8077736
Probable space group: P 21/M
;
_chemical_formula_sum "Si O2"
_cell_formula_units_Z 28
_cell_length_a 9.715990
_cell_length_b 8.906525
_cell_length_c 32.010725
_cell_angle_alpha 90.000000
_cell_angle_beta 145.819380
_cell_angle_gamma 90.000000
_cell_volume 1556.235690
_symmetry_space_group_name_H-M "P 21/M"
_symmetry_group_IT_number 11
_symmetry_cell_setting 'monoclinic'
loop_
_space_group_symop_operation_xyz
x,y,z
-x,1/2+y,-z
-x,-y,-z
x,1/2-y,z
loop_
_atom_site_type_symbol
_atom_site_label
_atom_site_fract_x
_atom_site_fract_y
_atom_site_fract_z
Si Si1 0.291242 0.426090 0.305069
Si Si2 0.200399 0.075502 0.190683
Si Si3 0.127411 0.927977 0.739364
Si Si4 0.749647 0.071526 0.320906
Si Si5 0.807174 0.928293 0.420620
Si Si6 0.067752 0.575612 0.954570
Si Si7 0.379250 0.075499 0.096661
O O1 0.358750 0.250000 0.325422
O O2 0.140348 0.455941 0.224134
O O3 0.538064 0.521232 0.367766
O O4 0.119999 0.482119 0.299900
O O5 0.209390 0.250000 0.182292
O O6 0.470243 0.013101 0.247782
O O7 0.993150 0.009455 0.107271
O O8 0.149722 0.750000 0.747107
O O9 0.114814 0.977876 0.687745
O O10 0.366061 0.995602 0.822611
O O11 0.762593 0.250000 0.331991
O O12 0.874402 0.987687 0.391204
O O13 0.825805 0.750000 0.426453
O O14 0.000000 0.000000 0.500000
O O15 0.131236 0.750000 0.969924
O O16 0.827563 0.539767 0.921390
O O17 0.305114 0.494728 0.033388
O O18 0.412218 0.250000 0.097152
#
# Coordination Sequence:
#
# PCOD8077736 Si02
#       7
#     4   4   4   4   4   4   4
#     4   9  18  33  55  79 102 133 168 206 253 303
#     4   8  13  25  46  68  93 129 173 211 246 295
#     4   9  16  30  53  78 103 133 172 210 251 305
#     4   9  16  31  55  79 101 131 169 209 248 294
#     4  11  22  38  58  81 105 131 163 200 242 295
#     4   9  15  25  41  63  92 131 176 216 254 292
#     4   9  16  26  42  66  96 130 170 215 255 293
#
# _framework density 17.992132999999999
#
# number of rings (size 3 to 8) (size 9 to 14) (size 15 to 20)
#    0.000    2.857    1.429    2.143    0.000    0.000 
#    0.000    6.429    0.000    0.000    0.000    0.000 
#    0.000    0.000    0.000    0.000    0.000    0.000 
#
# Total GULP energy -347012.253076 kJ/mol
# GULP energy per Si atom -12393.294753 kJ/mol
# Density = 1.795118 g / cm^3
# Si number density = 17.992133 Si / 1000 Ang^3
#
#
#
# Elastic Constant Matrix: (Units=GPa)
#
#
# Indices 1 2 3 4 5 6 
#
# 1 123.0871 35.1117 61.6256 0.0000 -19.2155 0.0000
# 2 35.1117 53.6399 45.3902 0.0000 -5.3441 0.0000
# 3 61.6256 45.3902 145.2223 0.0000 -26.4734 0.0000
# 4 0.0000 0.0000 0.0000 27.6994 0.0000 -3.0115
# 5 -19.2155 -5.3441 -26.4734 0.0000 23.9845 0.0000
# 6 0.0000 0.0000 0.0000 -3.0115 0.0000 16.0385
#
#
#
# Elastic Compliance Matrix: (Units=1/GPa)
#
#
# Indices 1 2 3 4 5 6 
#
# 1 0.011609 -0.005081 -0.002315 0.000000 0.005613 0.000000
# 2 -0.005081 0.027862 -0.007715 0.000000 -0.006378 0.000000
# 3 -0.002315 -0.007715 0.012054 0.000000 0.009731 0.000000
# 4 0.000000 0.000000 0.000000 0.036854 0.000000 0.006920
# 5 0.005613 -0.006378 0.009731 0.000000 0.055510 0.000000
# 6 0.000000 0.000000 0.000000 0.006920 0.000000 0.063649
#
#
# Mechanical properties :
#
#
# Convention : Reuss Voigt Hill
#
# Bulk Modulus (GPa) = 46.94248 67.35603 57.14925
# Shear Modulus (GPa) = 20.41974 25.53258 22.97616
#
# Velocity S-wave (km/s) = 3.37252 3.77118 3.57741
# Velocity P-wave (km/s) = 6.42747 7.51532 6.99258
#
# Compressibility (1/GPa) = 0.02130267
#
# Stress axis : x y z
#
# Youngs Moduli (GPa) = 86.13954 35.89154 82.96263
#
# Poissons Ratio (x) = 0.18236 0.19206
# Poissons Ratio (y) = 0.43767 0.64006
# Poissons Ratio (z) = 0.19941 0.27690
#
# Static dielectric constant tensor:
#      x y z
#    x 3.360330 0.000000 -0.254000 
#    y 0.000000 3.307210 0.000000 
#    z -0.254000 0.000000 3.491710 
# 
# 
# High freq. dielectric constant tensor:
#      x y z
#    x 1.682320 0.000000 -0.019730 
#    y 0.000000 1.658100 0.000000 
#    z -0.019730 0.000000 1.697730 
# 
# From -- ./inp_files/72761.got.cif
#   From: 2010.06.25/outbox.cif.g09.slc.cpg/sg11_37_cif.got.tgz:72761.got - 2010.06.27 23:14:04.
