data_PCOD8077450
_publ_section_title
;
Structure prediction by ZEFSAII (Michael W. Deem and Ramdas Pophale) SiO2 
 PCOD8077450
Probable space group: P 21/M
;
_chemical_formula_sum "Si O2"
_cell_formula_units_Z 26
_cell_length_a 8.605053
_cell_length_b 19.041786
_cell_length_c 8.671506
_cell_angle_alpha 90.000000
_cell_angle_beta 56.049594
_cell_angle_gamma 90.000000
_cell_volume 1178.645749
_symmetry_space_group_name_H-M "P 21/M"
_symmetry_group_IT_number 11
_symmetry_cell_setting 'monoclinic'
loop_
_space_group_symop_operation_xyz
x,y,z
-x,1/2+y,-z
-x,-y,-z
x,1/2-y,z
loop_
_atom_site_type_symbol
_atom_site_label
_atom_site_fract_x
_atom_site_fract_y
_atom_site_fract_z
Si Si1 0.333749 0.452212 0.222603
Si Si2 0.018838 0.391850 0.878546
Si Si3 0.422229 0.750000 0.269427
Si Si4 0.093253 0.750000 0.678604
Si Si5 0.144285 0.250000 0.888443
Si Si6 0.710551 0.987899 0.431650
Si Si7 0.016527 0.600656 0.744066
Si Si8 0.345538 0.892512 0.123517
O O1 0.272914 0.435734 0.431258
O O2 0.390734 0.535224 0.192624
O O3 0.169500 0.442103 0.190167
O O4 0.497522 0.396286 0.097069
O O5 0.855525 0.396828 0.844438
O O6 0.125841 0.318322 0.792435
O O7 0.168163 0.454254 0.772855
O O8 0.948574 0.396066 0.092590
O O9 0.312378 0.750000 0.497592
O O10 0.647439 0.750000 0.154023
O O11 0.363355 0.820871 0.210934
O O12 0.002068 0.677229 0.669423
O O13 0.035000 0.750000 0.892951
O O14 0.500000 0.000000 0.500000
O O15 0.802441 0.062549 0.427342
#
# Coordination Sequence:
#
# PCOD8077450 Si02
#       8
#     4   4   2   2   2   4   4   4
#     4  11  25  42  68 101 136 173 234 280 343 411
#     4  11  24  44  67  97 138 178 221 285 349 396
#     4  12  25  45  74  99 135 186 231 279 348 408
#     4  10  24  40  72  94 134 176 230 270 342 406
#     4  10  25  47  66  99 139 182 227 287 342 418
#     4  12  26  39  66 101 135 179 231 285 340 410
#     4  11  23  45  68  98 138 180 225 284 344 410
#     4  11  24  43  69  97 135 181 224 284 340 409
#
# _framework density 22.059214000000001
#
# number of rings (size 3 to 8) (size 9 to 14) (size 15 to 20)
#    0.000    0.923    1.538    5.077   10.769    0.000 
#    0.000    0.769    0.000    0.000    0.000    0.000 
#    0.000    0.000    0.000    0.000    0.000    0.000 
#
# Total GULP energy -322132.301135 kJ/mol
# GULP energy per Si atom -12389.703890 kJ/mol
# Density = 2.200901 g / cm^3
# Si number density = 22.059214 Si / 1000 Ang^3
#
#
#
# Elastic Constant Matrix: (Units=GPa)
#
#
# Indices 1 2 3 4 5 6 
#
# 1 117.5379 36.1388 30.4278 0.0000 -26.4221 0.0000
# 2 36.1388 142.2960 30.0477 0.0000 -18.7635 0.0000
# 3 30.4278 30.0477 103.3722 0.0000 -18.0381 0.0000
# 4 0.0000 0.0000 0.0000 23.3965 0.0000 -5.4629
# 5 -26.4221 -18.7635 -18.0381 0.0000 32.6039 0.0000
# 6 0.0000 0.0000 0.0000 -5.4629 0.0000 34.0092
#
#
#
# Elastic Compliance Matrix: (Units=1/GPa)
#
#
# Indices 1 2 3 4 5 6 
#
# 1 0.010987 -0.001519 -0.001540 0.000000 0.007178 0.000000
# 2 -0.001519 0.008062 -0.001441 0.000000 0.002612 0.000000
# 3 -0.001540 -0.001441 0.011272 0.000000 0.004159 0.000000
# 4 0.000000 0.000000 0.000000 0.044407 0.000000 0.007133
# 5 0.007178 0.002612 0.004159 0.000000 0.040292 0.000000
# 6 0.000000 0.000000 0.000000 0.007133 0.000000 0.030550
#
#
# Mechanical properties :
#
#
# Convention : Reuss Voigt Hill
#
# Bulk Modulus (GPa) = 46.90047 61.82609 54.36328
# Shear Modulus (GPa) = 30.92620 35.77471 33.35046
#
# Velocity S-wave (km/s) = 3.74834 4.03147 3.89248
# Velocity P-wave (km/s) = 6.32778 7.05397 6.70072
#
# Compressibility (1/GPa) = 0.02132175
#
# Stress axis : x y z
#
# Youngs Moduli (GPa) = 91.01607 124.04003 88.71879
#
# Poissons Ratio (x) = 0.18838 0.13664
# Poissons Ratio (y) = 0.13822 0.12781
# Poissons Ratio (z) = 0.14018 0.17869
#
# Static dielectric constant tensor:
#      x y z
#    x 3.642260 0.000000 -0.122080 
#    y 0.000000 4.563110 0.000000 
#    z -0.122080 0.000000 4.159460 
# 
# 
# High freq. dielectric constant tensor:
#      x y z
#    x 1.846960 0.000000 -0.011850 
#    y 0.000000 1.886020 0.000000 
#    z -0.011850 0.000000 1.876800 
# 
# From -- ./inp_files/14519.got.cif
#   From: 2010.06.25/outbox.cif.g09.slc.cpg/sg11_8_cif.got.tgz:14519.got - 2010.06.27 23:14:04.
