data_PCOD8077465
_publ_section_title
;
Structure prediction by ZEFSAII (Michael W. Deem and Ramdas Pophale) SiO2 
 PCOD8077465
Probable space group: P 21/M
;
_chemical_formula_sum "Si O2"
_cell_formula_units_Z 24
_cell_length_a 8.616147
_cell_length_b 16.310009
_cell_length_c 15.153890
_cell_angle_alpha 90.000000
_cell_angle_beta 30.789771
_cell_angle_gamma 90.000000
_cell_volume 1090.103309
_symmetry_space_group_name_H-M "P 21/M"
_symmetry_group_IT_number 11
_symmetry_cell_setting 'monoclinic'
loop_
_space_group_symop_operation_xyz
x,y,z
-x,1/2+y,-z
-x,-y,-z
x,1/2-y,z
loop_
_atom_site_type_symbol
_atom_site_label
_atom_site_fract_x
_atom_site_fract_y
_atom_site_fract_z
Si Si1 0.699385 0.347575 0.684071
Si Si2 0.741038 0.157101 0.988157
Si Si3 0.409130 0.414307 0.999424
Si Si4 0.694437 0.095228 0.332700
Si Si5 0.392349 0.088311 0.659051
Si Si6 0.374521 0.342191 0.328889
O O1 0.680018 0.250000 0.713214
O O2 0.557527 0.401089 0.831644
O O3 0.519921 0.368118 0.682985
O O4 0.043411 0.380925 0.506532
O O5 0.839875 0.250000 0.961552
O O6 0.528917 0.156760 0.005560
O O7 0.035378 0.103172 0.825836
O O8 0.558739 0.115030 0.158824
O O9 0.500000 0.500000 0.000000
O O10 0.052742 0.406394 0.162857
O O11 0.561399 0.124903 0.491122
O O12 0.580160 0.159288 0.315868
O O13 0.554273 0.009064 0.367786
O O14 0.315520 0.250000 0.326024
#
# Coordination Sequence:
#
# PCOD8077465 Si02
#       6
#     4   4   4   4   4   4
#     4  11  25  45  68  97 132 175 223 272 328 391
#     4  11  23  43  68  96 131 174 220 270 327 390
#     4  12  25  42  66  98 132 174 216 273 328 392
#     4  11  25  42  64  98 135 169 218 268 331 389
#     4  11  24  42  67  98 130 174 216 271 327 392
#     4  10  24  43  68  98 131 172 219 271 326 390
#
# _framework density 22.016261
#
# number of rings (size 3 to 8) (size 9 to 14) (size 15 to 20)
#    0.000    1.000    1.667    4.000    4.667    7.333 
#    0.000    0.000    0.000    0.000    0.000    0.000 
#    0.000    0.000    0.000    0.000    0.000    0.000 
#
# Total GULP energy -297668.782112 kJ/mol
# GULP energy per Si atom -12402.865921 kJ/mol
# Density = 2.196615 g / cm^3
# Si number density = 22.016261 Si / 1000 Ang^3
#
#
#
# Elastic Constant Matrix: (Units=GPa)
#
#
# Indices 1 2 3 4 5 6 
#
# 1 137.8587 17.4573 65.5844 0.0000 2.3512 0.0000
# 2 17.4573 56.7412 24.4145 0.0000 8.4499 0.0000
# 3 65.5844 24.4145 197.1824 0.0000 6.7026 0.0000
# 4 0.0000 0.0000 0.0000 5.3050 0.0000 -0.5399
# 5 2.3512 8.4499 6.7026 0.0000 51.3333 0.0000
# 6 0.0000 0.0000 0.0000 -0.5399 0.0000 40.8555
#
#
#
# Elastic Compliance Matrix: (Units=1/GPa)
#
#
# Indices 1 2 3 4 5 6 
#
# 1 0.008742 -0.001549 -0.002723 0.000000 0.000210 0.000000
# 2 -0.001549 0.019292 -0.001776 0.000000 -0.002873 0.000000
# 3 -0.002723 -0.001776 0.006210 0.000000 -0.000394 0.000000
# 4 0.000000 0.000000 0.000000 0.188754 0.000000 0.002494
# 5 0.000210 -0.002873 -0.000394 0.000000 0.019995 0.000000
# 6 0.000000 0.000000 0.000000 0.002494 0.000000 0.024509
#
#
# Mechanical properties :
#
#
# Convention : Reuss Voigt Hill
#
# Bulk Modulus (GPa) = 45.14935 67.41055 56.27995
# Shear Modulus (GPa) = 17.42271 38.45384 27.93827
#
# Velocity S-wave (km/s) = 2.81616 4.18378 3.56614
# Velocity P-wave (km/s) = 5.57908 7.35008 6.52495
#
# Compressibility (1/GPa) = 0.02214871
#
# Stress axis : x y z
#
# Youngs Moduli (GPa) = 114.39305 51.83381 161.02107
#
# Poissons Ratio (x) = 0.08030 0.43845
# Poissons Ratio (y) = 0.17722 0.28594
# Poissons Ratio (z) = 0.31148 0.09205
#
# Static dielectric constant tensor:
#      x y z
#    x 3.969280 0.000000 0.069640 
#    y 0.000000 3.820510 0.000000 
#    z 0.069640 0.000000 4.228540 
# 
# 
# High freq. dielectric constant tensor:
#      x y z
#    x 1.877170 0.000000 0.002100 
#    y 0.000000 1.855690 0.000000 
#    z 0.002100 0.000000 1.886330 
# 
# From -- ./inp_files/47958.got.cif
#   From: 2010.06.25/outbox.cif.g09.slc.cpg/sg11_24_cif.got.tgz:47958.got - 2010.06.27 23:14:04.
