data_PCOD8077766
_publ_section_title
;
Structure prediction by ZEFSAII (Michael W. Deem and Ramdas Pophale) SiO2 
 PCOD8077766
Probable space group: P 21/M
;
_chemical_formula_sum "Si O2"
_cell_formula_units_Z 20
_cell_length_a 11.827841
_cell_length_b 9.615610
_cell_length_c 8.752687
_cell_angle_alpha 90.000000
_cell_angle_beta 109.205037
_cell_angle_gamma 90.000000
_cell_volume 940.059907
_symmetry_space_group_name_H-M "P 21/M"
_symmetry_group_IT_number 11
_symmetry_cell_setting 'monoclinic'
loop_
_space_group_symop_operation_xyz
x,y,z
-x,1/2+y,-z
-x,-y,-z
x,1/2-y,z
loop_
_atom_site_type_symbol
_atom_site_label
_atom_site_fract_x
_atom_site_fract_y
_atom_site_fract_z
Si Si1 0.749018 0.472261 0.907822
Si Si2 0.951948 0.750000 0.280533
Si Si3 0.952383 0.250000 0.002530
Si Si4 0.650489 0.750000 0.401605
Si Si5 0.383147 0.750000 0.338237
Si Si6 0.209565 0.750000 0.544338
Si Si7 0.759007 0.526696 0.253378
Si Si8 0.190270 0.250000 0.239345
O O1 0.648876 0.385691 0.774135
O O2 0.763034 0.614997 0.825989
O O3 0.873914 0.388809 0.967563
O O4 0.706388 0.499739 0.061424
O O5 0.882859 0.612481 0.303904
O O6 0.086516 0.750000 0.398636
O O7 0.956665 0.750000 0.099646
O O8 0.044505 0.250000 0.186855
O O9 0.524604 0.750000 0.434003
O O10 0.658977 0.612802 0.300632
O O11 0.760851 0.750000 0.567769
O O12 0.316909 0.750000 0.470765
O O13 0.216103 0.617701 0.654577
#
# Coordination Sequence:
#
# PCOD8077766 Si02
#       8
#     4   2   2   2   2   2   4   2
#     4  11  23  43  69  97 131 175 220 267 323 395
#     4  11  22  42  64 102 142 171 208 266 328 400
#     4  11  22  40  68 102 136 171 222 256 320 405
#     4  11  28  47  65  95 132 173 224 279 327 382
#     4  11  26  48  69  92 128 177 229 269 324 391
#     4  12  23  41  69 100 137 173 214 271 326 386
#     4  11  25  43  64 100 138 168 217 270 333 385
#     4  12  23  40  69  97 133 177 217 263 321 392
#
# _framework density 21.275241000000001
#
# number of rings (size 3 to 8) (size 9 to 14) (size 15 to 20)
#    0.000    0.800    4.000    4.200    0.000    7.200 
#    0.000    2.000    0.000    0.000    0.000    0.000 
#    0.000    0.000    0.000    0.000    0.000    0.000 
#
# Total GULP energy -248105.943836 kJ/mol
# GULP energy per Si atom -12405.297192 kJ/mol
# Density = 2.122682 g / cm^3
# Si number density = 21.275241 Si / 1000 Ang^3
#
#
#
# Elastic Constant Matrix: (Units=GPa)
#
#
# Indices 1 2 3 4 5 6 
#
# 1 105.2561 32.3542 26.3268 0.0000 -8.0095 0.0000
# 2 32.3542 165.7143 46.2388 0.0000 -10.5025 0.0000
# 3 26.3268 46.2388 108.9539 0.0000 -17.8595 0.0000
# 4 0.0000 0.0000 0.0000 67.5551 0.0000 -7.1653
# 5 -8.0095 -10.5025 -17.8595 0.0000 33.1438 0.0000
# 6 0.0000 0.0000 0.0000 -7.1653 0.0000 16.1981
#
#
#
# Elastic Compliance Matrix: (Units=1/GPa)
#
#
# Indices 1 2 3 4 5 6 
#
# 1 0.010475 -0.001496 -0.001710 0.000000 0.001136 0.000000
# 2 -0.001496 0.007072 -0.002558 0.000000 0.000501 0.000000
# 3 -0.001710 -0.002558 0.011491 0.000000 0.004968 0.000000
# 4 0.000000 0.000000 0.000000 0.015531 0.000000 0.006870
# 5 0.001136 0.000501 0.004968 0.000000 0.033282 0.000000
# 6 0.000000 0.000000 0.000000 0.006870 0.000000 0.064775
#
#
# Mechanical properties :
#
#
# Convention : Reuss Voigt Hill
#
# Bulk Modulus (GPa) = 57.10791 65.52931 61.31861
# Shear Modulus (GPa) = 31.25198 41.71304 36.48251
#
# Velocity S-wave (km/s) = 3.83683 4.43271 4.14549
# Velocity P-wave (km/s) = 6.82122 7.55422 7.19706
#
# Compressibility (1/GPa) = 0.01751071
#
# Stress axis : x y z
#
# Youngs Moduli (GPa) = 95.46902 141.40326 87.02314
#
# Poissons Ratio (x) = 0.21153 0.14880
# Poissons Ratio (y) = 0.14282 0.22257
# Poissons Ratio (z) = 0.16325 0.36166
#
# Static dielectric constant tensor:
#      x y z
#    x 3.629410 0.000000 -0.105550 
#    y 0.000000 4.075190 0.000000 
#    z -0.105550 0.000000 4.068350 
# 
# 
# High freq. dielectric constant tensor:
#      x y z
#    x 1.817650 0.000000 -0.008790 
#    y 0.000000 1.856620 0.000000 
#    z -0.008790 0.000000 1.845190 
# 
# From -- ./inp_files/16000.got.cif
#   From: 2010.06.25/outbox.cif.g09.slc.cpg/sg11_8_cif.got.tgz:16000.got - 2010.06.27 23:14:04.
