data_PCOD8077647
_publ_section_title
;
Structure prediction by ZEFSAII (Michael W. Deem and Ramdas Pophale) SiO2 
 PCOD8077647
Probable space group: P 21/M
;
_chemical_formula_sum "Si O2"
_cell_formula_units_Z 32
_cell_length_a 21.436848
_cell_length_b 8.936641
_cell_length_c 27.741967
_cell_angle_alpha 90.000000
_cell_angle_beta 18.883823
_cell_angle_gamma 90.000000
_cell_volume 1720.079366
_symmetry_space_group_name_H-M "P 21/M"
_symmetry_group_IT_number 11
_symmetry_cell_setting 'monoclinic'
loop_
_space_group_symop_operation_xyz
x,y,z
-x,1/2+y,-z
-x,-y,-z
x,1/2-y,z
loop_
_atom_site_type_symbol
_atom_site_label
_atom_site_fract_x
_atom_site_fract_y
_atom_site_fract_z
Si Si1 0.002137 0.424930 0.447014
Si Si2 0.327288 0.921457 0.384493
Si Si3 0.296103 0.926544 0.864028
Si Si4 0.707351 0.573028 0.845846
Si Si5 0.216436 0.072990 0.633155
Si Si6 0.633792 0.072916 0.294534
Si Si7 0.911164 0.072140 0.176167
Si Si8 0.975768 0.422581 0.311039
O O1 0.028125 0.250000 0.435143
O O2 0.800056 0.460696 0.568985
O O3 0.000000 0.500000 0.500000
O O4 0.178385 0.485323 0.285065
O O5 0.398228 0.750000 0.330851
O O6 0.203622 0.950174 0.522667
O O7 0.507888 0.032353 0.251686
O O8 0.262657 0.750000 0.890781
O O9 0.306808 0.988122 0.801410
O O10 0.125382 0.009269 0.016219
O O11 0.685797 0.750000 0.858948
O O12 0.827873 0.528863 0.805529
O O13 0.500000 0.500000 0.000000
O O14 0.208293 0.250000 0.646525
O O15 0.421606 0.015076 0.463290
O O16 0.189756 0.992333 0.703131
O O17 0.049914 0.023938 0.717539
O O18 0.630051 0.250000 0.296069
O O19 0.789067 0.014362 0.219544
O O20 0.915719 0.250000 0.175787
O O21 0.986833 0.250000 0.287123
#
# Coordination Sequence:
#
# PCOD8077647 Si02
#       8
#     4   4   4   4   4   4   4   4
#     4   9  19  36  57  83 114 145 183 227 269 322
#     4   9  18  35  58  82 109 146 189 228 271 328
#     4  11  21  37  58  84 113 143 183 233 281 327
#     4   9  19  36  57  83 114 145 183 227 269 322
#     4  11  21  37  58  84 113 143 183 233 281 327
#     4   9  20  37  59  83 110 141 184 233 277 328
#     4  11  23  39  55  79 114 151 184 225 279 334
#     4   9  18  35  58  82 109 146 189 228 271 328
#
# _framework density 18.603791999999999
#
# number of rings (size 3 to 8) (size 9 to 14) (size 15 to 20)
#    0.000    2.250    1.250    3.375    0.000    1.500 
#    2.250    6.250    0.000    0.000    0.000    0.000 
#    0.000    0.000    0.000    0.000    0.000    0.000 
#
# Total GULP energy -396842.721260 kJ/mol
# GULP energy per Si atom -12401.335039 kJ/mol
# Density = 1.856145 g / cm^3
# Si number density = 18.603792 Si / 1000 Ang^3
#
#
#
# Elastic Constant Matrix: (Units=GPa)
#
#
# Indices 1 2 3 4 5 6 
#
# 1 92.6180 32.8671 23.3819 0.0000 -5.5338 0.0000
# 2 32.8671 59.8827 28.1241 0.0000 -3.5850 0.0000
# 3 23.3819 28.1241 82.2602 0.0000 -12.8567 0.0000
# 4 0.0000 0.0000 0.0000 30.2036 0.0000 0.3458
# 5 -5.5338 -3.5850 -12.8567 0.0000 30.1708 0.0000
# 6 0.0000 0.0000 0.0000 0.3458 0.0000 33.0718
#
#
#
# Elastic Compliance Matrix: (Units=1/GPa)
#
#
# Indices 1 2 3 4 5 6 
#
# 1 0.013609 -0.006752 -0.001388 0.000000 0.001103 0.000000
# 2 -0.006752 0.023253 -0.006206 0.000000 -0.001120 0.000000
# 3 -0.001388 -0.006206 0.015554 0.000000 0.005636 0.000000
# 4 0.000000 0.000000 0.000000 0.033113 0.000000 -0.000346
# 5 0.001103 -0.001120 0.005636 0.000000 0.035615 0.000000
# 6 0.000000 0.000000 0.000000 -0.000346 0.000000 0.030241
#
#
# Mechanical properties :
#
#
# Convention : Reuss Voigt Hill
#
# Bulk Modulus (GPa) = 42.14967 44.83412 43.49190
# Shear Modulus (GPa) = 26.59818 28.71510 27.65664
#
# Velocity S-wave (km/s) = 3.78526 3.93301 3.85984
# Velocity P-wave (km/s) = 6.46606 6.69153 6.57976
#
# Compressibility (1/GPa) = 0.02372498
#
# Stress axis : x y z
#
# Youngs Moduli (GPa) = 73.47957 43.00600 64.29420
#
# Poissons Ratio (x) = 0.29037 0.08922
# Poissons Ratio (y) = 0.49612 0.39899
# Poissons Ratio (z) = 0.10196 0.26688
#
# Static dielectric constant tensor:
#      x y z
#    x 3.477440 0.000000 -0.219150 
#    y 0.000000 3.242360 0.000000 
#    z -0.219150 0.000000 3.333300 
# 
# 
# High freq. dielectric constant tensor:
#      x y z
#    x 1.729140 0.000000 -0.005700 
#    y 0.000000 1.710760 0.000000 
#    z -0.005700 0.000000 1.720210 
# 
# From -- ./inp_files/72083.got.cif
#   From: 2010.06.25/outbox.cif.g09.slc.cpg/sg11_37_cif.got.tgz:72083.got - 2010.06.27 23:14:04.
