data_PCOD8077795
_publ_section_title
;
Structure prediction by ZEFSAII (Michael W. Deem and Ramdas Pophale) SiO2 
 PCOD8077795
Probable space group: P 21/M
;
_chemical_formula_sum "Si O2"
_cell_formula_units_Z 16
_cell_length_a 15.131602
_cell_length_b 8.911026
_cell_length_c 20.078036
_cell_angle_alpha 90.000000
_cell_angle_beta 160.158632
_cell_angle_gamma 90.000000
_cell_volume 918.898702
_symmetry_space_group_name_H-M "P 21/M"
_symmetry_group_IT_number 11
_symmetry_cell_setting 'monoclinic'
loop_
_space_group_symop_operation_xyz
x,y,z
-x,1/2+y,-z
-x,-y,-z
x,1/2-y,z
loop_
_atom_site_type_symbol
_atom_site_label
_atom_site_fract_x
_atom_site_fract_y
_atom_site_fract_z
Si Si1 0.729434 0.073170 0.121285
Si Si2 0.388030 0.080489 0.096679
Si Si3 0.767427 0.580651 0.872042
Si Si4 0.713960 0.926932 0.427597
O O1 0.690997 0.250000 0.092424
O O2 0.998327 0.026614 0.346652
O O3 0.734422 0.012077 0.050066
O O4 0.500000 0.000000 0.000000
O O5 0.454473 0.250000 0.120585
O O6 0.180533 0.080873 0.010893
O O7 0.653864 0.001557 0.312512
O O8 0.741575 0.750000 0.826490
O O9 0.494116 0.492633 0.665852
O O10 0.000000 0.500000 0.000000
O O11 0.677906 0.750000 0.397178
#
# Coordination Sequence:
#
# PCOD8077795 Si02
#       4
#     4   4   4   4
#     4  11  23  37  57  81 109 146 183 226 272 320
#     4   9  20  36  56  81 110 143 181 224 270 321
#     4   9  18  33  57  83 108 144 179 220 272 320
#     4   9  19  36  56  80 110 142 182 224 268 321
#
# _framework density 17.412147999999998
#
# number of rings (size 3 to 8) (size 9 to 14) (size 15 to 20)
#    1.500    1.000    0.000    2.250    0.000    5.000 
#    0.000    1.250    0.000    0.000    0.000    0.000 
#    0.000    0.000    0.000    0.000    0.000    0.000 
#
# Total GULP energy -198249.933874 kJ/mol
# GULP energy per Si atom -12390.620867 kJ/mol
# Density = 1.737252 g / cm^3
# Si number density = 17.412148 Si / 1000 Ang^3
#
#
#
# Elastic Constant Matrix: (Units=GPa)
#
#
# Indices 1 2 3 4 5 6 
#
# 1 55.1000 30.0663 17.3670 0.0000 0.0438 0.0000
# 2 30.0663 107.5479 52.6320 0.0000 0.1745 0.0000
# 3 17.3670 52.6320 74.5417 0.0000 2.1543 0.0000
# 4 0.0000 0.0000 0.0000 25.2925 0.0000 -2.4741
# 5 0.0438 0.1745 2.1543 0.0000 33.6850 0.0000
# 6 0.0000 0.0000 0.0000 -2.4741 0.0000 32.9106
#
#
#
# Elastic Compliance Matrix: (Units=1/GPa)
#
#
# Indices 1 2 3 4 5 6 
#
# 1 0.021482 -0.005432 -0.001171 0.000000 0.000075 0.000000
# 2 -0.005432 0.015592 -0.009759 0.000000 0.000550 0.000000
# 3 -0.001171 -0.009759 0.020616 0.000000 -0.001266 0.000000
# 4 0.000000 0.000000 0.000000 0.039830 0.000000 0.002994
# 5 0.000075 0.000550 -0.001266 0.000000 0.029765 0.000000
# 6 0.000000 0.000000 0.000000 0.002994 0.000000 0.030610
#
#
# Mechanical properties :
#
#
# Convention : Reuss Voigt Hill
#
# Bulk Modulus (GPa) = 40.05858 48.59111 44.32485
# Shear Modulus (GPa) = 25.13277 27.51926 26.32602
#
# Velocity S-wave (km/s) = 3.80334 3.97982 3.89258
# Velocity P-wave (km/s) = 6.50717 7.00611 6.76124
#
# Compressibility (1/GPa) = 0.02496344
#
# Stress axis : x y z
#
# Youngs Moduli (GPa) = 46.54992 64.13520 48.50667
#
# Poissons Ratio (x) = 0.34841 0.05682
# Poissons Ratio (y) = 0.25288 0.47340
# Poissons Ratio (z) = 0.05453 0.62592
#
# Static dielectric constant tensor:
#      x y z
#    x 3.126940 0.000000 -0.137250 
#    y 0.000000 3.456880 0.000000 
#    z -0.137250 0.000000 3.237110 
# 
# 
# High freq. dielectric constant tensor:
#      x y z
#    x 1.657330 0.000000 0.001580 
#    y 0.000000 1.696120 0.000000 
#    z 0.001580 0.000000 1.655610 
# 
# From -- ./inp_files/7397.got.cif
#   From: 2010.06.25/outbox.cif.g09.slc.cpg/sg11_4_cif.got.tgz:7397.got - 2010.06.27 23:14:04.
