data_PCOD8077656
_publ_section_title
;
Structure prediction by ZEFSAII (Michael W. Deem and Ramdas Pophale) SiO2 
 PCOD8077656
Probable space group: P 21/M
;
_chemical_formula_sum "Si O2"
_cell_formula_units_Z 32
_cell_length_a 9.288625
_cell_length_b 19.124767
_cell_length_c 15.313480
_cell_angle_alpha 90.000000
_cell_angle_beta 143.914738
_cell_angle_gamma 90.000000
_cell_volume 1602.242674
_symmetry_space_group_name_H-M "P 21/M"
_symmetry_group_IT_number 11
_symmetry_cell_setting 'monoclinic'
loop_
_space_group_symop_operation_xyz
x,y,z
-x,1/2+y,-z
-x,-y,-z
x,1/2-y,z
loop_
_atom_site_type_symbol
_atom_site_label
_atom_site_fract_x
_atom_site_fract_y
_atom_site_fract_z
Si Si1 0.459161 0.169567 0.171968
Si Si2 0.460217 0.558443 0.295703
Si Si3 0.754187 0.331088 0.143761
Si Si4 0.036561 0.450659 0.718531
Si Si5 0.604461 0.093337 0.406740
Si Si6 0.906066 0.936741 0.066466
Si Si7 0.547637 0.433783 0.897964
Si Si8 0.752212 0.905640 0.604075
O O1 0.383071 0.250000 0.130123
O O2 0.631648 0.148053 0.175731
O O3 0.589109 0.154630 0.327998
O O4 0.214939 0.122970 0.051951
O O5 0.575000 0.481307 0.345535
O O6 0.506452 0.597160 0.225590
O O7 0.580449 0.602200 0.434028
O O8 0.172628 0.547659 0.162366
O O9 0.717132 0.250000 0.104465
O O10 0.042713 0.346017 0.294084
O O11 0.630419 0.373059 0.003947
O O12 0.081194 0.407239 0.828800
O O13 0.298616 0.471218 0.807685
O O14 0.880872 0.401597 0.578217
O O15 0.880351 0.519084 0.666715
O O16 0.411261 0.102372 0.390115
O O17 0.757143 0.008734 0.993398
#
# Coordination Sequence:
#
# PCOD8077656 Si02
#       8
#     4   4   4   4   4   4   4   4
#     4  11  26  43  63  90 125 168 210 253 313 379
#     4  11  23  37  64  99 126 157 204 264 310 359
#     4  11  25  44  62  87 128 168 205 257 316 377
#     4  11  21  37  66  94 125 158 206 260 307 363
#     4  11  22  40  62  94 127 161 204 258 312 370
#     4  12  20  41  63  94 130 161 205 263 311 359
#     4  12  23  37  65  99 123 165 210 256 314 370
#     4  11  22  40  62  93 128 161 204 256 313 369
#
# _framework density 19.972006
#
# number of rings (size 3 to 8) (size 9 to 14) (size 15 to 20)
#    0.000    0.750    6.250    2.250    3.500    1.500 
#    0.000    2.500    0.000    0.000    0.000    0.000 
#    0.000    0.000    0.000    0.000    0.000    0.000 
#
# Total GULP energy -396827.317151 kJ/mol
# GULP energy per Si atom -12400.853661 kJ/mol
# Density = 1.992655 g / cm^3
# Si number density = 19.972006 Si / 1000 Ang^3
#
#
#
# Elastic Constant Matrix: (Units=GPa)
#
#
# Indices 1 2 3 4 5 6 
#
# 1 104.8711 24.2633 47.2289 0.0000 -14.8887 0.0000
# 2 24.2633 74.0901 37.3195 0.0000 -11.8633 0.0000
# 3 47.2289 37.3195 119.8561 0.0000 -12.8854 0.0000
# 4 0.0000 0.0000 0.0000 23.8879 0.0000 -6.3438
# 5 -14.8887 -11.8633 -12.8854 0.0000 45.9137 0.0000
# 6 0.0000 0.0000 0.0000 -6.3438 0.0000 15.6932
#
#
#
# Elastic Compliance Matrix: (Units=1/GPa)
#
#
# Indices 1 2 3 4 5 6 
#
# 1 0.012034 -0.001542 -0.004006 0.000000 0.002380 0.000000
# 2 -0.001542 0.016568 -0.004274 0.000000 0.002581 0.000000
# 3 -0.004006 -0.004274 0.011336 0.000000 0.000778 0.000000
# 4 0.000000 0.000000 0.000000 0.046897 0.000000 0.018957
# 5 0.002380 0.002581 0.000778 0.000000 0.023437 0.000000
# 6 0.000000 0.000000 0.000000 0.018957 0.000000 0.071385
#
#
# Mechanical properties :
#
#
# Convention : Reuss Voigt Hill
#
# Bulk Modulus (GPa) = 49.27311 57.38230 53.32770
# Shear Modulus (GPa) = 24.03084 29.76599 26.89841
#
# Velocity S-wave (km/s) = 3.47252 3.86474 3.67387
# Velocity P-wave (km/s) = 6.38768 6.97916 6.68996
#
# Compressibility (1/GPa) = 0.02029504
#
# Stress axis : x y z
#
# Youngs Moduli (GPa) = 83.09580 60.35701 88.21269
#
# Poissons Ratio (x) = 0.09308 0.35339
# Poissons Ratio (y) = 0.12814 0.37698
# Poissons Ratio (z) = 0.33289 0.25794
#
# Static dielectric constant tensor:
#      x y z
#    x 3.860230 0.000000 -0.188980 
#    y 0.000000 3.222610 0.000000 
#    z -0.188980 0.000000 4.201490 
# 
# 
# High freq. dielectric constant tensor:
#      x y z
#    x 1.794960 0.000000 -0.006820 
#    y 0.000000 1.731500 0.000000 
#    z -0.006820 0.000000 1.803770 
# 
# From -- ./inp_files/48271.got.cif
#   From: 2010.06.25/outbox.cif.g09.slc.cpg/sg11_25_cif.got.tgz:48271.got - 2010.06.27 23:14:04.
