data_PCOD8077375
_publ_section_title
;
Structure prediction by ZEFSAII (Michael W. Deem and Ramdas Pophale) SiO2 
 PCOD8077375
Probable space group: P 21/M
;
_chemical_formula_sum "Si O2"
_cell_formula_units_Z 28
_cell_length_a 20.494317
_cell_length_b 8.851070
_cell_length_c 9.339206
_cell_angle_alpha 90.000000
_cell_angle_beta 126.439199
_cell_angle_gamma 90.000000
_cell_volume 1362.882909
_symmetry_space_group_name_H-M "P 21/M"
_symmetry_group_IT_number 11
_symmetry_cell_setting 'monoclinic'
loop_
_space_group_symop_operation_xyz
x,y,z
-x,1/2+y,-z
-x,-y,-z
x,1/2-y,z
loop_
_atom_site_type_symbol
_atom_site_label
_atom_site_fract_x
_atom_site_fract_y
_atom_site_fract_z
Si Si1 0.935063 0.072019 0.312994
Si Si2 0.207113 0.927443 0.471353
Si Si3 0.622732 0.577104 0.815998
Si Si4 0.020479 0.572622 0.174233
Si Si5 0.488702 0.426235 0.830233
Si Si6 0.776982 0.576743 0.217337
Si Si7 0.332688 0.427036 0.444316
O O1 0.945088 0.250000 0.327916
O O2 0.845524 0.030524 0.244028
O O3 0.000000 0.000000 0.500000
O O4 0.952277 0.004675 0.181291
O O5 0.221273 0.750000 0.509208
O O6 0.111795 0.966663 0.341209
O O7 0.246436 0.017531 0.655532
O O8 0.251483 0.983890 0.384848
O O9 0.593178 0.750000 0.770956
O O10 0.552796 0.479198 0.795966
O O11 0.640561 0.516724 0.678751
O O12 0.701372 0.560329 0.015432
O O13 0.006196 0.750000 0.153121
O O14 0.000000 0.500000 0.000000
O O15 0.499793 0.250000 0.868035
O O16 0.400950 0.465135 0.650985
O O17 0.500000 0.500000 0.000000
O O18 0.806530 0.750000 0.265258
O O19 0.312634 0.250000 0.412192
#
# Coordination Sequence:
#
# PCOD8077375 Si02
#       7
#     4   4   4   4   4   4   4
#     4  12  24  41  65  93 125 165 212 263 316 375
#     4  11  24  41  62  91 124 163 209 257 311 371
#     4  10  23  42  64  93 125 160 204 253 308 368
#     4  11  25  43  63  91 126 166 212 263 320 376
#     4  11  23  40  65  94 125 164 206 250 305 366
#     4  11  23  40  64  92 123 163 209 258 314 373
#     4  10  23  42  63  90 126 165 204 253 311 369
#
# _framework density 20.544685000000001
#
# number of rings (size 3 to 8) (size 9 to 14) (size 15 to 20)
#    0.000    1.143    1.429    4.286    2.000    8.000 
#    0.000    0.000    0.000    0.000    0.000    0.000 
#    0.000    0.000    0.000    0.000    0.000    0.000 
#
# Total GULP energy -347309.531045 kJ/mol
# GULP energy per Si atom -12403.911823 kJ/mol
# Density = 2.049792 g / cm^3
# Si number density = 20.544685 Si / 1000 Ang^3
#
#
#
# Elastic Constant Matrix: (Units=GPa)
#
#
# Indices 1 2 3 4 5 6 
#
# 1 118.9366 45.1073 22.9435 0.0000 -19.9715 0.0000
# 2 45.1073 111.4265 48.1153 0.0000 -3.1319 0.0000
# 3 22.9435 48.1153 80.1353 0.0000 -23.6836 0.0000
# 4 0.0000 0.0000 0.0000 30.6926 0.0000 -3.6107
# 5 -19.9715 -3.1319 -23.6836 0.0000 37.6859 0.0000
# 6 0.0000 0.0000 0.0000 -3.6107 0.0000 43.9038
#
#
#
# Elastic Compliance Matrix: (Units=1/GPa)
#
#
# Indices 1 2 3 4 5 6 
#
# 1 0.011098 -0.005101 0.001840 0.000000 0.006614 0.000000
# 2 -0.005101 0.015079 -0.009852 0.000000 -0.007642 0.000000
# 3 0.001840 -0.009852 0.022000 0.000000 0.013982 0.000000
# 4 0.000000 0.000000 0.000000 0.032899 0.000000 0.002706
# 5 0.006614 -0.007642 0.013982 0.000000 0.038192 0.000000
# 6 0.000000 0.000000 0.000000 0.002706 0.000000 0.023000
#
#
# Mechanical properties :
#
#
# Convention : Reuss Voigt Hill
#
# Bulk Modulus (GPa) = 45.55597 60.31450 52.93524
# Shear Modulus (GPa) = 28.43970 35.41194 31.92582
#
# Velocity S-wave (km/s) = 3.72463 4.15620 3.94632
# Velocity P-wave (km/s) = 6.38118 7.24247 6.82542
#
# Compressibility (1/GPa) = 0.02195102
#
# Stress axis : x y z
#
# Youngs Moduli (GPa) = 90.10457 66.31759 45.45555
#
# Poissons Ratio (x) = 0.33832 -0.08365
# Poissons Ratio (y) = 0.45967 0.44781
# Poissons Ratio (z) = -0.16582 0.65334
#
# Static dielectric constant tensor:
#      x y z
#    x 3.645430 0.000000 -0.190480 
#    y 0.000000 3.752010 0.000000 
#    z -0.190480 0.000000 3.807940 
# 
# 
# High freq. dielectric constant tensor:
#      x y z
#    x 1.819500 0.000000 -0.008720 
#    y 0.000000 1.810050 0.000000 
#    z -0.008720 0.000000 1.812000 
# 
# From -- ./inp_files/26202.got.cif
#   From: 2010.06.25/outbox.cif.g09.slc.cpg/sg11_14_cif.got.tgz:26202.got - 2010.06.27 23:14:04.
