data_PCOD8077282
_publ_section_title
;
Structure prediction by ZEFSAII (Michael W. Deem and Ramdas Pophale) SiO2 
 PCOD8077282
Probable space group: P 21/M
;
_chemical_formula_sum "Si O2"
_cell_formula_units_Z 28
_cell_length_a 9.342362
_cell_length_b 24.572410
_cell_length_c 8.722827
_cell_angle_alpha 90.000000
_cell_angle_beta 42.798749
_cell_angle_gamma 90.000000
_cell_volume 1360.515231
_symmetry_space_group_name_H-M "P 21/M"
_symmetry_group_IT_number 11
_symmetry_cell_setting 'monoclinic'
loop_
_space_group_symop_operation_xyz
x,y,z
-x,1/2+y,-z
-x,-y,-z
x,1/2-y,z
loop_
_atom_site_type_symbol
_atom_site_label
_atom_site_fract_x
_atom_site_fract_y
_atom_site_fract_z
Si Si1 0.005226 0.188398 0.620354
Si Si2 0.143948 0.895128 0.687906
Si Si3 0.943156 0.092633 0.896464
Si Si4 0.271860 0.147027 0.141182
Si Si5 0.365352 0.810425 0.317979
Si Si6 0.699441 0.512520 0.447126
Si Si7 0.477945 0.947772 0.914099
O O1 0.021722 0.250000 0.671230
O O2 0.194836 0.179283 0.351240
O O3 0.022682 0.146798 0.747928
O O4 0.784825 0.178278 0.708966
O O5 0.321156 0.853523 0.487470
O O6 0.194753 0.955616 0.589010
O O7 0.918016 0.880538 0.799132
O O8 0.148611 0.890574 0.867340
O O9 0.764216 0.061206 0.941812
O O10 0.134931 0.050627 0.772488
O O11 0.444934 0.102883 0.049231
O O12 0.392896 0.186817 0.928668
O O13 0.322767 0.750000 0.417568
O O14 0.500000 0.500000 0.500000
O O15 0.630346 0.545692 0.649761
O O16 0.500000 0.000000 0.000000
#
# Coordination Sequence:
#
# PCOD8077282 Si02
#       7
#     4   4   4   4   4   4   4
#     4  10  22  42  67  96 129 170 222 276 323 386
#     4  11  26  40  68  97 138 169 216 269 330 389
#     4  12  25  44  65 101 133 173 221 270 329 398
#     4  11  22  42  67  98 129 171 220 267 323 390
#     4  10  22  43  69  95 130 175 221 269 326 387
#     4  12  26  43  66  95 136 176 211 268 333 392
#     4  12  25  39  68  97 132 174 221 263 324 391
#
# _framework density 20.580439999999999
#
# number of rings (size 3 to 8) (size 9 to 14) (size 15 to 20)
#    0.000    0.857    4.286    2.571    6.000    2.286 
#    0.000    0.000    0.000    0.000    0.000    0.000 
#    0.000    0.000    0.000    0.000    0.000    0.000 
#
# Total GULP energy -347344.397195 kJ/mol
# GULP energy per Si atom -12405.157043 kJ/mol
# Density = 2.053360 g / cm^3
# Si number density = 20.580440 Si / 1000 Ang^3
#
#
#
# Elastic Constant Matrix: (Units=GPa)
#
#
# Indices 1 2 3 4 5 6 
#
# 1 77.1056 31.3514 27.3088 0.0000 -5.4044 0.0000
# 2 31.3514 138.2443 49.7879 0.0000 1.9533 0.0000
# 3 27.3088 49.7879 118.3554 0.0000 -3.5530 0.0000
# 4 0.0000 0.0000 0.0000 34.3077 0.0000 -1.0367
# 5 -5.4044 1.9533 -3.5530 0.0000 33.5618 0.0000
# 6 0.0000 0.0000 0.0000 -1.0367 0.0000 20.5622
#
#
#
# Elastic Compliance Matrix: (Units=1/GPa)
#
#
# Indices 1 2 3 4 5 6 
#
# 1 0.015006 -0.002609 -0.002295 0.000000 0.002325 0.000000
# 2 -0.002609 0.009005 -0.003224 0.000000 -0.001286 0.000000
# 3 -0.002295 -0.003224 0.010363 0.000000 0.000915 0.000000
# 4 0.000000 0.000000 0.000000 0.029192 0.000000 0.001472
# 5 0.002325 -0.001286 0.000915 0.000000 0.030342 0.000000
# 6 0.000000 0.000000 0.000000 0.001472 0.000000 0.048707
#
#
# Mechanical properties :
#
#
# Convention : Reuss Voigt Hill
#
# Bulk Modulus (GPa) = 55.20093 61.17795 58.18944
# Shear Modulus (GPa) = 30.31936 32.70350 31.51143
#
# Velocity S-wave (km/s) = 3.84241 3.99062 3.91722
# Velocity P-wave (km/s) = 6.82391 7.14312 6.98534
#
# Compressibility (1/GPa) = 0.01811564
#
# Stress axis : x y z
#
# Youngs Moduli (GPa) = 66.63991 111.05188 96.50142
#
# Poissons Ratio (x) = 0.28979 0.22146
# Poissons Ratio (y) = 0.17389 0.31117
# Poissons Ratio (z) = 0.15293 0.35809
#
# Static dielectric constant tensor:
#      x y z
#    x 3.538860 0.000000 -0.065820 
#    y 0.000000 3.786180 0.000000 
#    z -0.065820 0.000000 4.014050 
# 
# 
# High freq. dielectric constant tensor:
#      x y z
#    x 1.789910 0.000000 -0.006580 
#    y 0.000000 1.816390 0.000000 
#    z -0.006580 0.000000 1.820650 
# 
# From -- ./inp_files/15256.got.cif
#   From: 2010.06.25/outbox.cif.g09.slc.cpg/sg11_8_cif.got.tgz:15256.got - 2010.06.27 23:14:04.
