data_PCOD8077422
_publ_section_title
;
Structure prediction by ZEFSAII (Michael W. Deem and Ramdas Pophale) SiO2 
 PCOD8077422
Probable space group: P 21/M
;
_chemical_formula_sum "Si O2"
_cell_formula_units_Z 24
_cell_length_a 21.533459
_cell_length_b 11.684968
_cell_length_c 13.526665
_cell_angle_alpha 90.000000
_cell_angle_beta 160.502690
_cell_angle_gamma 90.000000
_cell_volume 1135.977508
_symmetry_space_group_name_H-M "P 21/M"
_symmetry_group_IT_number 11
_symmetry_cell_setting 'monoclinic'
loop_
_space_group_symop_operation_xyz
x,y,z
-x,1/2+y,-z
-x,-y,-z
x,1/2-y,z
loop_
_atom_site_type_symbol
_atom_site_label
_atom_site_fract_x
_atom_site_fract_y
_atom_site_fract_z
Si Si1 0.608598 0.009207 0.808794
Si Si2 0.759003 0.621762 0.378326
Si Si3 0.729055 0.619341 0.804589
Si Si4 0.037234 0.880423 0.617012
Si Si5 0.480981 0.622761 0.804973
Si Si6 0.911617 0.456588 0.765871
O O1 0.408913 0.043830 0.467804
O O2 0.713259 0.919057 0.894383
O O3 0.576036 0.953275 0.865077
O O4 0.744089 0.117659 0.026450
O O5 0.736786 0.750000 0.382868
O O6 0.808563 0.557415 0.553053
O O7 0.923264 0.608350 0.546189
O O8 0.564379 0.580143 0.035741
O O9 0.669335 0.750000 0.706985
O O10 0.937468 0.603974 0.076858
O O11 0.001860 0.750000 0.516816
O O12 0.000000 0.000000 0.500000
O O13 0.558417 0.750000 0.903181
O O14 0.257367 0.629066 0.463893
O O15 0.000000 0.500000 0.000000
#
# Coordination Sequence:
#
# PCOD8077422 Si02
#       6
#     4   4   4   4   4   4
#     4  11  22  42  64  95 130 170 222 269 338 406
#     4  10  23  43  67  95 133 175 220 273 339 408
#     4  11  24  41  63  94 131 169 219 280 333 398
#     4  11  22  40  69 101 134 173 220 276 337 404
#     4  11  23  42  68  96 131 174 221 280 342 405
#     4  12  24  44  64  95 130 173 227 274 333 404
#
# _framework density 21.127179000000002
#
# number of rings (size 3 to 8) (size 9 to 14) (size 15 to 20)
#    0.000    1.000    5.000    2.000    0.000    2.000 
#    0.000    0.000    0.000    0.000    0.000    0.000 
#    0.000    0.000    0.000    0.000    0.000    0.000 
#
# Total GULP energy -297397.207736 kJ/mol
# GULP energy per Si atom -12391.550322 kJ/mol
# Density = 2.107909 g / cm^3
# Si number density = 21.127179 Si / 1000 Ang^3
#
#
#
# Elastic Constant Matrix: (Units=GPa)
#
#
# Indices 1 2 3 4 5 6 
#
# 1 75.2520 38.0468 32.8710 0.0000 -7.4693 0.0000
# 2 38.0468 108.1257 23.5099 0.0000 -16.1905 0.0000
# 3 32.8710 23.5099 127.7494 0.0000 -0.4855 0.0000
# 4 0.0000 0.0000 0.0000 27.7383 0.0000 -4.6971
# 5 -7.4693 -16.1905 -0.4855 0.0000 44.0294 0.0000
# 6 0.0000 0.0000 0.0000 -4.6971 0.0000 13.1148
#
#
#
# Elastic Compliance Matrix: (Units=1/GPa)
#
#
# Indices 1 2 3 4 5 6 
#
# 1 0.017608 -0.005271 -0.003557 0.000000 0.001009 0.000000
# 2 -0.005271 0.011791 -0.000801 0.000000 0.003433 0.000000
# 3 -0.003557 -0.000801 0.008887 0.000000 -0.000800 0.000000
# 4 0.000000 0.000000 0.000000 0.038379 0.000000 0.013746
# 5 0.001009 0.003433 -0.000800 0.000000 0.024137 0.000000
# 6 0.000000 0.000000 0.000000 0.013746 0.000000 0.081173
#
#
# Mechanical properties :
#
#
# Convention : Reuss Voigt Hill
#
# Bulk Modulus (GPa) = 52.55057 55.55362 54.05209
# Shear Modulus (GPa) = 24.08769 31.42312 27.75541
#
# Velocity S-wave (km/s) = 3.38024 3.86078 3.62847
# Velocity P-wave (km/s) = 6.33736 6.79898 6.57222
#
# Compressibility (1/GPa) = 0.01902929
#
# Stress axis : x y z
#
# Youngs Moduli (GPa) = 56.79383 84.80751 112.52028
#
# Poissons Ratio (x) = 0.44704 0.40020
# Poissons Ratio (y) = 0.29937 0.09009
# Poissons Ratio (z) = 0.20200 0.06790
#
# Static dielectric constant tensor:
#      x y z
#    x 3.709310 0.000000 0.092160 
#    y 0.000000 3.883550 0.000000 
#    z 0.092160 0.000000 4.217320 
# 
# 
# High freq. dielectric constant tensor:
#      x y z
#    x 1.823380 0.000000 0.006600 
#    y 0.000000 1.826440 0.000000 
#    z 0.006600 0.000000 1.849960 
# 
# From -- ./inp_files/55844.got.cif
#   From: 2010.06.25/outbox.cif.g09.slc.cpg/sg11_28_cif.got.tgz:55844.got - 2010.06.27 23:14:04.
