data_PCOD8077476
_publ_section_title
;
Structure prediction by ZEFSAII (Michael W. Deem and Ramdas Pophale) SiO2 
 PCOD8077476
Probable space group: P 21/M
;
_chemical_formula_sum "Si O2"
_cell_formula_units_Z 32
_cell_length_a 15.379122
_cell_length_b 8.386230
_cell_length_c 11.934792
_cell_angle_alpha 90.000000
_cell_angle_beta 89.320554
_cell_angle_gamma 90.000000
_cell_volume 1539.155961
_symmetry_space_group_name_H-M "P 21/M"
_symmetry_group_IT_number 11
_symmetry_cell_setting 'monoclinic'
loop_
_space_group_symop_operation_xyz
x,y,z
-x,1/2+y,-z
-x,-y,-z
x,1/2-y,z
loop_
_atom_site_type_symbol
_atom_site_label
_atom_site_fract_x
_atom_site_fract_y
_atom_site_fract_z
Si Si1 0.646824 0.935006 0.784493
Si Si2 0.093898 0.432311 0.482925
Si Si3 0.171664 0.566649 0.266131
Si Si4 0.143822 0.067236 0.732806
Si Si5 0.336332 0.065122 0.766324
Si Si6 0.494036 0.563904 0.624945
Si Si7 0.985585 0.936482 0.875308
Si Si8 0.595075 0.434417 0.012077
O O1 0.628253 0.750000 0.811827
O O2 0.574004 0.002669 0.699250
O O3 0.743535 0.955545 0.737071
O O4 0.645630 0.040918 0.896115
O O5 0.091863 0.250000 0.439276
O O6 0.137587 0.546143 0.391912
O O7 0.142150 0.446507 0.599516
O O8 0.000000 0.500000 0.500000
O O9 0.196560 0.750000 0.245001
O O10 0.099582 0.517983 0.175912
O O11 0.132513 0.250000 0.772370
O O12 0.238525 0.997310 0.760470
O O13 0.069435 0.967341 0.796182
O O14 0.338531 0.250000 0.733791
O O15 0.401446 0.977110 0.680887
O O16 0.361578 0.040128 0.893667
O O17 0.500000 0.500000 0.500000
O O18 0.504795 0.750000 0.617206
O O19 0.968045 0.750000 0.881034
O O20 0.000000 0.000000 0.000000
O O21 0.595059 0.250000 0.047934
O O22 0.500000 0.500000 0.000000
#
# Coordination Sequence:
#
# PCOD8077476 Si02
#       8
#     4   4   4   4   4   4   4   4
#     4  11  25  45  68  96 130 173 221 271 328 389
#     4  11  22  41  68  97 130 169 217 270 324 384
#     4  12  26  44  67  98 133 172 220 270 326 392
#     4  10  24  44  67  96 132 172 217 266 324 387
#     4  11  24  43  68  97 132 173 218 269 327 388
#     4  11  25  44  67  95 133 173 218 269 327 391
#     4  12  26  45  69  95 132 174 218 270 328 390
#     4  12  24  42  68  97 130 170 218 272 328 388
#
# _framework density 20.790616
#
# number of rings (size 3 to 8) (size 9 to 14) (size 15 to 20)
#    0.000    0.750    2.500    4.875    3.500    3.000 
#    0.000    0.000    0.000    0.000    0.000    0.000 
#    0.000    0.000    0.000    0.000    0.000    0.000 
#
# Total GULP energy -396913.353507 kJ/mol
# GULP energy per Si atom -12403.542297 kJ/mol
# Density = 2.074330 g / cm^3
# Si number density = 20.790616 Si / 1000 Ang^3
#
#
#
# Elastic Constant Matrix: (Units=GPa)
#
#
# Indices 1 2 3 4 5 6 
#
# 1 118.9720 11.7520 23.8751 0.0000 6.1923 0.0000
# 2 11.7520 74.3740 18.3660 0.0000 4.0024 0.0000
# 3 23.8751 18.3660 109.7286 0.0000 0.0516 0.0000
# 4 0.0000 0.0000 0.0000 37.2264 0.0000 -5.1972
# 5 6.1923 4.0024 0.0516 0.0000 35.3861 0.0000
# 6 0.0000 0.0000 0.0000 -5.1972 0.0000 32.3600
#
#
#
# Elastic Compliance Matrix: (Units=1/GPa)
#
#
# Indices 1 2 3 4 5 6 
#
# 1 0.008929 -0.000890 -0.001793 0.000000 -0.001459 0.000000
# 2 -0.000890 0.014203 -0.002183 0.000000 -0.001448 0.000000
# 3 -0.001793 -0.002183 0.009869 0.000000 0.000546 0.000000
# 4 0.000000 0.000000 0.000000 0.027479 0.000000 0.004413
# 5 -0.001459 -0.001448 0.000546 0.000000 0.028678 0.000000
# 6 0.000000 0.000000 0.000000 0.004413 0.000000 0.031611
#
#
# Mechanical properties :
#
#
# Convention : Reuss Voigt Hill
#
# Bulk Modulus (GPa) = 42.97525 45.67343 44.32434
# Shear Modulus (GPa) = 36.16460 37.59993 36.88226
#
# Velocity S-wave (km/s) = 4.17522 4.25727 4.21644
# Velocity P-wave (km/s) = 6.63013 6.79571 6.71343
#
# Compressibility (1/GPa) = 0.02326921
#
# Stress axis : x y z
#
# Youngs Moduli (GPa) = 111.99439 70.40714 101.33047
#
# Poissons Ratio (x) = 0.06263 0.18171
# Poissons Ratio (y) = 0.09962 0.22121
# Poissons Ratio (z) = 0.20083 0.15370
#
# Static dielectric constant tensor:
#      x y z
#    x 6.746780 0.000000 2.125980 
#    y 0.000000 4.342010 0.000000 
#    z 2.125980 0.000000 5.190740 
# 
# 
# High freq. dielectric constant tensor:
#      x y z
#    x 1.826680 0.000000 0.001880 
#    y 0.000000 1.819580 0.000000 
#    z 0.001880 0.000000 1.827090 
# 
# From -- ./inp_files/38272.got.cif
#   From: 2010.06.25/outbox.cif.g09.slc.cpg/sg11_20_cif.got.tgz:38272.got - 2010.06.27 23:14:04.
