data_PCOD8077950
_publ_section_title
;
Structure prediction by ZEFSAII (Michael W. Deem and Ramdas Pophale) SiO2 
 PCOD8077950
Probable space group: P 21/M
;
_chemical_formula_sum "Si O2"
_cell_formula_units_Z 28
_cell_length_a 20.613481
_cell_length_b 9.131639
_cell_length_c 18.233414
_cell_angle_alpha 90.000000
_cell_angle_beta 27.045003
_cell_angle_gamma 90.000000
_cell_volume 1560.571458
_symmetry_space_group_name_H-M "P 21/M"
_symmetry_group_IT_number 11
_symmetry_cell_setting 'monoclinic'
loop_
_space_group_symop_operation_xyz
x,y,z
-x,1/2+y,-z
-x,-y,-z
x,1/2-y,z
loop_
_atom_site_type_symbol
_atom_site_label
_atom_site_fract_x
_atom_site_fract_y
_atom_site_fract_z
Si Si1 0.334478 0.421440 0.594596
Si Si2 0.662605 0.078199 0.261416
Si Si3 0.163449 0.424762 0.625541
Si Si4 0.326295 0.924025 0.029214
Si Si5 0.650025 0.921092 0.854545
Si Si6 0.842421 0.075880 0.943131
Si Si7 0.350282 0.419879 0.305963
O O1 0.314518 0.250000 0.627215
O O2 0.281734 0.501697 0.720907
O O3 0.498011 0.460919 0.411759
O O4 0.238658 0.479041 0.624097
O O5 0.685074 0.250000 0.248717
O O6 0.754027 0.015768 0.101562
O O7 0.161490 0.250000 0.623938
O O8 0.249846 0.492016 0.469146
O O9 0.002754 0.486517 0.785213
O O10 0.320148 0.750000 0.046563
O O11 0.488069 0.981533 0.853023
O O12 0.230761 0.978834 0.057938
O O13 0.263569 0.001231 0.166233
O O14 0.629816 0.750000 0.891920
O O15 0.722037 0.943758 0.701646
O O16 0.500000 0.000000 0.000000
O O17 0.840532 0.250000 0.946676
O O18 0.363209 0.250000 0.311580
#
# Coordination Sequence:
#
# PCOD8077950 Si02
#       7
#     4   4   4   4   4   4   4
#     4   9  17  29  47  68  88 112 144 181 220 261
#     4   9  17  30  47  67  90 114 143 181 221 260
#     4   9  16  27  44  66  88 113 149 185 214 253
#     4   9  16  28  46  67  89 114 146 183 221 258
#     4   9  16  27  45  69  92 115 146 183 222 260
#     4   9  17  28  44  65  88 116 150 183 214 255
#     4   8  14  25  43  64  86 112 143 179 216 256
#
# _framework density 17.942143999999999
#
# number of rings (size 3 to 8) (size 9 to 14) (size 15 to 20)
#    0.000    3.143    0.000    2.143    0.000    4.000 
#    0.000    1.429    0.000   10.286    0.000    0.000 
#    0.000    0.000    0.000    0.000    0.000    0.000 
#
# Total GULP energy -347032.110219 kJ/mol
# GULP energy per Si atom -12394.003936 kJ/mol
# Density = 1.790131 g / cm^3
# Si number density = 17.942144 Si / 1000 Ang^3
#
#
#
# Elastic Constant Matrix: (Units=GPa)
#
#
# Indices 1 2 3 4 5 6 
#
# 1 183.3732 35.2982 97.1637 0.0000 23.2720 0.0000
# 2 35.2982 30.2154 21.4985 0.0000 8.1386 0.0000
# 3 97.1637 21.4985 90.7791 0.0000 5.1641 0.0000
# 4 0.0000 0.0000 0.0000 13.2008 0.0000 7.0454
# 5 23.2720 8.1386 5.1641 0.0000 23.5133 0.0000
# 6 0.0000 0.0000 0.0000 7.0454 0.0000 26.7793
#
#
#
# Elastic Compliance Matrix: (Units=1/GPa)
#
#
# Indices 1 2 3 4 5 6 
#
# 1 0.015701 -0.004767 -0.015075 0.000000 -0.010579 0.000000
# 2 -0.004767 0.044804 -0.004956 0.000000 -0.009701 0.000000
# 3 -0.015075 -0.004956 0.027725 0.000000 0.010547 0.000000
# 4 0.000000 0.000000 0.000000 0.088128 0.000000 -0.023186
# 5 -0.010579 -0.009701 0.010547 0.000000 0.054041 0.000000
# 6 0.000000 0.000000 0.000000 -0.023186 0.000000 0.043442
#
#
# Mechanical properties :
#
#
# Convention : Reuss Voigt Hill
#
# Bulk Modulus (GPa) = 25.88423 68.03207 46.95815
# Shear Modulus (GPa) = 14.86697 22.72582 18.79640
#
# Velocity S-wave (km/s) = 2.88168 3.56282 3.24019
# Velocity P-wave (km/s) = 5.05271 7.41112 6.34250
#
# Compressibility (1/GPa) = 0.03863355
#
# Stress axis : x y z
#
# Youngs Moduli (GPa) = 63.68896 22.31930 36.06901
#
# Poissons Ratio (x) = 0.10640 0.54373
# Poissons Ratio (y) = 0.30362 0.17877
# Poissons Ratio (z) = 0.96010 0.11062
#
# Static dielectric constant tensor:
#      x y z
#    x 3.741610 0.000000 0.243360 
#    y 0.000000 2.951150 0.000000 
#    z 0.243360 0.000000 3.448200 
# 
# 
# High freq. dielectric constant tensor:
#      x y z
#    x 1.706610 0.000000 0.018840 
#    y 0.000000 1.644850 0.000000 
#    z 0.018840 0.000000 1.681230 
# 
# From -- ./inp_files/26449.got.cif
#   From: 2010.06.25/outbox.cif.g09.slc.cpg/sg11_14_cif.got.tgz:26449.got - 2010.06.27 23:14:04.
