data_PCOD8077173
_publ_section_title
;
Structure prediction by ZEFSAII (Michael W. Deem and Ramdas Pophale) SiO2 
 PCOD8077173
Probable space group: P 21/M
;
_chemical_formula_sum "Si O2"
_cell_formula_units_Z 28
_cell_length_a 26.903191
_cell_length_b 8.857467
_cell_length_c 9.273452
_cell_angle_alpha 90.000000
_cell_angle_beta 39.182857
_cell_angle_gamma 90.000000
_cell_volume 1396.151693
_symmetry_space_group_name_H-M "P 21/M"
_symmetry_group_IT_number 11
_symmetry_cell_setting 'monoclinic'
loop_
_space_group_symop_operation_xyz
x,y,z
-x,1/2+y,-z
-x,-y,-z
x,1/2-y,z
loop_
_atom_site_type_symbol
_atom_site_label
_atom_site_fract_x
_atom_site_fract_y
_atom_site_fract_z
Si Si1 0.841436 0.426865 0.693369
Si Si2 0.132724 0.571541 0.036436
Si Si3 0.006565 0.571708 0.828117
Si Si4 0.463947 0.417489 0.713921
Si Si5 0.565682 0.079276 0.759445
Si Si6 0.727350 0.928491 0.451570
Si Si7 0.293730 0.071604 0.176224
O O1 0.826297 0.250000 0.724728
O O2 0.761454 0.505923 0.823943
O O3 0.910384 0.473908 0.428653
O O4 0.862895 0.479474 0.806649
O O5 0.121501 0.750000 0.046636
O O6 0.211160 0.522164 0.779310
O O7 0.059659 0.488729 0.129190
O O8 0.996898 0.750000 0.865109
O O9 0.000000 0.500000 0.000000
O O10 0.500000 0.500000 0.500000
O O11 0.441795 0.250000 0.713901
O O12 0.533422 0.415363 0.671842
O O13 0.382677 0.492244 0.955206
O O14 0.583400 0.250000 0.774912
O O15 0.641900 0.974796 0.588529
O O16 0.500000 0.000000 0.000000
O O17 0.739534 0.750000 0.402283
O O18 0.736980 0.977005 0.596879
O O19 0.292833 0.250000 0.167743
#
# Coordination Sequence:
#
# PCOD8077173 Si02
#       7
#     4   4   4   4   4   4   4
#     4  10  24  42  62  90 126 162 201 248 303 363
#     4  11  24  42  63  93 127 160 201 252 304 361
#     4  11  23  42  67  95 125 163 205 248 301 362
#     4  10  23  41  59  86 121 159 204 256 308 365
#     4  11  22  40  63  89 122 160 206 258 310 365
#     4  11  23  41  63  90 123 161 207 255 307 367
#     4  10  22  41  61  86 121 159 203 252 303 361
#
# _framework density 20.055128
#
# number of rings (size 3 to 8) (size 9 to 14) (size 15 to 20)
#    0.000    1.429    1.429    3.000    2.000    7.429 
#    0.000    0.000    0.000    0.000    0.000    0.000 
#    0.000    0.000    0.000    0.000    0.000    0.000 
#
# Total GULP energy -347262.982991 kJ/mol
# GULP energy per Si atom -12402.249393 kJ/mol
# Density = 2.000948 g / cm^3
# Si number density = 20.055128 Si / 1000 Ang^3
#
#
#
# Elastic Constant Matrix: (Units=GPa)
#
#
# Indices 1 2 3 4 5 6 
#
# 1 132.0167 34.6652 48.4028 0.0000 3.6705 0.0000
# 2 34.6652 46.7271 35.3652 0.0000 11.4955 0.0000
# 3 48.4028 35.3652 105.9955 0.0000 15.9522 0.0000
# 4 0.0000 0.0000 0.0000 35.6163 0.0000 -0.7560
# 5 3.6705 11.4955 15.9522 0.0000 40.1612 0.0000
# 6 0.0000 0.0000 0.0000 -0.7560 0.0000 40.3751
#
#
#
# Elastic Compliance Matrix: (Units=1/GPa)
#
#
# Indices 1 2 3 4 5 6 
#
# 1 0.010121 -0.005701 -0.003006 0.000000 0.001901 0.000000
# 2 -0.005701 0.032694 -0.007418 0.000000 -0.005890 0.000000
# 3 -0.003006 -0.007418 0.013743 0.000000 -0.003061 0.000000
# 4 0.000000 0.000000 0.000000 0.028088 0.000000 0.000526
# 5 0.001901 -0.005890 -0.003061 0.000000 0.027628 0.000000
# 6 0.000000 0.000000 0.000000 0.000526 0.000000 0.024778
#
#
# Mechanical properties :
#
#
# Convention : Reuss Voigt Hill
#
# Bulk Modulus (GPa) = 41.13987 57.95619 49.54803
# Shear Modulus (GPa) = 28.18426 34.31758 31.25092
#
# Velocity S-wave (km/s) = 3.75285 4.14111 3.95175
# Velocity P-wave (km/s) = 6.27188 7.19904 6.75139
#
# Compressibility (1/GPa) = 0.02430732
#
# Stress axis : x y z
#
# Youngs Moduli (GPa) = 98.80486 30.58654 72.76646
#
# Poissons Ratio (x) = 0.17438 0.21871
# Poissons Ratio (y) = 0.56331 0.53981
# Poissons Ratio (z) = 0.29697 0.22690
#
# Static dielectric constant tensor:
#      x y z
#    x 3.580130 0.000000 0.439710 
#    y 0.000000 3.716240 0.000000 
#    z 0.439710 0.000000 4.060860 
# 
# 
# High freq. dielectric constant tensor:
#      x y z
#    x 1.795060 0.000000 -0.001350 
#    y 0.000000 1.785120 0.000000 
#    z -0.001350 0.000000 1.796350 
# 
# From -- ./inp_files/28461.got.cif
#   From: 2010.06.25/outbox.cif.g09.slc.cpg/sg11_15_cif.got.tgz:28461.got - 2010.06.27 23:14:04.
