data_PCOD8077592
_publ_section_title
;
Structure prediction by ZEFSAII (Michael W. Deem and Ramdas Pophale) SiO2 
 PCOD8077592
Probable space group: P 21/M
;
_chemical_formula_sum "Si O2"
_cell_formula_units_Z 32
_cell_length_a 14.149098
_cell_length_b 8.924536
_cell_length_c 16.251316
_cell_angle_alpha 90.000000
_cell_angle_beta 92.839324
_cell_angle_gamma 90.000000
_cell_volume 2049.601627
_symmetry_space_group_name_H-M "P 21/M"
_symmetry_group_IT_number 11
_symmetry_cell_setting 'monoclinic'
loop_
_space_group_symop_operation_xyz
x,y,z
-x,1/2+y,-z
-x,-y,-z
x,1/2-y,z
loop_
_atom_site_type_symbol
_atom_site_label
_atom_site_fract_x
_atom_site_fract_y
_atom_site_fract_z
Si Si1 0.031827 0.424507 0.419043
Si Si2 0.636581 0.084404 0.043639
Si Si3 0.161815 0.574708 0.644179
Si Si4 0.226877 0.073816 0.479717
Si Si5 0.427117 0.083538 0.106286
Si Si6 0.313348 0.926908 0.779956
Si Si7 0.505136 0.072289 0.735128
Si Si8 0.431198 0.071252 0.430553
O O1 0.027578 0.250000 0.434352
O O2 0.142268 0.470167 0.410249
O O3 0.000000 0.500000 0.500000
O O4 0.950648 0.468469 0.348281
O O5 0.668506 0.250000 0.017323
O O6 0.529394 0.088372 0.070016
O O7 0.699394 0.028574 0.124191
O O8 0.647387 0.977176 0.965043
O O9 0.173528 0.750000 0.628705
O O10 0.209098 0.496059 0.568175
O O11 0.216711 0.528460 0.729491
O O12 0.231268 0.250000 0.493803
O O13 0.325148 0.016612 0.446927
O O14 0.394971 0.250000 0.131587
O O15 0.428777 0.975800 0.185435
O O16 0.337825 0.750000 0.774240
O O17 0.397696 0.019855 0.742716
O O18 0.508104 0.250000 0.724797
O O19 0.545528 0.992170 0.657227
O O20 0.441799 0.250000 0.431658
O O21 0.500000 0.000000 0.500000
#
# Coordination Sequence:
#
# PCOD8077592 Si02
#       8
#     4   4   4   4   4   4   4   4
#     4   8  14  26  42  60  79 101 131 165 202 243
#     4   8  14  24  38  57  81 107 134 163 197 239
#     4   9  16  26  43  63  83 107 134 165 201 242
#     4   9  18  30  43  58  79 107 138 172 207 241
#     4   9  16  27  42  58  78 105 137 171 203 238
#     4   9  17  28  41  60  86 113 138 166 201 242
#     4  11  21  31  43  59  80 110 144 175 206 240
#     4  11  22  34  45  59  81 110 143 177 209 240
#
# _framework density 15.61279
#
# number of rings (size 3 to 8) (size 9 to 14) (size 15 to 20)
#    0.000    2.750    0.000    3.375    0.000    6.500 
#    0.000    0.000    0.000    0.000    0.000    0.000 
#    0.000    1.000    0.000    1.750    0.000    2.750 
#
# Total GULP energy -396418.562641 kJ/mol
# GULP energy per Si atom -12388.080083 kJ/mol
# Density = 1.557725 g / cm^3
# Si number density = 15.612790 Si / 1000 Ang^3
#
#
#
# Elastic Constant Matrix: (Units=GPa)
#
#
# Indices 1 2 3 4 5 6 
#
# 1 105.5093 33.3676 59.4652 0.0000 24.4469 0.0000
# 2 33.3676 54.7068 29.4170 0.0000 6.2461 0.0000
# 3 59.4652 29.4170 97.8212 0.0000 26.4889 0.0000
# 4 0.0000 0.0000 0.0000 24.8583 0.0000 2.6171
# 5 24.4469 6.2461 26.4889 0.0000 22.9295 0.0000
# 6 0.0000 0.0000 0.0000 2.6171 0.0000 14.2505
#
#
#
# Elastic Compliance Matrix: (Units=1/GPa)
#
#
# Indices 1 2 3 4 5 6 
#
# 1 0.016933 -0.006079 -0.005858 0.000000 -0.009631 0.000000
# 2 -0.006079 0.024077 -0.005129 0.000000 0.005847 0.000000
# 3 -0.005858 -0.005129 0.019291 0.000000 -0.014643 0.000000
# 4 0.000000 0.000000 0.000000 0.041021 0.000000 -0.007534
# 5 -0.009631 0.005847 -0.014643 0.000000 0.069204 0.000000
# 6 0.000000 0.000000 0.000000 -0.007534 0.000000 0.071556
#
#
# Mechanical properties :
#
#
# Convention : Reuss Voigt Hill
#
# Bulk Modulus (GPa) = 38.20962 55.83744 47.02353
# Shear Modulus (GPa) = 17.54776 21.46016 19.50396
#
# Velocity S-wave (km/s) = 3.35615 3.71148 3.53828
# Velocity P-wave (km/s) = 6.28846 7.36263 6.84664
#
# Compressibility (1/GPa) = 0.02617142
#
# Stress axis : x y z
#
# Youngs Moduli (GPa) = 59.05575 41.53326 51.83726
#
# Poissons Ratio (x) = 0.25247 0.30364
# Poissons Ratio (y) = 0.35899 0.26585
# Poissons Ratio (z) = 0.34593 0.21301
#
# Static dielectric constant tensor:
#      x y z
#    x 3.272730 0.000000 0.433380 
#    y 0.000000 3.084760 0.000000 
#    z 0.433380 0.000000 3.145900 
# 
# 
# High freq. dielectric constant tensor:
#      x y z
#    x 1.570420 0.000000 0.033150 
#    y 0.000000 1.605510 0.000000 
#    z 0.033150 0.000000 1.583970 
# 
# From -- ./inp_files/51340.got.cif
#   From: 2010.06.25/outbox.cif.g09.slc.cpg/sg11_26_cif.got.tgz:51340.got - 2010.06.27 23:14:04.
