data_PCOD8077561
_publ_section_title
;
Structure prediction by ZEFSAII (Michael W. Deem and Ramdas Pophale) SiO2 
 PCOD8077561
Probable space group: P 21/M
;
_chemical_formula_sum "Si O2"
_cell_formula_units_Z 28
_cell_length_a 15.805289
_cell_length_b 8.485589
_cell_length_c 11.908140
_cell_angle_alpha 90.000000
_cell_angle_beta 123.743769
_cell_angle_gamma 90.000000
_cell_volume 1328.025158
_symmetry_space_group_name_H-M "P 21/M"
_symmetry_group_IT_number 11
_symmetry_cell_setting 'monoclinic'
loop_
_space_group_symop_operation_xyz
x,y,z
-x,1/2+y,-z
-x,-y,-z
x,1/2-y,z
loop_
_atom_site_type_symbol
_atom_site_label
_atom_site_fract_x
_atom_site_fract_y
_atom_site_fract_z
Si Si1 0.386469 0.934897 0.410246
Si Si2 0.533639 0.937547 0.144020
Si Si3 0.644504 0.935547 0.847760
Si Si4 0.171214 0.437368 0.859491
Si Si5 0.762879 0.563767 0.329126
Si Si6 0.797101 0.565177 0.600174
Si Si7 0.984921 0.065472 0.865539
O O1 0.387634 0.750000 0.432567
O O2 0.500000 0.000000 0.500000
O O3 0.335203 0.974408 0.253160
O O4 0.318240 0.017957 0.455080
O O5 0.522876 0.750000 0.142780
O O6 0.647727 0.998173 0.247824
O O7 0.466406 0.018017 0.190263
O O8 0.500000 0.000000 0.000000
O O9 0.650649 0.750000 0.830059
O O10 0.729412 0.992501 0.998776
O O11 0.166909 0.250000 0.853453
O O12 0.178573 0.505213 0.737287
O O13 0.070524 0.506610 0.845017
O O14 0.758346 0.750000 0.314308
O O15 0.818439 0.515316 0.486095
O O16 0.812103 0.750000 0.628730
O O17 0.874105 0.474370 0.737432
O O18 0.999083 0.250000 0.883458
O O19 0.000000 0.000000 0.000000
#
# Coordination Sequence:
#
# PCOD8077561 Si02
#       7
#     4   4   4   4   4   4   4
#     4  12  25  42  63  90 125 163 210 256 308 373
#     4  11  20  34  57  87 124 166 209 255 310 371
#     4  11  21  37  62  90 123 161 208 260 315 373
#     4   9  19  37  61  88 117 158 204 253 310 368
#     4   9  19  37  60  86 120 162 206 249 306 375
#     4  11  23  41  65  91 125 165 204 254 317 376
#     4  11  23  41  66  91 121 159 209 262 317 378
#
# _framework density 21.083938
#
# number of rings (size 3 to 8) (size 9 to 14) (size 15 to 20)
#    0.000    1.429    1.429    4.714    0.000    2.857 
#    0.000    4.286    0.000    0.000    0.000    0.000 
#    0.000    0.000    0.000    0.000    0.000    0.000 
#
# Total GULP energy -347256.901854 kJ/mol
# GULP energy per Si atom -12402.032209 kJ/mol
# Density = 2.103595 g / cm^3
# Si number density = 21.083938 Si / 1000 Ang^3
#
#
#
# Elastic Constant Matrix: (Units=GPa)
#
#
# Indices 1 2 3 4 5 6 
#
# 1 146.6050 14.8480 55.1046 0.0000 -11.7599 0.0000
# 2 14.8480 45.3863 18.8018 0.0000 -5.0533 0.0000
# 3 55.1046 18.8018 130.8225 0.0000 -13.6698 0.0000
# 4 0.0000 0.0000 0.0000 30.7831 0.0000 -1.2699
# 5 -11.7599 -5.0533 -13.6698 0.0000 40.4586 0.0000
# 6 0.0000 0.0000 0.0000 -1.2699 0.0000 29.5541
#
#
#
# Elastic Compliance Matrix: (Units=1/GPa)
#
#
# Indices 1 2 3 4 5 6 
#
# 1 0.008231 -0.001252 -0.003165 0.000000 0.001167 0.000000
# 2 -0.001252 0.023753 -0.002710 0.000000 0.001687 0.000000
# 3 -0.003165 -0.002710 0.009573 0.000000 0.001976 0.000000
# 4 0.000000 0.000000 0.000000 0.032543 0.000000 0.001398
# 5 0.001167 0.001687 0.001976 0.000000 0.025934 0.000000
# 6 0.000000 0.000000 0.000000 0.001398 0.000000 0.033896
#
#
# Mechanical properties :
#
#
# Convention : Reuss Voigt Hill
#
# Bulk Modulus (GPa) = 36.62589 55.59139 46.10864
# Shear Modulus (GPa) = 31.78915 35.76314 33.77614
#
# Velocity S-wave (km/s) = 3.88718 4.12300 4.00682
# Velocity P-wave (km/s) = 6.12830 7.00638 6.58200
#
# Compressibility (1/GPa) = 0.02730309
#
# Stress axis : x y z
#
# Youngs Moduli (GPa) = 121.48982 42.09968 104.45817
#
# Poissons Ratio (x) = 0.05269 0.33064
# Poissons Ratio (y) = 0.15206 0.28311
# Poissons Ratio (z) = 0.38455 0.11410
#
# Static dielectric constant tensor:
#      x y z
#    x 4.251950 0.000000 -0.157850 
#    y 0.000000 3.629870 0.000000 
#    z -0.157850 0.000000 3.960940 
# 
# 
# High freq. dielectric constant tensor:
#      x y z
#    x 1.837580 0.000000 -0.011470 
#    y 0.000000 1.804210 0.000000 
#    z -0.011470 0.000000 1.836840 
# 
# From -- ./inp_files/38454.got.cif
#   From: 2010.06.25/outbox.cif.g09.slc.cpg/sg11_20_cif.got.tgz:38454.got - 2010.06.27 23:14:04.
