data_PCOD8077224
_publ_section_title
;
Structure prediction by ZEFSAII (Michael W. Deem and Ramdas Pophale) SiO2 
 PCOD8077224
Probable space group: P 21/M
;
_chemical_formula_sum "Si O2"
_cell_formula_units_Z 24
_cell_length_a 14.765303
_cell_length_b 8.559425
_cell_length_c 9.486710
_cell_angle_alpha 90.000000
_cell_angle_beta 80.481991
_cell_angle_gamma 90.000000
_cell_volume 1182.448969
_symmetry_space_group_name_H-M "P 21/M"
_symmetry_group_IT_number 11
_symmetry_cell_setting 'monoclinic'
loop_
_space_group_symop_operation_xyz
x,y,z
-x,1/2+y,-z
-x,-y,-z
x,1/2-y,z
loop_
_atom_site_type_symbol
_atom_site_label
_atom_site_fract_x
_atom_site_fract_y
_atom_site_fract_z
Si Si1 0.254034 0.567180 0.350829
Si Si2 0.914489 0.934865 0.434701
Si Si3 0.758264 0.929137 0.950634
Si Si4 0.548982 0.931329 0.620701
Si Si5 0.444012 0.070080 0.889606
Si Si6 0.082070 0.065354 0.887847
O O1 0.243332 0.750000 0.376815
O O2 0.181333 0.482919 0.470391
O O3 0.233391 0.529692 0.193106
O O4 0.356342 0.516368 0.365735
O O5 0.921547 0.750000 0.432721
O O6 0.917914 0.000016 0.272677
O O7 0.000000 0.000000 0.500000
O O8 0.776928 0.750000 0.902400
O O9 0.661787 0.948520 0.050434
O O10 0.827682 0.990069 0.051847
O O11 0.571600 0.750000 0.596962
O O12 0.500000 0.000000 0.500000
O O13 0.470733 0.959424 0.755141
O O14 0.470862 0.250000 0.853006
O O15 0.500000 0.000000 0.000000
O O16 0.075742 0.250000 0.883606
O O17 0.000000 0.000000 0.000000
#
# Coordination Sequence:
#
# PCOD8077224 Si02
#       6
#     4   4   4   4   4   4
#     4  12  25  42  65  96 129 169 217 264 322 389
#     4  11  24  43  67  95 130 170 211 264 323 386
#     4  10  22  41  65  92 126 168 212 262 321 382
#     4  12  26  44  65  93 131 173 218 271 326 385
#     4  11  22  39  65  95 128 170 217 264 319 381
#     4  10  23  42  65  94 124 162 207 257 316 377
#
# _framework density 20.296859000000001
#
# number of rings (size 3 to 8) (size 9 to 14) (size 15 to 20)
#    0.000    1.000    1.667    5.000    2.333    5.333 
#    0.000    0.000    0.000    0.000    0.000    0.000 
#    0.000    0.000    0.000    0.000    0.000    0.000 
#
# Total GULP energy -297604.309466 kJ/mol
# GULP energy per Si atom -12400.179561 kJ/mol
# Density = 2.025066 g / cm^3
# Si number density = 20.296859 Si / 1000 Ang^3
#
#
#
# Elastic Constant Matrix: (Units=GPa)
#
#
# Indices 1 2 3 4 5 6 
#
# 1 137.4269 38.4460 75.3825 0.0000 16.5221 0.0000
# 2 38.4460 68.9719 33.8331 0.0000 7.2573 0.0000
# 3 75.3825 33.8331 172.1512 0.0000 17.7466 0.0000
# 4 0.0000 0.0000 0.0000 37.6136 0.0000 -2.7175
# 5 16.5221 7.2573 17.7466 0.0000 42.5353 0.0000
# 6 0.0000 0.0000 0.0000 -2.7175 0.0000 34.7395
#
#
#
# Elastic Compliance Matrix: (Units=1/GPa)
#
#
# Indices 1 2 3 4 5 6 
#
# 1 0.010623 -0.003912 -0.003685 0.000000 -0.001922 0.000000
# 2 -0.003912 0.017576 -0.001660 0.000000 -0.000787 0.000000
# 3 -0.003685 -0.001660 0.007912 0.000000 -0.001587 0.000000
# 4 0.000000 0.000000 0.000000 0.026737 0.000000 0.002092
# 5 -0.001922 -0.000787 -0.001587 0.000000 0.025052 0.000000
# 6 0.000000 0.000000 0.000000 0.002092 0.000000 0.028949
#
#
# Mechanical properties :
#
#
# Convention : Reuss Voigt Hill
#
# Bulk Modulus (GPa) = 56.82495 74.87480 65.84987
# Shear Modulus (GPa) = 35.40307 38.37024 36.88665
#
# Velocity S-wave (km/s) = 4.18097 4.35265 4.26767
# Velocity P-wave (km/s) = 7.16694 7.88864 7.53643
#
# Compressibility (1/GPa) = 0.01759790
#
# Stress axis : x y z
#
# Youngs Moduli (GPa) = 94.13344 56.89461 126.38628
#
# Poissons Ratio (x) = 0.22256 0.46572
# Poissons Ratio (y) = 0.36823 0.20984
# Poissons Ratio (z) = 0.34687 0.09446
#
# Static dielectric constant tensor:
#      x y z
#    x 3.822180 0.000000 0.101740 
#    y 0.000000 3.856260 0.000000 
#    z 0.101740 0.000000 3.980990 
# 
# 
# High freq. dielectric constant tensor:
#      x y z
#    x 1.810380 0.000000 0.001280 
#    y 0.000000 1.796140 0.000000 
#    z 0.001280 0.000000 1.811720 
# 
# From -- ./inp_files/20330.got.cif
#   From: 2010.06.25/outbox.cif.g09.slc.cpg/sg11_11_cif.got.tgz:20330.got - 2010.06.27 23:14:04.
