data_PCOD8077819
_publ_section_title
;
Structure prediction by ZEFSAII (Michael W. Deem and Ramdas Pophale) SiO2 
 PCOD8077819
Probable space group: P 21/M
;
_chemical_formula_sum "Si O2"
_cell_formula_units_Z 24
_cell_length_a 17.095146
_cell_length_b 8.651841
_cell_length_c 24.409318
_cell_angle_alpha 90.000000
_cell_angle_beta 160.316396
_cell_angle_gamma 90.000000
_cell_volume 1216.024646
_symmetry_space_group_name_H-M "P 21/M"
_symmetry_group_IT_number 11
_symmetry_cell_setting 'monoclinic'
loop_
_space_group_symop_operation_xyz
x,y,z
-x,1/2+y,-z
-x,-y,-z
x,1/2-y,z
loop_
_atom_site_type_symbol
_atom_site_label
_atom_site_fract_x
_atom_site_fract_y
_atom_site_fract_z
Si Si1 0.718128 0.067142 0.470346
Si Si2 0.279885 0.425435 0.327394
Si Si3 0.980024 0.068076 0.426798
Si Si4 0.509646 0.569050 0.946861
Si Si5 0.979526 0.075219 0.234146
Si Si6 0.772556 0.432324 0.822339
O O1 0.709376 0.250000 0.461896
O O2 0.457712 0.003280 0.302554
O O3 0.831166 0.005387 0.489140
O O4 0.864960 0.019112 0.620477
O O5 0.500000 0.500000 0.500000
O O6 0.334506 0.250000 0.344536
O O7 0.208972 0.528190 0.229295
O O8 0.075968 0.428963 0.236742
O O9 0.021261 0.250000 0.455070
O O10 0.723818 0.023456 0.238090
O O11 0.000000 0.000000 0.500000
O O12 0.546503 0.750000 0.974855
O O13 0.500000 0.500000 0.000000
O O14 0.726120 0.495087 0.058569
O O15 0.965953 0.250000 0.248031
O O16 0.764089 0.250000 0.824962
O O17 0.000000 0.500000 0.000000
#
# Coordination Sequence:
#
# PCOD8077819 Si02
#       6
#     4   4   4   4   4   4
#     4  12  24  41  68  96 128 172 219 265 330 394
#     4  11  23  40  65  96 130 171 218 268 323 384
#     4  11  25  44  66  95 133 173 219 268 326 390
#     4  11  23  39  64  94 127 167 215 266 319 381
#     4  11  23  39  64  97 132 169 216 269 325 384
#     4  12  26  45  68  96 134 174 219 272 330 394
#
# _framework density 19.736442
#
# number of rings (size 3 to 8) (size 9 to 14) (size 15 to 20)
#    0.000    0.667    3.333    5.000    0.000    5.333 
#    0.000    3.333    0.000    0.000    0.000    0.000 
#    0.000    0.000    0.000    0.000    0.000    0.000 
#
# Total GULP energy -297714.955345 kJ/mol
# GULP energy per Si atom -12404.789806 kJ/mol
# Density = 1.969152 g / cm^3
# Si number density = 19.736442 Si / 1000 Ang^3
#
#
#
# Elastic Constant Matrix: (Units=GPa)
#
#
# Indices 1 2 3 4 5 6 
#
# 1 130.4659 66.7375 84.8763 0.0000 3.9159 0.0000
# 2 66.7375 144.2055 89.5440 0.0000 2.9951 0.0000
# 3 84.8763 89.5440 163.9105 0.0000 6.6560 0.0000
# 4 0.0000 0.0000 0.0000 38.2059 0.0000 1.6122
# 5 3.9159 2.9951 6.6560 0.0000 39.9892 0.0000
# 6 0.0000 0.0000 0.0000 1.6122 0.0000 38.4375
#
#
#
# Elastic Compliance Matrix: (Units=1/GPa)
#
#
# Indices 1 2 3 4 5 6 
#
# 1 0.012173 -0.002603 -0.004873 0.000000 -0.000186 0.000000
# 2 -0.002603 0.011052 -0.004698 0.000000 0.000209 0.000000
# 3 -0.004873 -0.004698 0.011233 0.000000 -0.001041 0.000000
# 4 0.000000 0.000000 0.000000 0.026220 0.000000 -0.001100
# 5 -0.000186 0.000209 -0.001041 0.000000 0.025182 0.000000
# 6 0.000000 0.000000 0.000000 -0.001100 0.000000 0.026062
#
#
# Mechanical properties :
#
#
# Convention : Reuss Voigt Hill
#
# Bulk Modulus (GPa) = 98.93041 102.32191 100.62616
# Shear Modulus (GPa) = 35.80545 36.48814 36.14679
#
# Velocity S-wave (km/s) = 4.26394 4.30440 4.28422
# Velocity P-wave (km/s) = 8.62996 8.75560 8.69300
#
# Compressibility (1/GPa) = 0.01010812
#
# Stress axis : x y z
#
# Youngs Moduli (GPa) = 82.15147 90.47757 89.02007
#
# Poissons Ratio (x) = 0.23555 0.43384
# Poissons Ratio (y) = 0.21387 0.41825
# Poissons Ratio (z) = 0.40036 0.42509
#
# Static dielectric constant tensor:
#      x y z
#    x 3.551910 0.000000 0.094240 
#    y 0.000000 3.881460 0.000000 
#    z 0.094240 0.000000 3.621050 
# 
# 
# High freq. dielectric constant tensor:
#      x y z
#    x 1.783430 0.000000 0.009230 
#    y 0.000000 1.792430 0.000000 
#    z 0.009230 0.000000 1.775650 
# 
# From -- ./inp_files/69532.got.cif
#   From: 2010.06.25/outbox.cif.g09.slc.cpg/sg11_35_cif.got.tgz:69532.got - 2010.06.27 23:14:04.
