data_PCOD8077032
_publ_section_title
;
Structure prediction by ZEFSAII (Michael W. Deem and Ramdas Pophale) SiO2 
 PCOD8077032
Probable space group: P 21/M
;
_chemical_formula_sum "Si O2"
_cell_formula_units_Z 32
_cell_length_a 7.842833
_cell_length_b 30.347984
_cell_length_c 11.075005
_cell_angle_alpha 90.000000
_cell_angle_beta 142.648963
_cell_angle_gamma 90.000000
_cell_volume 1599.257534
_symmetry_space_group_name_H-M "P 21/M"
_symmetry_group_IT_number 11
_symmetry_cell_setting 'monoclinic'
loop_
_space_group_symop_operation_xyz
x,y,z
-x,1/2+y,-z
-x,-y,-z
x,1/2-y,z
loop_
_atom_site_type_symbol
_atom_site_label
_atom_site_fract_x
_atom_site_fract_y
_atom_site_fract_z
Si Si1 0.228581 0.854849 0.496703
Si Si2 0.087616 0.919356 0.209256
Si Si3 0.598679 0.979793 0.932407
Si Si4 0.315527 0.639060 0.999175
Si Si5 0.154832 0.344717 0.084974
Si Si6 0.450644 0.063563 0.705986
Si Si7 0.772342 0.800721 0.124829
Si Si8 0.143208 0.908245 0.673506
O O1 0.122159 0.895658 0.356239
O O2 0.562038 0.846076 0.675396
O O3 0.062602 0.811648 0.358061
O O4 0.145597 0.865991 0.586977
O O5 0.398812 0.926938 0.335528
O O6 0.922502 0.965304 0.131453
O O7 0.905648 0.891517 0.010761
O O8 0.418164 0.936715 0.799321
O O9 0.572971 0.016966 0.817106
O O10 0.500000 0.000000 0.000000
O O11 0.105895 0.665899 0.970914
O O12 0.130913 0.610862 0.801449
O O13 0.504467 0.603821 0.176559
O O14 0.517215 0.671695 0.038986
O O15 0.187206 0.309082 0.995836
O O16 0.121163 0.059829 0.494997
O O17 0.700164 0.750000 0.103910
#
# Coordination Sequence:
#
# PCOD8077032 Si02
#       8
#     4   4   4   4   4   4   4   4
#     4  11  20  41  66  90 124 164 206 252 311 377
#     4  10  22  39  58  88 123 165 210 261 305 362
#     4  12  22  38  57  86 126 166 216 268 305 354
#     4  11  22  42  66  92 124 165 208 250 308 378
#     4  10  22  41  67  90 123 163 203 251 308 371
#     4  11  23  38  59  88 127 166 215 258 310 359
#     4  11  24  43  67  95 124 155 195 252 315 379
#     4  12  21  39  63  90 120 168 213 254 307 366
#
# _framework density 20.009284000000001
#
# number of rings (size 3 to 8) (size 9 to 14) (size 15 to 20)
#    0.000    1.000    5.000    3.000    0.000    1.000 
#    0.000    1.250    0.000    0.000    0.000    0.000 
#    0.000    0.000    0.000    0.000    0.000    0.000 
#
# Total GULP energy -396835.101139 kJ/mol
# GULP energy per Si atom -12401.096911 kJ/mol
# Density = 1.996374 g / cm^3
# Si number density = 20.009284 Si / 1000 Ang^3
#
#
#
# Elastic Constant Matrix: (Units=GPa)
#
#
# Indices 1 2 3 4 5 6 
#
# 1 110.2204 31.7178 31.7057 0.0000 3.0019 0.0000
# 2 31.7178 77.8365 14.7788 0.0000 1.1896 0.0000
# 3 31.7057 14.7788 94.0209 0.0000 12.5248 0.0000
# 4 0.0000 0.0000 0.0000 17.1070 0.0000 0.1680
# 5 3.0019 1.1896 12.5248 0.0000 26.6760 0.0000
# 6 0.0000 0.0000 0.0000 0.1680 0.0000 20.2713
#
#
#
# Elastic Compliance Matrix: (Units=1/GPa)
#
#
# Indices 1 2 3 4 5 6 
#
# 1 0.011108 -0.003928 -0.003184 0.000000 0.000420 0.000000
# 2 -0.003928 0.014636 -0.001011 0.000000 0.000264 0.000000
# 3 -0.003184 -0.001011 0.012603 0.000000 -0.005514 0.000000
# 4 0.000000 0.000000 0.000000 0.058461 0.000000 -0.000485
# 5 0.000420 0.000264 -0.005514 0.000000 0.040017 0.000000
# 6 0.000000 0.000000 0.000000 -0.000485 0.000000 0.049335
#
#
# Mechanical properties :
#
#
# Convention : Reuss Voigt Hill
#
# Bulk Modulus (GPa) = 45.24908 48.72029 46.98468
# Shear Modulus (GPa) = 23.83533 26.40255 25.11894
#
# Velocity S-wave (km/s) = 3.45514 3.63645 3.54696
# Velocity P-wave (km/s) = 6.21132 6.48332 6.34878
#
# Compressibility (1/GPa) = 0.02209990
#
# Stress axis : x y z
#
# Youngs Moduli (GPa) = 90.02816 68.32434 79.34497
#
# Poissons Ratio (x) = 0.26839 0.25265
# Poissons Ratio (y) = 0.35364 0.08023
# Poissons Ratio (z) = 0.28667 0.06909
#
# Static dielectric constant tensor:
#      x y z
#    x 3.086800 0.000000 -1.080720 
#    y 0.000000 3.015990 0.000000 
#    z -1.080720 0.000000 2.084340 
# 
# 
# High freq. dielectric constant tensor:
#      x y z
#    x 1.791500 0.000000 0.001890 
#    y 0.000000 1.752660 0.000000 
#    z 0.001890 0.000000 1.790310 
# 
# From -- ./inp_files/33228.got.cif
#   From: 2010.06.25/outbox.cif.g09.slc.cpg/sg11_17_cif.got.tgz:33228.got - 2010.06.27 23:14:04.
