data_PCOD8077120
_publ_section_title
;
Structure prediction by ZEFSAII (Michael W. Deem and Ramdas Pophale) SiO2 
 PCOD8077120
Probable space group: P 21/M
;
_chemical_formula_sum "Si O2"
_cell_formula_units_Z 20
_cell_length_a 8.927598
_cell_length_b 8.792576
_cell_length_c 25.649230
_cell_angle_alpha 90.000000
_cell_angle_beta 150.073987
_cell_angle_gamma 90.000000
_cell_volume 1004.436043
_symmetry_space_group_name_H-M "P 21/M"
_symmetry_group_IT_number 11
_symmetry_cell_setting 'monoclinic'
loop_
_space_group_symop_operation_xyz
x,y,z
-x,1/2+y,-z
-x,-y,-z
x,1/2-y,z
loop_
_atom_site_type_symbol
_atom_site_label
_atom_site_fract_x
_atom_site_fract_y
_atom_site_fract_z
Si Si1 0.672633 0.570471 0.902494
Si Si2 0.644165 0.571923 0.094205
Si Si3 0.341892 0.927724 0.501525
Si Si4 0.346027 0.072215 0.707872
Si Si5 0.654767 0.424748 0.692315
O O1 0.701066 0.750000 0.916856
O O2 0.489504 0.505988 0.895509
O O3 0.499712 0.529245 0.797903
O O4 0.000000 0.500000 0.000000
O O5 0.572733 0.750000 0.074127
O O6 0.995856 0.538302 0.198844
O O7 0.500000 0.500000 0.000000
O O8 0.363024 0.750000 0.500636
O O9 0.997518 0.980310 0.400353
O O10 0.500000 0.000000 0.500000
O O11 0.506726 0.971921 0.604052
O O12 0.377019 0.250000 0.731737
O O13 0.507324 0.033672 0.702641
O O14 0.596860 0.250000 0.659930
#
# Coordination Sequence:
#
# PCOD8077120 Si02
#       5
#     4   4   4   4   4
#     4  12  25  41  63  90 121 159 201 249 301 360
#     4  11  23  40  63  91 122 159 202 251 304 360
#     4  11  23  38  60  88 121 159 200 246 296 353
#     4  10  22  41  62  88 121 157 199 249 301 356
#     4  10  22  40  62  87 119 156 197 247 301 355
#
# _framework density 19.911671999999999
#
# number of rings (size 3 to 8) (size 9 to 14) (size 15 to 20)
#    0.000    1.200    0.000    6.000    0.000   10.400 
#    0.000    0.000    0.000    0.000    0.000    0.000 
#    0.000    0.000    0.000    0.000    0.000    0.000 
#
# Total GULP energy -248132.498857 kJ/mol
# GULP energy per Si atom -12406.624943 kJ/mol
# Density = 1.986635 g / cm^3
# Si number density = 19.911672 Si / 1000 Ang^3
#
#
#
# Elastic Constant Matrix: (Units=GPa)
#
#
# Indices 1 2 3 4 5 6 
#
# 1 186.7016 70.5591 83.6927 0.0000 13.8379 0.0000
# 2 70.5591 112.6097 80.4688 0.0000 9.5068 0.0000
# 3 83.6927 80.4688 150.4118 0.0000 -2.8524 0.0000
# 4 0.0000 0.0000 0.0000 40.0281 0.0000 -5.8332
# 5 13.8379 9.5068 -2.8524 0.0000 31.8870 0.0000
# 6 0.0000 0.0000 0.0000 -5.8332 0.0000 36.8896
#
#
#
# Elastic Compliance Matrix: (Units=1/GPa)
#
#
# Indices 1 2 3 4 5 6 
#
# 1 0.007917 -0.002462 -0.003145 0.000000 -0.002983 0.000000
# 2 -0.002462 0.015978 -0.007261 0.000000 -0.004345 0.000000
# 3 -0.003145 -0.007261 0.012371 0.000000 0.004636 0.000000
# 4 0.000000 0.000000 0.000000 0.025572 0.000000 0.004044
# 5 -0.002983 -0.004345 0.004636 0.000000 0.034366 0.000000
# 6 0.000000 0.000000 0.000000 0.004044 0.000000 0.027747
#
#
# Mechanical properties :
#
#
# Convention : Reuss Voigt Hill
#
# Bulk Modulus (GPa) = 94.95587 102.12937 98.54262
# Shear Modulus (GPa) = 32.63805 36.09441 34.36623
#
# Velocity S-wave (km/s) = 4.05302 4.26223 4.15894
# Velocity P-wave (km/s) = 8.34834 8.69625 8.52407
#
# Compressibility (1/GPa) = 0.01053121
#
# Stress axis : x y z
#
# Youngs Moduli (GPa) = 126.30390 62.58705 80.83633
#
# Poissons Ratio (x) = 0.15407 0.25424
# Poissons Ratio (y) = 0.31092 0.58692
# Poissons Ratio (z) = 0.39723 0.45442
#
# Static dielectric constant tensor:
#      x y z
#    x 3.820030 0.000000 0.199320 
#    y 0.000000 3.705720 0.000000 
#    z 0.199320 0.000000 3.680140 
# 
# 
# High freq. dielectric constant tensor:
#      x y z
#    x 1.801340 0.000000 0.002840 
#    y 0.000000 1.782340 0.000000 
#    z 0.002840 0.000000 1.795710 
# 
# From -- ./inp_files/15924.got.cif
#   From: 2010.06.25/outbox.cif.g09.slc.cpg/sg11_8_cif.got.tgz:15924.got - 2010.06.27 23:14:04.
