data_PCOD8077207
_publ_section_title
;
Structure prediction by ZEFSAII (Michael W. Deem and Ramdas Pophale) SiO2 
 PCOD8077207
Probable space group: P 21/M
;
_chemical_formula_sum "Si O2"
_cell_formula_units_Z 24
_cell_length_a 12.241629
_cell_length_b 8.564327
_cell_length_c 23.135200
_cell_angle_alpha 90.000000
_cell_angle_beta 152.103545
_cell_angle_gamma 90.000000
_cell_volume 1134.842721
_symmetry_space_group_name_H-M "P 21/M"
_symmetry_group_IT_number 11
_symmetry_cell_setting 'monoclinic'
loop_
_space_group_symop_operation_xyz
x,y,z
-x,1/2+y,-z
-x,-y,-z
x,1/2-y,z
loop_
_atom_site_type_symbol
_atom_site_label
_atom_site_fract_x
_atom_site_fract_y
_atom_site_fract_z
Si Si1 0.556509 0.933414 0.148915
Si Si2 0.432815 0.930569 0.313991
Si Si3 0.761781 0.931514 0.364204
Si Si4 0.119578 0.932194 0.789823
Si Si5 0.670995 0.067930 0.532613
Si Si6 0.912507 0.568738 0.099280
O O1 0.595955 0.750000 0.160570
O O2 0.693456 0.999181 0.269225
O O3 0.642011 0.019595 0.130695
O O4 0.281798 0.969939 0.025856
O O5 0.468969 0.750000 0.349186
O O6 0.542328 0.966870 0.302918
O O7 0.159536 0.972852 0.185307
O O8 0.564395 0.042549 0.419944
O O9 0.805617 0.750000 0.378644
O O10 0.000000 0.000000 0.500000
O O11 0.122871 0.750000 0.806077
O O12 0.080325 0.026618 0.829962
O O13 0.913950 0.976077 0.649393
O O14 0.713735 0.250000 0.563743
O O15 0.500000 0.000000 0.500000
O O16 0.853569 0.750000 0.065279
#
# Coordination Sequence:
#
# PCOD8077207 Si02
#       6
#     4   4   4   4   4   4
#     4  11  24  42  63  90 126 165 209 256 310 372
#     4  10  22  41  64  91 126 164 208 258 309 365
#     4  10  23  43  66  92 122 161 205 257 310 367
#     4  12  24  40  63  91 126 165 210 260 312 368
#     4  12  23  37  60  92 126 161 203 251 309 366
#     4  11  23  40  63  91 125 164 208 257 313 373
#
# _framework density 21.148306000000002
#
# number of rings (size 3 to 8) (size 9 to 14) (size 15 to 20)
#    0.000    1.000    1.667    5.500    0.000    6.000 
#    0.000    0.000    0.000    0.000    0.000    0.000 
#    0.000    0.000    0.000    0.000    0.000    0.000 
#
# Total GULP energy -297731.631093 kJ/mol
# GULP energy per Si atom -12405.484629 kJ/mol
# Density = 2.110017 g / cm^3
# Si number density = 21.148306 Si / 1000 Ang^3
#
#
#
# Elastic Constant Matrix: (Units=GPa)
#
#
# Indices 1 2 3 4 5 6 
#
# 1 117.0178 23.3281 43.1398 0.0000 10.2859 0.0000
# 2 23.3281 49.1701 18.6592 0.0000 -0.1433 0.0000
# 3 43.1398 18.6592 122.4370 0.0000 10.9727 0.0000
# 4 0.0000 0.0000 0.0000 38.9509 0.0000 1.8582
# 5 10.2859 -0.1433 10.9727 0.0000 33.8984 0.0000
# 6 0.0000 0.0000 0.0000 1.8582 0.0000 25.7821
#
#
#
# Elastic Compliance Matrix: (Units=1/GPa)
#
#
# Indices 1 2 3 4 5 6 
#
# 1 0.010612 -0.003927 -0.002936 0.000000 -0.002286 0.000000
# 2 -0.003927 0.023086 -0.002317 0.000000 0.002039 0.000000
# 3 -0.002936 -0.002317 0.009759 0.000000 -0.002278 0.000000
# 4 0.000000 0.000000 0.000000 0.025762 0.000000 -0.001857
# 5 -0.002286 0.002039 -0.002278 0.000000 0.030940 0.000000
# 6 0.000000 0.000000 0.000000 -0.001857 0.000000 0.038920
#
#
# Mechanical properties :
#
#
# Convention : Reuss Voigt Hill
#
# Bulk Modulus (GPa) = 39.84590 50.98658 45.41624
# Shear Modulus (GPa) = 30.15591 33.29281 31.72436
#
# Velocity S-wave (km/s) = 3.78024 3.97199 3.87730
# Velocity P-wave (km/s) = 6.15920 6.72287 6.44720
#
# Compressibility (1/GPa) = 0.02509668
#
# Stress axis : x y z
#
# Youngs Moduli (GPa) = 94.23430 43.31606 102.46844
#
# Poissons Ratio (x) = 0.17012 0.30081
# Poissons Ratio (y) = 0.37009 0.23745
# Poissons Ratio (z) = 0.27663 0.10038
#
# Static dielectric constant tensor:
#      x y z
#    x 3.939380 0.000000 0.028140 
#    y 0.000000 3.191570 0.000000 
#    z 0.028140 0.000000 4.054200 
# 
# 
# High freq. dielectric constant tensor:
#      x y z
#    x 1.831780 0.000000 0.009330 
#    y 0.000000 1.827520 0.000000 
#    z 0.009330 0.000000 1.840620 
# 
# From -- ./inp_files/68473.got.cif
#   From: 2010.06.25/outbox.cif.g09.slc.cpg/sg11_35_cif.got.tgz:68473.got - 2010.06.27 23:14:04.
