data_PCOD8077026
_publ_section_title
;
Structure prediction by ZEFSAII (Michael W. Deem and Ramdas Pophale) SiO2 
 PCOD8077026
Probable space group: P 21/M
;
_chemical_formula_sum "Si O2"
_cell_formula_units_Z 32
_cell_length_a 23.543116
_cell_length_b 8.954474
_cell_length_c 14.745576
_cell_angle_alpha 90.000000
_cell_angle_beta 150.139115
_cell_angle_gamma 90.000000
_cell_volume 1547.762186
_symmetry_space_group_name_H-M "P 21/M"
_symmetry_group_IT_number 11
_symmetry_cell_setting 'monoclinic'
loop_
_space_group_symop_operation_xyz
x,y,z
-x,1/2+y,-z
-x,-y,-z
x,1/2-y,z
loop_
_atom_site_type_symbol
_atom_site_label
_atom_site_fract_x
_atom_site_fract_y
_atom_site_fract_z
Si Si1 0.085256 0.581799 0.055076
Si Si2 0.327399 0.913436 0.434786
Si Si3 0.233792 0.077710 0.961718
Si Si4 0.027593 0.424134 0.796000
Si Si5 0.422719 0.073245 0.725421
Si Si6 0.386243 0.918512 0.317122
Si Si7 0.233904 0.928653 0.592274
Si Si8 0.333737 0.427115 0.907223
O O1 0.046906 0.750000 0.982285
O O2 0.194622 0.575734 0.273589
O O3 0.093583 0.502775 0.969302
O O4 0.000000 0.500000 0.000000
O O5 0.379280 0.750000 0.531962
O O6 0.313964 0.931649 0.308271
O O7 0.401753 0.038185 0.589534
O O8 0.260148 0.250000 0.015004
O O9 0.324029 0.990314 0.146580
O O10 0.102854 0.039838 0.809266
O O11 0.258883 0.035009 0.892463
O O12 0.028130 0.250000 0.817395
O O13 0.897051 0.479045 0.605743
O O14 0.426762 0.250000 0.748134
O O15 0.317496 0.998735 0.632907
O O16 0.540992 0.999670 0.918604
O O17 0.413226 0.750000 0.326574
O O18 0.500000 0.000000 0.500000
O O19 0.247592 0.750000 0.611165
O O20 0.265378 0.996240 0.732340
O O21 0.346471 0.250000 0.909210
#
# Coordination Sequence:
#
# PCOD8077026 Si02
#       8
#     4   4   4   4   4   4   4   4
#     4  11  22  37  58  87 122 162 204 249 300 359
#     4  10  22  39  57  84 123 161 197 240 300 360
#     4  10  22  41  64  91 126 165 207 256 311 370
#     4  10  22  41  64  91 126 165 207 256 311 370
#     4  12  25  41  64  94 125 161 209 262 313 376
#     4  11  22  37  58  87 122 162 204 249 300 359
#     4  11  24  43  66  92 124 163 206 260 319 375
#     4  11  24  43  66  92 124 163 206 260 319 375
#
# _framework density 20.675011000000001
#
# number of rings (size 3 to 8) (size 9 to 14) (size 15 to 20)
#    0.000    1.250    1.250    4.500    0.000   10.500 
#    0.000    0.000    0.000    0.000    0.000    0.000 
#    0.000    0.000    0.000    0.000    0.000    0.000 
#
# Total GULP energy -396670.485104 kJ/mol
# GULP energy per Si atom -12395.952659 kJ/mol
# Density = 2.062795 g / cm^3
# Si number density = 20.675011 Si / 1000 Ang^3
#
#
#
# Elastic Constant Matrix: (Units=GPa)
#
#
# Indices 1 2 3 4 5 6 
#
# 1 77.0948 38.7460 29.3464 0.0000 5.7461 0.0000
# 2 38.7460 93.8461 44.8782 0.0000 1.3277 0.0000
# 3 29.3464 44.8782 105.8415 0.0000 2.0488 0.0000
# 4 0.0000 0.0000 0.0000 34.7580 0.0000 -7.4406
# 5 5.7461 1.3277 2.0488 0.0000 39.0457 0.0000
# 6 0.0000 0.0000 0.0000 -7.4406 0.0000 31.4538
#
#
#
# Elastic Compliance Matrix: (Units=1/GPa)
#
#
# Indices 1 2 3 4 5 6 
#
# 1 0.016930 -0.005939 -0.002134 0.000000 -0.002178 0.000000
# 2 -0.005939 0.015450 -0.004916 0.000000 0.000607 0.000000
# 3 -0.002134 -0.004916 0.012127 0.000000 -0.000155 0.000000
# 4 0.000000 0.000000 0.000000 0.030305 0.000000 0.007169
# 5 -0.002178 0.000607 -0.000155 0.000000 0.025919 0.000000
# 6 0.000000 0.000000 0.000000 0.007169 0.000000 0.033488
#
#
# Mechanical properties :
#
#
# Convention : Reuss Voigt Hill
#
# Bulk Modulus (GPa) = 53.96662 55.85819 54.91241
# Shear Modulus (GPa) = 30.05270 31.97227 31.01248
#
# Velocity S-wave (km/s) = 3.81672 3.93672 3.87718
# Velocity P-wave (km/s) = 6.75145 6.90939 6.83087
#
# Compressibility (1/GPa) = 0.01852997
#
# Stress axis : x y z
#
# Youngs Moduli (GPa) = 59.06570 64.72487 82.45857
#
# Poissons Ratio (x) = 0.38438 0.17597
# Poissons Ratio (y) = 0.35077 0.40538
# Poissons Ratio (z) = 0.12605 0.31820
#
# Static dielectric constant tensor:
#      x y z
#    x 5.229740 0.000000 -0.681570 
#    y 0.000000 3.416820 0.000000 
#    z -0.681570 0.000000 3.973110 
# 
# 
# High freq. dielectric constant tensor:
#      x y z
#    x 1.823800 0.000000 0.006970 
#    y 0.000000 1.813110 0.000000 
#    z 0.006970 0.000000 1.813040 
# 
# From -- ./inp_files/55655.got.cif
#   From: 2010.06.25/outbox.cif.g09.slc.cpg/sg11_28_cif.got.tgz:55655.got - 2010.06.27 23:14:04.
