data_PCOD8077979
_publ_section_title
;
Structure prediction by ZEFSAII (Michael W. Deem and Ramdas Pophale) SiO2 
 PCOD8077979
Probable space group: P 21/M
;
_chemical_formula_sum "Si O2"
_cell_formula_units_Z 32
_cell_length_a 8.399064
_cell_length_b 14.141862
_cell_length_c 21.597697
_cell_angle_alpha 90.000000
_cell_angle_beta 41.832573
_cell_angle_gamma 90.000000
_cell_volume 1710.969328
_symmetry_space_group_name_H-M "P 21/M"
_symmetry_group_IT_number 11
_symmetry_cell_setting 'monoclinic'
loop_
_space_group_symop_operation_xyz
x,y,z
-x,1/2+y,-z
-x,-y,-z
x,1/2-y,z
loop_
_atom_site_type_symbol
_atom_site_label
_atom_site_fract_x
_atom_site_fract_y
_atom_site_fract_z
Si Si1 0.423601 0.354802 0.495823
Si Si2 0.751735 0.533794 0.993056
Si Si3 0.805842 0.498292 0.359970
Si Si4 0.020610 0.646519 0.465339
Si Si5 0.148055 0.036022 0.371815
Si Si6 0.232946 0.463919 0.151134
Si Si7 0.565322 0.646928 0.799998
Si Si8 0.941635 0.356591 0.002369
O O1 0.518645 0.250000 0.485070
O O2 0.625890 0.411669 0.398656
O O3 0.349180 0.406826 0.582027
O O4 0.197151 0.346543 0.517986
O O5 0.820910 0.567702 0.903786
O O6 0.837899 0.607808 0.019921
O O7 0.464112 0.532831 0.083981
O O8 0.878077 0.430709 0.966015
O O9 0.930351 0.472083 0.388090
O O10 0.996717 0.513612 0.249048
O O11 0.146576 0.750000 0.432743
O O12 0.921601 0.617588 0.560501
O O13 0.203395 0.565088 0.388514
O O14 0.382028 0.068118 0.266911
O O15 0.301285 0.374101 0.173547
O O16 0.656429 0.750000 0.752458
O O17 0.282834 0.646476 0.887216
O O18 0.994357 0.250000 0.961140
#
# Coordination Sequence:
#
# PCOD8077979 Si02
#       8
#     4   4   4   4   4   4   4   4
#     4   9  18  32  48  68  96 127 160 201 243 285
#     4   9  18  34  53  73 104 132 160 206 245 292
#     4   9  18  32  49  70  96 127 163 198 240 293
#     4   9  17  29  45  66  94 130 168 205 248 294
#     4   9  17  29  46  67  95 129 164 205 250 289
#     4   9  18  32  50  74 101 132 165 200 248 291
#     4   9  17  29  47  72 101 129 162 205 249 293
#     4   9  18  33  53  74  97 130 163 196 246 296
#
# _framework density 18.702847999999999
#
# number of rings (size 3 to 8) (size 9 to 14) (size 15 to 20)
#    0.000    3.000    0.000    0.375    0.000    4.000 
#    0.000    4.375    0.000   12.000    0.000    0.000 
#    0.000    0.000    0.000    0.000    0.000    0.000 
#
# Total GULP energy -396510.898631 kJ/mol
# GULP energy per Si atom -12390.965582 kJ/mol
# Density = 1.866028 g / cm^3
# Si number density = 18.702848 Si / 1000 Ang^3
#
#
#
# Elastic Constant Matrix: (Units=GPa)
#
#
# Indices 1 2 3 4 5 6 
#
# 1 29.7887 14.8461 20.5479 0.0000 2.0558 0.0000
# 2 14.8461 126.7284 42.3713 0.0000 5.1781 0.0000
# 3 20.5479 42.3713 101.9292 0.0000 4.3950 0.0000
# 4 0.0000 0.0000 0.0000 19.3226 0.0000 0.1697
# 5 2.0558 5.1781 4.3950 0.0000 21.4222 0.0000
# 6 0.0000 0.0000 0.0000 0.1697 0.0000 18.5834
#
#
#
# Elastic Compliance Matrix: (Units=1/GPa)
#
#
# Indices 1 2 3 4 5 6 
#
# 1 0.039624 -0.002233 -0.006981 0.000000 -0.001831 0.000000
# 2 -0.002233 0.009335 -0.003372 0.000000 -0.001350 0.000000
# 3 -0.006981 -0.003372 0.012668 0.000000 -0.001114 0.000000
# 4 0.000000 0.000000 0.000000 0.051757 0.000000 -0.000473
# 5 -0.001831 -0.001350 -0.001114 0.000000 0.047411 0.000000
# 6 0.000000 0.000000 0.000000 -0.000473 0.000000 0.053816
#
#
# Mechanical properties :
#
#
# Convention : Reuss Voigt Hill
#
# Bulk Modulus (GPa) = 27.43089 45.99743 36.71416
# Shear Modulus (GPa) = 19.84642 23.91104 21.87873
#
# Velocity S-wave (km/s) = 3.26105 3.57945 3.42396
# Velocity P-wave (km/s) = 5.37381 6.45991 5.94173
#
# Compressibility (1/GPa) = 0.03645525
#
# Stress axis : x y z
#
# Youngs Moduli (GPa) = 25.23710 107.12201 78.94058
#
# Poissons Ratio (x) = 0.23923 0.55105
# Poissons Ratio (y) = 0.05636 0.26620
# Poissons Ratio (z) = 0.17617 0.36123
#
# Static dielectric constant tensor:
#      x y z
#    x 3.328290 0.000000 -0.005980 
#    y 0.000000 3.867170 0.000000 
#    z -0.005980 0.000000 3.394750 
# 
# 
# High freq. dielectric constant tensor:
#      x y z
#    x 1.715590 0.000000 0.001140 
#    y 0.000000 1.721000 0.000000 
#    z 0.001140 0.000000 1.709950 
# 
# From -- ./inp_files/63795.got.cif
#   From: 2010.06.25/outbox.cif.g09.slc.cpg/sg11_32_cif.got.tgz:63795.got - 2010.06.27 23:14:04.
