data_PCOD8077099
_publ_section_title
;
Structure prediction by ZEFSAII (Michael W. Deem and Ramdas Pophale) SiO2 
 PCOD8077099
Probable space group: P 21/M
;
_chemical_formula_sum "Si O2"
_cell_formula_units_Z 28
_cell_length_a 11.856823
_cell_length_b 8.810167
_cell_length_c 15.105571
_cell_angle_alpha 90.000000
_cell_angle_beta 60.368536
_cell_angle_gamma 90.000000
_cell_volume 1371.579888
_symmetry_space_group_name_H-M "P 21/M"
_symmetry_group_IT_number 11
_symmetry_cell_setting 'monoclinic'
loop_
_space_group_symop_operation_xyz
x,y,z
-x,1/2+y,-z
-x,-y,-z
x,1/2-y,z
loop_
_atom_site_type_symbol
_atom_site_label
_atom_site_fract_x
_atom_site_fract_y
_atom_site_fract_z
Si Si1 0.623778 0.073469 0.995705
Si Si2 0.628649 0.426475 0.198618
Si Si3 0.634113 0.428602 0.679787
Si Si4 0.079883 0.571055 0.887424
Si Si5 0.879956 0.571203 0.493288
Si Si6 0.744345 0.919870 0.802165
Si Si7 0.034160 0.579740 0.707719
O O1 0.631550 0.250000 0.972768
O O2 0.626982 0.035841 0.096376
O O3 0.500000 0.000000 0.000000
O O4 0.743578 0.989357 0.901312
O O5 0.606311 0.250000 0.227863
O O6 0.511506 0.518788 0.291137
O O7 0.769859 0.482133 0.175578
O O8 0.648012 0.250000 0.661118
O O9 0.741243 0.513022 0.580007
O O10 0.658714 0.474127 0.772028
O O11 0.071694 0.750000 0.906064
O O12 0.024421 0.521000 0.812955
O O13 0.000000 0.500000 0.000000
O O14 0.887622 0.750000 0.502748
O O15 0.882539 0.529340 0.387770
O O16 0.000000 0.500000 0.500000
O O17 0.683809 0.750000 0.823116
O O18 0.893414 0.915838 0.715892
O O19 0.094040 0.750000 0.684492
#
# Coordination Sequence:
#
# PCOD8077099 Si02
#       7
#     4   4   4   4   4   4   4
#     4  11  21  32  51  80 117 157 200 247 303 366
#     4  10  22  40  60  85 123 166 208 258 313 367
#     4  12  24  38  60  89 122 160 204 252 310 372
#     4  10  22  42  67  94 126 168 213 260 308 366
#     4  12  24  40  64  93 127 164 205 256 315 376
#     4  11  21  34  55  84 122 159 197 249 308 368
#     4  10  22  40  63  91 124 163 209 258 310 368
#
# _framework density 20.414413
#
# number of rings (size 3 to 8) (size 9 to 14) (size 15 to 20)
#    0.000    1.143    2.857    4.286    0.000    2.286 
#    0.000    0.714    0.000    0.000    0.000    0.000 
#    0.000    0.000    0.000    0.000    0.000    0.000 
#
# Total GULP energy -347124.779379 kJ/mol
# GULP energy per Si atom -12397.313549 kJ/mol
# Density = 2.036795 g / cm^3
# Si number density = 20.414413 Si / 1000 Ang^3
#
#
#
# Elastic Constant Matrix: (Units=GPa)
#
#
# Indices 1 2 3 4 5 6 
#
# 1 96.5763 32.2228 37.4492 0.0000 -13.9011 0.0000
# 2 32.2228 105.7528 59.0252 0.0000 -5.8284 0.0000
# 3 37.4492 59.0252 125.1648 0.0000 -14.9887 0.0000
# 4 0.0000 0.0000 0.0000 38.4461 0.0000 -4.2601
# 5 -13.9011 -5.8284 -14.9887 0.0000 32.7088 0.0000
# 6 0.0000 0.0000 0.0000 -4.2601 0.0000 23.9553
#
#
#
# Elastic Compliance Matrix: (Units=1/GPa)
#
#
# Indices 1 2 3 4 5 6 
#
# 1 0.012557 -0.002409 -0.002151 0.000000 0.003922 0.000000
# 2 -0.002409 0.013305 -0.005705 0.000000 -0.001268 0.000000
# 3 -0.002151 -0.005705 0.011736 0.000000 0.003447 0.000000
# 4 0.000000 0.000000 0.000000 0.026533 0.000000 0.004719
# 5 0.003922 -0.001268 0.003447 0.000000 0.033593 0.000000
# 6 0.000000 0.000000 0.000000 0.004719 0.000000 0.042584
#
#
# Mechanical properties :
#
#
# Convention : Reuss Voigt Hill
#
# Bulk Modulus (GPa) = 58.59385 64.98758 61.79071
# Shear Modulus (GPa) = 30.02494 32.27514 31.15004
#
# Velocity S-wave (km/s) = 3.83922 3.98049 3.91050
# Velocity P-wave (km/s) = 6.95826 7.28210 7.12202
#
# Compressibility (1/GPa) = 0.01706664
#
# Stress axis : x y z
#
# Youngs Moduli (GPa) = 79.63679 75.16247 85.20538
#
# Poissons Ratio (x) = 0.18109 0.18330
# Poissons Ratio (y) = 0.19187 0.48610
# Poissons Ratio (z) = 0.17132 0.42881
#
# Static dielectric constant tensor:
#      x y z
#    x 5.005970 0.000000 4.408860 
#    y 0.000000 3.949720 0.000000 
#    z 4.408860 0.000000 20.919890 
# 
# 
# High freq. dielectric constant tensor:
#      x y z
#    x 1.786780 0.000000 -0.014050 
#    y 0.000000 1.795170 0.000000 
#    z -0.014050 0.000000 1.805310 
# 
# From -- ./inp_files/49127.got.cif
#   From: 2010.06.25/outbox.cif.g09.slc.cpg/sg11_25_cif.got.tgz:49127.got - 2010.06.27 23:14:04.
