data_PCOD8077815
_publ_section_title
;
Structure prediction by ZEFSAII (Michael W. Deem and Ramdas Pophale) SiO2 
 PCOD8077815
Probable space group: P 21/M
;
_chemical_formula_sum "Si O2"
_cell_formula_units_Z 28
_cell_length_a 15.815794
_cell_length_b 8.735021
_cell_length_c 17.279390
_cell_angle_alpha 90.000000
_cell_angle_beta 145.336011
_cell_angle_gamma 90.000000
_cell_volume 1357.733256
_symmetry_space_group_name_H-M "P 21/M"
_symmetry_group_IT_number 11
_symmetry_cell_setting 'monoclinic'
loop_
_space_group_symop_operation_xyz
x,y,z
-x,1/2+y,-z
-x,-y,-z
x,1/2-y,z
loop_
_atom_site_type_symbol
_atom_site_label
_atom_site_fract_x
_atom_site_fract_y
_atom_site_fract_z
Si Si1 0.667807 0.074321 0.909684
Si Si2 0.143973 0.574716 0.800942
Si Si3 0.847842 0.929435 0.355412
Si Si4 0.849210 0.925977 0.915267
Si Si5 0.354110 0.928416 0.671757
Si Si6 0.660805 0.926150 0.622705
Si Si7 0.841146 0.429713 0.622579
O O1 0.629902 0.250000 0.861784
O O2 0.799095 0.016997 0.953310
O O3 0.524875 0.970083 0.787856
O O4 0.720316 0.056854 0.037513
O O5 0.120235 0.750000 0.758491
O O6 0.185641 0.477770 0.757181
O O7 0.995173 0.516267 0.729174
O O8 0.866643 0.750000 0.372836
O O9 0.709996 0.979202 0.304069
O O10 0.000000 0.000000 0.500000
O O11 0.878600 0.750000 0.959354
O O12 0.721627 0.940232 0.755041
O O13 0.000000 0.000000 0.000000
O O14 0.337955 0.750000 0.677368
O O15 0.266486 0.975031 0.528737
O O16 0.651818 0.750000 0.589220
O O17 0.500000 0.000000 0.500000
O O18 0.769117 0.018491 0.648241
O O19 0.871773 0.250000 0.647919
#
# Coordination Sequence:
#
# PCOD8077815 Si02
#       7
#     4   4   4   4   4   4   4
#     4  11  25  43  64  94 128 167 212 260 318 377
#     4  11  24  42  65  93 127 164 208 259 310 372
#     4  12  24  41  67  97 128 165 209 257 312 372
#     4  11  24  42  64  91 125 167 212 261 315 377
#     4  11  24  42  65  94 129 168 210 260 315 376
#     4  11  24  40  60  89 124 161 207 259 314 374
#     4  11  23  39  63  93 123 161 210 259 314 374
#
# _framework density 20.622606000000001
#
# number of rings (size 3 to 8) (size 9 to 14) (size 15 to 20)
#    0.000    0.857    1.429    5.571    0.000   13.714 
#    0.000    0.000    0.000    0.000    0.000    0.000 
#    0.000    0.000    0.000    0.000    0.000    0.000 
#
# Total GULP energy -347444.709792 kJ/mol
# GULP energy per Si atom -12408.739635 kJ/mol
# Density = 2.057567 g / cm^3
# Si number density = 20.622606 Si / 1000 Ang^3
#
#
#
# Elastic Constant Matrix: (Units=GPa)
#
#
# Indices 1 2 3 4 5 6 
#
# 1 92.9870 26.5767 7.7494 0.0000 -7.6610 0.0000
# 2 26.5767 112.2784 34.7965 0.0000 -2.8087 0.0000
# 3 7.7494 34.7965 69.7777 0.0000 3.7333 0.0000
# 4 0.0000 0.0000 0.0000 34.3473 0.0000 2.5478
# 5 -7.6610 -2.8087 3.7333 0.0000 35.0751 0.0000
# 6 0.0000 0.0000 0.0000 2.5478 0.0000 43.1437
#
#
#
# Elastic Compliance Matrix: (Units=1/GPa)
#
#
# Indices 1 2 3 4 5 6 
#
# 1 0.011724 -0.002689 -0.000087 0.000000 0.002355 0.000000
# 2 -0.002689 0.011221 -0.005344 0.000000 0.000880 0.000000
# 3 -0.000087 -0.005344 0.017127 0.000000 -0.002270 0.000000
# 4 0.000000 0.000000 0.000000 0.029242 0.000000 -0.001727
# 5 0.002355 0.000880 -0.002270 0.000000 0.029337 0.000000
# 6 0.000000 0.000000 0.000000 -0.001727 0.000000 0.023280
#
#
# Mechanical properties :
#
#
# Convention : Reuss Voigt Hill
#
# Bulk Modulus (GPa) = 41.96070 45.92091 43.94080
# Shear Modulus (GPa) = 34.21920 36.24127 35.23024
#
# Velocity S-wave (km/s) = 4.07788 4.19663 4.13768
# Velocity P-wave (km/s) = 6.52405 6.76741 6.64685
#
# Compressibility (1/GPa) = 0.02383183
#
# Stress axis : x y z
#
# Youngs Moduli (GPa) = 85.29467 89.11669 58.38612
#
# Poissons Ratio (x) = 0.23966 0.00508
# Poissons Ratio (y) = 0.22938 0.31203
# Poissons Ratio (z) = 0.00742 0.47626
#
# Static dielectric constant tensor:
#      x y z
#    x 3.723290 0.000000 -0.176110 
#    y 0.000000 3.942280 0.000000 
#    z -0.176110 0.000000 3.833000 
# 
# 
# High freq. dielectric constant tensor:
#      x y z
#    x 1.818210 0.000000 -0.003110 
#    y 0.000000 1.824540 0.000000 
#    z -0.003110 0.000000 1.815140 
# 
# From -- ./inp_files/51954.got.cif
#   From: 2010.06.25/outbox.cif.g09.slc.cpg/sg11_26_cif.got.tgz:51954.got - 2010.06.27 23:14:04.
