data_PCOD8077194
_publ_section_title
;
Structure prediction by ZEFSAII (Michael W. Deem and Ramdas Pophale) SiO2 
 PCOD8077194
Probable space group: P 21/M
;
_chemical_formula_sum "Si O2"
_cell_formula_units_Z 26
_cell_length_a 11.551125
_cell_length_b 22.708661
_cell_length_c 8.637924
_cell_angle_alpha 90.000000
_cell_angle_beta 143.600977
_cell_angle_gamma 90.000000
_cell_volume 1344.548613
_symmetry_space_group_name_H-M "P 21/M"
_symmetry_group_IT_number 11
_symmetry_cell_setting 'monoclinic'
loop_
_space_group_symop_operation_xyz
x,y,z
-x,1/2+y,-z
-x,-y,-z
x,1/2-y,z
loop_
_atom_site_type_symbol
_atom_site_label
_atom_site_fract_x
_atom_site_fract_y
_atom_site_fract_z
Si Si1 0.346556 0.466557 0.539991
Si Si2 0.942384 0.468306 0.591219
Si Si3 0.042519 0.250000 0.012720
Si Si4 0.239377 0.966856 0.116554
Si Si5 0.013472 0.659577 0.476956
Si Si6 0.960005 0.634651 0.779765
Si Si7 0.734840 0.250000 0.411116
Si Si8 0.276544 0.250000 0.967951
O O1 0.275357 0.508605 0.603415
O O2 0.578197 0.456000 0.803142
O O3 0.308221 0.504621 0.347357
O O4 0.239510 0.403091 0.425559
O O5 0.964086 0.399507 0.595978
O O6 0.000000 0.500000 0.500000
O O7 0.084217 0.488027 0.880623
O O8 0.847076 0.250000 0.697286
O O9 0.229027 0.250000 0.099740
O O10 0.055376 0.192990 0.134977
O O11 0.138535 0.903877 0.038347
O O12 0.205364 0.694772 0.630619
O O13 0.007588 0.650735 0.653810
O O14 0.815615 0.692286 0.211447
O O15 0.506447 0.250000 0.194593
#
# Coordination Sequence:
#
# PCOD8077194 Si02
#       8
#     4   4   2   4   4   4   2   2
#     4  10  23  38  60  91 123 160 198 239 294 352
#     4  11  20  39  62  89 125 155 189 243 297 351
#     4  10  24  40  68  84 114 156 200 250 298 350
#     4  10  23  38  60  91 123 160 198 239 294 352
#     4  10  22  41  64  88 117 161 195 241 301 349
#     4  11  21  43  62  85 121 156 201 246 292 348
#     4  10  25  43  61  89 117 152 200 248 300 354
#     4  10  25  43  61  89 117 152 200 248 300 354
#
# _framework density 19.337344000000002
#
# number of rings (size 3 to 8) (size 9 to 14) (size 15 to 20)
#    0.000    1.846    3.077    2.769    8.615    4.308 
#    0.000    1.538    0.000    0.000    0.000    0.000 
#    0.000    0.000    0.000    0.000    0.000    0.000 
#
# Total GULP energy -322302.381513 kJ/mol
# GULP energy per Si atom -12396.245443 kJ/mol
# Density = 1.929333 g / cm^3
# Si number density = 19.337344 Si / 1000 Ang^3
#
#
#
# Elastic Constant Matrix: (Units=GPa)
#
#
# Indices 1 2 3 4 5 6 
#
# 1 123.2991 50.5702 33.2983 0.0000 17.0569 0.0000
# 2 50.5702 156.6690 26.8989 0.0000 4.4466 0.0000
# 3 33.2983 26.8989 35.6070 0.0000 15.0826 0.0000
# 4 0.0000 0.0000 0.0000 15.7377 0.0000 -11.0287
# 5 17.0569 4.4466 15.0826 0.0000 46.4784 0.0000
# 6 0.0000 0.0000 0.0000 -11.0287 0.0000 36.7408
#
#
#
# Elastic Compliance Matrix: (Units=1/GPa)
#
#
# Indices 1 2 3 4 5 6 
#
# 1 0.011498 -0.002206 -0.008566 0.000000 -0.001229 0.000000
# 2 -0.002206 0.007823 -0.004490 0.000000 0.001518 0.000000
# 3 -0.008566 -0.004490 0.044024 0.000000 -0.010713 0.000000
# 4 0.000000 0.000000 0.000000 0.080469 0.000000 0.024155
# 5 -0.001229 0.001518 -0.010713 0.000000 0.025298 0.000000
# 6 0.000000 0.000000 0.000000 0.024155 0.000000 0.034468
#
#
# Mechanical properties :
#
#
# Convention : Reuss Voigt Hill
#
# Bulk Modulus (GPa) = 30.46677 59.67886 45.07282
# Shear Modulus (GPa) = 20.40444 33.44523 26.92483
#
# Velocity S-wave (km/s) = 3.25188 4.16332 3.73550
# Velocity P-wave (km/s) = 5.46711 7.35119 6.47801
#
# Compressibility (1/GPa) = 0.03282265
#
# Stress axis : x y z
#
# Youngs Moduli (GPa) = 86.96836 127.83343 22.71463
#
# Poissons Ratio (x) = 0.28199 0.19457
# Poissons Ratio (y) = 0.19185 0.10198
# Poissons Ratio (z) = 0.74496 0.57393
#
# Static dielectric constant tensor:
#      x y z
#    x 4.010430 0.000000 0.265370 
#    y 0.000000 3.604270 0.000000 
#    z 0.265370 0.000000 3.568050 
# 
# 
# High freq. dielectric constant tensor:
#      x y z
#    x 1.774710 0.000000 -0.004150 
#    y 0.000000 1.763570 0.000000 
#    z -0.004150 0.000000 1.736410 
# 
# From -- ./inp_files/19480.got.cif
#   From: 2010.06.25/outbox.cif.g09.slc.cpg/sg11_10_cif.got.tgz:19480.got - 2010.06.27 23:14:04.
