data_PCOD8077513
_publ_section_title
;
Structure prediction by ZEFSAII (Michael W. Deem and Ramdas Pophale) SiO2 
 PCOD8077513
Probable space group: P 21/M
;
_chemical_formula_sum "Si O2"
_cell_formula_units_Z 24
_cell_length_a 11.593642
_cell_length_b 22.405078
_cell_length_c 10.776415
_cell_angle_alpha 90.000000
_cell_angle_beta 25.258102
_cell_angle_gamma 90.000000
_cell_volume 1194.427704
_symmetry_space_group_name_H-M "P 21/M"
_symmetry_group_IT_number 11
_symmetry_cell_setting 'monoclinic'
loop_
_space_group_symop_operation_xyz
x,y,z
-x,1/2+y,-z
-x,-y,-z
x,1/2-y,z
loop_
_atom_site_type_symbol
_atom_site_label
_atom_site_fract_x
_atom_site_fract_y
_atom_site_fract_z
Si Si1 0.445742 0.485389 0.737837
Si Si2 0.932225 0.937651 0.250270
Si Si3 0.028301 0.430838 0.507673
Si Si4 0.517516 0.398739 0.877341
Si Si5 0.668736 0.181869 0.505671
Si Si6 0.819845 0.871467 0.126521
O O1 0.721203 0.511154 0.408948
O O2 0.527874 0.461629 0.793712
O O3 0.317244 0.432558 0.784538
O O4 0.236942 0.539396 0.949848
O O5 0.865554 0.919763 0.456282
O O6 0.908069 0.880004 0.183871
O O7 0.000000 0.500000 0.500000
O O8 0.738664 0.399788 0.770785
O O9 0.224934 0.394503 0.224419
O O10 0.568404 0.343460 0.735405
O O11 0.760403 0.250000 0.431449
O O12 0.413174 0.178656 0.659576
O O13 0.920379 0.143558 0.210172
#
# Coordination Sequence:
#
# PCOD8077513 Si02
#       6
#     4   4   4   4   4   4
#     4  11  19  34  54  84 125 159 187 230 276 355
#     4  12  22  33  56  85 129 163 184 220 292 358
#     4  12  21  35  56  86 128 165 188 220 279 364
#     4  11  21  37  57  88 116 154 204 237 278 342
#     4  11  24  44  67  82 107 150 205 269 305 325
#     4  11  23  38  58  90 116 148 201 242 298 350
#
# _framework density 20.093304
#
# number of rings (size 3 to 8) (size 9 to 14) (size 15 to 20)
#    0.000    0.667    3.333    8.000    0.000    0.000 
#    0.000    0.000    0.000    6.000    0.000    0.000 
#    0.000    0.000    0.000    0.000    0.000    0.000 
#
# Total GULP energy -297594.275429 kJ/mol
# GULP energy per Si atom -12399.761476 kJ/mol
# Density = 2.004757 g / cm^3
# Si number density = 20.093304 Si / 1000 Ang^3
#
#
#
# Elastic Constant Matrix: (Units=GPa)
#
#
# Indices 1 2 3 4 5 6 
#
# 1 109.5865 48.7735 36.8894 0.0000 5.5148 0.0000
# 2 48.7735 65.8444 17.6120 0.0000 -0.4772 0.0000
# 3 36.8894 17.6120 94.7354 0.0000 -9.4655 0.0000
# 4 0.0000 0.0000 0.0000 22.3483 0.0000 -2.1560
# 5 5.5148 -0.4772 -9.4655 0.0000 31.2792 0.0000
# 6 0.0000 0.0000 0.0000 -2.1560 0.0000 15.6560
#
#
#
# Elastic Compliance Matrix: (Units=1/GPa)
#
#
# Indices 1 2 3 4 5 6 
#
# 1 0.015421 -0.010243 -0.004525 0.000000 -0.004244 0.000000
# 2 -0.010243 0.022800 -0.000036 0.000000 0.002143 0.000000
# 3 -0.004525 -0.000036 0.012791 0.000000 0.004668 0.000000
# 4 0.000000 0.000000 0.000000 0.045349 0.000000 0.006245
# 5 -0.004244 0.002143 0.004668 0.000000 0.034164 0.000000
# 6 0.000000 0.000000 0.000000 0.006245 0.000000 0.064733
#
#
# Mechanical properties :
#
#
# Convention : Reuss Voigt Hill
#
# Bulk Modulus (GPa) = 46.72030 52.96846 49.84438
# Shear Modulus (GPa) = 21.55177 24.98278 23.26727
#
# Velocity S-wave (km/s) = 3.27859 3.52993 3.40658
# Velocity P-wave (km/s) = 6.13468 6.55990 6.35085
#
# Compressibility (1/GPa) = 0.02140397
#
# Stress axis : x y z
#
# Youngs Moduli (GPa) = 64.84706 43.85938 78.18233
#
# Poissons Ratio (x) = 0.44927 0.35374
# Poissons Ratio (y) = 0.66425 0.00281
# Poissons Ratio (z) = 0.29340 0.00157
#
# Static dielectric constant tensor:
#      x y z
#    x 3.880090 0.000000 -0.183100 
#    y 0.000000 3.248880 0.000000 
#    z -0.183100 0.000000 3.851410 
# 
# 
# High freq. dielectric constant tensor:
#      x y z
#    x 1.790330 0.000000 -0.013480 
#    y 0.000000 1.727680 0.000000 
#    z -0.013480 0.000000 1.806990 
# 
# From -- ./inp_files/36532.got.cif
#   From: 2010.06.25/outbox.cif.g09.slc.cpg/sg11_19_cif.got.tgz:36532.got - 2010.06.27 23:14:04.
