data_PCOD8077641
_publ_section_title
;
Structure prediction by ZEFSAII (Michael W. Deem and Ramdas Pophale) SiO2 
 PCOD8077641
Probable space group: P 21/M
;
_chemical_formula_sum "Si O2"
_cell_formula_units_Z 20
_cell_length_a 7.795019
_cell_length_b 17.338983
_cell_length_c 11.567697
_cell_angle_alpha 90.000000
_cell_angle_beta 39.592989
_cell_angle_gamma 90.000000
_cell_volume 996.441625
_symmetry_space_group_name_H-M "P 21/M"
_symmetry_group_IT_number 11
_symmetry_cell_setting 'monoclinic'
loop_
_space_group_symop_operation_xyz
x,y,z
-x,1/2+y,-z
-x,-y,-z
x,1/2-y,z
loop_
_atom_site_type_symbol
_atom_site_label
_atom_site_fract_x
_atom_site_fract_y
_atom_site_fract_z
Si Si1 0.017208 0.106101 0.070712
Si Si2 0.171315 0.966478 0.279471
Si Si3 0.700725 0.058733 0.455307
Si Si4 0.449242 0.836538 0.272357
Si Si5 0.299544 0.953029 0.956469
O O1 0.887255 0.102956 0.265151
O O2 0.785382 0.114049 0.091315
O O3 0.249352 0.171197 0.939453
O O4 0.198042 0.031305 0.949706
O O5 0.234128 0.887172 0.312247
O O6 0.381683 0.036557 0.191461
O O7 0.159355 0.939892 0.151869
O O8 0.880941 0.007430 0.453481
O O9 0.535911 0.124484 0.608173
O O10 0.500000 0.000000 0.500000
O O11 0.333280 0.750000 0.341425
#
# Coordination Sequence:
#
# PCOD8077641 Si02
#       5
#     4   4   4   4   4
#     4   9  18  34  55  79 110 141 176 225 278 330
#     4   9  17  32  56  84 111 143 186 233 276 331
#     4  11  21  36  62  87 111 149 198 241 280 335
#     4  11  23  37  55  82 117 152 187 235 296 350
#     4   8  14  30  57  83 102 133 180 223 269 327
#
# _framework density 20.071421000000001
#
# number of rings (size 3 to 8) (size 9 to 14) (size 15 to 20)
#    0.000    2.400    0.000    6.600    0.000    0.800 
#    0.000    4.000    0.000    3.600    0.000    0.000 
#    0.000    0.000    0.000    0.000    0.000    0.000 
#
# Total GULP energy -247797.289603 kJ/mol
# GULP energy per Si atom -12389.864480 kJ/mol
# Density = 2.002574 g / cm^3
# Si number density = 20.071421 Si / 1000 Ang^3
#
#
#
# Elastic Constant Matrix: (Units=GPa)
#
#
# Indices 1 2 3 4 5 6 
#
# 1 101.8968 37.7982 17.1559 0.0000 -4.5549 0.0000
# 2 37.7982 99.2368 38.7877 0.0000 2.3727 0.0000
# 3 17.1559 38.7877 90.5252 0.0000 -4.4379 0.0000
# 4 0.0000 0.0000 0.0000 19.2236 0.0000 -0.5271
# 5 -4.5549 2.3727 -4.4379 0.0000 26.9260 0.0000
# 6 0.0000 0.0000 0.0000 -0.5271 0.0000 14.8436
#
#
#
# Elastic Compliance Matrix: (Units=1/GPa)
#
#
# Indices 1 2 3 4 5 6 
#
# 1 0.011578 -0.004387 -0.000201 0.000000 0.002312 0.000000
# 2 -0.004387 0.013867 -0.005249 0.000000 -0.002829 0.000000
# 3 -0.000201 -0.005249 0.013464 0.000000 0.002648 0.000000
# 4 0.000000 0.000000 0.000000 0.052070 0.000000 0.001849
# 5 0.002312 -0.002829 0.002648 0.000000 0.038216 0.000000
# 6 0.000000 0.000000 0.000000 0.001849 0.000000 0.067435
#
#
# Mechanical properties :
#
#
# Convention : Reuss Voigt Hill
#
# Bulk Modulus (GPa) = 51.98864 53.23804 52.61334
# Shear Modulus (GPa) = 22.45022 25.39311 23.92167
#
# Velocity S-wave (km/s) = 3.34805 3.56074 3.45603
# Velocity P-wave (km/s) = 6.39562 6.59447 6.49581
#
# Compressibility (1/GPa) = 0.01923497
#
# Stress axis : x y z
#
# Youngs Moduli (GPa) = 86.36845 72.11369 74.27393
#
# Poissons Ratio (x) = 0.31634 0.01496
# Poissons Ratio (y) = 0.37887 0.38986
# Poissons Ratio (z) = 0.01739 0.37853
#
# Static dielectric constant tensor:
#      x y z
#    x 4.022300 0.000000 0.006100 
#    y 0.000000 3.209050 0.000000 
#    z 0.006100 0.000000 3.720410 
# 
# 
# High freq. dielectric constant tensor:
#      x y z
#    x 1.798470 0.000000 0.007700 
#    y 0.000000 1.717190 0.000000 
#    z 0.007700 0.000000 1.792590 
# 
# From -- ./inp_files/32158.got.cif
#   From: 2010.06.25/outbox.cif.g09.slc.cpg/sg11_17_cif.got.tgz:32158.got - 2010.06.27 23:14:04.
