data_PCOD8077566
_publ_section_title
;
Structure prediction by ZEFSAII (Michael W. Deem and Ramdas Pophale) SiO2 
 PCOD8077566
Probable space group: P 21/M
;
_chemical_formula_sum "Si O2"
_cell_formula_units_Z 24
_cell_length_a 9.148886
_cell_length_b 18.256393
_cell_length_c 11.240991
_cell_angle_alpha 90.000000
_cell_angle_beta 42.105528
_cell_angle_gamma 90.000000
_cell_volume 1258.883121
_symmetry_space_group_name_H-M "P 21/M"
_symmetry_group_IT_number 11
_symmetry_cell_setting 'monoclinic'
loop_
_space_group_symop_operation_xyz
x,y,z
-x,1/2+y,-z
-x,-y,-z
x,1/2-y,z
loop_
_atom_site_type_symbol
_atom_site_label
_atom_site_fract_x
_atom_site_fract_y
_atom_site_fract_z
Si Si1 0.236920 0.441464 0.646595
Si Si2 0.064936 0.597867 0.789524
Si Si3 0.363826 0.078965 0.833311
Si Si4 0.207539 0.834364 0.463027
Si Si5 0.173992 0.164689 0.486031
Si Si6 0.577365 0.422033 0.255213
O O1 0.087791 0.513323 0.737372
O O2 0.273797 0.409196 0.754827
O O3 0.111288 0.379054 0.644415
O O4 0.468162 0.457333 0.441173
O O5 0.153021 0.650356 0.633214
O O6 0.198226 0.613589 0.832179
O O7 0.810721 0.614017 0.969922
O O8 0.594921 0.118220 0.708596
O O9 0.382771 0.992028 0.853789
O O10 0.273193 0.750000 0.410323
O O11 0.996111 0.854445 0.513899
O O12 0.182543 0.250000 0.510573
O O13 0.414717 0.137631 0.294872
#
# Coordination Sequence:
#
# PCOD8077566 Si02
#       6
#     4   4   4   4   4   4
#     4   9  17  34  59  82 109 139 179 223 274 316
#     4  11  20  35  59  86 110 140 179 227 277 326
#     4  11  20  35  59  86 110 140 179 227 277 326
#     4  11  22  39  54  76 114 149 182 225 270 324
#     4   9  20  35  58  78 106 153 186 217 272 322
#     4   9  17  34  59  82 109 139 179 223 274 316
#
# _framework density 19.064516999999999
#
# number of rings (size 3 to 8) (size 9 to 14) (size 15 to 20)
#    1.000    1.000    3.333    3.000    0.000    6.000 
#    0.000    5.000    0.000    7.000    0.000    0.000 
#    0.000    0.000    0.000    0.000    0.000    0.000 
#
# Total GULP energy -297445.434905 kJ/mol
# GULP energy per Si atom -12393.559788 kJ/mol
# Density = 1.902113 g / cm^3
# Si number density = 19.064517 Si / 1000 Ang^3
#
#
#
# Elastic Constant Matrix: (Units=GPa)
#
#
# Indices 1 2 3 4 5 6 
#
# 1 81.8357 48.8892 10.2089 0.0000 -23.1049 0.0000
# 2 48.8892 62.0339 4.7496 0.0000 -11.8629 0.0000
# 3 10.2089 4.7496 87.4514 0.0000 -23.6941 0.0000
# 4 0.0000 0.0000 0.0000 7.7292 0.0000 -5.0859
# 5 -23.1049 -11.8629 -23.6941 0.0000 19.4850 0.0000
# 6 0.0000 0.0000 0.0000 -5.0859 0.0000 32.9427
#
#
#
# Elastic Compliance Matrix: (Units=1/GPa)
#
#
# Indices 1 2 3 4 5 6 
#
# 1 0.033451 -0.020034 0.006898 0.000000 0.035856 0.000000
# 2 -0.020034 0.030790 -0.001031 0.000000 -0.006263 0.000000
# 3 0.006898 -0.001031 0.018988 0.000000 0.030641 0.000000
# 4 0.000000 0.000000 0.000000 0.144008 0.000000 0.022233
# 5 0.035856 -0.006263 0.030641 0.000000 0.127286 0.000000
# 6 0.000000 0.000000 0.000000 0.022233 0.000000 0.033788
#
#
# Mechanical properties :
#
#
# Convention : Reuss Voigt Hill
#
# Bulk Modulus (GPa) = 18.21640 39.89071 29.05355
# Shear Modulus (GPa) = 11.49576 23.19628 17.34602
#
# Velocity S-wave (km/s) = 2.45825 3.49194 3.01966
# Velocity P-wave (km/s) = 4.19919 6.10145 5.23741
#
# Compressibility (1/GPa) = 0.05489560
#
# Stress axis : x y z
#
# Youngs Moduli (GPa) = 29.89448 32.47772 52.66596
#
# Poissons Ratio (x) = 0.65066 -0.36329
# Poissons Ratio (y) = 0.59891 0.05427
# Poissons Ratio (z) = -0.20621 0.03347
#
# Static dielectric constant tensor:
#      x y z
#    x 3.350150 0.000000 -0.160480 
#    y 0.000000 3.312980 0.000000 
#    z -0.160480 0.000000 3.335700 
# 
# 
# High freq. dielectric constant tensor:
#      x y z
#    x 1.730380 0.000000 -0.016370 
#    y 0.000000 1.728990 0.000000 
#    z -0.016370 0.000000 1.726580 
# 
# From -- ./inp_files/32592.got.cif
#   From: 2010.06.25/outbox.cif.g09.slc.cpg/sg11_17_cif.got.tgz:32592.got - 2010.06.27 23:14:04.
