data_PCOD8077619
_publ_section_title
;
Structure prediction by ZEFSAII (Michael W. Deem and Ramdas Pophale) SiO2 
 PCOD8077619
Probable space group: P 21/M
;
_chemical_formula_sum "Si O2"
_cell_formula_units_Z 28
_cell_length_a 17.829565
_cell_length_b 9.115413
_cell_length_c 22.162765
_cell_angle_alpha 90.000000
_cell_angle_beta 26.998670
_cell_angle_gamma 90.000000
_cell_volume 1635.189231
_symmetry_space_group_name_H-M "P 21/M"
_symmetry_group_IT_number 11
_symmetry_cell_setting 'monoclinic'
loop_
_space_group_symop_operation_xyz
x,y,z
-x,1/2+y,-z
-x,-y,-z
x,1/2-y,z
loop_
_atom_site_type_symbol
_atom_site_label
_atom_site_fract_x
_atom_site_fract_y
_atom_site_fract_z
Si Si1 0.533911 0.086401 0.618919
Si Si2 0.347333 0.076731 0.641018
Si Si3 0.282339 0.419165 0.420491
Si Si4 0.148373 0.917227 0.693766
Si Si5 0.175152 0.076192 0.366541
Si Si6 0.333763 0.922760 0.139060
Si Si7 0.977056 0.080113 0.718036
O O1 0.520666 0.250000 0.653069
O O2 0.369431 0.047463 0.697464
O O3 0.690158 0.068010 0.463068
O O4 0.557696 0.989194 0.661589
O O5 0.350924 0.250000 0.624633
O O6 0.500000 0.000000 0.500000
O O7 0.180023 0.004397 0.734155
O O8 0.299110 0.250000 0.421206
O O9 0.282795 0.454216 0.349345
O O10 0.110073 0.475727 0.573040
O O11 0.104267 0.750000 0.740832
O O12 0.996102 0.989649 0.766572
O O13 0.150931 0.250000 0.372977
O O14 0.273238 0.001428 0.242591
O O15 0.000000 0.000000 0.500000
O O16 0.359312 0.750000 0.133095
O O17 0.203755 0.948706 0.178685
O O18 0.500000 0.000000 0.000000
O O19 0.005220 0.250000 0.712943
#
# Coordination Sequence:
#
# PCOD8077619 Si02
#       7
#     4   4   4   4   4   4   4
#     4   8  15  24  35  56  85 118 155 193 236 285
#     4   9  15  23  34  52  81 118 156 192 235 286
#     4   9  17  29  45  67  93 123 161 201 245 293
#     4   9  16  24  37  59  84 116 158 196 237 288
#     4  11  21  35  54  77 102 133 171 214 256 305
#     4  11  23  39  55  76 102 134 171 212 262 310
#     4   9  17  31  47  65  93 125 161 202 246 296
#
# _framework density 17.123401000000001
#
# number of rings (size 3 to 8) (size 9 to 14) (size 15 to 20)
#    0.000    2.571    1.429    2.571    0.000    6.286 
#    0.000    0.000    0.000    0.000    0.000    0.000 
#    0.000    1.143    0.000    3.714    0.000    5.714 
#
# Total GULP energy -347007.580965 kJ/mol
# GULP energy per Si atom -12393.127892 kJ/mol
# Density = 1.708443 g / cm^3
# Si number density = 17.123401 Si / 1000 Ang^3
#
#
#
# Elastic Constant Matrix: (Units=GPa)
#
#
# Indices 1 2 3 4 5 6 
#
# 1 163.3843 90.3990 40.9686 0.0000 -4.2474 0.0000
# 2 90.3990 115.2188 37.2455 0.0000 -0.0136 0.0000
# 3 40.9686 37.2455 59.0341 0.0000 1.3110 0.0000
# 4 0.0000 0.0000 0.0000 17.8706 0.0000 -0.2577
# 5 -4.2474 -0.0136 1.3110 0.0000 9.8217 0.0000
# 6 0.0000 0.0000 0.0000 -0.2577 0.0000 38.6540
#
#
#
# Elastic Compliance Matrix: (Units=1/GPa)
#
#
# Indices 1 2 3 4 5 6 
#
# 1 0.011443 -0.008004 -0.003010 0.000000 0.005339 0.000000
# 2 -0.008004 0.016510 -0.004800 0.000000 -0.002798 0.000000
# 3 -0.003010 -0.004800 0.022151 0.000000 -0.004265 0.000000
# 4 0.000000 0.000000 0.000000 0.055963 0.000000 0.000373
# 5 0.005339 -0.002798 -0.004265 0.000000 0.104690 0.000000
# 6 0.000000 0.000000 0.000000 0.000373 0.000000 0.025873
#
#
# Mechanical properties :
#
#
# Convention : Reuss Voigt Hill
#
# Bulk Modulus (GPa) = 54.12174 74.98484 64.55329
# Shear Modulus (GPa) = 18.22052 24.53752 21.37902
#
# Velocity S-wave (km/s) = 3.26555 3.78958 3.53728
# Velocity P-wave (km/s) = 6.77451 7.93938 7.37996
#
# Compressibility (1/GPa) = 0.01847686
#
# Stress axis : x y z
#
# Youngs Moduli (GPa) = 87.39231 60.56803 45.14490
#
# Poissons Ratio (x) = 0.48480 0.13587
# Poissons Ratio (y) = 0.69951 0.21668
# Poissons Ratio (z) = 0.26301 0.29071
#
# Static dielectric constant tensor:
#      x y z
#    x 5.359410 0.000000 0.796420 
#    y 0.000000 3.335840 0.000000 
#    z 0.796420 0.000000 3.003530 
# 
# 
# High freq. dielectric constant tensor:
#      x y z
#    x 1.686460 0.000000 -0.003560 
#    y 0.000000 1.673450 0.000000 
#    z -0.003560 0.000000 1.579150 
# 
# From -- ./inp_files/65992.got.cif
#   From: 2010.06.25/outbox.cif.g09.slc.cpg/sg11_33_cif.got.tgz:65992.got - 2010.06.27 23:14:04.
