data_PCOD8077563
_publ_section_title
;
Structure prediction by ZEFSAII (Michael W. Deem and Ramdas Pophale) SiO2 
 PCOD8077563
Probable space group: P 21/M
;
_chemical_formula_sum "Si O2"
_cell_formula_units_Z 20
_cell_length_a 11.085721
_cell_length_b 10.140284
_cell_length_c 11.973577
_cell_angle_alpha 90.000000
_cell_angle_beta 125.710734
_cell_angle_gamma 90.000000
_cell_volume 1092.899428
_symmetry_space_group_name_H-M "P 21/M"
_symmetry_group_IT_number 11
_symmetry_cell_setting 'monoclinic'
loop_
_space_group_symop_operation_xyz
x,y,z
-x,1/2+y,-z
-x,-y,-z
x,1/2-y,z
loop_
_atom_site_type_symbol
_atom_site_label
_atom_site_fract_x
_atom_site_fract_y
_atom_site_fract_z
Si Si1 0.731531 0.750000 0.713056
Si Si2 0.760658 0.012293 0.392890
Si Si3 0.618950 0.750000 0.407494
Si Si4 0.915881 0.488881 0.839039
Si Si5 0.956288 0.593308 0.313656
Si Si6 0.697470 0.250000 0.687613
Si Si7 0.582857 0.250000 0.370168
O O1 0.649126 0.750000 0.552988
O O2 0.836205 0.625679 0.776920
O O3 0.596790 0.750000 0.729624
O O4 0.688947 0.876533 0.389862
O O5 0.826633 0.989210 0.304841
O O6 0.634123 0.123209 0.326669
O O7 0.887374 0.058929 0.545836
O O8 0.440938 0.750000 0.302238
O O9 0.791668 0.377336 0.769397
O O10 0.038808 0.457046 0.810860
O O11 0.000000 0.500000 0.000000
O O12 0.927427 0.750000 0.304681
O O13 0.652604 0.250000 0.532632
#
# Coordination Sequence:
#
# PCOD8077563 Si02
#       7
#     2   4   2   4   4   2   2
#     4  11  23  35  57  94 114 149 198 235 289 336
#     4  11  20  34  58  88 117 150 185 240 294 340
#     4  11  20  34  60  87 119 146 190 243 286 356
#     4  12  23  39  59  82 118 155 195 234 277 346
#     4  11  21  36  57  85 122 151 190 232 295 339
#     4  11  21  39  57  84 120 157 188 231 305 332
#     4  11  20  38  60  85 127 146 180 253 292 342
#
# _framework density 18.299945999999998
#
# number of rings (size 3 to 8) (size 9 to 14) (size 15 to 20)
#    0.000    0.800    7.000    1.800    0.000    4.000 
#    0.000    0.000    0.000    7.200    0.000    0.000 
#    0.000    0.000    0.000    0.000    0.000    0.000 
#
# Total GULP energy -247983.224283 kJ/mol
# GULP energy per Si atom -12399.161214 kJ/mol
# Density = 1.825829 g / cm^3
# Si number density = 18.299946 Si / 1000 Ang^3
#
#
#
# Elastic Constant Matrix: (Units=GPa)
#
#
# Indices 1 2 3 4 5 6 
#
# 1 111.6054 35.2025 18.8356 0.0000 -16.5585 0.0000
# 2 35.2025 140.6851 14.0133 0.0000 -2.3188 0.0000
# 3 18.8356 14.0133 57.7490 0.0000 -14.9229 0.0000
# 4 0.0000 0.0000 0.0000 51.4075 0.0000 27.5247
# 5 -16.5585 -2.3188 -14.9229 0.0000 23.0420 0.0000
# 6 0.0000 0.0000 0.0000 27.5247 0.0000 70.4355
#
#
#
# Elastic Compliance Matrix: (Units=1/GPa)
#
#
# Indices 1 2 3 4 5 6 
#
# 1 0.010972 -0.002513 -0.001197 0.000000 0.006857 0.000000
# 2 -0.002513 0.007865 -0.001622 0.000000 -0.002065 0.000000
# 3 -0.001197 -0.001622 0.021421 0.000000 0.012849 0.000000
# 4 0.000000 0.000000 0.000000 0.024599 0.000000 -0.009613
# 5 0.006857 -0.002065 0.012849 0.000000 0.056441 0.000000
# 6 0.000000 0.000000 0.000000 -0.009613 0.000000 0.017954
#
#
# Mechanical properties :
#
#
# Convention : Reuss Voigt Hill
#
# Bulk Modulus (GPa) = 33.79261 49.57138 41.68200
# Shear Modulus (GPa) = 31.29288 45.10952 38.20120
#
# Velocity S-wave (km/s) = 4.13970 4.97027 4.57388
# Velocity P-wave (km/s) = 6.43083 7.75146 7.12182
#
# Compressibility (1/GPa) = 0.02959227
#
# Stress axis : x y z
#
# Youngs Moduli (GPa) = 91.13940 127.15359 46.68347
#
# Poissons Ratio (x) = 0.31957 0.05588
# Poissons Ratio (y) = 0.22906 0.07574
# Poissons Ratio (z) = 0.10910 0.20629
#
# Static dielectric constant tensor:
#      x y z
#    x 3.527410 0.000000 -0.303610 
#    y 0.000000 3.526690 0.000000 
#    z -0.303610 0.000000 2.862620 
# 
# 
# High freq. dielectric constant tensor:
#      x y z
#    x 1.731080 0.000000 -0.002290 
#    y 0.000000 1.733320 0.000000 
#    z -0.002290 0.000000 1.663320 
# 
# From -- ./inp_files/33543.got.cif
#   From: 2010.06.25/outbox.cif.g09.slc.cpg/sg11_17_cif.got.tgz:33543.got - 2010.06.27 23:14:04.
