data_PCOD8077378
_publ_section_title
;
Structure prediction by ZEFSAII (Michael W. Deem and Ramdas Pophale) SiO2 
 PCOD8077378
Probable space group: P 21/M
;
_chemical_formula_sum "Si O2"
_cell_formula_units_Z 24
_cell_length_a 13.787091
_cell_length_b 8.693146
_cell_length_c 17.009954
_cell_angle_alpha 90.000000
_cell_angle_beta 144.351468
_cell_angle_gamma 90.000000
_cell_volume 1188.176236
_symmetry_space_group_name_H-M "P 21/M"
_symmetry_group_IT_number 11
_symmetry_cell_setting 'monoclinic'
loop_
_space_group_symop_operation_xyz
x,y,z
-x,1/2+y,-z
-x,-y,-z
x,1/2-y,z
loop_
_atom_site_type_symbol
_atom_site_label
_atom_site_fract_x
_atom_site_fract_y
_atom_site_fract_z
Si Si1 0.712091 0.069360 0.501947
Si Si2 0.481525 0.930581 0.902381
Si Si3 0.884094 0.571106 0.755237
Si Si4 0.177822 0.568115 0.597674
Si Si5 0.638085 0.069987 0.716890
Si Si6 0.259258 0.571682 0.040671
O O1 0.673547 0.250000 0.477353
O O2 0.766685 0.012293 0.451945
O O3 0.857530 0.027685 0.658758
O O4 0.551097 0.976218 0.424570
O O5 0.469791 0.750000 0.903304
O O6 0.313990 0.993440 0.749854
O O7 0.642020 0.971828 0.957212
O O8 0.500000 0.000000 0.000000
O O9 0.865463 0.750000 0.722526
O O10 0.754251 0.526608 0.736486
O O11 0.066090 0.531141 0.906849
O O12 0.164395 0.750000 0.591540
O O13 0.000000 0.500000 0.500000
O O14 0.664613 0.250000 0.718064
O O15 0.682202 0.023162 0.834504
O O16 0.295468 0.750000 0.047718
#
# Coordination Sequence:
#
# PCOD8077378 Si02
#       6
#     4   4   4   4   4   4
#     4  11  23  42  63  90 125 163 208 253 304 363
#     4  11  24  43  66  94 125 161 203 252 308 365
#     4  11  24  40  61  92 127 164 205 254 305 361
#     4  10  24  43  65  92 123 160 203 252 306 363
#     4  11  22  40  65  92 122 163 208 253 308 364
#     4  10  23  42  64  92 125 162 206 253 307 364
#
# _framework density 20.199024000000001
#
# number of rings (size 3 to 8) (size 9 to 14) (size 15 to 20)
#    0.000    1.333    1.667    3.000    2.333    4.667 
#    0.000    0.000    0.000    0.000    0.000    0.000 
#    0.000    0.000    0.000    0.000    0.000    0.000 
#
# Total GULP energy -297762.074687 kJ/mol
# GULP energy per Si atom -12406.753112 kJ/mol
# Density = 2.015305 g / cm^3
# Si number density = 20.199024 Si / 1000 Ang^3
#
#
#
# Elastic Constant Matrix: (Units=GPa)
#
#
# Indices 1 2 3 4 5 6 
#
# 1 115.1111 30.2348 36.7925 0.0000 0.6681 0.0000
# 2 30.2348 41.2639 26.6369 0.0000 -2.5212 0.0000
# 3 36.7925 26.6369 82.4940 0.0000 -2.0896 0.0000
# 4 0.0000 0.0000 0.0000 32.5739 0.0000 0.5916
# 5 0.6681 -2.5212 -2.0896 0.0000 43.2572 0.0000
# 6 0.0000 0.0000 0.0000 0.5916 0.0000 38.2697
#
#
#
# Elastic Compliance Matrix: (Units=1/GPa)
#
#
# Indices 1 2 3 4 5 6 
#
# 1 0.011335 -0.006409 -0.003004 0.000000 -0.000694 0.000000
# 2 -0.006409 0.034313 -0.008178 0.000000 0.001704 0.000000
# 3 -0.003004 -0.008178 0.016111 0.000000 0.000348 0.000000
# 4 0.000000 0.000000 0.000000 0.030708 0.000000 -0.000475
# 5 -0.000694 0.001704 0.000348 0.000000 0.023244 0.000000
# 6 0.000000 0.000000 0.000000 -0.000475 0.000000 0.026138
#
#
# Mechanical properties :
#
#
# Convention : Reuss Voigt Hill
#
# Bulk Modulus (GPa) = 37.62444 47.35528 42.48986
# Shear Modulus (GPa) = 26.89774 32.50047 29.69910
#
# Velocity S-wave (km/s) = 3.65312 4.01560 3.83864
# Velocity P-wave (km/s) = 6.03829 6.70785 6.38186
#
# Compressibility (1/GPa) = 0.02657847
#
# Stress axis : x y z
#
# Youngs Moduli (GPa) = 88.22582 29.14321 62.06872
#
# Poissons Ratio (x) = 0.18677 0.18642
# Poissons Ratio (y) = 0.56540 0.50761
# Poissons Ratio (z) = 0.26499 0.23834
#
# Static dielectric constant tensor:
#      x y z
#    x 2.555100 0.000000 -0.852130 
#    y 0.000000 4.274810 0.000000 
#    z -0.852130 0.000000 3.503470 
# 
# 
# High freq. dielectric constant tensor:
#      x y z
#    x 1.798120 0.000000 -0.004440 
#    y 0.000000 1.789520 0.000000 
#    z -0.004440 0.000000 1.806790 
# 
# From -- ./inp_files/60197.got.cif
#   From: 2010.06.25/outbox.cif.g09.slc.cpg/sg11_31_cif.got.tgz:60197.got - 2010.06.27 23:14:04.
