data_PCOD8077472
_publ_section_title
;
Structure prediction by ZEFSAII (Michael W. Deem and Ramdas Pophale) SiO2 
 PCOD8077472
Probable space group: P 21/M
;
_chemical_formula_sum "Si O2"
_cell_formula_units_Z 24
_cell_length_a 8.887203
_cell_length_b 17.266989
_cell_length_c 14.746934
_cell_angle_alpha 90.000000
_cell_angle_beta 33.028870
_cell_angle_gamma 90.000000
_cell_volume 1233.471155
_symmetry_space_group_name_H-M "P 21/M"
_symmetry_group_IT_number 11
_symmetry_cell_setting 'monoclinic'
loop_
_space_group_symop_operation_xyz
x,y,z
-x,1/2+y,-z
-x,-y,-z
x,1/2-y,z
loop_
_atom_site_type_symbol
_atom_site_label
_atom_site_fract_x
_atom_site_fract_y
_atom_site_fract_z
Si Si1 0.934169 0.840916 0.869260
Si Si2 0.974006 0.659823 0.199605
Si Si3 0.453888 0.081036 0.070758
Si Si4 0.701940 0.536720 0.649262
Si Si5 0.426709 0.340009 0.434004
Si Si6 0.209998 0.430711 0.882840
O O1 0.884387 0.750000 0.898123
O O2 0.803846 0.874454 0.843215
O O3 0.256764 0.862193 0.706771
O O4 0.780123 0.878778 0.032288
O O5 0.994780 0.750000 0.170224
O O6 0.747453 0.639570 0.389232
O O7 0.881220 0.621271 0.153993
O O8 0.270448 0.630638 0.082640
O O9 0.391748 0.069049 0.207025
O O10 0.500000 0.000000 0.000000
O O11 0.692339 0.609693 0.587516
O O12 0.508433 0.466910 0.713327
O O13 0.000000 0.500000 0.500000
O O14 0.396820 0.250000 0.422111
O O15 0.000000 0.500000 0.000000
#
# Coordination Sequence:
#
# PCOD8077472 Si02
#       6
#     4   4   4   4   4   4
#     4  11  23  41  65  94 126 169 213 263 317 377
#     4  11  24  43  66  93 128 171 211 261 320 379
#     4  12  23  42  65  96 129 164 214 262 317 379
#     4  12  26  42  65  96 128 169 212 265 324 373
#     4  10  24  44  65  93 129 168 214 262 318 380
#     4  12  22  43  65  93 124 165 216 259 315 384
#
# _framework density 19.457284999999999
#
# number of rings (size 3 to 8) (size 9 to 14) (size 15 to 20)
#    0.000    0.667    5.000    2.000    2.333    3.333 
#    0.000    0.833    0.000    0.000    0.000    0.000 
#    0.000    0.000    0.000    0.000    0.000    0.000 
#
# Total GULP energy -297753.432684 kJ/mol
# GULP energy per Si atom -12406.393028 kJ/mol
# Density = 1.941300 g / cm^3
# Si number density = 19.457285 Si / 1000 Ang^3
#
#
#
# Elastic Constant Matrix: (Units=GPa)
#
#
# Indices 1 2 3 4 5 6 
#
# 1 113.0320 56.8435 32.1410 0.0000 -4.4198 0.0000
# 2 56.8435 107.1748 46.6488 0.0000 2.3077 0.0000
# 3 32.1410 46.6488 98.3799 0.0000 -12.8006 0.0000
# 4 0.0000 0.0000 0.0000 36.0784 0.0000 -0.1991
# 5 -4.4198 2.3077 -12.8006 0.0000 41.8078 0.0000
# 6 0.0000 0.0000 0.0000 -0.1991 0.0000 49.9114
#
#
#
# Elastic Compliance Matrix: (Units=1/GPa)
#
#
# Indices 1 2 3 4 5 6 
#
# 1 0.012239 -0.006120 -0.000921 0.000000 0.001350 0.000000
# 2 -0.006120 0.015064 -0.005557 0.000000 -0.003180 0.000000
# 3 -0.000921 -0.005557 0.013673 0.000000 0.004396 0.000000
# 4 0.000000 0.000000 0.000000 0.027718 0.000000 0.000111
# 5 0.001350 -0.003180 0.004396 0.000000 0.025583 0.000000
# 6 0.000000 0.000000 0.000000 0.000111 0.000000 0.020036
#
#
# Mechanical properties :
#
#
# Convention : Reuss Voigt Hill
#
# Bulk Modulus (GPa) = 63.37357 65.53928 64.45642
# Shear Modulus (GPa) = 34.53797 37.75641 36.14719
#
# Velocity S-wave (km/s) = 4.21772 4.40986 4.31486
# Velocity P-wave (km/s) = 7.50735 7.72567 7.61729
#
# Compressibility (1/GPa) = 0.01577945
#
# Stress axis : x y z
#
# Youngs Moduli (GPa) = 81.70396 66.38556 73.13878
#
# Poissons Ratio (x) = 0.40625 0.06738
# Poissons Ratio (y) = 0.49999 0.40644
# Poissons Ratio (z) = 0.07527 0.36891
#
# Static dielectric constant tensor:
#      x y z
#    x 3.672360 0.000000 -0.070860 
#    y 0.000000 3.721260 0.000000 
#    z -0.070860 0.000000 3.765630 
# 
# 
# High freq. dielectric constant tensor:
#      x y z
#    x 1.771500 0.000000 -0.002810 
#    y 0.000000 1.774790 0.000000 
#    z -0.002810 0.000000 1.767380 
# 
# From -- ./inp_files/12605.got.cif
#   From: 2010.06.25/outbox.cif.g09.slc.cpg/sg11_7_cif.got.tgz:12605.got - 2010.06.27 23:14:04.
