data_PCOD8077890
_publ_section_title
;
Structure prediction by ZEFSAII (Michael W. Deem and Ramdas Pophale) SiO2 
 PCOD8077890
Probable space group: P 21/M
;
_chemical_formula_sum "Si O2"
_cell_formula_units_Z 24
_cell_length_a 16.334758
_cell_length_b 14.742863
_cell_length_c 8.437815
_cell_angle_alpha 90.000000
_cell_angle_beta 147.147795
_cell_angle_gamma 90.000000
_cell_volume 1102.309005
_symmetry_space_group_name_H-M "P 21/M"
_symmetry_group_IT_number 11
_symmetry_cell_setting 'monoclinic'
loop_
_space_group_symop_operation_xyz
x,y,z
-x,1/2+y,-z
-x,-y,-z
x,1/2-y,z
loop_
_atom_site_type_symbol
_atom_site_label
_atom_site_fract_x
_atom_site_fract_y
_atom_site_fract_z
Si Si1 0.123279 0.442373 0.922183
Si Si2 0.869135 0.573411 0.431527
Si Si3 0.996834 0.250000 0.230098
Si Si4 0.170218 0.250000 0.175989
Si Si5 0.672842 0.250000 0.818310
Si Si6 0.459760 0.407280 0.005738
Si Si7 0.509841 0.250000 0.855504
Si Si8 0.395518 0.565218 0.428082
O O1 0.174616 0.440420 0.822663
O O2 0.953802 0.485616 0.646284
O O3 0.126727 0.342136 0.007734
O O4 0.234299 0.514360 0.190163
O O5 0.720194 0.598728 0.284716
O O6 0.970351 0.662028 0.611725
O O7 0.072142 0.250000 0.178565
O O8 0.817569 0.250000 0.939763
O O9 0.349684 0.250000 0.499721
O O10 0.660315 0.250000 0.990120
O O11 0.592633 0.156166 0.652880
O O12 0.525576 0.334621 0.994546
O O13 0.500000 0.500000 0.000000
O O14 0.538376 0.400041 0.300922
O O15 0.500000 0.500000 0.500000
#
# Coordination Sequence:
#
# PCOD8077890 Si02
#       8
#     4   4   2   2   2   4   2   4
#     4  11  25  44  75 104 142 189 239 295 359 430
#     4  11  24  46  71 103 144 190 237 290 363 430
#     4  12  25  47  75 101 146 188 235 304 361 425
#     4  12  25  45  71 110 137 188 241 298 358 436
#     4  12  27  47  71 105 142 186 247 298 357 433
#     4  12  25  44  71 106 145 188 236 299 359 427
#     4  12  27  45  71 104 147 188 239 302 358 424
#     4  12  24  45  74 107 143 188 238 298 362 430
#
# _framework density 21.772478
#
# number of rings (size 3 to 8) (size 9 to 14) (size 15 to 20)
#    0.000    0.333    5.000    4.000    0.000    2.000 
#    0.000    2.500    0.000    0.000    0.000    0.000 
#    0.000    0.000    0.000    0.000    0.000    0.000 
#
# Total GULP energy -297371.977961 kJ/mol
# GULP energy per Si atom -12390.499082 kJ/mol
# Density = 2.172292 g / cm^3
# Si number density = 21.772478 Si / 1000 Ang^3
#
#
#
# Elastic Constant Matrix: (Units=GPa)
#
#
# Indices 1 2 3 4 5 6 
#
# 1 103.6986 33.6678 29.9146 0.0000 1.7524 0.0000
# 2 33.6678 182.1565 43.0301 0.0000 -15.2573 0.0000
# 3 29.9146 43.0301 90.5705 0.0000 -12.2078 0.0000
# 4 0.0000 0.0000 0.0000 18.1687 0.0000 -17.0555
# 5 1.7524 -15.2573 -12.2078 0.0000 24.8452 0.0000
# 6 0.0000 0.0000 0.0000 -17.0555 0.0000 42.1268
#
#
#
# Elastic Compliance Matrix: (Units=1/GPa)
#
#
# Indices 1 2 3 4 5 6 
#
# 1 0.011191 -0.001546 -0.003423 0.000000 -0.003421 0.000000
# 2 -0.001546 0.006549 -0.002189 0.000000 0.003055 0.000000
# 3 -0.003423 -0.002189 0.013989 0.000000 0.005771 0.000000
# 4 0.000000 0.000000 0.000000 0.088781 0.000000 0.035944
# 5 -0.003421 0.003055 0.005771 0.000000 0.045202 0.000000
# 6 0.000000 0.000000 0.000000 0.035944 0.000000 0.038290
#
#
# Mechanical properties :
#
#
# Convention : Reuss Voigt Hill
#
# Bulk Modulus (GPa) = 57.42766 65.51675 61.47220
# Shear Modulus (GPa) = 22.30935 35.01568 28.66252
#
# Velocity S-wave (km/s) = 3.20450 4.01465 3.63224
# Velocity P-wave (km/s) = 6.33445 7.18657 6.77392
#
# Compressibility (1/GPa) = 0.01741321
#
# Stress axis : x y z
#
# Youngs Moduli (GPa) = 89.36150 152.70659 71.48346
#
# Poissons Ratio (x) = 0.23614 0.24465
# Poissons Ratio (y) = 0.13818 0.15645
# Poissons Ratio (z) = 0.30584 0.33422
#
# Static dielectric constant tensor:
#      x y z
#    x 4.002640 0.000000 -0.031480 
#    y 0.000000 3.851840 0.000000 
#    z -0.031480 0.000000 4.106680 
# 
# 
# High freq. dielectric constant tensor:
#      x y z
#    x 1.860510 0.000000 -0.002730 
#    y 0.000000 1.884320 0.000000 
#    z -0.002730 0.000000 1.855050 
# 
# From -- ./inp_files/25017.got.cif
#   From: 2010.06.25/outbox.cif.g09.slc.cpg/sg11_13_cif.got.tgz:25017.got - 2010.06.27 23:14:04.
