data_PCOD8077059
_publ_section_title
;
Structure prediction by ZEFSAII (Michael W. Deem and Ramdas Pophale) SiO2 
 PCOD8077059
Probable space group: P 21/M
;
_chemical_formula_sum "Si O2"
_cell_formula_units_Z 28
_cell_length_a 15.273268
_cell_length_b 8.972980
_cell_length_c 20.605077
_cell_angle_alpha 90.000000
_cell_angle_beta 151.830957
_cell_angle_gamma 90.000000
_cell_volume 1333.071611
_symmetry_space_group_name_H-M "P 21/M"
_symmetry_group_IT_number 11
_symmetry_cell_setting 'monoclinic'
loop_
_space_group_symop_operation_xyz
x,y,z
-x,1/2+y,-z
-x,-y,-z
x,1/2-y,z
loop_
_atom_site_type_symbol
_atom_site_label
_atom_site_fract_x
_atom_site_fract_y
_atom_site_fract_z
Si Si1 0.419434 0.072882 0.630082
Si Si2 0.821089 0.574653 0.917439
Si Si3 0.640312 0.417703 0.169181
Si Si4 0.987264 0.577677 0.162511
Si Si5 0.244605 0.075151 0.869248
Si Si6 0.825106 0.421690 0.420255
Si Si7 0.337683 0.077149 0.430126
O O1 0.437647 0.250000 0.653064
O O2 0.337414 0.032806 0.505833
O O3 0.624957 0.001106 0.770888
O O4 0.263430 0.007074 0.576611
O O5 0.813712 0.750000 0.894592
O O6 0.000000 0.500000 0.000000
O O7 0.847170 0.552021 0.011548
O O8 0.655186 0.250000 0.153861
O O9 0.795660 0.507823 0.228753
O O10 0.664970 0.427169 0.261842
O O11 0.440668 0.487266 0.023225
O O12 0.047393 0.750000 0.204858
O O13 0.164642 0.474304 0.273787
O O14 0.901764 0.521175 0.174134
O O15 0.243953 0.250000 0.863566
O O16 0.873462 0.250000 0.470396
O O17 0.000000 0.500000 0.500000
O O18 0.362105 0.250000 0.438122
O O19 0.500000 0.000000 0.500000
#
# Coordination Sequence:
#
# PCOD8077059 Si02
#       7
#     4   4   4   4   4   4   4
#     4  11  25  44  65  94 131 170 216 268 320 381
#     4  11  23  41  66  96 129 165 209 263 322 385
#     4   9  19  36  56  81 117 153 192 244 297 347
#     4  10  22  39  61  89 122 157 202 254 307 370
#     4   9  18  34  57  84 112 149 193 240 296 356
#     4  11  24  41  62  88 124 168 214 262 313 373
#     4  11  25  43  64  91 125 163 208 260 316 377
#
# _framework density 21.004123
#
# number of rings (size 3 to 8) (size 9 to 14) (size 15 to 20)
#    0.000    1.714    0.000    3.429    2.000   10.857 
#    0.000    2.857    0.000    0.000    0.000    0.000 
#    0.000    0.000    0.000    0.000    0.000    0.000 
#
# Total GULP energy -347021.046322 kJ/mol
# GULP energy per Si atom -12393.608797 kJ/mol
# Density = 2.095632 g / cm^3
# Si number density = 21.004123 Si / 1000 Ang^3
#
#
#
# Elastic Constant Matrix: (Units=GPa)
#
#
# Indices 1 2 3 4 5 6 
#
# 1 103.0774 54.2204 8.2630 0.0000 7.9514 0.0000
# 2 54.2204 92.1596 36.3736 0.0000 6.6868 0.0000
# 3 8.2630 36.3736 65.4004 0.0000 6.0797 0.0000
# 4 0.0000 0.0000 0.0000 35.5577 0.0000 1.3260
# 5 7.9514 6.6868 6.0797 0.0000 35.1593 0.0000
# 6 0.0000 0.0000 0.0000 1.3260 0.0000 41.1404
#
#
#
# Elastic Compliance Matrix: (Units=1/GPa)
#
#
# Indices 1 2 3 4 5 6 
#
# 1 0.014903 -0.010184 0.003978 0.000000 -0.002121 0.000000
# 2 -0.010184 0.020923 -0.010361 0.000000 0.000115 0.000000
# 3 0.003978 -0.010361 0.020785 0.000000 -0.002523 0.000000
# 4 0.000000 0.000000 0.000000 0.028157 0.000000 -0.000908
# 5 -0.002121 0.000115 -0.002523 0.000000 0.029336 0.000000
# 6 0.000000 0.000000 0.000000 -0.000908 0.000000 0.024336
#
#
# Mechanical properties :
#
#
# Convention : Reuss Voigt Hill
#
# Bulk Modulus (GPa) = 42.59341 50.92794 46.76068
# Shear Modulus (GPa) = 27.87059 33.15684 30.51372
#
# Velocity S-wave (km/s) = 3.64663 3.97745 3.81563
# Velocity P-wave (km/s) = 6.16872 6.73742 6.45933
#
# Compressibility (1/GPa) = 0.02347781
#
# Stress axis : x y z
#
# Youngs Moduli (GPa) = 67.09914 47.79334 48.11223
#
# Poissons Ratio (x) = 0.48675 -0.19141
# Poissons Ratio (y) = 0.68336 0.49849
# Poissons Ratio (z) = -0.26695 0.49518
#
# Static dielectric constant tensor:
#      x y z
#    x 4.049080 0.000000 -0.161150 
#    y 0.000000 3.884210 0.000000 
#    z -0.161150 0.000000 3.799280 
# 
# 
# High freq. dielectric constant tensor:
#      x y z
#    x 1.839010 0.000000 -0.003320 
#    y 0.000000 1.824140 0.000000 
#    z -0.003320 0.000000 1.826550 
# 
# From -- ./inp_files/65436.got.cif
#   From: 2010.06.25/outbox.cif.g09.slc.cpg/sg11_33_cif.got.tgz:65436.got - 2010.06.27 23:14:04.
