data_PCOD8077594
_publ_section_title
;
Structure prediction by ZEFSAII (Michael W. Deem and Ramdas Pophale) SiO2 
 PCOD8077594
Probable space group: P 21/M
;
_chemical_formula_sum "Si O2"
_cell_formula_units_Z 32
_cell_length_a 9.498628
_cell_length_b 9.124013
_cell_length_c 22.368249
_cell_angle_alpha 90.000000
_cell_angle_beta 112.589754
_cell_angle_gamma 90.000000
_cell_volume 1789.829598
_symmetry_space_group_name_H-M "P 21/M"
_symmetry_group_IT_number 11
_symmetry_cell_setting 'monoclinic'
loop_
_space_group_symop_operation_xyz
x,y,z
-x,1/2+y,-z
-x,-y,-z
x,1/2-y,z
loop_
_atom_site_type_symbol
_atom_site_label
_atom_site_fract_x
_atom_site_fract_y
_atom_site_fract_z
Si Si1 0.482321 0.076190 0.685061
Si Si2 0.374629 0.586826 0.555969
Si Si3 0.461749 0.416885 0.073422
Si Si4 0.391719 0.583591 0.785580
Si Si5 0.098161 0.919748 0.817902
Si Si6 0.792421 0.575842 0.705481
Si Si7 0.265310 0.417245 0.938655
Si Si8 0.716534 0.588165 0.564763
O O1 0.492713 0.250000 0.680812
O O2 0.375607 0.014483 0.614745
O O3 0.404676 0.031785 0.734571
O O4 0.650267 0.007427 0.711035
O O5 0.317677 0.750000 0.563444
O O6 0.541279 0.593688 0.555334
O O7 0.259663 0.519909 0.487501
O O8 0.518568 0.250000 0.067696
O O9 0.462635 0.434532 0.145658
O O10 0.576851 0.535975 0.066103
O O11 0.294299 0.440900 0.015296
O O12 0.385994 0.750000 0.759484
O O13 0.237810 0.545923 0.796516
O O14 0.080049 0.750000 0.827008
O O15 0.943073 0.980557 0.763575
O O16 0.125231 0.992038 0.887630
O O17 0.764140 0.750000 0.707161
O O18 0.811621 0.534747 0.638293
O O19 0.230698 0.250000 0.917837
O O20 0.770356 0.750000 0.553670
#
# Coordination Sequence:
#
# PCOD8077594 Si02
#       8
#     4   4   4   4   4   4   4   4
#     4  11  21  31  46  70  97 123 154 193 233 272
#     4   9  16  27  44  65  90 120 152 187 229 274
#     4   8  15  27  43  64  90 121 155 190 230 274
#     4   9  17  31  49  68  93 124 156 189 228 277
#     4   9  18  32  50  71  95 125 157 188 229 281
#     4   9  18  33  51  70  94 125 157 188 229 280
#     4   9  15  24  42  68  94 118 149 192 234 270
#     4   8  14  25  43  67  91 114 146 190 232 268
#
# _framework density 17.878796000000001
#
# number of rings (size 3 to 8) (size 9 to 14) (size 15 to 20)
#    0.000    3.000    0.000    3.375    0.000    6.000 
#    0.000    0.000    0.000    1.500    0.000    0.000 
#    0.000    0.000    0.000    0.000    0.000    0.000 
#
# Total GULP energy -396503.554108 kJ/mol
# GULP energy per Si atom -12390.736066 kJ/mol
# Density = 1.783810 g / cm^3
# Si number density = 17.878796 Si / 1000 Ang^3
#
#
#
# Elastic Constant Matrix: (Units=GPa)
#
#
# Indices 1 2 3 4 5 6 
#
# 1 13.0381 6.3894 -5.8770 0.0000 0.8702 0.0000
# 2 6.3894 63.6798 6.4769 0.0000 -4.0910 0.0000
# 3 -5.8770 6.4769 27.5141 0.0000 3.2356 0.0000
# 4 0.0000 0.0000 0.0000 34.3525 0.0000 -0.4647
# 5 0.8702 -4.0910 3.2356 0.0000 22.6578 0.0000
# 6 0.0000 0.0000 0.0000 -0.4647 0.0000 15.6116
#
#
#
# Elastic Compliance Matrix: (Units=1/GPa)
#
#
# Indices 1 2 3 4 5 6 
#
# 1 0.094375 -0.012532 0.024207 0.000000 -0.009344 0.000000
# 2 -0.012532 0.018031 -0.007487 0.000000 0.004806 0.000000
# 3 0.024207 -0.007487 0.044290 0.000000 -0.008606 0.000000
# 4 0.000000 0.000000 0.000000 0.029122 0.000000 0.000867
# 5 -0.009344 0.004806 -0.008606 0.000000 0.046591 0.000000
# 6 0.000000 0.000000 0.000000 0.000867 0.000000 0.064081
#
#
# Mechanical properties :
#
#
# Convention : Reuss Voigt Hill
#
# Bulk Modulus (GPa) = 6.05787 13.13451 9.59619
# Shear Modulus (GPa) = 14.57149 21.00723 17.78936
#
# Velocity S-wave (km/s) = 2.85794 3.43152 3.15778
# Velocity P-wave (km/s) = 3.77970 4.80237 4.32139
#
# Compressibility (1/GPa) = 0.16507456
#
# Stress axis : x y z
#
# Youngs Moduli (GPa) = 10.59601 55.45953 22.57841
#
# Poissons Ratio (x) = 0.69500 -0.54656
# Poissons Ratio (y) = 0.13279 0.16903
# Poissons Ratio (z) = -0.25650 0.41520
#
# Static dielectric constant tensor:
#      x y z
#    x 2.706740 0.000000 0.199030 
#    y 0.000000 3.356580 0.000000 
#    z 0.199030 0.000000 3.864770 
# 
# 
# High freq. dielectric constant tensor:
#      x y z
#    x 1.616770 0.000000 0.010590 
#    y 0.000000 1.692160 0.000000 
#    z 0.010590 0.000000 1.715880 
# 
# From -- ./inp_files/42179.got.cif
#   From: 2010.06.25/outbox.cif.g09.slc.cpg/sg11_22_cif.got.tgz:42179.got - 2010.06.27 23:14:04.
