data_PCOD8077978
_publ_section_title
;
Structure prediction by ZEFSAII (Michael W. Deem and Ramdas Pophale) SiO2 
 PCOD8077978
Probable space group: P 21/M
;
_chemical_formula_sum "Si O2"
_cell_formula_units_Z 24
_cell_length_a 23.483209
_cell_length_b 9.651288
_cell_length_c 13.557993
_cell_angle_alpha 90.000000
_cell_angle_beta 29.999522
_cell_angle_gamma 90.000000
_cell_volume 1536.391348
_symmetry_space_group_name_H-M "P 21/M"
_symmetry_group_IT_number 11
_symmetry_cell_setting 'monoclinic'
loop_
_space_group_symop_operation_xyz
x,y,z
-x,1/2+y,-z
-x,-y,-z
x,1/2-y,z
loop_
_atom_site_type_symbol
_atom_site_label
_atom_site_fract_x
_atom_site_fract_y
_atom_site_fract_z
Si Si1 0.606422 0.410492 0.454219
Si Si2 0.060647 0.089511 0.772290
Si Si3 0.393583 0.589511 0.773481
Si Si4 0.167063 0.589511 0.772289
Si Si5 0.939359 0.589508 0.454219
Si Si6 0.167065 0.910489 0.226520
O O1 0.576634 0.250000 0.514572
O O2 0.500000 0.499996 0.651591
O O3 0.633784 0.442462 0.299321
O O4 0.715477 0.455579 0.353570
O O5 0.091213 0.250000 0.740947
O O6 0.069046 0.044420 0.646432
O O7 0.151598 0.000001 0.696803
O O8 0.933113 0.057527 0.000001
O O9 0.423375 0.750000 0.744465
O O10 0.284528 0.544423 0.000000
O O11 0.167838 0.750000 0.740947
O O12 0.908793 0.750000 0.514571
O O13 0.848408 0.500004 0.651591
O O14 0.066894 0.557538 0.299323
O O15 0.167840 0.750000 0.255536
#
# Coordination Sequence:
#
# PCOD8077978 Si02
#       6
#     4   4   4   4   4   4
#     4   9  17  29  45  65  89 116 144 175 213 256
#     4   9  17  29  45  65  89 116 144 175 213 256
#     4   9  17  29  45  65  89 116 144 175 213 256
#     4   9  17  29  45  65  89 116 144 175 213 256
#     4   9  17  29  45  65  89 116 144 175 213 256
#     4   9  17  29  45  65  89 116 144 175 213 256
#
# _framework density 15.621021000000001
#
# number of rings (size 3 to 8) (size 9 to 14) (size 15 to 20)
#    0.000    3.000    0.000    1.000    0.000    6.000 
#    0.000    0.000    0.000    7.000    0.000    0.000 
#    0.000    0.000    0.000    0.000    0.000    0.000 
#
# Total GULP energy -297637.811617 kJ/mol
# GULP energy per Si atom -12401.575484 kJ/mol
# Density = 1.558547 g / cm^3
# Si number density = 15.621021 Si / 1000 Ang^3
#
#
#
# Elastic Constant Matrix: (Units=GPa)
#
#
# Indices 1 2 3 4 5 6 
#
# 1 121.9698 60.5293 68.0705 0.0000 -0.0002 0.0000
# 2 60.5293 62.3941 60.5304 0.0000 0.0005 0.0000
# 3 68.0705 60.5304 121.9531 0.0000 -0.0008 0.0000
# 4 0.0000 0.0000 0.0000 29.3660 0.0000 0.0000
# 5 -0.0002 0.0005 -0.0008 0.0000 26.9470 0.0000
# 6 0.0000 0.0000 0.0000 0.0000 0.0000 29.3666
#
#
#
# Elastic Compliance Matrix: (Units=1/GPa)
#
#
# Indices 1 2 3 4 5 6 
#
# 1 0.016164 -0.013362 -0.002390 0.000000 0.000000 0.000000
# 2 -0.013362 0.041957 -0.013367 0.000000 -0.000001 0.000000
# 3 -0.002390 -0.013367 0.016168 0.000000 0.000001 0.000000
# 4 0.000000 0.000000 0.000000 0.034053 0.000000 0.000000
# 5 0.000000 -0.000001 0.000001 0.000000 0.037110 0.000000
# 6 0.000000 0.000000 0.000000 0.000000 0.000000 0.034052
#
#
# Mechanical properties :
#
#
# Convention : Reuss Voigt Hill
#
# Bulk Modulus (GPa) = 62.29852 76.06416 69.18134
# Shear Modulus (GPa) = 20.56825 24.94838 22.75831
#
# Velocity S-wave (km/s) = 3.63258 4.00071 3.82108
# Velocity P-wave (km/s) = 7.58696 8.37497 7.99068
#
# Compressibility (1/GPa) = 0.01605174
#
# Stress axis : x y z
#
# Youngs Moduli (GPa) = 61.86724 23.83364 61.84887
#
# Poissons Ratio (x) = 0.31847 0.14781
# Poissons Ratio (y) = 0.82667 0.82673
# Poissons Ratio (z) = 0.14786 0.31858
#
# Static dielectric constant tensor:
#      x y z
#    x 2.933810 0.000000 0.000000 
#    y 0.000000 2.984790 0.000000 
#    z 0.000000 0.000000 2.933700 
# 
# 
# High freq. dielectric constant tensor:
#      x y z
#    x 1.589400 0.000000 0.000000 
#    y 0.000000 1.600090 0.000000 
#    z 0.000000 0.000000 1.589390 
# 
# From -- ./inp_files/34234.got.cif
#   From: 2010.06.25/outbox.cif.g09.slc.cpg/sg11_18_cif.got.tgz:34234.got - 2010.06.27 23:14:04.
