data_PCOD8077711
_publ_section_title
;
Structure prediction by ZEFSAII (Michael W. Deem and Ramdas Pophale) SiO2 
 PCOD8077711
Probable space group: P 21/M
;
_chemical_formula_sum "Si O2"
_cell_formula_units_Z 32
_cell_length_a 28.248453
_cell_length_b 9.106388
_cell_length_c 21.940005
_cell_angle_alpha 90.000000
_cell_angle_beta 17.286508
_cell_angle_gamma 90.000000
_cell_volume 1677.078276
_symmetry_space_group_name_H-M "P 21/M"
_symmetry_group_IT_number 11
_symmetry_cell_setting 'monoclinic'
loop_
_space_group_symop_operation_xyz
x,y,z
-x,1/2+y,-z
-x,-y,-z
x,1/2-y,z
loop_
_atom_site_type_symbol
_atom_site_label
_atom_site_fract_x
_atom_site_fract_y
_atom_site_fract_z
Si Si1 0.973252 0.419152 0.344806
Si Si2 0.285201 0.924158 0.926065
Si Si3 0.749015 0.421453 0.515004
Si Si4 0.965684 0.076857 0.139853
Si Si5 0.409188 0.424697 0.888723
Si Si6 0.196472 0.913228 0.783812
Si Si7 0.927816 0.582212 0.645394
Si Si8 0.545541 0.584206 0.383968
O O1 0.026859 0.250000 0.266025
O O2 0.956459 0.442096 0.438201
O O3 0.809289 0.454612 0.509954
O O4 0.103681 0.532328 0.160981
O O5 0.305483 0.750000 0.901154
O O6 0.402327 0.995349 0.832122
O O7 0.324166 0.990696 0.812308
O O8 0.739865 0.250000 0.513433
O O9 0.876058 0.487427 0.309967
O O10 0.568834 0.481397 0.727180
O O11 0.984562 0.250000 0.122586
O O12 0.867001 0.023661 0.202128
O O13 0.141223 0.007930 0.911484
O O14 0.407674 0.250000 0.879333
O O15 0.252457 0.472617 0.119540
O O16 0.129453 0.750000 0.877089
O O17 0.384507 0.911116 0.542899
O O18 0.921974 0.750000 0.633431
O O19 0.000000 0.500000 0.500000
O O20 0.500000 0.500000 0.500000
O O21 0.608511 0.750000 0.319058
#
# Coordination Sequence:
#
# PCOD8077711 Si02
#       8
#     4   4   4   4   4   4   4   4
#     4   9  19  36  57  83 110 143 183 225 274 326
#     4  11  22  36  54  78 108 144 184 228 275 328
#     4   9  17  32  57  82 104 134 180 228 273 323
#     4   9  17  30  51  74  95 127 166 211 266 323
#     4   9  18  36  60  84 108 141 182 222 266 322
#     4   9  19  34  48  67  97 130 169 217 267 318
#     4   9  18  33  56  82 112 148 183 218 261 316
#     4  11  23  37  52  71 100 137 182 232 279 325
#
# _framework density 19.080803
#
# number of rings (size 3 to 8) (size 9 to 14) (size 15 to 20)
#    0.000    2.500    0.000    3.000    1.750    5.000 
#    0.000    4.375    0.000    0.000    0.000    0.000 
#    0.000    0.000    0.000    0.000    0.000    0.000 
#
# Total GULP energy -396611.325248 kJ/mol
# GULP energy per Si atom -12394.103914 kJ/mol
# Density = 1.903737 g / cm^3
# Si number density = 19.080803 Si / 1000 Ang^3
#
#
#
# Elastic Constant Matrix: (Units=GPa)
#
#
# Indices 1 2 3 4 5 6 
#
# 1 107.8694 35.5916 43.8448 0.0000 7.5789 0.0000
# 2 35.5916 76.7726 28.7439 0.0000 11.2120 0.0000
# 3 43.8448 28.7439 67.2586 0.0000 10.6494 0.0000
# 4 0.0000 0.0000 0.0000 26.6190 0.0000 7.4185
# 5 7.5789 11.2120 10.6494 0.0000 36.1237 0.0000
# 6 0.0000 0.0000 0.0000 7.4185 0.0000 25.8516
#
#
#
# Elastic Compliance Matrix: (Units=1/GPa)
#
#
# Indices 1 2 3 4 5 6 
#
# 1 0.013361 -0.003537 -0.007267 0.000000 0.000437 0.000000
# 2 -0.003537 0.016759 -0.004354 0.000000 -0.003176 0.000000
# 3 -0.007267 -0.004354 0.022039 0.000000 -0.003621 0.000000
# 4 0.000000 0.000000 0.000000 0.040833 0.000000 -0.011718
# 5 0.000437 -0.003176 -0.003621 0.000000 0.029644 0.000000
# 6 0.000000 0.000000 0.000000 -0.011718 0.000000 0.042045
#
#
# Mechanical properties :
#
#
# Convention : Reuss Voigt Hill
#
# Bulk Modulus (GPa) = 45.78037 52.02902 48.90470
# Shear Modulus (GPa) = 24.71847 27.30019 26.00933
#
# Velocity S-wave (km/s) = 3.60316 3.78665 3.69604
# Velocity P-wave (km/s) = 6.43081 6.81507 6.62573
#
# Compressibility (1/GPa) = 0.02184342
#
# Stress axis : x y z
#
# Youngs Moduli (GPa) = 74.84681 59.66921 45.37336
#
# Poissons Ratio (x) = 0.21105 0.32974
# Poissons Ratio (y) = 0.26473 0.19754
# Poissons Ratio (z) = 0.54393 0.25978
#
# Static dielectric constant tensor:
#      x y z
#    x 3.628040 0.000000 -0.117440 
#    y 0.000000 2.955390 0.000000 
#    z -0.117440 0.000000 3.707960 
# 
# 
# High freq. dielectric constant tensor:
#      x y z
#    x 1.742870 0.000000 -0.009050 
#    y 0.000000 1.719900 0.000000 
#    z -0.009050 0.000000 1.729270 
# 
# From -- ./inp_files/67047.got.cif
#   From: 2010.06.25/outbox.cif.g09.slc.cpg/sg11_34_cif.got.tgz:67047.got - 2010.06.27 23:14:04.
