data_PCOD8077058
_publ_section_title
;
Structure prediction by ZEFSAII (Michael W. Deem and Ramdas Pophale) SiO2 
 PCOD8077058
Probable space group: P 21/M
;
_chemical_formula_sum "Si O2"
_cell_formula_units_Z 20
_cell_length_a 11.856387
_cell_length_b 12.644553
_cell_length_c 14.034578
_cell_angle_alpha 90.000000
_cell_angle_beta 29.407666
_cell_angle_gamma 90.000000
_cell_volume 1033.129272
_symmetry_space_group_name_H-M "P 21/M"
_symmetry_group_IT_number 11
_symmetry_cell_setting 'monoclinic'
loop_
_space_group_symop_operation_xyz
x,y,z
-x,1/2+y,-z
-x,-y,-z
x,1/2-y,z
loop_
_atom_site_type_symbol
_atom_site_label
_atom_site_fract_x
_atom_site_fract_y
_atom_site_fract_z
Si Si1 0.313565 0.494419 0.855934
Si Si2 0.739303 0.870856 0.492708
Si Si3 0.381428 0.372616 0.996825
Si Si4 0.141951 0.127928 0.807509
Si Si5 0.145941 0.965321 0.303152
O O1 0.553152 0.556638 0.682126
O O2 0.298492 0.418145 0.957246
O O3 0.301988 0.424588 0.769362
O O4 0.109203 0.577877 0.009704
O O5 0.687769 0.750000 0.557870
O O6 0.726942 0.887638 0.388511
O O7 0.992745 0.901255 0.340933
O O8 0.317107 0.250000 0.047827
O O9 0.652746 0.387640 0.811028
O O10 0.245977 0.429172 0.181695
O O11 0.107900 0.250000 0.857674
O O12 0.000000 0.000000 0.500000
#
# Coordination Sequence:
#
# PCOD8077058 Si02
#       5
#     4   4   4   4   4
#     4  11  21  40  63  88 125 154 203 251 298 362
#     4  11  22  39  63  91 121 161 202 247 302 356
#     4  11  24  41  64  92 123 161 202 250 308 358
#     4  10  22  39  61  88 121 161 200 247 303 358
#     4  11  23  44  61  89 126 159 205 251 296 365
#
# _framework density 19.358661999999999
#
# number of rings (size 3 to 8) (size 9 to 14) (size 15 to 20)
#    0.000    1.200    4.000    2.400    0.000    1.600 
#    0.000    0.000    0.000    0.000    0.000    0.000 
#    0.000    0.000    0.000    0.000    0.000    0.000 
#
# Total GULP energy -248134.897636 kJ/mol
# GULP energy per Si atom -12406.744882 kJ/mol
# Density = 1.931460 g / cm^3
# Si number density = 19.358662 Si / 1000 Ang^3
#
#
#
# Elastic Constant Matrix: (Units=GPa)
#
#
# Indices 1 2 3 4 5 6 
#
# 1 85.5262 37.8857 28.0368 0.0000 -4.0917 0.0000
# 2 37.8857 125.3560 33.5921 0.0000 6.6332 0.0000
# 3 28.0368 33.5921 82.2577 0.0000 4.9661 0.0000
# 4 0.0000 0.0000 0.0000 22.1911 0.0000 4.0074
# 5 -4.0917 6.6332 4.9661 0.0000 32.6673 0.0000
# 6 0.0000 0.0000 0.0000 4.0074 0.0000 19.8602
#
#
#
# Elastic Compliance Matrix: (Units=1/GPa)
#
#
# Indices 1 2 3 4 5 6 
#
# 1 0.014654 -0.003599 -0.003714 0.000000 0.003131 0.000000
# 2 -0.003599 0.009894 -0.002690 0.000000 -0.002051 0.000000
# 3 -0.003714 -0.002690 0.014651 0.000000 -0.002146 0.000000
# 4 0.000000 0.000000 0.000000 0.046767 0.000000 -0.009437
# 5 0.003131 -0.002051 -0.002146 0.000000 0.031747 0.000000
# 6 0.000000 0.000000 0.000000 -0.009437 0.000000 0.052256
#
#
# Mechanical properties :
#
#
# Convention : Reuss Voigt Hill
#
# Bulk Modulus (GPa) = 52.10244 54.68547 53.39395
# Shear Modulus (GPa) = 25.46172 27.85204 26.65688
#
# Velocity S-wave (km/s) = 3.63059 3.79718 3.71482
# Velocity P-wave (km/s) = 6.67440 6.89454 6.78536
#
# Compressibility (1/GPa) = 0.01919296
#
# Stress axis : x y z
#
# Youngs Moduli (GPa) = 68.24107 101.06662 68.25529
#
# Poissons Ratio (x) = 0.36376 0.25349
# Poissons Ratio (y) = 0.24562 0.18361
# Poissons Ratio (z) = 0.25344 0.27188
#
# Static dielectric constant tensor:
#      x y z
#    x 3.756230 0.000000 -0.025720 
#    y 0.000000 3.514510 0.000000 
#    z -0.025720 0.000000 3.443000 
# 
# 
# High freq. dielectric constant tensor:
#      x y z
#    x 1.770420 0.000000 0.002860 
#    y 0.000000 1.758550 0.000000 
#    z 0.002860 0.000000 1.755590 
# 
# From -- ./inp_files/4312.got.cif
#   From: 2010.06.25/outbox.cif.g09.slc.cpg/sg11_3_cif.got.tgz:4312.got - 2010.06.27 23:14:04.
