data_PCOD8077942
_publ_section_title
;
Structure prediction by ZEFSAII (Michael W. Deem and Ramdas Pophale) SiO2 
 PCOD8077942
Probable space group: P 21/M
;
_chemical_formula_sum "Si O2"
_cell_formula_units_Z 28
_cell_length_a 25.234408
_cell_length_b 9.238179
_cell_length_c 13.686017
_cell_angle_alpha 90.000000
_cell_angle_beta 144.251469
_cell_angle_gamma 90.000000
_cell_volume 1863.972812
_symmetry_space_group_name_H-M "P 21/M"
_symmetry_group_IT_number 11
_symmetry_cell_setting 'monoclinic'
loop_
_space_group_symop_operation_xyz
x,y,z
-x,1/2+y,-z
-x,-y,-z
x,1/2-y,z
loop_
_atom_site_type_symbol
_atom_site_label
_atom_site_fract_x
_atom_site_fract_y
_atom_site_fract_z
Si Si1 0.972595 0.917560 0.317369
Si Si2 0.130963 0.419083 0.648506
Si Si3 0.679532 0.920903 0.152602
Si Si4 0.508175 0.079725 0.909885
Si Si5 0.689634 0.918408 0.389271
Si Si6 0.969236 0.917822 0.094276
Si Si7 0.131994 0.079289 0.246061
O O1 0.996608 0.750000 0.365543
O O2 0.934984 0.952013 0.152744
O O3 0.895624 0.963458 0.280467
O O4 0.065577 0.002846 0.473901
O O5 0.119145 0.250000 0.611613
O O6 0.234617 0.465284 0.784903
O O7 0.659775 0.750000 0.119913
O O8 0.696117 0.978476 0.288015
O O9 0.591594 0.005175 0.976568
O O10 0.526544 0.250000 0.951637
O O11 0.409828 0.053267 0.711260
O O12 0.500000 0.000000 0.000000
O O13 0.708327 0.750000 0.408509
O O14 0.768650 0.984064 0.576623
O O15 0.994653 0.750000 0.120010
O O16 0.059269 0.008569 0.209086
O O17 0.889704 0.961758 0.899201
O O18 0.126342 0.250000 0.253391
#
# Coordination Sequence:
#
# PCOD8077942 Si02
#       7
#     4   4   4   4   4   4   4
#     4   9  17  28  40  58  83 105 130 166 200 228
#     4   9  17  28  42  58  78 107 137 161 191 235
#     4   9  16  26  39  56  77 101 130 160 191 229
#     4   9  16  26  39  56  78 101 126 157 193 231
#     4   8  14  24  38  55  74  97 126 156 183 222
#     4   9  17  27  39  58  82 103 127 163 197 224
#     4   9  16  27  42  57  76 105 135 157 187 233
#
# _framework density 15.021678
#
# number of rings (size 3 to 8) (size 9 to 14) (size 15 to 20)
#    0.000    3.143    0.000    2.143    0.000    2.286 
#    0.000    5.000    0.000    0.000    0.000    1.000 
#    0.000    0.000    0.000    0.000    0.000    0.000 
#
# Total GULP energy -346948.573164 kJ/mol
# GULP energy per Si atom -12391.020470 kJ/mol
# Density = 1.498749 g / cm^3
# Si number density = 15.021678 Si / 1000 Ang^3
#
#
#
# Elastic Constant Matrix: (Units=GPa)
#
#
# Indices 1 2 3 4 5 6 
#
# 1 92.3038 28.8378 61.5691 0.0000 12.3709 0.0000
# 2 28.8378 34.9595 30.9926 0.0000 9.1945 0.0000
# 3 61.5691 30.9926 116.5252 0.0000 17.0806 0.0000
# 4 0.0000 0.0000 0.0000 19.3710 0.0000 5.2292
# 5 12.3709 9.1945 17.0806 0.0000 27.8667 0.0000
# 6 0.0000 0.0000 0.0000 5.2292 0.0000 19.4271
#
#
#
# Elastic Compliance Matrix: (Units=1/GPa)
#
#
# Indices 1 2 3 4 5 6 
#
# 1 0.018552 -0.008499 -0.007412 0.000000 -0.000889 0.000000
# 2 -0.008499 0.042559 -0.005849 0.000000 -0.006684 0.000000
# 3 -0.007412 -0.005849 0.014600 0.000000 -0.003729 0.000000
# 4 0.000000 0.000000 0.000000 0.055668 0.000000 -0.014984
# 5 -0.000889 -0.006684 -0.003729 0.000000 0.040771 0.000000
# 6 0.000000 0.000000 0.000000 -0.014984 0.000000 0.055508
#
#
# Mechanical properties :
#
#
# Convention : Reuss Voigt Hill
#
# Bulk Modulus (GPa) = 31.06415 54.06528 42.56472
# Shear Modulus (GPa) = 17.73633 21.49223 19.61428
#
# Velocity S-wave (km/s) = 3.43988 3.78663 3.61741
# Velocity P-wave (km/s) = 6.04165 7.42884 6.77086
#
# Compressibility (1/GPa) = 0.03219145
#
# Stress axis : x y z
#
# Youngs Moduli (GPa) = 53.90283 23.49702 68.49208
#
# Poissons Ratio (x) = 0.19970 0.50764
# Poissons Ratio (y) = 0.45812 0.40061
# Poissons Ratio (z) = 0.39951 0.13744
#
# Static dielectric constant tensor:
#      x y z
#    x 2.982710 0.000000 0.177380 
#    y 0.000000 2.882100 0.000000 
#    z 0.177380 0.000000 3.210190 
# 
# 
# High freq. dielectric constant tensor:
#      x y z
#    x 1.554470 0.000000 0.014620 
#    y 0.000000 1.567560 0.000000 
#    z 0.014620 0.000000 1.564520 
# 
# From -- ./inp_files/43074.got.cif
#   From: 2010.06.25/outbox.cif.g09.slc.cpg/sg11_22_cif.got.tgz:43074.got - 2010.06.27 23:14:04.
