data_PCOD8077512
_publ_section_title
;
Structure prediction by ZEFSAII (Michael W. Deem and Ramdas Pophale) SiO2 
 PCOD8077512
Probable space group: P 21/M
;
_chemical_formula_sum "Si O2"
_cell_formula_units_Z 32
_cell_length_a 12.393211
_cell_length_b 14.256065
_cell_length_c 14.567279
_cell_angle_alpha 90.000000
_cell_angle_beta 139.801793
_cell_angle_gamma 90.000000
_cell_volume 1661.168334
_symmetry_space_group_name_H-M "P 21/M"
_symmetry_group_IT_number 11
_symmetry_cell_setting 'monoclinic'
loop_
_space_group_symop_operation_xyz
x,y,z
-x,1/2+y,-z
-x,-y,-z
x,1/2-y,z
loop_
_atom_site_type_symbol
_atom_site_label
_atom_site_fract_x
_atom_site_fract_y
_atom_site_fract_z
Si Si1 0.939529 0.149688 0.225602
Si Si2 0.372593 0.141690 0.239023
Si Si3 0.747031 0.356702 0.445056
Si Si4 0.709307 0.144712 0.914287
Si Si5 0.344676 0.858560 0.813004
Si Si6 0.834025 0.474345 0.837550
Si Si7 0.342562 0.456760 0.030785
Si Si8 0.964429 0.460033 0.727178
O O1 0.016524 0.250000 0.305631
O O2 0.776371 0.126278 0.180488
O O3 0.077635 0.069005 0.325260
O O4 0.884153 0.152837 0.082928
O O5 0.319165 0.250000 0.223825
O O6 0.571277 0.129159 0.383144
O O7 0.325513 0.115421 0.104378
O O8 0.278463 0.068701 0.245144
O O9 0.798657 0.250000 0.471300
O O10 0.737876 0.397114 0.335363
O O11 0.897320 0.401442 0.599305
O O12 0.624595 0.250000 0.858743
O O13 0.741060 0.109991 0.830959
O O14 0.606869 0.061524 0.899478
O O15 0.395733 0.750000 0.833680
O O16 0.511918 0.919107 0.941737
O O17 0.875502 0.432816 0.764557
O O18 0.000000 0.500000 0.000000
O O19 0.165415 0.453498 0.863595
#
# Coordination Sequence:
#
# PCOD8077512 Si02
#       8
#     4   4   4   4   4   4   4   4
#     4   9  18  33  54  77 102 136 177 212 257 317
#     4   9  18  34  55  73  99 140 177 209 253 312
#     4   9  20  36  51  74 104 134 170 213 261 309
#     4   9  18  31  47  72 106 137 167 209 256 304
#     4   9  18  35  57  76 101 138 174 212 259 317
#     4  11  19  34  49  79 107 134 174 215 259 306
#     4   9  17  32  51  78 103 130 176 216 258 306
#     4  11  21  32  51  80 108 133 170 223 264 298
#
# _framework density 19.263549999999999
#
# number of rings (size 3 to 8) (size 9 to 14) (size 15 to 20)
#    0.000    2.500    3.750    1.125    0.000    5.500 
#    0.000    0.000    0.000    7.500    0.000    3.500 
#    0.000    0.000    0.000    0.000    0.000    0.000 
#
# Total GULP energy -396470.050498 kJ/mol
# GULP energy per Si atom -12389.689078 kJ/mol
# Density = 1.921971 g / cm^3
# Si number density = 19.263550 Si / 1000 Ang^3
#
#
#
# Elastic Constant Matrix: (Units=GPa)
#
#
# Indices 1 2 3 4 5 6 
#
# 1 50.6875 32.5542 25.3129 0.0000 -9.7249 0.0000
# 2 32.5542 104.4791 37.4068 0.0000 1.5879 0.0000
# 3 25.3129 37.4068 75.6407 0.0000 -4.0583 0.0000
# 4 0.0000 0.0000 0.0000 26.5032 0.0000 3.8023
# 5 -9.7249 1.5879 -4.0583 0.0000 14.1585 0.0000
# 6 0.0000 0.0000 0.0000 3.8023 0.0000 29.6091
#
#
#
# Elastic Compliance Matrix: (Units=1/GPa)
#
#
# Indices 1 2 3 4 5 6 
#
# 1 0.031843 -0.008309 -0.005407 0.000000 0.021254 0.000000
# 2 -0.008309 0.013925 -0.004566 0.000000 -0.008578 0.000000
# 3 -0.005407 -0.004566 0.017383 0.000000 0.001781 0.000000
# 4 0.000000 0.000000 0.000000 0.038439 0.000000 -0.004936
# 5 0.021254 -0.008578 0.001781 0.000000 0.086700 0.000000
# 6 0.000000 0.000000 0.000000 -0.004936 0.000000 0.034407
#
#
# Mechanical properties :
#
#
# Convention : Reuss Voigt Hill
#
# Bulk Modulus (GPa) = 37.61105 46.81724 42.21414
# Shear Modulus (GPa) = 18.64801 23.08972 20.86887
#
# Velocity S-wave (km/s) = 3.11472 3.46587 3.29498
# Velocity P-wave (km/s) = 5.70107 6.35395 6.03634
#
# Compressibility (1/GPa) = 0.02658793
#
# Stress axis : x y z
#
# Youngs Moduli (GPa) = 31.40400 71.81073 57.52598
#
# Poissons Ratio (x) = 0.59668 0.31103
# Poissons Ratio (y) = 0.26094 0.26268
# Poissons Ratio (z) = 0.16979 0.32790
#
# Static dielectric constant tensor:
#      x y z
#    x 3.587720 0.000000 -0.060130 
#    y 0.000000 3.964320 0.000000 
#    z -0.060130 0.000000 3.158030 
# 
# 
# High freq. dielectric constant tensor:
#      x y z
#    x 1.741770 0.000000 -0.011350 
#    y 0.000000 1.761400 0.000000 
#    z -0.011350 0.000000 1.703610 
# 
# From -- ./inp_files/50397.got.cif
#   From: 2010.06.25/outbox.cif.g09.slc.cpg/sg11_26_cif.got.tgz:50397.got - 2010.06.27 23:14:04.
