data_PCOD8077609
_publ_section_title
;
Structure prediction by ZEFSAII (Michael W. Deem and Ramdas Pophale) SiO2 
 PCOD8077609
Probable space group: P 21/M
;
_chemical_formula_sum "Si O2"
_cell_formula_units_Z 28
_cell_length_a 27.087650
_cell_length_b 8.682954
_cell_length_c 9.731861
_cell_angle_alpha 90.000000
_cell_angle_beta 39.154883
_cell_angle_gamma 90.000000
_cell_volume 1445.281000
_symmetry_space_group_name_H-M "P 21/M"
_symmetry_group_IT_number 11
_symmetry_cell_setting 'monoclinic'
loop_
_space_group_symop_operation_xyz
x,y,z
-x,1/2+y,-z
-x,-y,-z
x,1/2-y,z
loop_
_atom_site_type_symbol
_atom_site_label
_atom_site_fract_x
_atom_site_fract_y
_atom_site_fract_z
Si Si1 0.564548 0.431899 0.461468
Si Si2 0.225372 0.566116 0.681748
Si Si3 0.916463 0.426787 0.197364
Si Si4 0.739578 0.430189 0.092468
Si Si5 0.198790 0.571961 0.325274
Si Si6 0.675515 0.570484 0.761147
Si Si7 0.485680 0.568302 0.883086
O O1 0.500000 0.500000 0.500000
O O2 0.558332 0.250000 0.464400
O O3 0.652923 0.490345 0.237273
O O4 0.548455 0.488868 0.649366
O O5 0.232214 0.750000 0.655954
O O6 0.145511 0.507465 0.780695
O O7 0.228185 0.502627 0.832526
O O8 0.298652 0.492589 0.443619
O O9 0.928115 0.250000 0.140293
O O10 0.885467 0.454260 0.420816
O O11 0.000000 0.500000 0.000000
O O12 0.732604 0.250000 0.131150
O O13 0.801241 0.469198 0.837160
O O14 0.225071 0.750000 0.291160
O O15 0.258183 0.457104 0.269770
O O16 0.655261 0.750000 0.793155
O O17 0.601179 0.476561 0.976868
O O18 0.497477 0.750000 0.854708
O O19 0.500000 0.500000 0.000000
#
# Coordination Sequence:
#
# PCOD8077609 Si02
#       7
#     4   4   4   4   4   4   4
#     4  11  22  36  55  81 110 146 185 230 285 337
#     4   9  18  35  57  80 104 139 180 222 269 321
#     4   9  18  32  54  80 109 140 174 214 261 317
#     4   9  18  34  57  78 101 134 179 225 268 317
#     4   9  18  35  57  80 103 137 177 215 261 317
#     4  11  21  34  53  78 105 138 179 224 270 325
#     4  12  24  38  54  75 105 142 185 236 283 330
#
# _framework density 19.373396
#
# number of rings (size 3 to 8) (size 9 to 14) (size 15 to 20)
#    0.000    2.000    0.000    5.571    0.000    4.571 
#    0.000    2.857    0.000    0.000    0.000    0.000 
#    0.000    0.000    0.000    0.000    0.000    0.000 
#
# Total GULP energy -347104.041843 kJ/mol
# GULP energy per Si atom -12396.572923 kJ/mol
# Density = 1.932930 g / cm^3
# Si number density = 19.373396 Si / 1000 Ang^3
#
#
#
# Elastic Constant Matrix: (Units=GPa)
#
#
# Indices 1 2 3 4 5 6 
#
# 1 81.0427 19.6007 54.1749 0.0000 13.2909 0.0000
# 2 19.6007 55.2348 27.9173 0.0000 -2.6215 0.0000
# 3 54.1749 27.9173 135.7513 0.0000 9.4659 0.0000
# 4 0.0000 0.0000 0.0000 30.3817 0.0000 -2.1128
# 5 13.2909 -2.6215 9.4659 0.0000 39.0183 0.0000
# 6 0.0000 0.0000 0.0000 -2.1128 0.0000 26.8573
#
#
#
# Elastic Compliance Matrix: (Units=1/GPa)
#
#
# Indices 1 2 3 4 5 6 
#
# 1 0.018121 -0.003551 -0.006159 0.000000 -0.004917 0.000000
# 2 -0.003551 0.021125 -0.003164 0.000000 0.003397 0.000000
# 3 -0.006159 -0.003164 0.010521 0.000000 -0.000667 0.000000
# 4 0.000000 0.000000 0.000000 0.033096 0.000000 0.002604
# 5 -0.004917 0.003397 -0.000667 0.000000 0.027694 0.000000
# 6 0.000000 0.000000 0.000000 0.002604 0.000000 0.037439
#
#
# Mechanical properties :
#
#
# Convention : Reuss Voigt Hill
#
# Bulk Modulus (GPa) = 41.63171 52.82386 47.22778
# Shear Modulus (GPa) = 27.51025 30.60718 29.05872
#
# Velocity S-wave (km/s) = 3.77238 3.97905 3.87709
# Velocity P-wave (km/s) = 6.36476 6.95959 6.66881
#
# Compressibility (1/GPa) = 0.02402015
#
# Stress axis : x y z
#
# Youngs Moduli (GPa) = 55.18369 47.33701 95.04480
#
# Poissons Ratio (x) = 0.16810 0.58534
# Poissons Ratio (y) = 0.19597 0.30073
# Poissons Ratio (z) = 0.33985 0.14978
#
# Static dielectric constant tensor:
#      x y z
#    x 3.727810 0.000000 0.017650 
#    y 0.000000 3.952780 0.000000 
#    z 0.017650 0.000000 3.958140 
# 
# 
# High freq. dielectric constant tensor:
#      x y z
#    x 1.743360 0.000000 0.013230 
#    y 0.000000 1.737210 0.000000 
#    z 0.013230 0.000000 1.760360 
# 
# From -- ./inp_files/28290.got.cif
#   From: 2010.06.25/outbox.cif.g09.slc.cpg/sg11_15_cif.got.tgz:28290.got - 2010.06.27 23:14:04.
