data_PCOD8077801
_publ_section_title
;
Structure prediction by ZEFSAII (Michael W. Deem and Ramdas Pophale) SiO2 
 PCOD8077801
Probable space group: P 21/M
;
_chemical_formula_sum "Si O2"
_cell_formula_units_Z 28
_cell_length_a 14.783062
_cell_length_b 18.588292
_cell_length_c 8.753997
_cell_angle_alpha 90.000000
_cell_angle_beta 145.452987
_cell_angle_gamma 90.000000
_cell_volume 1364.131838
_symmetry_space_group_name_H-M "P 21/M"
_symmetry_group_IT_number 11
_symmetry_cell_setting 'monoclinic'
loop_
_space_group_symop_operation_xyz
x,y,z
-x,1/2+y,-z
-x,-y,-z
x,1/2-y,z
loop_
_atom_site_type_symbol
_atom_site_label
_atom_site_fract_x
_atom_site_fract_y
_atom_site_fract_z
Si Si1 0.512243 0.085060 0.488995
Si Si2 0.771732 0.667431 0.753958
Si Si3 0.711053 0.059353 0.237074
Si Si4 0.011812 0.457580 0.857925
Si Si5 0.574810 0.905940 0.974780
Si Si6 0.165651 0.581543 0.913546
Si Si7 0.149724 0.330086 0.482243
O O1 0.389702 0.128483 0.422391
O O2 0.487422 0.108409 0.281064
O O3 0.500000 0.000000 0.500000
O O4 0.688456 0.110940 0.782815
O O5 0.782199 0.750000 0.827575
O O6 0.767229 0.664771 0.565630
O O7 0.923638 0.623395 0.030087
O O8 0.834969 0.043799 0.544152
O O9 0.570914 0.109456 0.110473
O O10 0.799397 0.095358 0.216404
O O11 0.630989 0.987494 0.063622
O O12 0.132939 0.497474 0.908859
O O13 0.000000 0.500000 0.000000
O O14 0.722742 0.854140 0.213972
O O15 0.006273 0.621991 0.737090
O O16 0.095652 0.250000 0.447977
#
# Coordination Sequence:
#
# PCOD8077801 Si02
#       7
#     4   4   4   4   4   4   4
#     4  12  24  40  69 104 131 174 228 279 330 403
#     4  11  25  44  66  96 138 178 217 276 351 407
#     4  11  23  37  67  98 131 170 220 284 325 392
#     4  12  21  38  67 101 132 171 227 278 331 396
#     4  11  23  42  65  99 133 169 225 277 336 395
#     4  12  23  40  67 100 131 172 229 276 333 394
#     4  11  26  46  66  93 135 180 220 276 346 404
#
# _framework density 20.525876
#
# number of rings (size 3 to 8) (size 9 to 14) (size 15 to 20)
#    0.000    0.571    5.714    2.143    4.000    1.143 
#    0.000    1.429    0.000    0.000    0.000    0.000 
#    0.000    0.000    0.000    0.000    0.000    0.000 
#
# Total GULP energy -347304.618765 kJ/mol
# GULP energy per Si atom -12403.736384 kJ/mol
# Density = 2.047916 g / cm^3
# Si number density = 20.525876 Si / 1000 Ang^3
#
#
#
# Elastic Constant Matrix: (Units=GPa)
#
#
# Indices 1 2 3 4 5 6 
#
# 1 110.2034 47.4888 55.0395 0.0000 3.2747 0.0000
# 2 47.4888 102.2499 32.0109 0.0000 3.1329 0.0000
# 3 55.0395 32.0109 156.4846 0.0000 -3.2526 0.0000
# 4 0.0000 0.0000 0.0000 23.2201 0.0000 -2.8194
# 5 3.2747 3.1329 -3.2526 0.0000 36.7914 0.0000
# 6 0.0000 0.0000 0.0000 -2.8194 0.0000 21.4775
#
#
#
# Elastic Compliance Matrix: (Units=1/GPa)
#
#
# Indices 1 2 3 4 5 6 
#
# 1 0.013006 -0.004882 -0.003598 0.000000 -0.001060 0.000000
# 2 -0.004882 0.012324 -0.000818 0.000000 -0.000687 0.000000
# 3 -0.003598 -0.000818 0.007846 0.000000 0.001084 0.000000
# 4 0.000000 0.000000 0.000000 0.043764 0.000000 0.005745
# 5 -0.001060 -0.000687 0.001084 0.000000 0.027429 0.000000
# 6 0.000000 0.000000 0.000000 0.005745 0.000000 0.047315
#
#
# Mechanical properties :
#
#
# Convention : Reuss Voigt Hill
#
# Bulk Modulus (GPa) = 68.58566 70.89071 69.73818
# Shear Modulus (GPa) = 28.54856 31.92438 30.23647
#
# Velocity S-wave (km/s) = 3.73347 3.94804 3.84225
# Velocity P-wave (km/s) = 7.21608 7.44277 7.33030
#
# Compressibility (1/GPa) = 0.01458031
#
# Stress axis : x y z
#
# Youngs Moduli (GPa) = 76.88622 81.13933 127.45585
#
# Poissons Ratio (x) = 0.39610 0.45859
# Poissons Ratio (y) = 0.37534 0.10431
# Poissons Ratio (z) = 0.27664 0.06640
#
# Static dielectric constant tensor:
#      x y z
#    x 3.989730 0.000000 0.023250 
#    y 0.000000 3.637870 0.000000 
#    z 0.023250 0.000000 3.882140 
# 
# 
# High freq. dielectric constant tensor:
#      x y z
#    x 1.818560 0.000000 0.002610 
#    y 0.000000 1.772210 0.000000 
#    z 0.002610 0.000000 1.819380 
# 
# From -- ./inp_files/23225.got.cif
#   From: 2010.06.25/outbox.cif.g09.slc.cpg/sg11_12_cif.got.tgz:23225.got - 2010.06.27 23:14:04.
