data_PCOD8077496
_publ_section_title
;
Structure prediction by ZEFSAII (Michael W. Deem and Ramdas Pophale) SiO2 
 PCOD8077496
Probable space group: P 21/M
;
_chemical_formula_sum "Si O2"
_cell_formula_units_Z 24
_cell_length_a 12.349874
_cell_length_b 8.454527
_cell_length_c 24.764786
_cell_angle_alpha 90.000000
_cell_angle_beta 26.067819
_cell_angle_gamma 90.000000
_cell_volume 1136.268010
_symmetry_space_group_name_H-M "P 21/M"
_symmetry_group_IT_number 11
_symmetry_cell_setting 'monoclinic'
loop_
_space_group_symop_operation_xyz
x,y,z
-x,1/2+y,-z
-x,-y,-z
x,1/2-y,z
loop_
_atom_site_type_symbol
_atom_site_label
_atom_site_fract_x
_atom_site_fract_y
_atom_site_fract_z
Si Si1 0.909504 0.431426 0.984165
Si Si2 0.406321 0.568108 0.183593
Si Si3 0.663189 0.069173 0.265689
Si Si4 0.292720 0.567821 0.632340
Si Si5 0.261343 0.563631 0.368637
Si Si6 0.739896 0.933358 0.860936
O O1 0.826681 0.250000 0.028084
O O2 0.125715 0.445082 0.844059
O O3 0.696099 0.538628 0.055448
O O4 0.000000 0.500000 0.000000
O O5 0.352821 0.750000 0.193796
O O6 0.301311 0.518596 0.288550
O O7 0.284286 0.462021 0.192114
O O8 0.750888 0.250000 0.217475
O O9 0.595742 0.039959 0.358151
O O10 0.435350 0.035943 0.329347
O O11 0.500000 0.500000 0.500000
O O12 0.266709 0.750000 0.628865
O O13 0.011778 0.495088 0.755082
O O14 0.296329 0.750000 0.362944
O O15 0.000000 0.500000 0.500000
O O16 0.738472 0.750000 0.875301
O O17 0.500000 0.000000 0.000000
#
# Coordination Sequence:
#
# PCOD8077496 Si02
#       6
#     4   4   4   4   4   4
#     4  12  23  38  63  96 130 168 210 259 322 386
#     4  11  24  42  65  95 131 170 215 268 324 387
#     4  11  23  42  67  95 131 168 212 268 323 389
#     4  10  25  45  67  97 131 171 219 271 328 388
#     4  11  25  42  63  92 129 171 216 266 325 388
#     4  11  24  44  69  99 133 175 223 275 332 396
#
# _framework density 21.121777000000002
#
# number of rings (size 3 to 8) (size 9 to 14) (size 15 to 20)
#    0.000    1.000    1.667    4.500    2.333    6.000 
#    0.000    0.000    0.000    0.000    0.000    0.000 
#    0.000    0.000    0.000    0.000    0.000    0.000 
#
# Total GULP energy -297556.573359 kJ/mol
# GULP energy per Si atom -12398.190557 kJ/mol
# Density = 2.107370 g / cm^3
# Si number density = 21.121777 Si / 1000 Ang^3
#
#
#
# Elastic Constant Matrix: (Units=GPa)
#
#
# Indices 1 2 3 4 5 6 
#
# 1 108.7165 31.4500 50.6697 0.0000 16.5692 0.0000
# 2 31.4500 59.9179 33.3830 0.0000 10.5492 0.0000
# 3 50.6697 33.3830 161.2609 0.0000 1.3377 0.0000
# 4 0.0000 0.0000 0.0000 37.3885 0.0000 2.4028
# 5 16.5692 10.5492 1.3377 0.0000 31.8035 0.0000
# 6 0.0000 0.0000 0.0000 2.4028 0.0000 35.3043
#
#
#
# Elastic Compliance Matrix: (Units=1/GPa)
#
#
# Indices 1 2 3 4 5 6 
#
# 1 0.012562 -0.003980 -0.003081 0.000000 -0.005095 0.000000
# 2 -0.003980 0.021387 -0.003136 0.000000 -0.004888 0.000000
# 3 -0.003081 -0.003136 0.007799 0.000000 0.002317 0.000000
# 4 0.000000 0.000000 0.000000 0.026864 0.000000 -0.001828
# 5 -0.005095 -0.004888 0.002317 0.000000 0.035621 0.000000
# 6 0.000000 0.000000 0.000000 -0.001828 0.000000 0.028450
#
#
# Mechanical properties :
#
#
# Convention : Reuss Voigt Hill
#
# Bulk Modulus (GPa) = 46.83090 62.32234 54.57662
# Shear Modulus (GPa) = 31.21202 35.19208 33.20205
#
# Velocity S-wave (km/s) = 3.84828 4.08628 3.96906
# Velocity P-wave (km/s) = 6.47809 7.19957 6.84834
#
# Compressibility (1/GPa) = 0.02135342
#
# Stress axis : x y z
#
# Youngs Moduli (GPa) = 79.60488 46.75839 128.21852
#
# Poissons Ratio (x) = 0.18610 0.39503
# Poissons Ratio (y) = 0.31684 0.40211
# Poissons Ratio (z) = 0.24526 0.14664
#
# Static dielectric constant tensor:
#      x y z
#    x 3.952740 0.000000 -0.014110 
#    y 0.000000 3.444630 0.000000 
#    z -0.014110 0.000000 4.004720 
# 
# 
# High freq. dielectric constant tensor:
#      x y z
#    x 1.842090 0.000000 0.001460 
#    y 0.000000 1.827010 0.000000 
#    z 0.001460 0.000000 1.837550 
# 
# From -- ./inp_files/68371.got.cif
#   From: 2010.06.25/outbox.cif.g09.slc.cpg/sg11_35_cif.got.tgz:68371.got - 2010.06.27 23:14:04.
