data_PCOD8077855
_publ_section_title
;
Structure prediction by ZEFSAII (Michael W. Deem and Ramdas Pophale) SiO2 
 PCOD8077855
Probable space group: P 21/M
;
_chemical_formula_sum "Si O2"
_cell_formula_units_Z 24
_cell_length_a 9.950107
_cell_length_b 17.511871
_cell_length_c 9.763278
_cell_angle_alpha 90.000000
_cell_angle_beta 137.003163
_cell_angle_gamma 90.000000
_cell_volume 1160.148478
_symmetry_space_group_name_H-M "P 21/M"
_symmetry_group_IT_number 11
_symmetry_cell_setting 'monoclinic'
loop_
_space_group_symop_operation_xyz
x,y,z
-x,1/2+y,-z
-x,-y,-z
x,1/2-y,z
loop_
_atom_site_type_symbol
_atom_site_label
_atom_site_fract_x
_atom_site_fract_y
_atom_site_fract_z
Si Si1 0.273726 0.087769 0.334879
Si Si2 0.071963 0.339671 0.941743
Si Si3 0.304464 0.402266 0.868508
Si Si4 0.296380 0.581042 0.439852
Si Si5 0.741927 0.432518 0.264634
Si Si6 0.882446 0.663306 0.521363
O O1 0.484746 0.110289 0.428986
O O2 0.258201 0.122547 0.474152
O O3 0.249877 0.996666 0.323583
O O4 0.101393 0.123951 0.113656
O O5 0.113584 0.250000 0.976768
O O6 0.228715 0.381952 0.962035
O O7 0.851201 0.354209 0.724552
O O8 0.207808 0.481958 0.746827
O O9 0.231499 0.338229 0.708207
O O10 0.539387 0.405702 0.044423
O O11 0.268547 0.569457 0.580036
O O12 0.906599 0.376883 0.329183
O O13 0.920294 0.750000 0.592743
#
# Coordination Sequence:
#
# PCOD8077855 Si02
#       6
#     4   4   4   4   4   4
#     4  11  25  45  67  96 132 170 221 271 319 376
#     4  12  25  41  65 100 135 171 212 265 332 390
#     4  11  23  42  69  97 127 170 220 274 313 379
#     4  11  23  44  71  96 124 177 222 264 319 387
#     4  11  23  43  71  96 127 169 228 268 313 384
#     4  12  25  42  65  98 136 172 211 269 333 383
#
# _framework density 20.687007999999999
#
# number of rings (size 3 to 8) (size 9 to 14) (size 15 to 20)
#    0.000    0.667    5.000    3.000    0.000    4.000 
#    0.000    0.000    0.000    0.000    0.000    0.000 
#    0.000    0.000    0.000    0.000    0.000    0.000 
#
# Total GULP energy -297796.995534 kJ/mol
# GULP energy per Si atom -12408.208147 kJ/mol
# Density = 2.063992 g / cm^3
# Si number density = 20.687008 Si / 1000 Ang^3
#
#
#
# Elastic Constant Matrix: (Units=GPa)
#
#
# Indices 1 2 3 4 5 6 
#
# 1 93.1158 34.1114 14.5990 0.0000 1.4527 0.0000
# 2 34.1114 83.8414 27.8897 0.0000 16.4941 0.0000
# 3 14.5990 27.8897 90.4200 0.0000 1.6990 0.0000
# 4 0.0000 0.0000 0.0000 22.4875 0.0000 -6.9239
# 5 1.4527 16.4941 1.6990 0.0000 25.6476 0.0000
# 6 0.0000 0.0000 0.0000 -6.9239 0.0000 13.8121
#
#
#
# Elastic Compliance Matrix: (Units=1/GPa)
#
#
# Indices 1 2 3 4 5 6 
#
# 1 0.012831 -0.005675 -0.000377 0.000000 0.002948 0.000000
# 2 -0.005675 0.017828 -0.004379 0.000000 -0.010854 0.000000
# 3 -0.000377 -0.004379 0.012433 0.000000 0.002014 0.000000
# 4 0.000000 0.000000 0.000000 0.052586 0.000000 0.026361
# 5 0.002948 -0.010854 0.002014 0.000000 0.045670 0.000000
# 6 0.000000 0.000000 0.000000 0.026361 0.000000 0.085615
#
#
# Mechanical properties :
#
#
# Convention : Reuss Voigt Hill
#
# Bulk Modulus (GPa) = 44.98133 46.73080 45.85607
# Shear Modulus (GPa) = 19.58980 25.10791 22.34885
#
# Velocity S-wave (km/s) = 3.08061 3.48761 3.29041
# Velocity P-wave (km/s) = 5.86895 6.23349 6.05396
#
# Compressibility (1/GPa) = 0.02223144
#
# Stress axis : x y z
#
# Youngs Moduli (GPa) = 77.93391 56.09113 80.43056
#
# Poissons Ratio (x) = 0.31833 0.03029
# Poissons Ratio (y) = 0.44229 0.35219
# Poissons Ratio (z) = 0.02935 0.24561
#
# Static dielectric constant tensor:
#      x y z
#    x 3.808130 0.000000 0.002720 
#    y 0.000000 3.646890 0.000000 
#    z 0.002720 0.000000 3.754580 
# 
# 
# High freq. dielectric constant tensor:
#      x y z
#    x 1.817330 0.000000 -0.002260 
#    y 0.000000 1.805960 0.000000 
#    z -0.002260 0.000000 1.820660 
# 
# From -- ./inp_files/14401.got.cif
#   From: 2010.06.25/outbox.cif.g09.slc.cpg/sg11_8_cif.got.tgz:14401.got - 2010.06.27 23:14:04.
