data_PCOD8077644
_publ_section_title
;
Structure prediction by ZEFSAII (Michael W. Deem and Ramdas Pophale) SiO2 
 PCOD8077644
Probable space group: P 21/M
;
_chemical_formula_sum "Si O2"
_cell_formula_units_Z 28
_cell_length_a 10.252530
_cell_length_b 8.398134
_cell_length_c 31.049240
_cell_angle_alpha 90.000000
_cell_angle_beta 33.213570
_cell_angle_gamma 90.000000
_cell_volume 1464.388260
_symmetry_space_group_name_H-M "P 21/M"
_symmetry_group_IT_number 11
_symmetry_cell_setting 'monoclinic'
loop_
_space_group_symop_operation_xyz
x,y,z
-x,1/2+y,-z
-x,-y,-z
x,1/2-y,z
loop_
_atom_site_type_symbol
_atom_site_label
_atom_site_fract_x
_atom_site_fract_y
_atom_site_fract_z
Si Si1 0.964149 0.064856 0.913594
Si Si2 0.762443 0.063051 0.336891
Si Si3 0.659390 0.562784 0.493952
Si Si4 0.486351 0.064706 0.917340
Si Si5 0.034032 0.434045 0.178735
Si Si6 0.076773 0.562742 0.326336
Si Si7 0.420356 0.060933 0.838250
O O1 0.922013 0.250000 0.935450
O O2 0.188141 0.994269 0.878215
O O3 0.011793 0.043026 0.849911
O O4 0.732916 0.964960 0.990263
O O5 0.799305 0.250000 0.335082
O O6 0.481565 0.014580 0.423116
O O7 0.829861 0.017791 0.269562
O O8 0.937442 0.972199 0.320752
O O9 0.500000 0.500000 0.500000
O O10 0.676405 0.750000 0.485800
O O11 0.928503 0.497086 0.409634
O O12 0.555897 0.250000 0.898840
O O13 0.414425 0.006060 0.889535
O O14 0.708352 0.962834 0.871985
O O15 0.013883 0.250000 0.171122
O O16 0.106934 0.750000 0.321394
O O17 0.342297 0.488680 0.250366
O O18 0.420578 0.250000 0.835189
#
# Coordination Sequence:
#
# PCOD8077644 Si02
#       7
#     4   4   4   4   4   4   4
#     4  11  23  38  53  73 102 135 171 210 254 301
#     4   9  17  29  46  73 104 131 163 203 246 292
#     4   8  14  24  43  71 101 129 157 197 245 291
#     4  11  21  37  58  78 100 127 167 214 259 304
#     4  11  22  36  53  75 104 137 172 208 249 299
#     4   9  15  28  50  75 101 129 163 201 247 297
#     4   9  19  34  54  78 103 131 167 209 250 301
#
# _framework density 19.120612999999999
#
# number of rings (size 3 to 8) (size 9 to 14) (size 15 to 20)
#    0.000    2.286    1.429    2.143    0.000    0.571 
#    0.000    3.571    0.000    0.857    0.000    0.000 
#    0.000    0.000    0.000    0.000    0.000    0.286 
#
# Total GULP energy -346933.965900 kJ/mol
# GULP energy per Si atom -12390.498782 kJ/mol
# Density = 1.907709 g / cm^3
# Si number density = 19.120613 Si / 1000 Ang^3
#
#
#
# Elastic Constant Matrix: (Units=GPa)
#
#
# Indices 1 2 3 4 5 6 
#
# 1 71.6672 5.0721 28.8446 0.0000 14.4097 0.0000
# 2 5.0721 17.0769 11.1218 0.0000 -2.1563 0.0000
# 3 28.8446 11.1218 155.4936 0.0000 14.4818 0.0000
# 4 0.0000 0.0000 0.0000 14.3032 0.0000 0.4434
# 5 14.4097 -2.1563 14.4818 0.0000 14.3499 0.0000
# 6 0.0000 0.0000 0.0000 0.4434 0.0000 13.3360
#
#
#
# Elastic Compliance Matrix: (Units=1/GPa)
#
#
# Indices 1 2 3 4 5 6 
#
# 1 0.018688 -0.007099 -0.001227 0.000000 -0.018595 0.000000
# 2 -0.007099 0.067223 -0.005625 0.000000 0.022906 0.000000
# 3 -0.001227 -0.005625 0.007754 0.000000 -0.007438 0.000000
# 4 0.000000 0.000000 0.000000 0.069986 0.000000 -0.002327
# 5 -0.018595 0.022906 -0.007438 0.000000 0.099307 0.000000
# 6 0.000000 0.000000 0.000000 -0.002327 0.000000 0.075062
#
#
# Mechanical properties :
#
#
# Convention : Reuss Voigt Hill
#
# Bulk Modulus (GPa) = 15.20620 37.14609 26.17614
# Shear Modulus (GPa) = 12.89178 21.67779 17.28479
#
# Velocity S-wave (km/s) = 2.59942 3.37076 3.00990
# Velocity P-wave (km/s) = 4.12060 5.88377 5.07928
#
# Compressibility (1/GPa) = 0.06576267
#
# Stress axis : x y z
#
# Youngs Moduli (GPa) = 53.50891 14.87591 128.96892
#
# Poissons Ratio (x) = 0.10561 0.15827
# Poissons Ratio (y) = 0.37988 0.72540
# Poissons Ratio (z) = 0.06567 0.08367
#
# Static dielectric constant tensor:
#      x y z
#    x 3.243820 0.000000 -0.093100 
#    y 0.000000 3.340920 0.000000 
#    z -0.093100 0.000000 4.418580 
# 
# 
# High freq. dielectric constant tensor:
#      x y z
#    x 1.697770 0.000000 -0.000350 
#    y 0.000000 1.726290 0.000000 
#    z -0.000350 0.000000 1.775950 
# 
# From -- ./inp_files/70834.got.cif
#   From: 2010.06.25/outbox.cif.g09.slc.cpg/sg11_36_cif.got.tgz:70834.got - 2010.06.27 23:14:04.
