data_PCOD8077184
_publ_section_title
;
Structure prediction by ZEFSAII (Michael W. Deem and Ramdas Pophale) SiO2 
 PCOD8077184
Probable space group: P 21/M
;
_chemical_formula_sum "Si O2"
_cell_formula_units_Z 28
_cell_length_a 27.112905
_cell_length_b 8.762559
_cell_length_c 9.359962
_cell_angle_alpha 90.000000
_cell_angle_beta 38.031093
_cell_angle_gamma 90.000000
_cell_volume 1370.012599
_symmetry_space_group_name_H-M "P 21/M"
_symmetry_group_IT_number 11
_symmetry_cell_setting 'monoclinic'
loop_
_space_group_symop_operation_xyz
x,y,z
-x,1/2+y,-z
-x,-y,-z
x,1/2-y,z
loop_
_atom_site_type_symbol
_atom_site_label
_atom_site_fract_x
_atom_site_fract_y
_atom_site_fract_z
Si Si1 0.204148 0.426780 0.317504
Si Si2 0.063301 0.429878 0.250286
Si Si3 0.225321 0.928436 0.979034
Si Si4 0.360047 0.071648 0.483962
Si Si5 0.348431 0.074250 0.182910
Si Si6 0.515840 0.426880 0.309964
Si Si7 0.024777 0.430366 0.797153
O O1 0.204078 0.250000 0.271007
O O2 0.243878 0.525411 0.100133
O O3 0.256531 0.449701 0.341734
O O4 0.113772 0.485240 0.550151
O O5 0.052985 0.250000 0.268902
O O6 0.151856 0.470507 0.094652
O O7 0.045060 0.503633 0.141013
O O8 0.000000 0.500000 0.500000
O O9 0.205688 0.750000 0.013519
O O10 0.299611 0.967622 0.709886
O O11 0.336178 0.250000 0.549473
O O12 0.358528 0.015674 0.322482
O O13 0.446278 0.038827 0.354688
O O14 0.373961 0.250000 0.117117
O O15 0.403227 0.985387 0.946202
O O16 0.500000 0.500000 0.500000
O O17 0.524972 0.250000 0.319507
O O18 0.021476 0.250000 0.807988
O O19 0.000000 0.500000 0.000000
#
# Coordination Sequence:
#
# PCOD8077184 Si02
#       7
#     4   4   4   4   4   4   4
#     4  10  22  41  63  88 122 165 209 256 314 376
#     4  12  24  42  66  92 124 165 213 264 318 375
#     4  12  25  40  63  94 125 163 210 259 315 372
#     4  10  23  42  64  91 126 165 205 254 313 373
#     4  10  22  41  65  92 123 163 206 253 313 370
#     4  11  23  40  64  94 126 165 207 252 307 367
#     4  11  24  41  63  93 127 167 213 262 319 378
#
# _framework density 20.437768999999999
#
# number of rings (size 3 to 8) (size 9 to 14) (size 15 to 20)
#    0.000    1.143    1.429    4.714    2.000    6.286 
#    0.000    0.000    0.000    0.000    0.000    0.000 
#    0.000    0.000    0.000    0.000    0.000    0.000 
#
# Total GULP energy -347283.128638 kJ/mol
# GULP energy per Si atom -12402.968880 kJ/mol
# Density = 2.039125 g / cm^3
# Si number density = 20.437769 Si / 1000 Ang^3
#
#
#
# Elastic Constant Matrix: (Units=GPa)
#
#
# Indices 1 2 3 4 5 6 
#
# 1 123.2035 32.5776 31.6519 0.0000 19.7261 0.0000
# 2 32.5776 81.6046 44.7106 0.0000 9.0008 0.0000
# 3 31.6519 44.7106 101.6390 0.0000 16.8212 0.0000
# 4 0.0000 0.0000 0.0000 38.5640 0.0000 1.2392
# 5 19.7261 9.0008 16.8212 0.0000 41.5736 0.0000
# 6 0.0000 0.0000 0.0000 1.2392 0.0000 32.1475
#
#
#
# Elastic Compliance Matrix: (Units=1/GPa)
#
#
# Indices 1 2 3 4 5 6 
#
# 1 0.009740 -0.002843 -0.001200 0.000000 -0.003521 0.000000
# 2 -0.002843 0.016992 -0.006649 0.000000 0.000360 0.000000
# 3 -0.001200 -0.006649 0.013724 0.000000 -0.003544 0.000000
# 4 0.000000 0.000000 0.000000 0.025963 0.000000 -0.001001
# 5 -0.003521 0.000360 -0.003544 0.000000 0.027080 0.000000
# 6 0.000000 0.000000 0.000000 -0.001001 0.000000 0.031145
#
#
# Mechanical properties :
#
#
# Convention : Reuss Voigt Hill
#
# Bulk Modulus (GPa) = 52.43120 58.25859 55.34490
# Shear Modulus (GPa) = 32.81128 35.62416 34.21772
#
# Velocity S-wave (km/s) = 4.01112 4.17952 4.09619
# Velocity P-wave (km/s) = 6.86745 7.20128 7.03635
#
# Compressibility (1/GPa) = 0.01907261
#
# Stress axis : x y z
#
# Youngs Moduli (GPa) = 102.66617 58.85000 72.86508
#
# Poissons Ratio (x) = 0.16729 0.08745
# Poissons Ratio (y) = 0.29184 0.48450
# Poissons Ratio (z) = 0.12322 0.39131
#
# Static dielectric constant tensor:
#      x y z
#    x 4.123610 0.000000 -0.178820 
#    y 0.000000 3.672170 0.000000 
#    z -0.178820 0.000000 3.948270 
# 
# 
# High freq. dielectric constant tensor:
#      x y z
#    x 1.819710 0.000000 0.002810 
#    y 0.000000 1.799350 0.000000 
#    z 0.002810 0.000000 1.802930 
# 
# From -- ./inp_files/28439.got.cif
#   From: 2010.06.25/outbox.cif.g09.slc.cpg/sg11_15_cif.got.tgz:28439.got - 2010.06.27 23:14:04.
