data_PCOD8077487
_publ_section_title
;
Structure prediction by ZEFSAII (Michael W. Deem and Ramdas Pophale) SiO2 
 PCOD8077487
Probable space group: P 21/M
;
_chemical_formula_sum "Si O2"
_cell_formula_units_Z 20
_cell_length_a 8.722293
_cell_length_b 13.938774
_cell_length_c 9.333534
_cell_angle_alpha 90.000000
_cell_angle_beta 46.332503
_cell_angle_gamma 90.000000
_cell_volume 820.833788
_symmetry_space_group_name_H-M "P 21/M"
_symmetry_group_IT_number 11
_symmetry_cell_setting 'monoclinic'
loop_
_space_group_symop_operation_xyz
x,y,z
-x,1/2+y,-z
-x,-y,-z
x,1/2-y,z
loop_
_atom_site_type_symbol
_atom_site_label
_atom_site_fract_x
_atom_site_fract_y
_atom_site_fract_z
Si Si1 0.497103 0.065525 0.137180
Si Si2 0.426707 0.250000 0.026954
Si Si3 0.894179 0.750000 0.024368
Si Si4 0.918092 0.250000 0.647294
Si Si5 0.319340 0.962175 0.516128
Si Si6 0.794383 0.250000 0.425128
Si Si7 0.018543 0.596582 0.166845
O O1 0.380132 0.161973 0.163103
O O2 0.737464 0.082876 0.038761
O O3 0.347283 0.014840 0.347755
O O4 0.500000 0.000000 0.000000
O O5 0.300274 0.250000 0.959631
O O6 0.665445 0.250000 0.818975
O O7 0.105641 0.750000 0.795226
O O8 0.894892 0.654522 0.122066
O O9 0.968355 0.250000 0.443338
O O10 0.003903 0.155431 0.670372
O O11 0.342322 0.847830 0.478461
O O12 0.093487 0.993694 0.732548
O O13 0.500000 0.000000 0.500000
#
# Coordination Sequence:
#
# PCOD8077487 Si02
#       7
#     4   2   2   2   4   2   4
#     4  11  26  47  77 107 151 200 249 305 369 448
#     4  10  24  45  73 111 144 192 252 300 369 439
#     4  11  26  45  79 104 150 193 240 312 373 442
#     4   9  22  45  73 104 150 187 242 301 353 452
#     4  12  29  47  75 110 152 194 247 308 373 445
#     4  12  28  45  71 111 142 184 256 303 361 441
#     4  10  25  49  71 107 149 197 242 299 373 440
#
# _framework density 24.365468
#
# number of rings (size 3 to 8) (size 9 to 14) (size 15 to 20)
#    0.000    1.200    0.000    4.200   11.200    5.600 
#    0.000    0.000    0.000    0.000    0.000    0.000 
#    0.000    0.000    0.000    0.000    0.000    0.000 
#
# Total GULP energy -247990.830144 kJ/mol
# GULP energy per Si atom -12399.541507 kJ/mol
# Density = 2.431001 g / cm^3
# Si number density = 24.365468 Si / 1000 Ang^3
#
#
#
# Elastic Constant Matrix: (Units=GPa)
#
#
# Indices 1 2 3 4 5 6 
#
# 1 122.7026 57.3865 28.8977 0.0000 20.8249 0.0000
# 2 57.3865 205.0095 57.7799 0.0000 15.9922 0.0000
# 3 28.8977 57.7799 117.1147 0.0000 24.9071 0.0000
# 4 0.0000 0.0000 0.0000 41.0225 0.0000 0.5297
# 5 20.8249 15.9922 24.9071 0.0000 37.4136 0.0000
# 6 0.0000 0.0000 0.0000 0.5297 0.0000 26.2364
#
#
#
# Elastic Compliance Matrix: (Units=1/GPa)
#
#
# Indices 1 2 3 4 5 6 
#
# 1 0.010090 -0.002374 -0.000396 0.000000 -0.004338 0.000000
# 2 -0.002374 0.006238 -0.002570 0.000000 0.000366 0.000000
# 3 -0.000396 -0.002570 0.011211 0.000000 -0.006145 0.000000
# 4 0.000000 0.000000 0.000000 0.024383 0.000000 -0.000492
# 5 -0.004338 0.000366 -0.006145 0.000000 0.033077 0.000000
# 6 0.000000 0.000000 0.000000 -0.000492 0.000000 0.038125
#
#
# Mechanical properties :
#
#
# Convention : Reuss Voigt Hill
#
# Bulk Modulus (GPa) = 59.31427 81.43945 70.37686
# Shear Modulus (GPa) = 35.86213 40.98535 38.42374
#
# Velocity S-wave (km/s) = 3.84062 4.10580 3.97542
# Velocity P-wave (km/s) = 6.63804 7.48154 7.07238
#
# Compressibility (1/GPa) = 0.01685935
#
# Stress axis : x y z
#
# Youngs Moduli (GPa) = 99.11148 160.30390 89.19961
#
# Poissons Ratio (x) = 0.38063 0.03529
# Poissons Ratio (y) = 0.23533 0.22921
# Poissons Ratio (z) = 0.03921 0.41191
#
# Static dielectric constant tensor:
#      x y z
#    x 4.627720 0.000000 0.065170 
#    y 0.000000 4.620900 0.000000 
#    z 0.065170 0.000000 4.359610 
# 
# 
# High freq. dielectric constant tensor:
#      x y z
#    x 1.965680 0.000000 0.015360 
#    y 0.000000 1.978460 0.000000 
#    z 0.015360 0.000000 1.977660 
# 
# From -- ./inp_files/12300.got.cif
#   From: 2010.06.25/outbox.cif.g09.slc.cpg/sg11_7_cif.got.tgz:12300.got - 2010.06.27 23:14:04.
