data_PCOD8077975
_publ_section_title
;
Structure prediction by ZEFSAII (Michael W. Deem and Ramdas Pophale) SiO2 
 PCOD8077975
Probable space group: P 21/M
;
_chemical_formula_sum "Si O2"
_cell_formula_units_Z 32
_cell_length_a 9.041274
_cell_length_b 14.923290
_cell_length_c 12.558440
_cell_angle_alpha 90.000000
_cell_angle_beta 78.169710
_cell_angle_gamma 90.000000
_cell_volume 1658.462808
_symmetry_space_group_name_H-M "P 21/M"
_symmetry_group_IT_number 11
_symmetry_cell_setting 'monoclinic'
loop_
_space_group_symop_operation_xyz
x,y,z
-x,1/2+y,-z
-x,-y,-z
x,1/2-y,z
loop_
_atom_site_type_symbol
_atom_site_label
_atom_site_fract_x
_atom_site_fract_y
_atom_site_fract_z
Si Si1 0.419039 0.853915 0.218833
Si Si2 0.079671 0.853098 0.224521
Si Si3 0.717337 0.347986 0.370331
Si Si4 0.544078 0.647997 0.429756
Si Si5 0.262068 0.652941 0.875339
Si Si6 0.813462 0.534850 0.329940
Si Si7 0.047314 0.349945 0.989431
Si Si8 0.688074 0.963694 0.108991
O O1 0.444533 0.750000 0.188135
O O2 0.250257 0.885106 0.217628
O O3 0.449537 0.874894 0.337724
O O4 0.531604 0.910292 0.126611
O O5 0.057813 0.750000 0.263041
O O6 0.040549 0.867101 0.107451
O O7 0.973247 0.914793 0.314510
O O8 0.783545 0.250000 0.398233
O O9 0.561998 0.369208 0.453551
O O10 0.675196 0.341680 0.252803
O O11 0.831224 0.432052 0.369929
O O12 0.601824 0.750000 0.416225
O O13 0.690592 0.585621 0.420848
O O14 0.295631 0.750000 0.927651
O O15 0.338717 0.567600 0.922969
O O16 0.079182 0.637037 0.900171
O O17 0.754282 0.537418 0.218084
O O18 0.116301 0.250000 0.981298
O O19 0.186319 0.418073 0.986103
#
# Coordination Sequence:
#
# PCOD8077975 Si02
#       8
#     4   4   4   4   4   4   4   4
#     4   9  17  29  45  66  90 112 136 172 219 263
#     4   9  17  29  45  66  90 112 136 172 219 263
#     4   9  17  28  43  64  88 114 145 178 209 244
#     4   9  16  27  45  67  89 112 139 174 214 253
#     4   9  17  28  43  64  88 114 145 178 209 244
#     4   9  16  27  45  67  88 110 140 177 214 253
#     4   9  16  27  45  67  89 112 139 174 214 253
#     4   9  16  27  45  67  88 110 140 177 214 253
#
# _framework density 19.294976999999999
#
# number of rings (size 3 to 8) (size 9 to 14) (size 15 to 20)
#    0.000    3.000    0.000    1.500    0.000    3.000 
#    0.000    1.250    0.000    0.750    0.000    0.000 
#    0.000    0.000    0.000    0.000    0.000    0.000 
#
# Total GULP energy -396542.632065 kJ/mol
# GULP energy per Si atom -12391.957252 kJ/mol
# Density = 1.925106 g / cm^3
# Si number density = 19.294977 Si / 1000 Ang^3
#
#
#
# Elastic Constant Matrix: (Units=GPa)
#
#
# Indices 1 2 3 4 5 6 
#
# 1 79.0781 49.4902 13.9669 0.0000 -26.7012 0.0000
# 2 49.4902 139.5080 20.2599 0.0000 -23.5686 0.0000
# 3 13.9669 20.2599 53.5935 0.0000 -19.8904 0.0000
# 4 0.0000 0.0000 0.0000 22.3200 0.0000 -11.1622
# 5 -26.7012 -23.5686 -19.8904 0.0000 21.3200 0.0000
# 6 0.0000 0.0000 0.0000 -11.1622 0.0000 20.6217
#
#
#
# Elastic Compliance Matrix: (Units=1/GPa)
#
#
# Indices 1 2 3 4 5 6 
#
# 1 0.025715 -0.004408 0.007815 0.000000 0.034623 0.000000
# 2 -0.004408 0.009576 -0.000904 0.000000 0.004222 0.000000
# 3 0.007815 -0.000904 0.030938 0.000000 0.037651 0.000000
# 4 0.000000 0.000000 0.000000 0.061432 0.000000 0.033252
# 5 0.034623 0.004222 0.037651 0.000000 0.130060 0.000000
# 6 0.000000 0.000000 0.000000 0.033252 0.000000 0.066492
#
#
# Mechanical properties :
#
#
# Convention : Reuss Voigt Hill
#
# Bulk Modulus (GPa) = 14.03829 48.84596 31.44212
# Shear Modulus (GPa) = 14.57926 25.41651 19.99789
#
# Velocity S-wave (km/s) = 2.75180 3.63335 3.22286
# Velocity P-wave (km/s) = 4.16988 6.55530 5.49363
#
# Compressibility (1/GPa) = 0.07123377
#
# Stress axis : x y z
#
# Youngs Moduli (GPa) = 38.88801 104.42360 32.32293
#
# Poissons Ratio (x) = 0.46029 -0.25259
# Poissons Ratio (y) = 0.17141 0.02923
# Poissons Ratio (z) = -0.30390 0.09444
#
# Static dielectric constant tensor:
#      x y z
#    x 3.050890 0.000000 -0.356020 
#    y 0.000000 4.099810 0.000000 
#    z -0.356020 0.000000 3.479380 
# 
# 
# High freq. dielectric constant tensor:
#      x y z
#    x 1.688960 0.000000 -0.038000 
#    y 0.000000 1.773470 0.000000 
#    z -0.038000 0.000000 1.744250 
# 
# From -- ./inp_files/21859.got.cif
#   From: 2010.06.25/outbox.cif.g09.slc.cpg/sg11_11_cif.got.tgz:21859.got - 2010.06.27 23:14:04.
