data_PCOD8077491
_publ_section_title
;
Structure prediction by ZEFSAII (Michael W. Deem and Ramdas Pophale) SiO2 
 PCOD8077491
Probable space group: P 21/M
;
_chemical_formula_sum "Si O2"
_cell_formula_units_Z 24
_cell_length_a 7.979130
_cell_length_b 21.293103
_cell_length_c 7.938642
_cell_angle_alpha 90.000000
_cell_angle_beta 56.809815
_cell_angle_gamma 90.000000
_cell_volume 1128.736419
_symmetry_space_group_name_H-M "P 21/M"
_symmetry_group_IT_number 11
_symmetry_cell_setting 'monoclinic'
loop_
_space_group_symop_operation_xyz
x,y,z
-x,1/2+y,-z
-x,-y,-z
x,1/2-y,z
loop_
_atom_site_type_symbol
_atom_site_label
_atom_site_fract_x
_atom_site_fract_y
_atom_site_fract_z
Si Si1 0.344696 0.019874 0.449781
Si Si2 0.730616 0.089885 0.748268
Si Si3 0.003531 0.320934 0.407382
Si Si4 0.003852 0.557628 0.125641
Si Si5 0.546815 0.631515 0.837670
Si Si6 0.154623 0.821648 0.874762
O O1 0.431962 0.063305 0.256776
O O2 0.172454 0.056174 0.642506
O O3 0.500000 0.000000 0.500000
O O4 0.280838 0.953987 0.406087
O O5 0.794650 0.049303 0.876880
O O6 0.902418 0.140320 0.613032
O O7 0.528239 0.124044 0.925739
O O8 0.983595 0.250000 0.476268
O O9 0.239552 0.335264 0.262335
O O10 0.874189 0.332524 0.308880
O O11 0.007120 0.626519 0.038312
O O12 0.000000 0.500000 0.000000
O O13 0.385078 0.669158 0.810581
O O14 0.088969 0.750000 0.956646
#
# Coordination Sequence:
#
# PCOD8077491 Si02
#       6
#     4   4   4   4   4   4
#     4  12  24  40  65 102 136 178 219 282 347 404
#     4  11  24  43  66  98 139 174 225 285 340 403
#     4  11  24  44  70  96 133 182 229 280 344 405
#     4  11  23  40  68  96 133 177 222 279 336 399
#     4  11  24  43  68 100 132 178 227 281 335 414
#     4  10  24  46  67  97 138 179 228 287 339 408
#
# _framework density 21.262715
#
# number of rings (size 3 to 8) (size 9 to 14) (size 15 to 20)
#    0.000    1.000    1.667    5.500    4.667    3.333 
#    0.000    0.000    0.000    0.000    0.000    0.000 
#    0.000    0.000    0.000    0.000    0.000    0.000 
#
# Total GULP energy -297428.692660 kJ/mol
# GULP energy per Si atom -12392.862194 kJ/mol
# Density = 2.121432 g / cm^3
# Si number density = 21.262715 Si / 1000 Ang^3
#
#
#
# Elastic Constant Matrix: (Units=GPa)
#
#
# Indices 1 2 3 4 5 6 
#
# 1 87.4574 59.5168 37.1954 0.0000 2.2718 0.0000
# 2 59.5168 150.3935 64.2015 0.0000 2.6853 0.0000
# 3 37.1954 64.2015 135.8333 0.0000 -14.3735 0.0000
# 4 0.0000 0.0000 0.0000 36.0470 0.0000 0.2500
# 5 2.2718 2.6853 -14.3735 0.0000 28.4959 0.0000
# 6 0.0000 0.0000 0.0000 0.2500 0.0000 34.0711
#
#
#
# Elastic Compliance Matrix: (Units=1/GPa)
#
#
# Indices 1 2 3 4 5 6 
#
# 1 0.016051 -0.005467 -0.001999 0.000000 -0.001773 0.000000
# 2 -0.005467 0.010430 -0.003687 0.000000 -0.002407 0.000000
# 3 -0.001999 -0.003687 0.010253 0.000000 0.005678 0.000000
# 4 0.000000 0.000000 0.000000 0.027743 0.000000 -0.000204
# 5 -0.001773 -0.002407 0.005678 0.000000 0.038325 0.000000
# 6 0.000000 0.000000 0.000000 -0.000204 0.000000 0.029352
#
#
# Mechanical properties :
#
#
# Convention : Reuss Voigt Hill
#
# Bulk Modulus (GPa) = 69.31300 77.27905 73.29602
# Shear Modulus (GPa) = 31.39349 33.90749 32.65049
#
# Velocity S-wave (km/s) = 3.84664 3.99769 3.92289
# Velocity P-wave (km/s) = 7.23864 7.59819 7.42060
#
# Compressibility (1/GPa) = 0.01442731
#
# Stress axis : x y z
#
# Youngs Moduli (GPa) = 62.30266 95.87938 97.53274
#
# Poissons Ratio (x) = 0.52417 0.19495
# Poissons Ratio (y) = 0.34061 0.35963
# Poissons Ratio (z) = 0.12453 0.35353
#
# Static dielectric constant tensor:
#      x y z
#    x 4.013600 0.000000 0.049800 
#    y 0.000000 3.782990 0.000000 
#    z 0.049800 0.000000 3.827120 
# 
# 
# High freq. dielectric constant tensor:
#      x y z
#    x 1.842440 0.000000 0.005720 
#    y 0.000000 1.840250 0.000000 
#    z 0.005720 0.000000 1.840560 
# 
# From -- ./inp_files/14234.got.cif
#   From: 2010.06.25/outbox.cif.g09.slc.cpg/sg11_8_cif.got.tgz:14234.got - 2010.06.27 23:14:04.
