data_PCOD8077403
_publ_section_title
;
Structure prediction by ZEFSAII (Michael W. Deem and Ramdas Pophale) SiO2 
 PCOD8077403
Probable space group: P 21/M
;
_chemical_formula_sum "Si O2"
_cell_formula_units_Z 24
_cell_length_a 12.058645
_cell_length_b 13.078876
_cell_length_c 15.071954
_cell_angle_alpha 90.000000
_cell_angle_beta 152.255514
_cell_angle_gamma 90.000000
_cell_volume 1106.586986
_symmetry_space_group_name_H-M "P 21/M"
_symmetry_group_IT_number 11
_symmetry_cell_setting 'monoclinic'
loop_
_space_group_symop_operation_xyz
x,y,z
-x,1/2+y,-z
-x,-y,-z
x,1/2-y,z
loop_
_atom_site_type_symbol
_atom_site_label
_atom_site_fract_x
_atom_site_fract_y
_atom_site_fract_z
Si Si1 0.959805 0.866552 0.430899
Si Si2 0.565412 0.871154 0.023363
Si Si3 0.345581 0.369727 0.451050
Si Si4 0.733015 0.523054 0.783542
Si Si5 0.041876 0.627620 0.682127
Si Si6 0.502155 0.634304 0.781702
O O1 0.874404 0.750000 0.383098
O O2 0.951867 0.919533 0.523290
O O3 0.218882 0.869193 0.571966
O O4 0.777099 0.920141 0.232564
O O5 0.578334 0.750000 0.028817
O O6 0.316307 0.906985 0.892357
O O7 0.585087 0.909435 0.935900
O O8 0.384823 0.250000 0.490675
O O9 0.596133 0.421696 0.653668
O O10 0.272136 0.393478 0.298326
O O11 0.131341 0.410385 0.362479
O O12 0.605266 0.563331 0.779656
O O13 0.000000 0.500000 0.000000
O O14 0.039377 0.750000 0.672227
O O15 0.594316 0.750000 0.833323
#
# Coordination Sequence:
#
# PCOD8077403 Si02
#       6
#     4   4   4   4   4   4
#     4   8  14  27  52  84 115 150 189 231 283 342
#     4   8  14  26  50  84 117 151 190 231 280 341
#     4  10  23  43  64  86 117 157 198 245 300 354
#     4  11  25  42  61  87 118 154 204 255 296 348
#     4   8  15  30  53  83 115 146 187 234 283 348
#     4   9  18  34  56  84 118 152 191 240 290 342
#
# _framework density 21.688309
#
# number of rings (size 3 to 8) (size 9 to 14) (size 15 to 20)
#    0.000    3.000    0.000    2.500    0.000    5.333 
#    0.000    8.333    0.000    6.000    0.000    0.000 
#    0.000    0.000    0.000    0.000    0.000    0.000 
#
# Total GULP energy -297570.964463 kJ/mol
# GULP energy per Si atom -12398.790186 kJ/mol
# Density = 2.163895 g / cm^3
# Si number density = 21.688309 Si / 1000 Ang^3
#
#
#
# Elastic Constant Matrix: (Units=GPa)
#
#
# Indices 1 2 3 4 5 6 
#
# 1 139.9947 25.8944 66.7986 0.0000 -8.6555 0.0000
# 2 25.8944 42.7999 23.0179 0.0000 -11.3687 0.0000
# 3 66.7986 23.0179 185.3307 0.0000 -18.5698 0.0000
# 4 0.0000 0.0000 0.0000 12.0323 0.0000 -4.2331
# 5 -8.6555 -11.3687 -18.5698 0.0000 21.8498 0.0000
# 6 0.0000 0.0000 0.0000 -4.2331 0.0000 29.7765
#
#
#
# Elastic Compliance Matrix: (Units=1/GPa)
#
#
# Indices 1 2 3 4 5 6 
#
# 1 0.009265 -0.004320 -0.002908 0.000000 -0.001049 0.000000
# 2 -0.004320 0.029922 -0.000842 0.000000 0.013141 0.000000
# 3 -0.002908 -0.000842 0.006984 0.000000 0.004345 0.000000
# 4 0.000000 0.000000 0.000000 0.087485 0.000000 0.012437
# 5 -0.001049 0.013141 0.004345 0.000000 0.055882 0.000000
# 6 0.000000 0.000000 0.000000 0.012437 0.000000 0.035352
#
#
# Mechanical properties :
#
#
# Convention : Reuss Voigt Hill
#
# Bulk Modulus (GPa) = 33.30023 66.61636 49.95829
# Shear Modulus (GPa) = 19.91712 29.55934 24.73823
#
# Velocity S-wave (km/s) = 3.03369 3.69577 3.38098
# Velocity P-wave (km/s) = 5.25912 6.99955 6.19080
#
# Compressibility (1/GPa) = 0.03002983
#
# Stress axis : x y z
#
# Youngs Moduli (GPa) = 107.93485 33.42024 143.18727
#
# Poissons Ratio (x) = 0.14438 0.41637
# Poissons Ratio (y) = 0.46629 0.12063
# Poissons Ratio (z) = 0.31386 0.02815
#
# Static dielectric constant tensor:
#      x y z
#    x 4.073220 0.000000 0.047570 
#    y 0.000000 3.838880 0.000000 
#    z 0.047570 0.000000 4.711550 
# 
# 
# High freq. dielectric constant tensor:
#      x y z
#    x 1.846690 0.000000 -0.009090 
#    y 0.000000 1.863290 0.000000 
#    z -0.009090 0.000000 1.856710 
# 
# From -- ./inp_files/50314.got.cif
#   From: 2010.06.25/outbox.cif.g09.slc.cpg/sg11_26_cif.got.tgz:50314.got - 2010.06.27 23:14:04.
