data_PCOD8077441
_publ_section_title
;
Structure prediction by ZEFSAII (Michael W. Deem and Ramdas Pophale) SiO2 
 PCOD8077441
Probable space group: P 21/M
;
_chemical_formula_sum "Si O2"
_cell_formula_units_Z 32
_cell_length_a 13.926863
_cell_length_b 19.316750
_cell_length_c 8.522984
_cell_angle_alpha 90.000000
_cell_angle_beta 40.271404
_cell_angle_gamma 90.000000
_cell_volume 1482.130579
_symmetry_space_group_name_H-M "P 21/M"
_symmetry_group_IT_number 11
_symmetry_cell_setting 'monoclinic'
loop_
_space_group_symop_operation_xyz
x,y,z
-x,1/2+y,-z
-x,-y,-z
x,1/2-y,z
loop_
_atom_site_type_symbol
_atom_site_label
_atom_site_fract_x
_atom_site_fract_y
_atom_site_fract_z
Si Si1 0.437797 0.082226 0.665728
Si Si2 0.148309 0.329391 0.504840
Si Si3 0.926484 0.426108 0.605043
Si Si4 0.375773 0.559278 0.850579
Si Si5 0.371295 0.673259 0.395295
Si Si6 0.135116 0.565964 0.670508
Si Si7 0.484749 0.327201 0.107441
Si Si8 0.833719 0.578358 0.227199
O O1 0.589027 0.066190 0.378372
O O2 0.473029 0.152209 0.716383
O O3 0.303757 0.094835 0.713508
O O4 0.408930 0.022761 0.835093
O O5 0.095740 0.250000 0.568909
O O6 0.320305 0.337462 0.241646
O O7 0.130183 0.357893 0.704032
O O8 0.048066 0.369883 0.504034
O O9 0.860923 0.411465 0.516129
O O10 0.000000 0.500000 0.500000
O O11 0.795906 0.424992 0.898058
O O12 0.483798 0.611202 0.809696
O O13 0.327321 0.750000 0.503191
O O14 0.241834 0.622381 0.616855
O O15 0.394509 0.668647 0.180028
O O16 0.198688 0.489032 0.623957
O O17 0.970242 0.567734 0.941289
O O18 0.495356 0.250000 0.173238
#
# Coordination Sequence:
#
# PCOD8077441 Si02
#       8
#     4   4   4   4   4   4   4   4
#     4  11  25  41  68 101 132 172 224 279 325 402
#     4  11  26  45  67  98 136 178 222 273 338 406
#     4  12  25  42  69 100 130 173 223 277 337 395
#     4  11  23  43  68  97 128 171 226 272 339 392
#     4  11  26  44  66 100 135 178 224 273 336 400
#     4  11  24  43  70  99 138 173 220 282 328 402
#     4  10  23  45  67  94 134 174 224 281 333 399
#     4  11  24  45  68  99 138 174 224 272 335 398
#
# _framework density 21.590541999999999
#
# number of rings (size 3 to 8) (size 9 to 14) (size 15 to 20)
#    0.000    1.000    3.750    2.250    7.000    3.000 
#    0.000    0.000    0.000    0.000    0.000    0.000 
#    0.000    0.000    0.000    0.000    0.000    0.000 
#
# Total GULP energy -396697.066892 kJ/mol
# GULP energy per Si atom -12396.783340 kJ/mol
# Density = 2.154140 g / cm^3
# Si number density = 21.590542 Si / 1000 Ang^3
#
#
#
# Elastic Constant Matrix: (Units=GPa)
#
#
# Indices 1 2 3 4 5 6 
#
# 1 118.7382 73.8721 19.6113 0.0000 -5.7762 0.0000
# 2 73.8721 161.2507 32.3239 0.0000 -7.2436 0.0000
# 3 19.6113 32.3239 78.7926 0.0000 -11.6780 0.0000
# 4 0.0000 0.0000 0.0000 24.5054 0.0000 0.3056
# 5 -5.7762 -7.2436 -11.6780 0.0000 25.1490 0.0000
# 6 0.0000 0.0000 0.0000 0.3056 0.0000 37.2659
#
#
#
# Elastic Compliance Matrix: (Units=1/GPa)
#
#
# Indices 1 2 3 4 5 6 
#
# 1 0.011842 -0.005253 -0.000659 0.000000 0.000901 0.000000
# 2 -0.005253 0.009099 -0.002379 0.000000 0.000309 0.000000
# 3 -0.000659 -0.002379 0.014721 0.000000 0.005999 0.000000
# 4 0.000000 0.000000 0.000000 0.040811 0.000000 -0.000335
# 5 0.000901 0.000309 0.005999 0.000000 0.042845 0.000000
# 6 0.000000 0.000000 0.000000 -0.000335 0.000000 0.026837
#
#
# Mechanical properties :
#
#
# Convention : Reuss Voigt Hill
#
# Bulk Modulus (GPa) = 52.41220 67.82181 60.11701
# Shear Modulus (GPa) = 29.56872 32.91568 31.24220
#
# Velocity S-wave (km/s) = 3.70472 3.90877 3.80811
# Velocity P-wave (km/s) = 6.52903 7.20085 6.87315
#
# Compressibility (1/GPa) = 0.01907953
#
# Stress axis : x y z
#
# Youngs Moduli (GPa) = 84.44163 109.90519 67.93076
#
# Poissons Ratio (x) = 0.57730 0.04478
# Poissons Ratio (y) = 0.44354 0.16164
# Poissons Ratio (z) = 0.05566 0.26151
#
# Static dielectric constant tensor:
#      x y z
#    x 4.073460 0.000000 0.086120 
#    y 0.000000 4.031460 0.000000 
#    z 0.086120 0.000000 3.987470 
# 
# 
# High freq. dielectric constant tensor:
#      x y z
#    x 1.846670 0.000000 -0.007740 
#    y 0.000000 1.848710 0.000000 
#    z -0.007740 0.000000 1.850790 
# 
# From -- ./inp_files/23058.got.cif
#   From: 2010.06.25/outbox.cif.g09.slc.cpg/sg11_12_cif.got.tgz:23058.got - 2010.06.27 23:14:04.
