data_PCOD8077470
_publ_section_title
;
Structure prediction by ZEFSAII (Michael W. Deem and Ramdas Pophale) SiO2 
 PCOD8077470
Probable space group: P 21/M
;
_chemical_formula_sum "Si O2"
_cell_formula_units_Z 32
_cell_length_a 12.388278
_cell_length_b 8.873486
_cell_length_c 28.423739
_cell_angle_alpha 90.000000
_cell_angle_beta 149.768005
_cell_angle_gamma 90.000000
_cell_volume 1573.214876
_symmetry_space_group_name_H-M "P 21/M"
_symmetry_group_IT_number 11
_symmetry_cell_setting 'monoclinic'
loop_
_space_group_symop_operation_xyz
x,y,z
-x,1/2+y,-z
-x,-y,-z
x,1/2-y,z
loop_
_atom_site_type_symbol
_atom_site_label
_atom_site_fract_x
_atom_site_fract_y
_atom_site_fract_z
Si Si1 0.170969 0.424085 0.529916
Si Si2 0.797573 0.924016 0.209159
Si Si3 0.517823 0.080521 0.772882
Si Si4 0.356777 0.424371 0.016760
Si Si5 0.123994 0.922364 0.663637
Si Si6 0.379019 0.072104 0.278685
Si Si7 0.837955 0.079771 0.972911
Si Si8 0.997143 0.577997 0.187962
O O1 0.190563 0.250000 0.551992
O O2 0.401196 0.502053 0.619576
O O3 0.000000 0.500000 0.500000
O O4 0.100817 0.437279 0.448543
O O5 0.763515 0.750000 0.208738
O O6 0.975891 0.947606 0.235864
O O7 0.573074 0.983306 0.104543
O O8 0.886959 0.005156 0.289025
O O9 0.491865 0.250000 0.744081
O O10 0.611697 0.080543 0.860709
O O11 0.288680 0.002580 0.690292
O O12 0.664595 0.989674 0.790653
O O13 0.411022 0.250000 0.044790
O O14 0.180817 0.479383 0.988038
O O15 0.239245 0.456225 0.922919
O O16 0.195560 0.750000 0.696989
O O17 0.401140 0.250000 0.285669
O O18 0.181253 0.030026 0.237786
O O19 0.910717 0.250000 0.012868
O O20 0.000000 0.000000 0.000000
O O21 0.061067 0.750000 0.200126
#
# Coordination Sequence:
#
# PCOD8077470 Si02
#       8
#     4   4   4   4   4   4   4   4
#     4  11  23  40  65  94 126 161 201 252 308 373
#     4  11  23  41  65  91 124 165 209 257 310 366
#     4  11  22  37  59  85 122 164 200 247 307 366
#     4  11  22  38  62  89 121 161 209 260 305 360
#     4  11  23  39  63  94 123 155 202 252 303 365
#     4  12  25  40  63  94 126 162 206 255 311 373
#     4  11  23  36  53  82 120 162 204 247 304 366
#     4  10  24  44  63  88 123 166 212 257 309 365
#
# _framework density 20.340516000000001
#
# number of rings (size 3 to 8) (size 9 to 14) (size 15 to 20)
#    0.000    1.000    2.500    4.500    0.000    8.000 
#    0.000    0.625    0.000    0.000    0.000    0.000 
#    0.000    0.000    0.000    0.000    0.000    0.000 
#
# Total GULP energy -396855.736356 kJ/mol
# GULP energy per Si atom -12401.741761 kJ/mol
# Density = 2.029422 g / cm^3
# Si number density = 20.340516 Si / 1000 Ang^3
#
#
#
# Elastic Constant Matrix: (Units=GPa)
#
#
# Indices 1 2 3 4 5 6 
#
# 1 93.3485 41.1086 25.3396 0.0000 -8.0039 0.0000
# 2 41.1086 147.9661 42.1943 0.0000 -4.1631 0.0000
# 3 25.3396 42.1943 68.6025 0.0000 -9.3766 0.0000
# 4 0.0000 0.0000 0.0000 32.5799 0.0000 3.9579
# 5 -8.0039 -4.1631 -9.3766 0.0000 26.4924 0.0000
# 6 0.0000 0.0000 0.0000 3.9579 0.0000 30.1937
#
#
#
# Elastic Compliance Matrix: (Units=1/GPa)
#
#
# Indices 1 2 3 4 5 6 
#
# 1 0.012869 -0.002725 -0.002737 0.000000 0.002491 0.000000
# 2 -0.002725 0.008780 -0.004537 0.000000 -0.001049 0.000000
# 3 -0.002737 -0.004537 0.019091 0.000000 0.005217 0.000000
# 4 0.000000 0.000000 0.000000 0.031190 0.000000 -0.004089
# 5 0.002491 -0.001049 0.005217 0.000000 0.040181 0.000000
# 6 0.000000 0.000000 0.000000 -0.004089 0.000000 0.033655
#
#
# Mechanical properties :
#
#
# Convention : Reuss Voigt Hill
#
# Bulk Modulus (GPa) = 48.21038 58.57800 53.39419
# Shear Modulus (GPa) = 28.95561 31.27151 30.11356
#
# Velocity S-wave (km/s) = 3.77708 3.92522 3.85186
# Velocity P-wave (km/s) = 6.54025 7.02882 6.78893
#
# Compressibility (1/GPa) = 0.02074242
#
# Stress axis : x y z
#
# Youngs Moduli (GPa) = 77.70600 113.90138 52.38009
#
# Poissons Ratio (x) = 0.31035 0.14337
# Poissons Ratio (y) = 0.21173 0.23764
# Poissons Ratio (z) = 0.21269 0.51676
#
# Static dielectric constant tensor:
#      x y z
#    x 3.683250 0.000000 -0.237380 
#    y 0.000000 3.900860 0.000000 
#    z -0.237380 0.000000 3.800810 
# 
# 
# High freq. dielectric constant tensor:
#      x y z
#    x 1.793080 0.000000 -0.011890 
#    y 0.000000 1.809690 0.000000 
#    z -0.011890 0.000000 1.792580 
# 
# From -- ./inp_files/73190.got.cif
#   From: 2010.06.25/outbox.cif.g09.slc.cpg/sg11_37_cif.got.tgz:73190.got - 2010.06.27 23:14:04.
