data_PCOD8077851
_publ_section_title
;
Structure prediction by ZEFSAII (Michael W. Deem and Ramdas Pophale) SiO2 
 PCOD8077851
Probable space group: P 21/M
;
_chemical_formula_sum "Si O2"
_cell_formula_units_Z 28
_cell_length_a 11.385628
_cell_length_b 13.799685
_cell_length_c 8.989680
_cell_angle_alpha 90.000000
_cell_angle_beta 115.745420
_cell_angle_gamma 90.000000
_cell_volume 1272.232404
_symmetry_space_group_name_H-M "P 21/M"
_symmetry_group_IT_number 11
_symmetry_cell_setting 'monoclinic'
loop_
_space_group_symop_operation_xyz
x,y,z
-x,1/2+y,-z
-x,-y,-z
x,1/2-y,z
loop_
_atom_site_type_symbol
_atom_site_label
_atom_site_fract_x
_atom_site_fract_y
_atom_site_fract_z
Si Si1 0.447842 0.589534 0.065495
Si Si2 0.182569 0.636769 0.435895
Si Si3 0.719974 0.640486 0.587477
Si Si4 0.274797 0.353773 0.755976
Si Si5 0.047351 0.481548 0.190144
Si Si6 0.195228 0.937274 0.774640
Si Si7 0.567683 0.135831 0.619249
O O1 0.569767 0.662745 0.132477
O O2 0.411269 0.572085 0.219271
O O3 0.500000 0.500000 0.000000
O O4 0.314093 0.624690 0.912280
O O5 0.152612 0.750000 0.423041
O O6 0.066703 0.585080 0.281820
O O7 0.183318 0.592810 0.599254
O O8 0.320906 0.611206 0.437924
O O9 0.739336 0.750000 0.652416
O O10 0.754554 0.628157 0.433428
O O11 0.815466 0.574574 0.737414
O O12 0.570182 0.607824 0.532827
O O13 0.211004 0.250000 0.770492
O O14 0.219800 0.446889 0.812324
O O15 0.940164 0.415679 0.216341
O O16 0.000000 0.500000 0.000000
O O17 0.569735 0.250000 0.663412
#
# Coordination Sequence:
#
# PCOD8077851 Si02
#       7
#     4   4   4   4   4   4   4
#     4   9  18  35  62  95 127 161 205 259 323 384
#     4  11  25  43  65  96 132 173 218 272 329 385
#     4   9  19  39  67  93 118 161 215 266 323 379
#     4   9  18  37  65  93 123 161 209 264 320 381
#     4  12  26  44  63  91 130 173 223 267 320 396
#     4  11  23  42  62  95 132 168 216 260 325 397
#     4   9  19  40  67  95 127 165 214 269 326 385
#
# _framework density 22.008555999999999
#
# number of rings (size 3 to 8) (size 9 to 14) (size 15 to 20)
#    0.000    2.000    1.429    2.571    0.000    3.429 
#    7.714    0.000    0.000    0.000    0.000    1.000 
#    0.000    0.000    0.000    0.000    0.000    0.000 
#
# Total GULP energy -347022.944381 kJ/mol
# GULP energy per Si atom -12393.676585 kJ/mol
# Density = 2.195846 g / cm^3
# Si number density = 22.008556 Si / 1000 Ang^3
#
#
#
# Elastic Constant Matrix: (Units=GPa)
#
#
# Indices 1 2 3 4 5 6 
#
# 1 109.3104 18.5890 64.5633 0.0000 -3.7764 0.0000
# 2 18.5890 61.6471 55.7505 0.0000 3.8724 0.0000
# 3 64.5633 55.7505 174.5628 0.0000 10.5358 0.0000
# 4 0.0000 0.0000 0.0000 8.2033 0.0000 -2.5288
# 5 -3.7764 3.8724 10.5358 0.0000 39.7588 0.0000
# 6 0.0000 0.0000 0.0000 -2.5288 0.0000 27.0577
#
#
#
# Elastic Compliance Matrix: (Units=1/GPa)
#
#
# Indices 1 2 3 4 5 6 
#
# 1 0.011927 0.000525 -0.004720 0.000000 0.002332 0.000000
# 2 0.000525 0.022836 -0.007476 0.000000 -0.000193 0.000000
# 3 -0.004720 -0.007476 0.010005 0.000000 -0.002371 0.000000
# 4 0.000000 0.000000 0.000000 0.125518 0.000000 0.011731
# 5 0.002332 -0.000193 -0.002371 0.000000 0.026020 0.000000
# 6 0.000000 0.000000 0.000000 0.011731 0.000000 0.038054
#
#
# Mechanical properties :
#
#
# Convention : Reuss Voigt Hill
#
# Bulk Modulus (GPa) = 46.66915 69.25844 57.96380
# Shear Modulus (GPa) = 18.87902 28.77846 23.82874
#
# Velocity S-wave (km/s) = 2.93201 3.62000 3.29402
# Velocity P-wave (km/s) = 5.71955 7.00070 6.39230
#
# Compressibility (1/GPa) = 0.02142743
#
# Stress axis : x y z
#
# Youngs Moduli (GPa) = 83.84123 43.79093 99.94993
#
# Poissons Ratio (x) = -0.02301 0.47176
# Poissons Ratio (y) = -0.04405 0.74721
# Poissons Ratio (z) = 0.39573 0.32737
#
# Static dielectric constant tensor:
#      x y z
#    x 4.138460 0.000000 0.306140 
#    y 0.000000 4.086190 0.000000 
#    z 0.306140 0.000000 3.964940 
# 
# 
# High freq. dielectric constant tensor:
#      x y z
#    x 1.866520 0.000000 0.014660 
#    y 0.000000 1.858650 0.000000 
#    z 0.014660 0.000000 1.858670 
# 
# From -- ./inp_files/18132.got.cif
#   From: 2010.06.25/outbox.cif.g09.slc.cpg/sg11_10_cif.got.tgz:18132.got - 2010.06.27 23:14:04.
