data_PCOD8077273
_publ_section_title
;
Structure prediction by ZEFSAII (Michael W. Deem and Ramdas Pophale) SiO2 
 PCOD8077273
Probable space group: P 21/M
;
_chemical_formula_sum "Si O2"
_cell_formula_units_Z 24
_cell_length_a 14.816044
_cell_length_b 8.559153
_cell_length_c 14.805380
_cell_angle_alpha 90.000000
_cell_angle_beta 39.140081
_cell_angle_gamma 90.000000
_cell_volume 1185.120059
_symmetry_space_group_name_H-M "P 21/M"
_symmetry_group_IT_number 11
_symmetry_cell_setting 'monoclinic'
loop_
_space_group_symop_operation_xyz
x,y,z
-x,1/2+y,-z
-x,-y,-z
x,1/2-y,z
loop_
_atom_site_type_symbol
_atom_site_label
_atom_site_fract_x
_atom_site_fract_y
_atom_site_fract_z
Si Si1 0.137971 0.067395 0.441454
Si Si2 0.054164 0.067436 0.052280
Si Si3 0.618597 0.569951 0.173197
Si Si4 0.859126 0.067696 0.365199
Si Si5 0.436300 0.930260 0.140190
Si Si6 0.568818 0.931255 0.534865
O O1 0.140786 0.250000 0.424031
O O2 0.120456 0.029915 0.560109
O O3 0.285739 0.003750 0.286043
O O4 0.000000 0.000000 0.500000
O O5 0.029255 0.250000 0.064931
O O6 0.965043 0.001529 0.206241
O O7 0.216278 0.023676 0.948757
O O8 0.000000 0.000000 0.000000
O O9 0.594132 0.750000 0.222469
O O10 0.558598 0.542453 0.119817
O O11 0.540729 0.448323 0.298349
O O12 0.884561 0.250000 0.366593
O O13 0.701643 0.041758 0.450775
O O14 0.404968 0.750000 0.148827
O O15 0.500000 0.000000 0.000000
O O16 0.612262 0.750000 0.489621
O O17 0.500000 0.000000 0.500000
#
# Coordination Sequence:
#
# PCOD8077273 Si02
#       6
#     4   4   4   4   4   4
#     4  12  26  45  69  99 132 171 219 272 331 396
#     4  10  23  41  63  93 128 170 214 262 318 380
#     4  10  22  42  65  91 128 169 211 263 323 387
#     4  11  23  42  66  95 131 169 213 268 326 389
#     4  11  24  43  69  99 133 172 216 270 328 393
#     4  12  24  39  63  93 126 168 215 266 322 386
#
# _framework density 20.251114000000001
#
# number of rings (size 3 to 8) (size 9 to 14) (size 15 to 20)
#    0.000    1.000    1.667    5.000    2.333    5.333 
#    0.000    0.000    0.000    0.000    0.000    0.000 
#    0.000    0.000    0.000    0.000    0.000    0.000 
#
# Total GULP energy -297660.382470 kJ/mol
# GULP energy per Si atom -12402.515936 kJ/mol
# Density = 2.020502 g / cm^3
# Si number density = 20.251114 Si / 1000 Ang^3
#
#
#
# Elastic Constant Matrix: (Units=GPa)
#
#
# Indices 1 2 3 4 5 6 
#
# 1 181.4840 47.6214 89.4569 0.0000 1.0324 0.0000
# 2 47.6214 101.7766 50.6349 0.0000 4.6731 0.0000
# 3 89.4569 50.6349 181.9525 0.0000 6.9374 0.0000
# 4 0.0000 0.0000 0.0000 -6.8457 0.0000 71.4809
# 5 1.0324 4.6731 6.9374 0.0000 46.1181 0.0000
# 6 0.0000 0.0000 0.0000 71.4809 0.0000 -69.8203
#
#
#
# Elastic Compliance Matrix: (Units=1/GPa)
#
#
# Indices 1 2 3 4 5 6 
#
# 1 0.007610 -0.001988 -0.003208 0.000000 0.000514 0.000000
# 2 -0.001988 0.011945 -0.002315 0.000000 -0.000818 0.000000
# 3 -0.003208 -0.002315 0.007750 0.000000 -0.000859 0.000000
# 4 0.000000 0.000000 0.000000 0.015075 0.000000 0.015433
# 5 0.000514 -0.000818 -0.000859 0.000000 0.021884 0.000000
# 6 0.000000 0.000000 0.000000 0.015433 0.000000 0.001478
#
#
# Mechanical properties :
#
#
# Convention : Reuss Voigt Hill
#
# Bulk Modulus (GPa) = 81.41774 93.40438 87.41106
# Shear Modulus (GPa) = 58.92053 12.39042 35.65547
#
# Velocity S-wave (km/s) = 5.39983 2.47622 4.20058
# Velocity P-wave (km/s) = 8.89769 7.37555 8.17214
#
# Compressibility (1/GPa) = 0.01228234
#
# Stress axis : x y z
#
# Youngs Moduli (GPa) = 131.40371 83.71459 129.02999
#
# Poissons Ratio (x) = 0.16647 0.41389
# Poissons Ratio (y) = 0.26130 0.29876
# Poissons Ratio (z) = 0.42151 0.19383
#
# Static dielectric constant tensor:
#      x y z
#    x 3.047800 0.000000 0.140790 
#    y 0.000000 3.479860 0.000000 
#    z 0.140790 0.000000 3.908300 
# 
# 
# High freq. dielectric constant tensor:
#      x y z
#    x 1.809450 0.000000 -0.000100 
#    y 0.000000 1.795090 0.000000 
#    z -0.000100 0.000000 1.805590 
# 
# From -- ./inp_files/51501.got.cif
#   From: 2010.06.25/outbox.cif.g09.slc.cpg/sg11_26_cif.got.tgz:51501.got - 2010.06.27 23:14:04.
