data_PCOD8077338
_publ_section_title
;
Structure prediction by ZEFSAII (Michael W. Deem and Ramdas Pophale) SiO2 
 PCOD8077338
Probable space group: P 21/M
;
_chemical_formula_sum "Si O2"
_cell_formula_units_Z 28
_cell_length_a 14.417994
_cell_length_b 21.723152
_cell_length_c 9.797196
_cell_angle_alpha 90.000000
_cell_angle_beta 27.515594
_cell_angle_gamma 90.000000
_cell_volume 1417.627285
_symmetry_space_group_name_H-M "P 21/M"
_symmetry_group_IT_number 11
_symmetry_cell_setting 'monoclinic'
loop_
_space_group_symop_operation_xyz
x,y,z
-x,1/2+y,-z
-x,-y,-z
x,1/2-y,z
loop_
_atom_site_type_symbol
_atom_site_label
_atom_site_fract_x
_atom_site_fract_y
_atom_site_fract_z
Si Si1 0.029402 0.879412 0.747320
Si Si2 0.625360 0.862046 0.597510
Si Si3 0.310632 0.604398 0.632374
Si Si4 0.971396 0.180226 0.803560
Si Si5 0.215054 0.822629 0.242538
Si Si6 0.202300 0.473570 0.797669
Si Si7 0.353632 0.184134 0.713666
O O1 0.215489 0.887276 0.607289
O O2 0.110294 0.865513 0.492434
O O3 0.873354 0.937628 0.966773
O O4 0.887719 0.822081 0.971649
O O5 0.800426 0.838939 0.467768
O O6 0.682622 0.928576 0.458418
O O7 0.579528 0.816575 0.531461
O O8 0.423522 0.859042 0.949188
O O9 0.341745 0.533374 0.639855
O O10 0.532522 0.633254 0.343735
O O11 0.174800 0.637026 0.921425
O O12 0.934165 0.250000 0.899976
O O13 0.929848 0.172735 0.697915
O O14 0.245755 0.750000 0.243886
O O15 0.000000 0.500000 0.000000
O O16 0.412128 0.250000 0.699726
#
# Coordination Sequence:
#
# PCOD8077338 Si02
#       7
#     4   4   4   4   4   4   4
#     4  10  23  40  61  88 125 160 195 255 307 346
#     4  11  21  37  64  88 119 162 203 246 306 360
#     4  11  21  39  66  89 120 159 205 252 300 354
#     4  11  21  36  61  89 120 158 202 251 301 362
#     4  11  24  40  57  91 130 158 198 250 310 368
#     4   9  19  41  65  88 121 157 210 252 295 359
#     4  11  21  35  61  94 115 152 210 249 297 366
#
# _framework density 19.751313
#
# number of rings (size 3 to 8) (size 9 to 14) (size 15 to 20)
#    0.000    1.429    5.714    2.143    0.000    5.143 
#    0.000    3.571    0.000    0.000    0.000    0.000 
#    0.000    0.000    0.000    0.000    0.000    0.000 
#
# Total GULP energy -346925.860111 kJ/mol
# GULP energy per Si atom -12390.209290 kJ/mol
# Density = 1.970636 g / cm^3
# Si number density = 19.751313 Si / 1000 Ang^3
#
#
#
# Elastic Constant Matrix: (Units=GPa)
#
#
# Indices 1 2 3 4 5 6 
#
# 1 88.6491 42.9884 18.4374 0.0000 -4.6493 0.0000
# 2 42.9884 164.1598 47.6522 0.0000 1.4627 0.0000
# 3 18.4374 47.6522 57.5686 0.0000 7.4427 0.0000
# 4 0.0000 0.0000 0.0000 14.6421 0.0000 -3.4914
# 5 -4.6493 1.4627 7.4427 0.0000 33.3451 0.0000
# 6 0.0000 0.0000 0.0000 -3.4914 0.0000 30.9848
#
#
#
# Elastic Compliance Matrix: (Units=1/GPa)
#
#
# Indices 1 2 3 4 5 6 
#
# 1 0.013251 -0.002853 -0.002201 0.000000 0.002464 0.000000
# 2 -0.002853 0.008677 -0.006351 0.000000 0.000639 0.000000
# 3 -0.002201 -0.006351 0.024029 0.000000 -0.005392 0.000000
# 4 0.000000 0.000000 0.000000 0.070182 0.000000 0.007908
# 5 0.002464 0.000639 -0.005392 0.000000 0.031508 0.000000
# 6 0.000000 0.000000 0.000000 0.007908 0.000000 0.033165
#
#
# Mechanical properties :
#
#
# Convention : Reuss Voigt Hill
#
# Bulk Modulus (GPa) = 43.20138 58.72595 50.96367
# Shear Modulus (GPa) = 23.65883 29.21437 26.43660
#
# Velocity S-wave (km/s) = 3.46473 3.85009 3.66248
# Velocity P-wave (km/s) = 6.15841 7.03999 6.61390
#
# Compressibility (1/GPa) = 0.02314741
#
# Stress axis : x y z
#
# Youngs Moduli (GPa) = 75.46644 115.25245 41.61572
#
# Poissons Ratio (x) = 0.32883 0.09159
# Poissons Ratio (y) = 0.21532 0.26430
# Poissons Ratio (z) = 0.16608 0.73195
#
# Static dielectric constant tensor:
#      x y z
#    x 3.845890 0.000000 -0.402140 
#    y 0.000000 4.340910 0.000000 
#    z -0.402140 0.000000 3.611370 
# 
# 
# High freq. dielectric constant tensor:
#      x y z
#    x 1.767360 0.000000 -0.025660 
#    y 0.000000 1.778820 0.000000 
#    z -0.025660 0.000000 1.756490 
# 
# From -- ./inp_files/23171.got.cif
#   From: 2010.06.25/outbox.cif.g09.slc.cpg/sg11_12_cif.got.tgz:23171.got - 2010.06.27 23:14:04.
