data_PCOD8077506
_publ_section_title
;
Structure prediction by ZEFSAII (Michael W. Deem and Ramdas Pophale) SiO2 
 PCOD8077506
Probable space group: P 21/M
;
_chemical_formula_sum "Si O2"
_cell_formula_units_Z 24
_cell_length_a 9.605276
_cell_length_b 19.314564
_cell_length_c 8.756321
_cell_angle_alpha 90.000000
_cell_angle_beta 60.580813
_cell_angle_gamma 90.000000
_cell_volume 1415.009002
_symmetry_space_group_name_H-M "P 21/M"
_symmetry_group_IT_number 11
_symmetry_cell_setting 'monoclinic'
loop_
_space_group_symop_operation_xyz
x,y,z
-x,1/2+y,-z
-x,-y,-z
x,1/2-y,z
loop_
_atom_site_type_symbol
_atom_site_label
_atom_site_fract_x
_atom_site_fract_y
_atom_site_fract_z
Si Si1 0.800145 0.574388 0.105783
Si Si2 0.426513 0.830473 0.819036
Si Si3 0.152395 0.917711 0.822315
Si Si4 0.502008 0.076770 0.933938
Si Si5 0.672536 0.050886 0.551378
Si Si6 0.371418 0.405538 0.516188
O O1 0.797305 0.491857 0.135555
O O2 0.667729 0.593356 0.052161
O O3 0.764712 0.614233 0.285825
O O4 0.969448 0.600741 0.953387
O O5 0.405572 0.750000 0.860246
O O6 0.261254 0.859794 0.842021
O O7 0.572996 0.842326 0.620879
O O8 0.466731 0.866227 0.956527
O O9 0.176560 0.918076 0.624229
O O10 0.647903 0.083263 0.732415
O O11 0.500000 0.000000 0.000000
O O12 0.519050 0.066422 0.532760
O O13 0.690601 0.967725 0.559370
#
# Coordination Sequence:
#
# PCOD8077506 Si02
#       6
#     4   4   4   4   4   4
#     4   9  17  31  57  79 100 125 173 218 249 292
#     4  11  21  33  50  74 104 136 169 210 264 312
#     4   9  17  33  52  80 101 128 169 215 255 301
#     4  11  17  31  51  76 104 135 169 214 252 298
#     4   8  14  27  51  72  98 127 169 209 245 289
#     4   8  14  29  49  73  93 128 171 207 240 297
#
# _framework density 16.961022
#
# number of rings (size 3 to 8) (size 9 to 14) (size 15 to 20)
#    0.000    2.667    3.333    2.000    0.000    0.000 
#    0.000   11.667    0.000    0.000    0.000    0.000 
#    0.000    0.000    0.000    0.000    0.000    0.000 
#
# Total GULP energy -297407.708127 kJ/mol
# GULP energy per Si atom -12391.987839 kJ/mol
# Density = 1.692242 g / cm^3
# Si number density = 16.961022 Si / 1000 Ang^3
#
#
#
# Elastic Constant Matrix: (Units=GPa)
#
#
# Indices 1 2 3 4 5 6 
#
# 1 61.4127 36.0030 61.4538 0.0000 -4.9232 0.0000
# 2 36.0030 92.7194 53.0612 0.0000 5.8741 0.0000
# 3 61.4538 53.0612 171.4721 0.0000 -13.4461 0.0000
# 4 0.0000 0.0000 0.0000 17.3504 0.0000 2.9176
# 5 -4.9232 5.8741 -13.4461 0.0000 30.2720 0.0000
# 6 0.0000 0.0000 0.0000 2.9176 0.0000 16.2379
#
#
#
# Elastic Compliance Matrix: (Units=1/GPa)
#
#
# Indices 1 2 3 4 5 6 
#
# 1 0.028240 -0.006598 -0.007894 0.000000 0.002367 0.000000
# 2 -0.006598 0.015268 -0.002773 0.000000 -0.005267 0.000000
# 3 -0.007894 -0.002773 0.009802 0.000000 0.003608 0.000000
# 4 0.000000 0.000000 0.000000 0.059431 0.000000 -0.010679
# 5 0.002367 -0.005267 0.003608 0.000000 0.036043 0.000000
# 6 0.000000 0.000000 0.000000 -0.010679 0.000000 0.063503
#
#
# Mechanical properties :
#
#
# Convention : Reuss Voigt Hill
#
# Bulk Modulus (GPa) = 53.24705 69.62667 61.43686
# Shear Modulus (GPa) = 19.75681 24.44447 22.10064
#
# Velocity S-wave (km/s) = 3.41667 3.80045 3.61366
# Velocity P-wave (km/s) = 6.85761 7.77162 7.32887
#
# Compressibility (1/GPa) = 0.01878038
#
# Stress axis : x y z
#
# Youngs Moduli (GPa) = 35.41066 65.49682 102.02242
#
# Poissons Ratio (x) = 0.43217 0.80532
# Poissons Ratio (y) = 0.23365 0.28289
# Poissons Ratio (z) = 0.27951 0.18161
#
# Static dielectric constant tensor:
#      x y z
#    x 2.922470 0.000000 -0.125520 
#    y 0.000000 2.817790 0.000000 
#    z -0.125520 0.000000 3.947070 
# 
# 
# High freq. dielectric constant tensor:
#      x y z
#    x 1.621490 0.000000 -0.000550 
#    y 0.000000 1.609250 0.000000 
#    z -0.000550 0.000000 1.680510 
# 
# From -- ./inp_files/13781.got.cif
#   From: 2010.06.25/outbox.cif.g09.slc.cpg/sg11_7_cif.got.tgz:13781.got - 2010.06.27 23:14:04.
