data_PCOD8077536
_publ_section_title
;
Structure prediction by ZEFSAII (Michael W. Deem and Ramdas Pophale) SiO2 
 PCOD8077536
Probable space group: P 21/M
;
_chemical_formula_sum "Si O2"
_cell_formula_units_Z 24
_cell_length_a 20.603900
_cell_length_b 8.893819
_cell_length_c 11.863291
_cell_angle_alpha 90.000000
_cell_angle_beta 39.146770
_cell_angle_gamma 90.000000
_cell_volume 1372.413360
_symmetry_space_group_name_H-M "P 21/M"
_symmetry_group_IT_number 11
_symmetry_cell_setting 'monoclinic'
loop_
_space_group_symop_operation_xyz
x,y,z
-x,1/2+y,-z
-x,-y,-z
x,1/2-y,z
loop_
_atom_site_type_symbol
_atom_site_label
_atom_site_fract_x
_atom_site_fract_y
_atom_site_fract_z
Si Si1 0.610323 0.427788 0.859545
Si Si2 0.777693 0.418028 0.456790
Si Si3 0.058495 0.919587 0.571133
Si Si4 0.891623 0.573554 0.113789
Si Si5 0.769059 0.426254 0.822308
Si Si6 0.135808 0.924418 0.082382
O O1 0.597718 0.250000 0.879959
O O2 0.678272 0.476268 0.659744
O O3 0.666384 0.488209 0.898869
O O4 0.500000 0.500000 0.000000
O O5 0.757199 0.250000 0.437578
O O6 0.876739 0.415450 0.401923
O O7 0.800937 0.528109 0.321464
O O8 0.017737 0.750000 0.601043
O O9 0.127763 0.988961 0.377015
O O10 0.967234 0.036742 0.711351
O O11 0.908442 0.750000 0.093286
O O12 0.852139 0.525511 0.043849
O O13 0.000000 0.500000 0.000000
O O14 0.772941 0.250000 0.790879
O O15 0.771078 0.459246 0.953977
O O16 0.134472 0.750000 0.049140
#
# Coordination Sequence:
#
# PCOD8077536 Si02
#       6
#     4   4   4   4   4   4
#     4   9  18  35  58  81 104 130 163 210 263 309
#     4   9  18  33  52  74 103 136 170 209 255 299
#     4   9  16  29  48  69  99 135 169 206 247 294
#     4  12  23  34  49  71 103 140 178 213 247 295
#     4   8  17  32  49  72 102 135 167 205 257 307
#     4  11  20  30  47  71 102 139 174 205 246 300
#
# _framework density 17.487442999999999
#
# number of rings (size 3 to 8) (size 9 to 14) (size 15 to 20)
#    0.000    2.333    1.667    4.500    0.000    0.667 
#    0.000    5.000    0.000    1.000    0.000    0.000 
#    0.000    0.000    0.000    0.000    0.000    0.000 
#
# Total GULP energy -297465.902250 kJ/mol
# GULP energy per Si atom -12394.412594 kJ/mol
# Density = 1.744764 g / cm^3
# Si number density = 17.487443 Si / 1000 Ang^3
#
#
#
# Elastic Constant Matrix: (Units=GPa)
#
#
# Indices 1 2 3 4 5 6 
#
# 1 105.1959 43.0868 69.9168 0.0000 13.1104 0.0000
# 2 43.0868 78.2333 42.2911 0.0000 7.0517 0.0000
# 3 69.9168 42.2911 88.2445 0.0000 0.5947 0.0000
# 4 0.0000 0.0000 0.0000 29.1762 0.0000 0.9304
# 5 13.1104 7.0517 0.5947 0.0000 27.3959 0.0000
# 6 0.0000 0.0000 0.0000 0.9304 0.0000 21.4274
#
#
#
# Elastic Compliance Matrix: (Units=1/GPa)
#
#
# Indices 1 2 3 4 5 6 
#
# 1 0.023133 -0.002653 -0.016990 0.000000 -0.010019 0.000000
# 2 -0.002653 0.018068 -0.006535 0.000000 -0.003239 0.000000
# 3 -0.016990 -0.006535 0.027863 0.000000 0.009208 0.000000
# 4 0.000000 0.000000 0.000000 0.034322 0.000000 -0.001490
# 5 -0.010019 -0.003239 0.009208 0.000000 0.041930 0.000000
# 6 0.000000 0.000000 0.000000 -0.001490 0.000000 0.046734
#
#
# Mechanical properties :
#
#
# Convention : Reuss Voigt Hill
#
# Bulk Modulus (GPa) = 59.84960 64.69588 62.27274
# Shear Modulus (GPa) = 20.00188 23.35849 21.68019
#
# Velocity S-wave (km/s) = 3.38566 3.65873 3.52484
# Velocity P-wave (km/s) = 7.04146 7.41109 7.22864
#
# Compressibility (1/GPa) = 0.01670855
#
# Stress axis : x y z
#
# Youngs Moduli (GPa) = 43.22767 55.34550 35.88993
#
# Poissons Ratio (x) = 0.14686 0.60975
# Poissons Ratio (y) = 0.11470 0.23454
# Poissons Ratio (z) = 0.73442 0.36169
#
# Static dielectric constant tensor:
#      x y z
#    x 3.391040 0.000000 0.150410 
#    y 0.000000 3.429090 0.000000 
#    z 0.150410 0.000000 3.193830 
# 
# 
# High freq. dielectric constant tensor:
#      x y z
#    x 1.670140 0.000000 0.020910 
#    y 0.000000 1.662730 0.000000 
#    z 0.020910 0.000000 1.653220 
# 
# From -- ./inp_files/36996.got.cif
#   From: 2010.06.25/outbox.cif.g09.slc.cpg/sg11_19_cif.got.tgz:36996.got - 2010.06.27 23:14:04.
