data_PCOD8077610
_publ_section_title
;
Structure prediction by ZEFSAII (Michael W. Deem and Ramdas Pophale) SiO2 
 PCOD8077610
Probable space group: P 21/M
;
_chemical_formula_sum "Si O2"
_cell_formula_units_Z 28
_cell_length_a 26.329879
_cell_length_b 8.763565
_cell_length_c 9.561822
_cell_angle_alpha 90.000000
_cell_angle_beta 140.575556
_cell_angle_gamma 90.000000
_cell_volume 1401.151755
_symmetry_space_group_name_H-M "P 21/M"
_symmetry_group_IT_number 11
_symmetry_cell_setting 'monoclinic'
loop_
_space_group_symop_operation_xyz
x,y,z
-x,1/2+y,-z
-x,-y,-z
x,1/2-y,z
loop_
_atom_site_type_symbol
_atom_site_label
_atom_site_fract_x
_atom_site_fract_y
_atom_site_fract_z
Si Si1 0.501673 0.573512 0.153721
Si Si2 0.186150 0.930447 0.686784
Si Si3 0.428279 0.569725 0.437423
Si Si4 0.678237 0.075297 0.219416
Si Si5 0.230590 0.929386 0.327276
Si Si6 0.259997 0.070812 0.092761
Si Si7 0.916034 0.427897 0.787389
O O1 0.528245 0.750000 0.203923
O O2 0.560610 0.478367 0.377220
O O3 0.500000 0.500000 0.000000
O O4 0.412198 0.556494 0.023840
O O5 0.188483 0.750000 0.720698
O O6 0.264880 0.997780 0.775770
O O7 0.111567 0.975816 0.428588
O O8 0.186520 0.017748 0.836209
O O9 0.500000 0.500000 0.500000
O O10 0.430549 0.750000 0.424285
O O11 0.341135 0.509610 0.209000
O O12 0.706248 0.250000 0.287176
O O13 0.696021 0.015363 0.415146
O O14 0.235162 0.750000 0.299916
O O15 0.148979 0.974262 0.234012
O O16 0.236707 0.024529 0.199358
O O17 0.272597 0.250000 0.112371
O O18 0.928013 0.250000 0.816780
O O19 0.000000 0.500000 0.000000
#
# Coordination Sequence:
#
# PCOD8077610 Si02
#       7
#     4   4   4   4   4   4   4
#     4  11  21  34  53  80 110 144 187 238 291 342
#     4   9  18  36  59  81 106 144 185 225 275 334
#     4  12  25  41  58  79 111 153 197 245 295 346
#     4   8  16  32  55  76  98 134 184 230 273 327
#     4   9  18  36  59  83 111 149 188 227 279 338
#     4  12  24  37  55  84 115 147 189 236 285 342
#     4   9  19  36  62  91 118 147 184 225 275 335
#
# _framework density 19.983560000000001
#
# number of rings (size 3 to 8) (size 9 to 14) (size 15 to 20)
#    0.000    2.000    0.000    6.429    0.000    3.429 
#    0.000    4.286    0.000    0.000    0.000    0.000 
#    0.000    0.000    0.000    0.000    0.000    0.000 
#
# Total GULP energy -347090.976478 kJ/mol
# GULP energy per Si atom -12396.106303 kJ/mol
# Density = 1.993808 g / cm^3
# Si number density = 19.983560 Si / 1000 Ang^3
#
#
#
# Elastic Constant Matrix: (Units=GPa)
#
#
# Indices 1 2 3 4 5 6 
#
# 1 47.0579 29.0164 31.1306 0.0000 -8.8306 0.0000
# 2 29.0164 106.3569 47.8402 0.0000 -1.6965 0.0000
# 3 31.1306 47.8402 124.8960 0.0000 -11.2935 0.0000
# 4 0.0000 0.0000 0.0000 32.6869 0.0000 -0.7391
# 5 -8.8306 -1.6965 -11.2935 0.0000 34.8205 0.0000
# 6 0.0000 0.0000 0.0000 -0.7391 0.0000 29.6564
#
#
#
# Elastic Compliance Matrix: (Units=1/GPa)
#
#
# Indices 1 2 3 4 5 6 
#
# 1 0.028804 -0.005759 -0.004470 0.000000 0.005575 0.000000
# 2 -0.005759 0.012537 -0.003548 0.000000 -0.002000 0.000000
# 3 -0.004470 -0.003548 0.010675 0.000000 0.002156 0.000000
# 4 0.000000 0.000000 0.000000 0.030611 0.000000 0.000763
# 5 0.005575 -0.002000 0.002156 0.000000 0.030734 0.000000
# 6 0.000000 0.000000 0.000000 0.000763 0.000000 0.033739
#
#
# Mechanical properties :
#
#
# Convention : Reuss Voigt Hill
#
# Bulk Modulus (GPa) = 40.87697 54.92059 47.89878
# Shear Modulus (GPa) = 27.35124 30.78766 29.06945
#
# Velocity S-wave (km/s) = 3.70359 3.92937 3.81815
# Velocity P-wave (km/s) = 6.22804 6.93752 6.59233
#
# Compressibility (1/GPa) = 0.02446365
#
# Stress axis : x y z
#
# Youngs Moduli (GPa) = 34.71688 79.76136 93.68068
#
# Poissons Ratio (x) = 0.45935 0.41871
# Poissons Ratio (y) = 0.19994 0.33235
# Poissons Ratio (z) = 0.15517 0.28297
#
# Static dielectric constant tensor:
#      x y z
#    x 3.503850 0.000000 -0.146040 
#    y 0.000000 3.615360 0.000000 
#    z -0.146040 0.000000 3.734470 
# 
# 
# High freq. dielectric constant tensor:
#      x y z
#    x 1.767860 0.000000 -0.016460 
#    y 0.000000 1.761430 0.000000 
#    z -0.016460 0.000000 1.792370 
# 
# From -- ./inp_files/28571.got.cif
#   From: 2010.06.25/outbox.cif.g09.slc.cpg/sg11_15_cif.got.tgz:28571.got - 2010.06.27 23:14:04.
