data_PCOD8077189
_publ_section_title
;
Structure prediction by ZEFSAII (Michael W. Deem and Ramdas Pophale) SiO2 
 PCOD8077189
Probable space group: P 21/M
;
_chemical_formula_sum "Si O2"
_cell_formula_units_Z 24
_cell_length_a 12.204407
_cell_length_b 8.766353
_cell_length_c 24.980663
_cell_angle_alpha 90.000000
_cell_angle_beta 25.662157
_cell_angle_gamma 90.000000
_cell_volume 1157.421438
_symmetry_space_group_name_H-M "P 21/M"
_symmetry_group_IT_number 11
_symmetry_cell_setting 'monoclinic'
loop_
_space_group_symop_operation_xyz
x,y,z
-x,1/2+y,-z
-x,-y,-z
x,1/2-y,z
loop_
_atom_site_type_symbol
_atom_site_label
_atom_site_fract_x
_atom_site_fract_y
_atom_site_fract_z
Si Si1 0.537883 0.579716 0.539959
Si Si2 0.250525 0.930429 0.131955
Si Si3 0.233361 0.071358 0.363941
Si Si4 0.812122 0.069359 0.126856
Si Si5 0.879104 0.420181 0.695204
Si Si6 0.848947 0.570785 0.221557
O O1 0.500000 0.500000 0.500000
O O2 0.418652 0.750000 0.589978
O O3 0.426597 0.479326 0.637273
O O4 0.824571 0.593888 0.429909
O O5 0.259652 0.750000 0.128895
O O6 0.220181 0.991883 0.205541
O O7 0.027221 0.984648 0.191457
O O8 0.500000 0.000000 0.000000
O O9 0.217209 0.250000 0.381336
O O10 0.517686 0.012318 0.253574
O O11 0.200667 0.034695 0.316050
O O12 0.000000 0.000000 0.500000
O O13 0.823166 0.250000 0.116190
O O14 0.924108 0.016630 0.134433
O O15 0.000000 0.000000 0.000000
O O16 0.767890 0.250000 0.733035
O O17 0.862286 0.750000 0.204631
#
# Coordination Sequence:
#
# PCOD8077189 Si02
#       6
#     4   4   4   4   4   4
#     4  11  21  37  61  92 127 163 204 252 308 373
#     4  10  23  41  60  89 126 164 205 254 310 369
#     4  11  25  44  67  96 129 168 216 267 319 380
#     4  11  26  46  67  96 129 169 218 269 322 381
#     4  10  22  41  63  91 128 164 203 256 311 370
#     4  11  23  42  65  93 128 163 205 259 314 376
#
# _framework density 20.735748000000001
#
# number of rings (size 3 to 8) (size 9 to 14) (size 15 to 20)
#    0.000    1.333    1.667    3.000    2.333   10.000 
#    0.000    0.000    0.000    0.000    0.000    0.000 
#    0.000    0.000    0.000    0.000    0.000    0.000 
#
# Total GULP energy -297559.756624 kJ/mol
# GULP energy per Si atom -12398.323193 kJ/mol
# Density = 2.068855 g / cm^3
# Si number density = 20.735748 Si / 1000 Ang^3
#
#
#
# Elastic Constant Matrix: (Units=GPa)
#
#
# Indices 1 2 3 4 5 6 
#
# 1 113.3280 37.4543 50.5267 0.0000 26.8122 0.0000
# 2 37.4543 58.9613 37.6162 0.0000 0.0480 0.0000
# 3 50.5267 37.6162 152.7705 0.0000 21.7815 0.0000
# 4 0.0000 0.0000 0.0000 38.7245 0.0000 3.8380
# 5 26.8122 0.0480 21.7815 0.0000 39.0798 0.0000
# 6 0.0000 0.0000 0.0000 3.8380 0.0000 36.9383
#
#
#
# Elastic Compliance Matrix: (Units=1/GPa)
#
#
# Indices 1 2 3 4 5 6 
#
# 1 0.014285 -0.008151 -0.001436 0.000000 -0.008991 0.000000
# 2 -0.008151 0.025095 -0.004645 0.000000 0.008151 0.000000
# 3 -0.001436 -0.004645 0.008716 0.000000 -0.003867 0.000000
# 4 0.000000 0.000000 0.000000 0.026092 0.000000 -0.002711
# 5 -0.008991 0.008151 -0.003867 0.000000 0.033902 0.000000
# 6 0.000000 0.000000 0.000000 -0.002711 0.000000 0.027354
#
#
# Mechanical properties :
#
#
# Convention : Reuss Voigt Hill
#
# Bulk Modulus (GPa) = 50.93807 64.02824 57.48316
# Shear Modulus (GPa) = 29.33374 36.24602 32.78988
#
# Velocity S-wave (km/s) = 3.76526 4.18544 3.98090
# Velocity P-wave (km/s) = 6.59709 7.36902 6.99371
#
# Compressibility (1/GPa) = 0.01963168
#
# Stress axis : x y z
#
# Youngs Moduli (GPa) = 70.00351 39.84846 114.73457
#
# Poissons Ratio (x) = 0.32481 0.16473
# Poissons Ratio (y) = 0.57060 0.53298
# Poissons Ratio (z) = 0.10051 0.18511
#
# Static dielectric constant tensor:
#      x y z
#    x 4.227780 0.000000 -0.150150 
#    y 0.000000 3.843810 0.000000 
#    z -0.150150 0.000000 4.161730 
# 
# 
# High freq. dielectric constant tensor:
#      x y z
#    x 1.821500 0.000000 0.009000 
#    y 0.000000 1.811130 0.000000 
#    z 0.009000 0.000000 1.822670 
# 
# From -- ./inp_files/68364.got.cif
#   From: 2010.06.25/outbox.cif.g09.slc.cpg/sg11_35_cif.got.tgz:68364.got - 2010.06.27 23:14:04.
