data_PCOD8077538
_publ_section_title
;
Structure prediction by ZEFSAII (Michael W. Deem and Ramdas Pophale) SiO2 
 PCOD8077538
Probable space group: P 21/M
;
_chemical_formula_sum "Si O2"
_cell_formula_units_Z 32
_cell_length_a 22.297338
_cell_length_b 14.751982
_cell_length_c 18.575120
_cell_angle_alpha 90.000000
_cell_angle_beta 162.841483
_cell_angle_gamma 90.000000
_cell_volume 1802.524122
_symmetry_space_group_name_H-M "P 21/M"
_symmetry_group_IT_number 11
_symmetry_cell_setting 'monoclinic'
loop_
_space_group_symop_operation_xyz
x,y,z
-x,1/2+y,-z
-x,-y,-z
x,1/2-y,z
loop_
_atom_site_type_symbol
_atom_site_label
_atom_site_fract_x
_atom_site_fract_y
_atom_site_fract_z
Si Si1 0.334515 0.904330 0.375155
Si Si2 0.153258 0.645767 0.589846
Si Si3 0.746737 0.595658 0.787374
Si Si4 0.427967 0.147437 0.855847
Si Si5 0.156995 0.965092 0.314042
Si Si6 0.659963 0.033804 0.319899
Si Si7 0.280216 0.354232 0.843670
Si Si8 0.076076 0.154257 0.152191
O O1 0.557822 0.862588 0.615657
O O2 0.305999 0.916085 0.428162
O O3 0.313689 0.999980 0.313662
O O4 0.161102 0.842911 0.141299
O O5 0.150638 0.750000 0.560367
O O6 0.186684 0.581269 0.559924
O O7 0.944718 0.618143 0.389494
O O8 0.334777 0.631403 0.854828
O O9 0.799228 0.657058 0.779392
O O10 0.938291 0.583957 0.060447
O O11 0.393176 0.250000 0.786287
O O12 0.294969 0.131419 0.774978
O O13 0.359335 0.073521 0.718660
O O14 0.248360 0.953195 0.496814
O O15 0.135998 0.071675 0.272083
O O16 0.440275 0.081278 0.067093
O O17 0.331245 0.250000 0.921568
O O18 0.122843 0.250000 0.245724
#
# Coordination Sequence:
#
# PCOD8077538 Si02
#       8
#     4   4   4   4   4   4   4   4
#     4   8  15  31  51  65  83 117 157 191 222 262
#     4   9  18  34  54  72  92 123 166 213 251 283
#     4   8  15  31  51  65  83 117 157 191 222 262
#     4   9  19  33  49  73 100 127 165 206 238 279
#     4   9  19  31  45  70 100 127 152 186 235 290
#     4  11  20  30  49  75 103 133 161 191 240 304
#     4   9  18  34  54  72  92 123 166 213 251 283
#     4   9  17  30  49  72  94 119 157 197 232 277
#
# _framework density 17.752883000000001
#
# number of rings (size 3 to 8) (size 9 to 14) (size 15 to 20)
#    0.000    3.000    0.000    4.125    0.000    4.000 
#    0.000    5.000    0.000    0.000    0.000    7.000 
#    0.000    0.000    0.000    0.000    0.000    0.000 
#
# Total GULP energy -396594.881931 kJ/mol
# GULP energy per Si atom -12393.590060 kJ/mol
# Density = 1.771248 g / cm^3
# Si number density = 17.752883 Si / 1000 Ang^3
#
#
#
# Elastic Constant Matrix: (Units=GPa)
#
#
# Indices 1 2 3 4 5 6 
#
# 1 63.2104 6.4019 51.4469 0.0000 13.3545 0.0000
# 2 6.4019 57.0157 8.8259 0.0000 5.4212 0.0000
# 3 51.4469 8.8259 81.7885 0.0000 27.8748 0.0000
# 4 0.0000 0.0000 0.0000 14.7647 0.0000 1.5249
# 5 13.3545 5.4212 27.8748 0.0000 41.3346 0.0000
# 6 0.0000 0.0000 0.0000 1.5249 0.0000 14.0746
#
#
#
# Elastic Compliance Matrix: (Units=1/GPa)
#
#
# Indices 1 2 3 4 5 6 
#
# 1 0.033029 -0.000690 -0.022198 0.000000 0.004389 0.000000
# 2 -0.000690 0.017910 -0.001005 0.000000 -0.001448 0.000000
# 3 -0.022198 -0.001005 0.030914 0.000000 -0.013544 0.000000
# 4 0.000000 0.000000 0.000000 0.068495 0.000000 -0.007421
# 5 0.004389 -0.001448 -0.013544 0.000000 0.032098 0.000000
# 6 0.000000 0.000000 0.000000 -0.007421 0.000000 0.071854
#
#
# Mechanical properties :
#
#
# Convention : Reuss Voigt Hill
#
# Bulk Modulus (GPa) = 29.35305 37.26266 33.30785
# Shear Modulus (GPa) = 15.95190 23.05746 19.50468
#
# Velocity S-wave (km/s) = 3.00084 3.60780 3.31823
# Velocity P-wave (km/s) = 5.34573 6.19598 5.78649
#
# Compressibility (1/GPa) = 0.03406802
#
# Stress axis : x y z
#
# Youngs Moduli (GPa) = 30.27601 55.83544 32.34788
#
# Poissons Ratio (x) = 0.03851 0.71804
# Poissons Ratio (y) = 0.02088 0.03252
# Poissons Ratio (z) = 0.67205 0.05613
#
# Static dielectric constant tensor:
#      x y z
#    x 3.391920 0.000000 0.674900 
#    y 0.000000 3.310260 0.000000 
#    z 0.674900 0.000000 3.694840 
# 
# 
# High freq. dielectric constant tensor:
#      x y z
#    x 1.665530 0.000000 0.024610 
#    y 0.000000 1.691230 0.000000 
#    z 0.024610 0.000000 1.676580 
# 
# From -- ./inp_files/61626.got.cif
#   From: 2010.06.25/outbox.cif.g09.slc.cpg/sg11_31_cif.got.tgz:61626.got - 2010.06.27 23:14:04.
