data_PCOD8077680
_publ_section_title
;
Structure prediction by ZEFSAII (Michael W. Deem and Ramdas Pophale) SiO2 
 PCOD8077680
Probable space group: P 21/M
;
_chemical_formula_sum "Si O2"
_cell_formula_units_Z 32
_cell_length_a 21.720163
_cell_length_b 9.213688
_cell_length_c 16.215793
_cell_angle_alpha 90.000000
_cell_angle_beta 141.262480
_cell_angle_gamma 90.000000
_cell_volume 2030.664237
_symmetry_space_group_name_H-M "P 21/M"
_symmetry_group_IT_number 11
_symmetry_cell_setting 'monoclinic'
loop_
_space_group_symop_operation_xyz
x,y,z
-x,1/2+y,-z
-x,-y,-z
x,1/2-y,z
loop_
_atom_site_type_symbol
_atom_site_label
_atom_site_fract_x
_atom_site_fract_y
_atom_site_fract_z
Si Si1 0.917281 0.086142 0.018667
Si Si2 0.804415 0.081154 0.597011
Si Si3 0.646022 0.418652 0.297510
Si Si4 0.477151 0.916739 0.059047
Si Si5 0.267471 0.914827 0.790607
Si Si6 0.859625 0.586128 0.808498
Si Si7 0.020571 0.418153 0.764749
Si Si8 0.923809 0.579083 0.361790
O O1 0.877846 0.250000 0.985521
O O2 0.027914 0.083751 0.101720
O O3 0.912254 0.009801 0.102343
O O4 0.847922 0.999868 0.882221
O O5 0.799526 0.250000 0.614849
O O6 0.716079 0.033748 0.445259
O O7 0.905796 0.044886 0.656210
O O8 0.793681 0.990997 0.669990
O O9 0.619194 0.250000 0.273637
O O10 0.543769 0.508639 0.199637
O O11 0.700285 0.455057 0.268471
O O12 0.508766 0.750000 0.082897
O O13 0.359593 0.929284 0.950489
O O14 0.500000 0.000000 0.000000
O O15 0.226168 0.750000 0.749018
O O16 0.185865 0.027235 0.733956
O O17 0.821914 0.750000 0.781560
O O18 0.041320 0.250000 0.804436
O O19 0.050232 0.463551 0.704223
O O20 0.931644 0.750000 0.384759
O O21 0.000000 0.500000 0.500000
#
# Coordination Sequence:
#
# PCOD8077680 Si02
#       8
#     4   4   4   4   4   4   4   4
#     4   9  16  26  41  59  78 105 141 175 208 247
#     4   9  16  27  42  59  84 115 142 171 209 252
#     4   9  17  29  45  64  87 114 142 176 218 259
#     4   9  17  29  45  63  83 108 139 177 218 259
#     4   9  18  32  46  61  84 113 145 181 219 254
#     4   9  16  25  38  58  83 109 137 170 207 248
#     4   9  18  31  43  57  81 113 146 178 212 247
#     4  11  22  33  46  63  85 115 149 183 217 252
#
# _framework density 15.75839
#
# number of rings (size 3 to 8) (size 9 to 14) (size 15 to 20)
#    0.000    2.750    0.000    3.000    0.000    9.000 
#    0.000    2.500    0.000    0.000    0.000    0.000 
#    0.000    1.000    0.000    3.250    0.000    4.750 
#
# Total GULP energy -396725.306815 kJ/mol
# GULP energy per Si atom -12397.665838 kJ/mol
# Density = 1.572252 g / cm^3
# Si number density = 15.758390 Si / 1000 Ang^3
#
#
#
# Elastic Constant Matrix: (Units=GPa)
#
#
# Indices 1 2 3 4 5 6 
#
# 1 47.6520 41.5548 47.8936 0.0000 -10.8509 0.0000
# 2 41.5548 101.7976 73.3126 0.0000 -12.6792 0.0000
# 3 47.8936 73.3126 137.8402 0.0000 -16.2162 0.0000
# 4 0.0000 0.0000 0.0000 33.1565 0.0000 -2.5805
# 5 -10.8509 -12.6792 -16.2162 0.0000 23.6034 0.0000
# 6 0.0000 0.0000 0.0000 -2.5805 0.0000 21.6029
#
#
#
# Elastic Compliance Matrix: (Units=1/GPa)
#
#
# Indices 1 2 3 4 5 6 
#
# 1 0.038346 -0.009336 -0.007478 0.000000 0.007475 0.000000
# 2 -0.009336 0.018390 -0.006397 0.000000 0.001192 0.000000
# 3 -0.007478 -0.006397 0.013541 0.000000 0.002429 0.000000
# 4 0.000000 0.000000 0.000000 0.030443 0.000000 0.003636
# 5 0.007475 0.001192 0.002429 0.000000 0.048112 0.000000
# 6 0.000000 0.000000 0.000000 0.003636 0.000000 0.046725
#
#
# Mechanical properties :
#
#
# Convention : Reuss Voigt Hill
#
# Bulk Modulus (GPa) = 41.92205 68.09019 55.00612
# Shear Modulus (GPa) = 20.00556 23.97448 21.99002
#
# Velocity S-wave (km/s) = 3.56689 3.90472 3.73962
# Velocity P-wave (km/s) = 6.60488 7.97695 7.32312
#
# Compressibility (1/GPa) = 0.02385380
#
# Stress axis : x y z
#
# Youngs Moduli (GPa) = 26.07860 54.37786 73.84854
#
# Poissons Ratio (x) = 0.50768 0.55227
# Poissons Ratio (y) = 0.24347 0.47240
# Poissons Ratio (z) = 0.19503 0.34784
#
# Static dielectric constant tensor:
#      x y z
#    x 2.664500 0.000000 -0.028800 
#    y 0.000000 3.191280 0.000000 
#    z -0.028800 0.000000 3.347570 
# 
# 
# High freq. dielectric constant tensor:
#      x y z
#    x 1.551010 0.000000 -0.013920 
#    y 0.000000 1.617160 0.000000 
#    z -0.013920 0.000000 1.607020 
# 
# From -- ./inp_files/54378.got.cif
#   From: 2010.06.25/outbox.cif.g09.slc.cpg/sg11_28_cif.got.tgz:54378.got - 2010.06.27 23:14:04.
