data_PCOD8077690
_publ_section_title
;
Structure prediction by ZEFSAII (Michael W. Deem and Ramdas Pophale) SiO2 
 PCOD8077690
Probable space group: P 21/M
;
_chemical_formula_sum "Si O2"
_cell_formula_units_Z 24
_cell_length_a 19.322695
_cell_length_b 9.236992
_cell_length_c 11.373364
_cell_angle_alpha 90.000000
_cell_angle_beta 43.734045
_cell_angle_gamma 90.000000
_cell_volume 1403.334563
_symmetry_space_group_name_H-M "P 21/M"
_symmetry_group_IT_number 11
_symmetry_cell_setting 'monoclinic'
loop_
_space_group_symop_operation_xyz
x,y,z
-x,1/2+y,-z
-x,-y,-z
x,1/2-y,z
loop_
_atom_site_type_symbol
_atom_site_label
_atom_site_fract_x
_atom_site_fract_y
_atom_site_fract_z
Si Si1 0.645966 0.919555 0.775248
Si Si2 0.228797 0.085989 0.803711
Si Si3 0.829515 0.918280 0.391857
Si Si4 0.439267 0.581204 0.912524
Si Si5 0.587095 0.421129 0.323597
Si Si6 0.990589 0.916466 0.890898
O O1 0.647343 0.750000 0.797811
O O2 0.746169 0.970244 0.586399
O O3 0.552084 0.963066 0.808822
O O4 0.640043 0.998999 0.907631
O O5 0.270887 0.250000 0.762900
O O6 0.210499 0.049186 0.689683
O O7 0.306050 0.971504 0.759995
O O8 0.125610 0.071456 0.005638
O O9 0.854999 0.750000 0.375025
O O10 0.931150 0.008582 0.295062
O O11 0.420639 0.750000 0.952842
O O12 0.421196 0.532738 0.801696
O O13 0.500000 0.500000 0.500000
O O14 0.575827 0.250000 0.354065
O O15 0.021095 0.750000 0.871589
O O16 0.000000 0.000000 0.000000
#
# Coordination Sequence:
#
# PCOD8077690 Si02
#       6
#     4   4   4   4   4   4
#     4   9  17  31  51  71  93 123 156 192 235 281
#     4   9  18  32  48  69 100 130 155 192 238 280
#     4   9  17  30  49  73 100 126 155 196 241 282
#     4   9  19  34  48  67  96 125 155 193 235 276
#     4  11  22  34  50  71  97 128 159 193 233 281
#     4   9  17  29  46  69  97 127 158 196 239 280
#
# _framework density 17.102122999999999
#
# number of rings (size 3 to 8) (size 9 to 14) (size 15 to 20)
#    0.000    2.667    0.000    3.000    0.000    8.000 
#    0.000    3.333    0.000    1.000    0.000    0.000 
#    0.000    0.000    0.000    0.000    0.000    0.000 
#
# Total GULP energy -297546.899020 kJ/mol
# GULP energy per Si atom -12397.787459 kJ/mol
# Density = 1.706320 g / cm^3
# Si number density = 17.102123 Si / 1000 Ang^3
#
#
#
# Elastic Constant Matrix: (Units=GPa)
#
#
# Indices 1 2 3 4 5 6 
#
# 1 66.8723 41.8282 54.4968 0.0000 -1.4347 0.0000
# 2 41.8282 76.1680 66.2872 0.0000 -5.1172 0.0000
# 3 54.4968 66.2872 164.4661 0.0000 -8.3730 0.0000
# 4 0.0000 0.0000 0.0000 35.9244 0.0000 -3.6395
# 5 -1.4347 -5.1172 -8.3730 0.0000 24.3994 0.0000
# 6 0.0000 0.0000 0.0000 -3.6395 0.0000 27.9320
#
#
#
# Elastic Compliance Matrix: (Units=1/GPa)
#
#
# Indices 1 2 3 4 5 6 
#
# 1 0.024593 -0.009953 -0.004245 0.000000 -0.002098 0.000000
# 2 -0.009953 0.024301 -0.006379 0.000000 0.002323 0.000000
# 3 -0.004245 -0.006379 0.010154 0.000000 0.001897 0.000000
# 4 0.000000 0.000000 0.000000 0.028209 0.000000 0.003676
# 5 -0.002098 0.002323 0.001897 0.000000 0.041999 0.000000
# 6 0.000000 0.000000 0.000000 0.003676 0.000000 0.036280
#
#
# Mechanical properties :
#
#
# Convention : Reuss Voigt Hill
#
# Bulk Modulus (GPa) = 55.87343 70.30341 63.08842
# Shear Modulus (GPa) = 23.51237 27.31078 25.41158
#
# Velocity S-wave (km/s) = 3.71188 4.00049 3.85888
# Velocity P-wave (km/s) = 7.14928 7.90796 7.53817
#
# Compressibility (1/GPa) = 0.01789760
#
# Stress axis : x y z
#
# Youngs Moduli (GPa) = 40.66170 41.14975 98.48178
#
# Poissons Ratio (x) = 0.40954 0.41801
# Poissons Ratio (y) = 0.40469 0.62817
# Poissons Ratio (z) = 0.17259 0.26247
#
# Static dielectric constant tensor:
#      x y z
#    x 3.054400 0.000000 -0.267200 
#    y 0.000000 3.338190 0.000000 
#    z -0.267200 0.000000 3.633750 
# 
# 
# High freq. dielectric constant tensor:
#      x y z
#    x 1.627070 0.000000 -0.015760 
#    y 0.000000 1.664610 0.000000 
#    z -0.015760 0.000000 1.667660 
# 
# From -- ./inp_files/33766.got.cif
#   From: 2010.06.25/outbox.cif.g09.slc.cpg/sg11_17_cif.got.tgz:33766.got - 2010.06.27 23:14:04.
