data_PCOD8077291
_publ_section_title
;
Structure prediction by ZEFSAII (Michael W. Deem and Ramdas Pophale) SiO2 
 PCOD8077291
Probable space group: P 21/M
;
_chemical_formula_sum "Si O2"
_cell_formula_units_Z 24
_cell_length_a 5.177185
_cell_length_b 23.617402
_cell_length_c 11.185769
_cell_angle_alpha 90.000000
_cell_angle_beta 132.151582
_cell_angle_gamma 90.000000
_cell_volume 1013.976326
_symmetry_space_group_name_H-M "P 21/M"
_symmetry_group_IT_number 11
_symmetry_cell_setting 'monoclinic'
loop_
_space_group_symop_operation_xyz
x,y,z
-x,1/2+y,-z
-x,-y,-z
x,1/2-y,z
loop_
_atom_site_type_symbol
_atom_site_label
_atom_site_fract_x
_atom_site_fract_y
_atom_site_fract_z
Si Si1 0.830375 0.929687 0.326689
Si Si2 0.657315 0.150390 0.950045
Si Si3 0.822574 0.959894 0.591479
Si Si4 0.556427 0.681885 0.859817
Si Si5 0.489097 0.636464 0.590116
Si Si6 0.306320 0.250000 0.716715
Si Si7 0.522434 0.250000 0.519804
O O1 0.489051 0.908567 0.149261
O O2 0.798865 0.926916 0.459267
O O3 0.170125 0.889036 0.410692
O O4 0.855325 0.996365 0.295283
O O5 0.385788 0.195692 0.818337
O O6 0.635749 0.153877 0.086853
O O7 0.038243 0.164253 0.018599
O O8 0.795151 0.911765 0.686624
O O9 0.500000 0.000000 0.500000
O O10 0.516139 0.750000 0.845024
O O11 0.373669 0.652361 0.688731
O O12 0.661311 0.692617 0.583093
O O13 0.528834 0.250000 0.664353
O O14 0.894824 0.250000 0.568541
#
# Coordination Sequence:
#
# PCOD8077291 Si02
#       7
#     4   4   4   4   4   2   2
#     4  10  22  42  72  96 126 172 231 283 328 391
#     4  12  25  42  66  94 135 180 222 269 335 398
#     4   9  21  42  70  98 128 166 227 286 336 377
#     4  12  26  44  61  97 144 184 212 270 341 405
#     4  11  24  41  66  98 134 176 219 277 334 400
#     4  12  22  38  62  96 130 169 227 282 320 396
#     4  12  24  36  68 104 128 165 231 278 324 394
#
# _framework density 23.66919
#
# number of rings (size 3 to 8) (size 9 to 14) (size 15 to 20)
#    0.000    1.000    4.167    2.000    7.000    0.000 
#    0.000    1.667    0.000    0.000    0.000    0.000 
#    0.000    0.000    0.000    0.000    0.000    0.000 
#
# Total GULP energy -297408.339345 kJ/mol
# GULP energy per Si atom -12392.014139 kJ/mol
# Density = 2.361532 g / cm^3
# Si number density = 23.669190 Si / 1000 Ang^3
#
#
#
# Elastic Constant Matrix: (Units=GPa)
#
#
# Indices 1 2 3 4 5 6 
#
# 1 60.9794 24.9784 -5.3333 0.0000 -12.9345 0.0000
# 2 24.9784 128.3350 24.6274 0.0000 -10.5399 0.0000
# 3 -5.3333 24.6274 52.2459 0.0000 -10.3154 0.0000
# 4 0.0000 0.0000 0.0000 51.6193 0.0000 -15.9021
# 5 -12.9345 -10.5399 -10.3154 0.0000 39.2908 0.0000
# 6 0.0000 0.0000 0.0000 -15.9021 0.0000 33.4819
#
#
#
# Elastic Compliance Matrix: (Units=1/GPa)
#
#
# Indices 1 2 3 4 5 6 
#
# 1 0.020148 -0.004410 0.005497 0.000000 0.006893 0.000000
# 2 -0.004410 0.009596 -0.005012 0.000000 -0.000193 0.000000
# 3 0.005497 -0.005012 0.023367 0.000000 0.006600 0.000000
# 4 0.000000 0.000000 0.000000 0.022693 0.000000 0.010778
# 5 0.006893 -0.000193 0.006600 0.000000 0.029401 0.000000
# 6 0.000000 0.000000 0.000000 0.010778 0.000000 0.034986
#
#
# Mechanical properties :
#
#
# Convention : Reuss Voigt Hill
#
# Bulk Modulus (GPa) = 22.09438 36.67836 29.38637
# Shear Modulus (GPa) = 30.65053 38.03093 34.34073
#
# Velocity S-wave (km/s) = 3.60245 4.01280 3.81315
# Velocity P-wave (km/s) = 5.16318 6.08276 5.64174
#
# Compressibility (1/GPa) = 0.04526037
#
# Stress axis : x y z
#
# Youngs Moduli (GPa) = 49.63196 104.20595 42.79570
#
# Poissons Ratio (x) = 0.45957 -0.23523
# Poissons Ratio (y) = 0.21889 0.21449
# Poissons Ratio (z) = -0.27280 0.52227
#
# Static dielectric constant tensor:
#      x y z
#    x 4.227070 0.000000 -0.128980 
#    y 0.000000 5.961030 0.000000 
#    z -0.128980 0.000000 3.923610 
# 
# 
# High freq. dielectric constant tensor:
#      x y z
#    x 1.946510 0.000000 -0.004890 
#    y 0.000000 1.957260 0.000000 
#    z -0.004890 0.000000 1.903770 
# 
# From -- ./inp_files/2752.got.cif
#   From: 2010.06.25/outbox.cif.g09.slc.cpg/sg11_2_cif.got.tgz:2752.got - 2010.06.27 23:14:04.
