data_PCOD8077276
_publ_section_title
;
Structure prediction by ZEFSAII (Michael W. Deem and Ramdas Pophale) SiO2 
 PCOD8077276
Probable space group: P 21/M
;
_chemical_formula_sum "Si O2"
_cell_formula_units_Z 28
_cell_length_a 13.901679
_cell_length_b 17.098467
_cell_length_c 6.684982
_cell_angle_alpha 90.000000
_cell_angle_beta 121.576803
_cell_angle_gamma 90.000000
_cell_volume 1353.733500
_symmetry_space_group_name_H-M "P 21/M"
_symmetry_group_IT_number 11
_symmetry_cell_setting 'monoclinic'
loop_
_space_group_symop_operation_xyz
x,y,z
-x,1/2+y,-z
-x,-y,-z
x,1/2-y,z
loop_
_atom_site_type_symbol
_atom_site_label
_atom_site_fract_x
_atom_site_fract_y
_atom_site_fract_z
Si Si1 0.621181 0.660104 0.652397
Si Si2 0.198264 0.085038 0.879340
Si Si3 0.913609 0.446578 0.026866
Si Si4 0.984862 0.159616 0.454092
Si Si5 0.562622 0.408967 0.279932
Si Si6 0.383671 0.420046 0.751991
Si Si7 0.199332 0.839150 0.422236
O O1 0.599192 0.750000 0.675938
O O2 0.513638 0.611761 0.612651
O O3 0.634758 0.647451 0.430666
O O4 0.736286 0.634454 0.883578
O O5 0.272085 0.072552 0.762715
O O6 0.086233 0.132653 0.706204
O O7 0.170277 0.999841 0.935255
O O8 0.984136 0.390450 0.250507
O O9 0.838468 0.395325 0.797142
O O10 0.000000 0.500000 0.000000
O O11 0.000497 0.250000 0.413109
O O12 0.870154 0.144615 0.451460
O O13 0.599226 0.498627 0.344748
O O14 0.670136 0.352924 0.385226
O O15 0.492365 0.396670 0.000072
O O16 0.181814 0.750000 0.332079
#
# Coordination Sequence:
#
# PCOD8077276 Si02
#       7
#     4   4   4   4   4   4   4
#     4  11  24  41  65  97 131 169 212 266 328 383
#     4  11  24  42  67  97 130 169 219 270 318 392
#     4  12  25  42  67  94 128 173 221 265 321 390
#     4  11  25  43  64  96 134 170 216 271 332 388
#     4  10  22  42  65  94 128 166 218 268 315 389
#     4  10  23  41  67  94 126 172 215 265 324 385
#     4  11  24  42  66  96 134 173 216 272 332 389
#
# _framework density 20.683539
#
# number of rings (size 3 to 8) (size 9 to 14) (size 15 to 20)
#    0.000    1.143    1.429    3.857    4.000    6.857 
#    0.000    1.429    0.000    0.000    0.000    0.000 
#    0.000    0.000    0.000    0.000    0.000    0.000 
#
# Total GULP energy -347420.929108 kJ/mol
# GULP energy per Si atom -12407.890325 kJ/mol
# Density = 2.063646 g / cm^3
# Si number density = 20.683539 Si / 1000 Ang^3
#
#
#
# Elastic Constant Matrix: (Units=GPa)
#
#
# Indices 1 2 3 4 5 6 
#
# 1 113.8366 50.1862 53.1686 0.0000 4.2138 0.0000
# 2 50.1862 115.5182 53.7612 0.0000 -9.9055 0.0000
# 3 53.1686 53.7612 99.2820 0.0000 -8.5406 0.0000
# 4 0.0000 0.0000 0.0000 32.6092 0.0000 -3.4808
# 5 4.2138 -9.9055 -8.5406 0.0000 28.4120 0.0000
# 6 0.0000 0.0000 0.0000 -3.4808 0.0000 27.3733
#
#
#
# Elastic Compliance Matrix: (Units=1/GPa)
#
#
# Indices 1 2 3 4 5 6 
#
# 1 0.013099 -0.003539 -0.005515 0.000000 -0.004834 0.000000
# 2 -0.003539 0.012666 -0.004659 0.000000 0.003540 0.000000
# 3 -0.005515 -0.004659 0.015890 0.000000 0.003970 0.000000
# 4 0.000000 0.000000 0.000000 0.031088 0.000000 0.003953
# 5 -0.004834 0.003540 0.003970 0.000000 0.038341 0.000000
# 6 0.000000 0.000000 0.000000 0.003953 0.000000 0.037035
#
#
# Mechanical properties :
#
#
# Convention : Reuss Voigt Hill
#
# Bulk Modulus (GPa) = 70.27281 71.42989 70.85135
# Shear Modulus (GPa) = 27.73355 29.11361 28.42358
#
# Velocity S-wave (km/s) = 3.66574 3.75583 3.71106
# Velocity P-wave (km/s) = 7.20873 7.30876 7.25892
#
# Compressibility (1/GPa) = 0.01423025
#
# Stress axis : x y z
#
# Youngs Moduli (GPa) = 76.33974 78.95230 62.93354
#
# Poissons Ratio (x) = 0.27941 0.34705
# Poissons Ratio (y) = 0.27017 0.29319
# Poissons Ratio (z) = 0.42098 0.36782
#
# Static dielectric constant tensor:
#      x y z
#    x 3.783360 0.000000 0.027290 
#    y 0.000000 3.838250 0.000000 
#    z 0.027290 0.000000 3.725320 
# 
# 
# High freq. dielectric constant tensor:
#      x y z
#    x 1.818630 0.000000 0.002310 
#    y 0.000000 1.818850 0.000000 
#    z 0.002310 0.000000 1.815230 
# 
# From -- ./inp_files/6894.got.cif
#   From: 2010.06.25/outbox.cif.g09.slc.cpg/sg11_4_cif.got.tgz:6894.got - 2010.06.27 23:14:04.
