data_PCOD8077757
_publ_section_title
;
Structure prediction by ZEFSAII (Michael W. Deem and Ramdas Pophale) SiO2 
 PCOD8077757
Probable space group: P 21/M
;
_chemical_formula_sum "Si O2"
_cell_formula_units_Z 32
_cell_length_a 11.507064
_cell_length_b 18.009321
_cell_length_c 13.503409
_cell_angle_alpha 90.000000
_cell_angle_beta 33.614236
_cell_angle_gamma 90.000000
_cell_volume 1549.173937
_symmetry_space_group_name_H-M "P 21/M"
_symmetry_group_IT_number 11
_symmetry_cell_setting 'monoclinic'
loop_
_space_group_symop_operation_xyz
x,y,z
-x,1/2+y,-z
-x,-y,-z
x,1/2-y,z
loop_
_atom_site_type_symbol
_atom_site_label
_atom_site_fract_x
_atom_site_fract_y
_atom_site_fract_z
Si Si1 0.438376 0.163103 0.311130
Si Si2 0.430438 0.923786 0.426356
Si Si3 0.978092 0.337327 0.275055
Si Si4 0.737852 0.576937 0.389652
Si Si5 0.926348 0.662298 0.572927
Si Si6 0.226893 0.585432 0.035615
Si Si7 0.680115 0.161950 0.829442
Si Si8 0.347712 0.080399 0.940477
O O1 0.483051 0.250000 0.275581
O O2 0.330854 0.145182 0.492277
O O3 0.287424 0.136186 0.328116
O O4 0.657000 0.118431 0.144195
O O5 0.265217 0.858373 0.565535
O O6 0.614784 0.920093 0.374698
O O7 0.531180 0.912055 0.248140
O O8 0.308020 0.001661 0.517645
O O9 0.001134 0.250000 0.244514
O O10 0.060537 0.365550 0.323906
O O11 0.120925 0.379183 0.092345
O O12 0.980630 0.582883 0.189018
O O13 0.941656 0.750000 0.557885
O O14 0.124510 0.630449 0.372122
O O15 0.280479 0.641720 0.085314
O O16 0.315389 0.504168 0.995829
O O17 0.648043 0.250000 0.843218
O O18 0.471925 0.122447 0.938642
#
# Coordination Sequence:
#
# PCOD8077757 Si02
#       8
#     4   4   4   4   4   4   4   4
#     4  11  23  42  67  99 135 173 218 271 333 394
#     4  11  25  46  68  92 129 176 224 277 333 387
#     4  11  23  42  67  99 135 173 218 271 333 394
#     4  11  25  46  68  92 129 176 224 277 333 387
#     4   9  19  37  64  91 128 172 205 257 330 391
#     4  12  24  41  67 103 132 175 223 270 327 402
#     4  11  22  39  65  98 139 174 209 267 334 395
#     4  12  24  41  67 103 132 175 223 270 327 402
#
# _framework density 20.656171000000001
#
# number of rings (size 3 to 8) (size 9 to 14) (size 15 to 20)
#    0.000    1.000    5.000    1.875    0.000    4.000 
#    0.000    2.500    0.000    0.000    0.000    0.000 
#    0.000    0.000    0.000    0.000    0.000    0.000 
#
# Total GULP energy -396956.463180 kJ/mol
# GULP energy per Si atom -12404.889474 kJ/mol
# Density = 2.060916 g / cm^3
# Si number density = 20.656171 Si / 1000 Ang^3
#
#
#
# Elastic Constant Matrix: (Units=GPa)
#
#
# Indices 1 2 3 4 5 6 
#
# 1 62.0497 21.6449 21.7060 0.0000 -19.2508 0.0000
# 2 21.6449 104.2270 43.9355 0.0000 -14.2654 0.0000
# 3 21.7060 43.9355 138.3024 0.0000 -24.1340 0.0000
# 4 0.0000 0.0000 0.0000 38.3159 0.0000 0.1781
# 5 -19.2508 -14.2654 -24.1340 0.0000 21.8996 0.0000
# 6 0.0000 0.0000 0.0000 0.1781 0.0000 23.8494
#
#
#
# Elastic Compliance Matrix: (Units=1/GPa)
#
#
# Indices 1 2 3 4 5 6 
#
# 1 0.022621 -0.002314 0.000485 0.000000 0.018912 0.000000
# 2 -0.002314 0.011625 -0.002926 0.000000 0.002314 0.000000
# 3 0.000485 -0.002926 0.009689 0.000000 0.009198 0.000000
# 4 0.000000 0.000000 0.000000 0.026100 0.000000 -0.000195
# 5 0.018912 0.002314 0.009198 0.000000 0.073932 0.000000
# 6 0.000000 0.000000 0.000000 -0.000195 0.000000 0.041931
#
#
# Mechanical properties :
#
#
# Convention : Reuss Voigt Hill
#
# Bulk Modulus (GPa) = 29.04811 53.23910 41.14360
# Shear Modulus (GPa) = 24.16828 31.29915 27.73371
#
# Velocity S-wave (km/s) = 3.42428 3.89684 3.66817
# Velocity P-wave (km/s) = 5.45229 6.78801 6.15648
#
# Compressibility (1/GPa) = 0.03442565
#
# Stress axis : x y z
#
# Youngs Moduli (GPa) = 44.20655 86.02072 103.20971
#
# Poissons Ratio (x) = 0.19902 -0.05005
# Poissons Ratio (y) = 0.10228 0.30200
# Poissons Ratio (z) = -0.02144 0.25170
#
# Static dielectric constant tensor:
#      x y z
#    x 3.575650 0.000000 -0.062260 
#    y 0.000000 3.653880 0.000000 
#    z -0.062260 0.000000 4.040360 
# 
# 
# High freq. dielectric constant tensor:
#      x y z
#    x 1.791430 0.000000 -0.002990 
#    y 0.000000 1.806170 0.000000 
#    z -0.002990 0.000000 1.833180 
# 
# From -- ./inp_files/50647.got.cif
#   From: 2010.06.25/outbox.cif.g09.slc.cpg/sg11_26_cif.got.tgz:50647.got - 2010.06.27 23:14:04.
