data_PCOD8077663
_publ_section_title
;
Structure prediction by ZEFSAII (Michael W. Deem and Ramdas Pophale) SiO2 
 PCOD8077663
Probable space group: P 21/M
;
_chemical_formula_sum "Si O2"
_cell_formula_units_Z 32
_cell_length_a 6.518300
_cell_length_b 16.863014
_cell_length_c 14.592035
_cell_angle_alpha 90.000000
_cell_angle_beta 90.626781
_cell_angle_gamma 90.000000
_cell_volume 1603.834020
_symmetry_space_group_name_H-M "P 21/M"
_symmetry_group_IT_number 11
_symmetry_cell_setting 'monoclinic'
loop_
_space_group_symop_operation_xyz
x,y,z
-x,1/2+y,-z
-x,-y,-z
x,1/2-y,z
loop_
_atom_site_type_symbol
_atom_site_label
_atom_site_fract_x
_atom_site_fract_y
_atom_site_fract_z
Si Si1 0.256064 0.841158 0.945090
Si Si2 0.747301 0.551326 0.236908
Si Si3 0.091750 0.842937 0.292484
Si Si4 0.429620 0.342232 0.214227
Si Si5 0.461084 0.552329 0.624060
Si Si6 0.930340 0.556659 0.854337
Si Si7 0.649803 0.412558 0.868054
Si Si8 0.191158 0.958458 0.454882
O O1 0.188884 0.750000 0.934865
O O2 0.427041 0.863458 0.871169
O O3 0.052754 0.895112 0.933086
O O4 0.353603 0.854383 0.045378
O O5 0.640166 0.525588 0.330637
O O6 0.582541 0.560744 0.154591
O O7 0.867309 0.633980 0.252099
O O8 0.910392 0.482967 0.214393
O O9 0.099784 0.750000 0.310948
O O10 0.264769 0.867081 0.220145
O O11 0.126228 0.887354 0.388342
O O12 0.393776 0.250000 0.225655
O O13 0.538865 0.374680 0.305776
O O14 0.208482 0.382356 0.202991
O O15 0.692188 0.527417 0.600197
O O16 0.338025 0.578819 0.533397
O O17 0.784554 0.489198 0.896900
O O18 0.000000 0.000000 0.500000
#
# Coordination Sequence:
#
# PCOD8077663 Si02
#       8
#     4   4   4   4   4   4   4   4
#     4  11  24  40  60  93 131 167 210 264 322 372
#     4  11  21  41  67  91 122 168 213 255 312 378
#     4  11  24  41  63  96 131 167 211 265 324 373
#     4  11  24  41  63  94 131 168 208 264 323 371
#     4  11  21  42  66  92 119 165 213 253 316 382
#     4  11  21  39  64  90 123 165 220 256 309 380
#     4  11  23  41  66  92 125 170 215 263 312 384
#     4  11  23  40  69  91 123 164 211 263 312 381
#
# _framework density 19.952189000000001
#
# number of rings (size 3 to 8) (size 9 to 14) (size 15 to 20)
#    0.000    1.000    5.000    1.875    0.000    5.500 
#    0.000    1.875    0.000    0.000    0.000    0.000 
#    0.000    0.000    0.000    0.000    0.000    0.000 
#
# Total GULP energy -396914.691943 kJ/mol
# GULP energy per Si atom -12403.584123 kJ/mol
# Density = 1.990678 g / cm^3
# Si number density = 19.952189 Si / 1000 Ang^3
#
#
#
# Elastic Constant Matrix: (Units=GPa)
#
#
# Indices 1 2 3 4 5 6 
#
# 1 123.2806 61.9084 45.2322 0.0000 7.7028 0.0000
# 2 61.9084 129.9439 57.4344 0.0000 4.2699 0.0000
# 3 45.2322 57.4344 119.2896 0.0000 7.8475 0.0000
# 4 0.0000 0.0000 0.0000 31.4921 0.0000 3.9458
# 5 7.7028 4.2699 7.8475 0.0000 31.4547 0.0000
# 6 0.0000 0.0000 0.0000 3.9458 0.0000 25.8587
#
#
#
# Elastic Compliance Matrix: (Units=1/GPa)
#
#
# Indices 1 2 3 4 5 6 
#
# 1 0.011146 -0.004365 -0.002017 0.000000 -0.001634 0.000000
# 2 -0.004365 0.011486 -0.003907 0.000000 0.000484 0.000000
# 3 -0.002017 -0.003907 0.011145 0.000000 -0.001756 0.000000
# 4 0.000000 0.000000 0.000000 0.032373 0.000000 -0.004940
# 5 -0.001634 0.000484 -0.001756 0.000000 0.032564 0.000000
# 6 0.000000 0.000000 0.000000 -0.004940 0.000000 0.039425
#
#
# Mechanical properties :
#
#
# Convention : Reuss Voigt Hill
#
# Bulk Modulus (GPa) = 75.76820 77.96267 76.86543
# Shear Modulus (GPa) = 30.65297 31.62370 31.13833
#
# Velocity S-wave (km/s) = 3.92385 3.98549 3.95479
# Velocity P-wave (km/s) = 7.65415 7.76778 7.71118
#
# Compressibility (1/GPa) = 0.01319815
#
# Stress axis : x y z
#
# Youngs Moduli (GPa) = 89.72102 87.06189 89.73033
#
# Poissons Ratio (x) = 0.38001 0.18101
# Poissons Ratio (y) = 0.39161 0.35058
# Poissons Ratio (z) = 0.18099 0.34015
#
# Static dielectric constant tensor:
#      x y z
#    x 3.875640 0.000000 0.066500 
#    y 0.000000 3.555130 0.000000 
#    z 0.066500 0.000000 3.634300 
# 
# 
# High freq. dielectric constant tensor:
#      x y z
#    x 1.791890 0.000000 0.003870 
#    y 0.000000 1.767500 0.000000 
#    z 0.003870 0.000000 1.781250 
# 
# From -- ./inp_files/46036.got.cif
#   From: 2010.06.25/outbox.cif.g09.slc.cpg/sg11_24_cif.got.tgz:46036.got - 2010.06.27 23:14:04.
