data_PCOD8077654
_publ_section_title
;
Structure prediction by ZEFSAII (Michael W. Deem and Ramdas Pophale) SiO2 
 PCOD8077654
Probable space group: P 21/M
;
_chemical_formula_sum "Si O2"
_cell_formula_units_Z 24
_cell_length_a 14.865089
_cell_length_b 14.181145
_cell_length_c 11.742731
_cell_angle_alpha 90.000000
_cell_angle_beta 149.480774
_cell_angle_gamma 90.000000
_cell_volume 1257.083438
_symmetry_space_group_name_H-M "P 21/M"
_symmetry_group_IT_number 11
_symmetry_cell_setting 'monoclinic'
loop_
_space_group_symop_operation_xyz
x,y,z
-x,1/2+y,-z
-x,-y,-z
x,1/2-y,z
loop_
_atom_site_type_symbol
_atom_site_label
_atom_site_fract_x
_atom_site_fract_y
_atom_site_fract_z
Si Si1 0.388844 0.857148 0.778653
Si Si2 0.788521 0.517149 0.542139
Si Si3 0.365773 0.146781 0.157561
Si Si4 0.813890 0.452809 0.017774
Si Si5 0.350724 0.565991 0.387928
Si Si6 0.538553 0.360277 0.882527
O O1 0.316886 0.750000 0.692643
O O2 0.566669 0.870430 0.897640
O O3 0.236727 0.927189 0.568084
O O4 0.440607 0.884316 0.962640
O O5 0.774071 0.487961 0.658400
O O6 0.644644 0.597161 0.360929
O O7 0.980866 0.561016 0.729302
O O8 0.274692 0.250000 0.069711
O O9 0.541929 0.148250 0.429866
O O10 0.227793 0.064976 0.039493
O O11 0.769538 0.400138 0.849493
O O12 0.702947 0.406609 0.997249
O O13 0.500000 0.500000 0.500000
O O14 0.535847 0.250000 0.854349
#
# Coordination Sequence:
#
# PCOD8077654 Si02
#       6
#     4   4   4   4   4   4
#     4   9  19  38  61  83 113 151 191 235 283 337
#     4  11  21  37  63  84 115 148 191 234 289 336
#     4   9  18  35  60  84 111 152 190 230 285 337
#     4  11  22  36  59  88 117 147 186 238 287 340
#     4   9  17  37  57  83 113 148 182 229 279 333
#     4  11  23  40  57  80 117 155 193 236 281 338
#
# _framework density 19.091809999999999
#
# number of rings (size 3 to 8) (size 9 to 14) (size 15 to 20)
#    0.000    2.000    5.000    1.000    0.000    2.667 
#    0.000    0.000    0.000    4.000    0.000    0.000 
#    0.000    0.000    0.000    0.000    0.000    0.000 
#
# Total GULP energy -297525.463205 kJ/mol
# GULP energy per Si atom -12396.894300 kJ/mol
# Density = 1.904836 g / cm^3
# Si number density = 19.091810 Si / 1000 Ang^3
#
#
#
# Elastic Constant Matrix: (Units=GPa)
#
#
# Indices 1 2 3 4 5 6 
#
# 1 94.0765 26.4237 40.9336 0.0000 -3.9950 0.0000
# 2 26.4237 61.4647 5.9148 0.0000 7.2719 0.0000
# 3 40.9336 5.9148 69.6933 0.0000 20.4168 0.0000
# 4 0.0000 0.0000 0.0000 8.3732 0.0000 -0.3809
# 5 -3.9950 7.2719 20.4168 0.0000 35.8215 0.0000
# 6 0.0000 0.0000 0.0000 -0.3809 0.0000 15.5740
#
#
#
# Elastic Compliance Matrix: (Units=1/GPa)
#
#
# Indices 1 2 3 4 5 6 
#
# 1 0.019895 -0.008603 -0.014546 0.000000 0.012256 0.000000
# 2 -0.008603 0.020405 0.005781 0.000000 -0.008397 0.000000
# 3 -0.014546 0.005781 0.027874 0.000000 -0.018683 0.000000
# 4 0.000000 0.000000 0.000000 0.119562 0.000000 0.002924
# 5 0.012256 -0.008397 -0.018683 0.000000 0.041636 0.000000
# 6 0.000000 0.000000 0.000000 0.002924 0.000000 0.064281
#
#
# Mechanical properties :
#
#
# Convention : Reuss Voigt Hill
#
# Bulk Modulus (GPa) = 29.90470 41.30872 35.60671
# Shear Modulus (GPa) = 14.72596 22.08456 18.40526
#
# Velocity S-wave (km/s) = 2.78028 3.40480 3.10827
# Velocity P-wave (km/s) = 5.09944 6.09432 5.61894
#
# Compressibility (1/GPa) = 0.03343956
#
# Stress axis : x y z
#
# Youngs Moduli (GPa) = 50.26275 49.00726 35.87522
#
# Poissons Ratio (x) = 0.42162 0.52183
# Poissons Ratio (y) = 0.43242 -0.20740
# Poissons Ratio (z) = 0.73110 -0.28332
#
# Static dielectric constant tensor:
#      x y z
#    x 3.720040 0.000000 -0.433400 
#    y 0.000000 3.539580 0.000000 
#    z -0.433400 0.000000 3.597210 
# 
# 
# High freq. dielectric constant tensor:
#      x y z
#    x 1.750280 0.000000 -0.018650 
#    y 0.000000 1.735650 0.000000 
#    z -0.018650 0.000000 1.725710 
# 
# From -- ./inp_files/39562.got.cif
#   From: 2010.06.25/outbox.cif.g09.slc.cpg/sg11_20_cif.got.tgz:39562.got - 2010.06.27 23:14:04.
