data_PCOD8077289
_publ_section_title
;
Structure prediction by ZEFSAII (Michael W. Deem and Ramdas Pophale) SiO2 
 PCOD8077289
Probable space group: P 21/M
;
_chemical_formula_sum "Si O2"
_cell_formula_units_Z 32
_cell_length_a 11.618309
_cell_length_b 17.248238
_cell_length_c 14.246478
_cell_angle_alpha 90.000000
_cell_angle_beta 148.246814
_cell_angle_gamma 90.000000
_cell_volume 1502.437894
_symmetry_space_group_name_H-M "P 21/M"
_symmetry_group_IT_number 11
_symmetry_cell_setting 'monoclinic'
loop_
_space_group_symop_operation_xyz
x,y,z
-x,1/2+y,-z
-x,-y,-z
x,1/2-y,z
loop_
_atom_site_type_symbol
_atom_site_label
_atom_site_fract_x
_atom_site_fract_y
_atom_site_fract_z
Si Si1 0.893369 0.602635 0.849328
Si Si2 0.885556 0.424701 0.806585
Si Si3 0.386781 0.334222 0.857424
Si Si4 0.415879 0.840332 0.539609
Si Si5 0.894721 0.897609 0.492776
Si Si6 0.141096 0.621993 0.838178
Si Si7 0.279549 0.052863 0.949695
Si Si8 0.720511 0.065782 0.372309
O O1 0.824704 0.515072 0.774927
O O2 0.676875 0.651725 0.718373
O O3 0.034194 0.640131 0.863923
O O4 0.052910 0.607834 0.049018
O O5 0.680432 0.377855 0.622566
O O6 0.089603 0.409946 0.879855
O O7 0.298090 0.250000 0.828087
O O8 0.302996 0.353900 0.694919
O O9 0.302087 0.398947 0.870095
O O10 0.647087 0.326049 0.031118
O O11 0.353446 0.750000 0.502477
O O12 0.316592 0.884180 0.560390
O O13 0.958895 0.856118 0.634366
O O14 0.106637 0.891211 0.573374
O O15 0.821445 0.983733 0.471099
O O16 0.220991 0.533703 0.879491
O O17 0.498158 0.053646 0.161764
#
# Coordination Sequence:
#
# PCOD8077289 Si02
#       8
#     4   4   4   4   4   4   4   4
#     4  10  23  43  69  94 125 174 227 271 313 383
#     4  10  22  42  69  97 126 170 220 275 320 383
#     4  12  26  41  63  96 135 173 215 269 333 400
#     4  12  26  43  67 102 140 170 212 275 337 392
#     4  11  23  40  67  96 132 171 217 271 320 390
#     4  11  23  43  68  94 126 174 223 269 319 386
#     4  11  20  42  70  95 128 167 220 274 327 382
#     4  11  21  40  69  98 129 172 218 265 326 392
#
# _framework density 21.298718000000001
#
# number of rings (size 3 to 8) (size 9 to 14) (size 15 to 20)
#    0.000    1.000    3.750    4.500    0.000    5.000 
#    0.000    1.250    0.000    0.000    0.000    0.000 
#    0.000    0.000    0.000    0.000    0.000    0.000 
#
# Total GULP energy -396925.559849 kJ/mol
# GULP energy per Si atom -12403.923745 kJ/mol
# Density = 2.125024 g / cm^3
# Si number density = 21.298718 Si / 1000 Ang^3
#
#
#
# Elastic Constant Matrix: (Units=GPa)
#
#
# Indices 1 2 3 4 5 6 
#
# 1 107.4767 38.3597 26.4831 0.0000 -14.6540 0.0000
# 2 38.3597 70.0299 19.4940 0.0000 -4.2515 0.0000
# 3 26.4831 19.4940 109.4603 0.0000 -29.0648 0.0000
# 4 0.0000 0.0000 0.0000 11.3009 0.0000 2.3741
# 5 -14.6540 -4.2515 -29.0648 0.0000 37.1835 0.0000
# 6 0.0000 0.0000 0.0000 2.3741 0.0000 10.2439
#
#
#
# Elastic Compliance Matrix: (Units=1/GPa)
#
#
# Indices 1 2 3 4 5 6 
#
# 1 0.012219 -0.006223 -0.000957 0.000000 0.003356 0.000000
# 2 -0.006223 0.018200 -0.002315 0.000000 -0.002181 0.000000
# 3 -0.000957 -0.002315 0.012126 0.000000 0.008836 0.000000
# 4 0.000000 0.000000 0.000000 0.093017 0.000000 -0.021557
# 5 0.003356 -0.002181 0.008836 0.000000 0.034874 0.000000
# 6 0.000000 0.000000 0.000000 -0.021557 0.000000 0.102615
#
#
# Mechanical properties :
#
#
# Convention : Reuss Voigt Hill
#
# Bulk Modulus (GPa) = 42.45266 50.62672 46.53969
# Shear Modulus (GPa) = 16.67271 25.25435 20.96353
#
# Velocity S-wave (km/s) = 2.80090 3.44717 3.14070
# Velocity P-wave (km/s) = 5.51682 6.29805 5.92033
#
# Compressibility (1/GPa) = 0.02355565
#
# Stress axis : x y z
#
# Youngs Moduli (GPa) = 81.84183 54.94445 82.46864
#
# Poissons Ratio (x) = 0.34191 0.07891
# Poissons Ratio (y) = 0.50929 0.19090
# Poissons Ratio (z) = 0.07831 0.12719
#
# Static dielectric constant tensor:
#      x y z
#    x 3.916360 0.000000 -0.047250 
#    y 0.000000 3.636710 0.000000 
#    z -0.047250 0.000000 4.089430 
# 
# 
# High freq. dielectric constant tensor:
#      x y z
#    x 1.837950 0.000000 -0.005280 
#    y 0.000000 1.813640 0.000000 
#    z -0.005280 0.000000 1.856100 
# 
# From -- ./inp_files/50700.got.cif
#   From: 2010.06.25/outbox.cif.g09.slc.cpg/sg11_26_cif.got.tgz:50700.got - 2010.06.27 23:14:04.
