data_PCOD8077004
_publ_section_title
;
Structure prediction by ZEFSAII (Michael W. Deem and Ramdas Pophale) SiO2 
 PCOD8077004
Probable space group: P 21/M
;
_chemical_formula_sum "Si O2"
_cell_formula_units_Z 32
_cell_length_a 27.328953
_cell_length_b 8.662630
_cell_length_c 11.668429
_cell_angle_alpha 90.000000
_cell_angle_beta 146.372552
_cell_angle_gamma 90.000000
_cell_volume 1529.785890
_symmetry_space_group_name_H-M "P 21/M"
_symmetry_group_IT_number 11
_symmetry_cell_setting 'monoclinic'
loop_
_space_group_symop_operation_xyz
x,y,z
-x,1/2+y,-z
-x,-y,-z
x,1/2-y,z
loop_
_atom_site_type_symbol
_atom_site_label
_atom_site_fract_x
_atom_site_fract_y
_atom_site_fract_z
Si Si1 0.581809 0.432796 0.088782
Si Si2 0.620152 0.432938 0.672413
Si Si3 0.457372 0.932476 0.241836
Si Si4 0.887642 0.570502 0.947791
Si Si5 0.185541 0.923826 0.983802
Si Si6 0.776786 0.068125 0.541426
Si Si7 0.930234 0.424814 0.447446
Si Si8 0.929050 0.930600 0.686659
O O1 0.573622 0.250000 0.077566
O O2 0.675623 0.486967 0.325121
O O3 0.500000 0.500000 0.000000
O O4 0.578710 0.493011 0.950820
O O5 0.611854 0.250000 0.653400
O O6 0.601470 0.493139 0.765761
O O7 0.555697 0.504808 0.452566
O O8 0.715789 0.489148 0.818587
O O9 0.459934 0.750000 0.245680
O O10 0.877818 0.750000 0.902758
O O11 0.878272 0.532947 0.064765
O O12 0.808683 0.479426 0.730303
O O13 0.984231 0.516235 0.093778
O O14 0.178129 0.750000 0.018877
O O15 0.160256 0.923316 0.800762
O O16 0.784529 0.250000 0.537610
O O17 0.840917 0.984144 0.577553
O O18 0.956969 0.250000 0.536710
O O19 0.916294 0.531867 0.528999
O O20 0.000000 0.500000 0.500000
O O21 0.942987 0.750000 0.731853
#
# Coordination Sequence:
#
# PCOD8077004 Si02
#       8
#     4   4   4   4   4   4   4   4
#     4  10  24  43  66  91 124 165 207 257 312 373
#     4   9  19  36  61  89 120 158 200 247 303 366
#     4   9  19  38  61  88 120 156 199 250 306 363
#     4  12  25  42  65  92 127 167 211 263 317 378
#     4  10  22  38  61  90 124 164 208 255 307 372
#     4  11  25  45  68  93 123 165 214 262 319 379
#     4  11  22  38  62  91 126 168 208 251 308 369
#     4  12  25  43  66  94 129 166 210 265 317 377
#
# _framework density 20.917960000000001
#
# number of rings (size 3 to 8) (size 9 to 14) (size 15 to 20)
#    0.000    1.500    1.250    3.375    3.500    2.500 
#    0.000    0.000    0.000    0.000    0.000    0.000 
#    0.000    0.000    0.000    0.000    0.000    0.000 
#
# Total GULP energy -396831.672518 kJ/mol
# GULP energy per Si atom -12400.989766 kJ/mol
# Density = 2.087035 g / cm^3
# Si number density = 20.917960 Si / 1000 Ang^3
#
#
#
# Elastic Constant Matrix: (Units=GPa)
#
#
# Indices 1 2 3 4 5 6 
#
# 1 83.4820 22.2055 42.6555 0.0000 6.9685 0.0000
# 2 22.2055 69.0927 28.1688 0.0000 5.6789 0.0000
# 3 42.6555 28.1688 127.5120 0.0000 6.6614 0.0000
# 4 0.0000 0.0000 0.0000 31.6752 0.0000 0.0339
# 5 6.9685 5.6789 6.6614 0.0000 38.7595 0.0000
# 6 0.0000 0.0000 0.0000 0.0339 0.0000 34.4835
#
#
#
# Elastic Compliance Matrix: (Units=1/GPa)
#
#
# Indices 1 2 3 4 5 6 
#
# 1 0.015102 -0.002967 -0.004316 0.000000 -0.001539 0.000000
# 2 -0.002967 0.016606 -0.002600 0.000000 -0.001453 0.000000
# 3 -0.004316 -0.002600 0.009889 0.000000 -0.000543 0.000000
# 4 0.000000 0.000000 0.000000 0.031570 0.000000 -0.000031
# 5 -0.001539 -0.001453 -0.000543 0.000000 0.026383 0.000000
# 6 0.000000 0.000000 0.000000 -0.000031 0.000000 0.028999
#
#
# Mechanical properties :
#
#
# Convention : Reuss Voigt Hill
#
# Bulk Modulus (GPa) = 45.80793 51.79403 48.80098
# Shear Modulus (GPa) = 32.13512 33.45409 32.79461
#
# Velocity S-wave (km/s) = 3.92375 4.00346 3.96381
# Velocity P-wave (km/s) = 6.51722 6.79593 6.65803
#
# Compressibility (1/GPa) = 0.02183028
#
# Stress axis : x y z
#
# Youngs Moduli (GPa) = 66.21813 60.21770 101.12369
#
# Poissons Ratio (x) = 0.17869 0.43644
# Poissons Ratio (y) = 0.19650 0.26292
# Poissons Ratio (z) = 0.28579 0.15656
#
# Static dielectric constant tensor:
#      x y z
#    x 3.613920 0.000000 0.075350 
#    y 0.000000 3.453850 0.000000 
#    z 0.075350 0.000000 3.978950 
# 
# 
# High freq. dielectric constant tensor:
#      x y z
#    x 1.822210 0.000000 -0.004120 
#    y 0.000000 1.811560 0.000000 
#    z -0.004120 0.000000 1.831670 
# 
# From -- ./inp_files/45338.got.cif
#   From: 2010.06.25/outbox.cif.g09.slc.cpg/sg11_23_cif.got.tgz:45338.got - 2010.06.27 23:14:04.
