data_PCOD8077396
_publ_section_title
;
Structure prediction by ZEFSAII (Michael W. Deem and Ramdas Pophale) SiO2 
 PCOD8077396
Probable space group: P 21/M
;
_chemical_formula_sum "Si O2"
_cell_formula_units_Z 28
_cell_length_a 9.247164
_cell_length_b 8.542047
_cell_length_c 26.846210
_cell_angle_alpha 90.000000
_cell_angle_beta 38.711363
_cell_angle_gamma 90.000000
_cell_volume 1326.201715
_symmetry_space_group_name_H-M "P 21/M"
_symmetry_group_IT_number 11
_symmetry_cell_setting 'monoclinic'
loop_
_space_group_symop_operation_xyz
x,y,z
-x,1/2+y,-z
-x,-y,-z
x,1/2-y,z
loop_
_atom_site_type_symbol
_atom_site_label
_atom_site_fract_x
_atom_site_fract_y
_atom_site_fract_z
Si Si1 0.320519 0.432721 0.703323
Si Si2 0.223942 0.074600 0.462430
Si Si3 0.453296 0.067207 0.865251
Si Si4 0.208865 0.933837 0.835207
Si Si5 0.251768 0.074201 0.568381
Si Si6 0.049179 0.431438 0.268013
Si Si7 0.685874 0.934753 0.988481
O O1 0.273901 0.250000 0.710958
O O2 0.550338 0.473464 0.610704
O O3 0.348173 0.479734 0.753690
O O4 0.102358 0.524898 0.739395
O O5 0.265975 0.250000 0.430744
O O6 0.159807 0.078720 0.537427
O O7 0.000000 0.000000 0.500000
O O8 0.403025 0.250000 0.871633
O O9 0.362820 0.003787 0.942664
O O10 0.320834 0.974389 0.857910
O O11 0.725381 0.037708 0.789977
O O12 0.228554 0.750000 0.821416
O O13 0.942597 0.990505 0.904751
O O14 0.258257 0.250000 0.589594
O O15 0.500000 0.000000 0.500000
O O16 0.092043 0.962170 0.643843
O O17 0.118480 0.250000 0.246125
O O18 0.664516 0.750000 0.993259
O O19 0.500000 0.000000 0.000000
#
# Coordination Sequence:
#
# PCOD8077396 Si02
#       7
#     4   4   4   4   4   4   4
#     4  12  25  43  66  93 128 170 215 266 321 381
#     4  11  25  43  65  93 128 168 214 265 323 384
#     4  11  24  43  66  97 132 169 214 263 319 379
#     4  11  24  43  66  96 132 170 213 263 320 380
#     4  11  23  41  66  94 126 167 215 265 321 381
#     4  12  25  42  65  94 129 170 216 266 320 381
#     4  10  23  42  68  98 130 169 213 261 315 378
#
# _framework density 21.112926999999999
#
# number of rings (size 3 to 8) (size 9 to 14) (size 15 to 20)
#    0.000    0.857    1.429    5.571    2.000    6.286 
#    0.000    0.000    0.000    0.000    0.000    0.000 
#    0.000    0.000    0.000    0.000    0.000    0.000 
#
# Total GULP energy -347360.282591 kJ/mol
# GULP energy per Si atom -12405.724378 kJ/mol
# Density = 2.106487 g / cm^3
# Si number density = 21.112927 Si / 1000 Ang^3
#
#
#
# Elastic Constant Matrix: (Units=GPa)
#
#
# Indices 1 2 3 4 5 6 
#
# 1 121.1239 21.6711 28.0879 0.0000 3.3337 0.0000
# 2 21.6711 79.1376 17.4560 0.0000 6.6323 0.0000
# 3 28.0879 17.4560 91.5755 0.0000 12.1231 0.0000
# 4 0.0000 0.0000 0.0000 31.8664 0.0000 -0.4464
# 5 3.3337 6.6323 12.1231 0.0000 42.9258 0.0000
# 6 0.0000 0.0000 0.0000 -0.4464 0.0000 40.6804
#
#
#
# Elastic Compliance Matrix: (Units=1/GPa)
#
#
# Indices 1 2 3 4 5 6 
#
# 1 0.009178 -0.001992 -0.002474 0.000000 0.000294 0.000000
# 2 -0.001992 0.013702 -0.001809 0.000000 -0.001452 0.000000
# 3 -0.002474 -0.001809 0.012426 0.000000 -0.003038 0.000000
# 4 0.000000 0.000000 0.000000 0.031386 0.000000 0.000344
# 5 0.000294 -0.001452 -0.003038 0.000000 0.024355 0.000000
# 6 0.000000 0.000000 0.000000 0.000344 0.000000 0.024586
#
#
# Mechanical properties :
#
#
# Convention : Reuss Voigt Hill
#
# Bulk Modulus (GPa) = 43.94459 47.36300 45.65380
# Shear Modulus (GPa) = 36.82730 38.06930 37.44830
#
# Velocity S-wave (km/s) = 4.18101 4.25093 4.21612
# Velocity P-wave (km/s) = 6.64583 6.82464 6.73583
#
# Compressibility (1/GPa) = 0.02275593
#
# Stress axis : x y z
#
# Youngs Moduli (GPa) = 108.95472 72.98001 80.47798
#
# Poissons Ratio (x) = 0.14539 0.19912
# Poissons Ratio (y) = 0.21706 0.14556
# Poissons Ratio (z) = 0.26958 0.13200
#
# Static dielectric constant tensor:
#      x y z
#    x 3.797510 0.000000 0.119500 
#    y 0.000000 3.882650 0.000000 
#    z 0.119500 0.000000 3.714800 
# 
# 
# High freq. dielectric constant tensor:
#      x y z
#    x 1.839520 0.000000 0.005610 
#    y 0.000000 1.835950 0.000000 
#    z 0.005610 0.000000 1.838050 
# 
# From -- ./inp_files/70808.got.cif
#   From: 2010.06.25/outbox.cif.g09.slc.cpg/sg11_36_cif.got.tgz:70808.got - 2010.06.27 23:14:04.
