data_PCOD8077583
_publ_section_title
;
Structure prediction by ZEFSAII (Michael W. Deem and Ramdas Pophale) SiO2 
 PCOD8077583
Probable space group: P 21/M
;
_chemical_formula_sum "Si O2"
_cell_formula_units_Z 32
_cell_length_a 14.320165
_cell_length_b 18.132712
_cell_length_c 11.978137
_cell_angle_alpha 90.000000
_cell_angle_beta 149.224977
_cell_angle_gamma 90.000000
_cell_volume 1591.433999
_symmetry_space_group_name_H-M "P 21/M"
_symmetry_group_IT_number 11
_symmetry_cell_setting 'monoclinic'
loop_
_space_group_symop_operation_xyz
x,y,z
-x,1/2+y,-z
-x,-y,-z
x,1/2-y,z
loop_
_atom_site_type_symbol
_atom_site_label
_atom_site_fract_x
_atom_site_fract_y
_atom_site_fract_z
Si Si1 0.731868 0.119361 0.274680
Si Si2 0.338066 0.925082 0.213139
Si Si3 0.379757 0.948495 0.504449
Si Si4 0.482948 0.171096 0.192792
Si Si5 0.554584 0.337540 0.886472
Si Si6 0.973907 0.515506 0.760306
Si Si7 0.111711 0.108830 0.757242
Si Si8 0.254370 0.448956 0.674614
O O1 0.567677 0.168028 0.156131
O O2 0.923237 0.146509 0.524185
O O3 0.680174 0.034357 0.253475
O O4 0.732775 0.140616 0.143614
O O5 0.378193 0.907062 0.383623
O O6 0.410676 0.860208 0.206602
O O7 0.444900 0.000223 0.296589
O O8 0.120088 0.934407 0.975439
O O9 0.400185 0.886415 0.617178
O O10 0.195795 0.996165 0.332915
O O11 0.517769 0.250000 0.284314
O O12 0.264668 0.164381 0.957883
O O13 0.507056 0.250000 0.840767
O O14 0.401937 0.389348 0.787164
O O15 0.907646 0.558439 0.581720
O O16 0.076156 0.441935 0.827429
O O17 0.182878 0.063136 0.724986
#
# Coordination Sequence:
#
# PCOD8077583 Si02
#       8
#     4   4   4   4   4   4   4   4
#     4  11  22  40  64  92 123 166 213 251 306 372
#     4  11  23  42  69  89 122 159 214 268 304 361
#     4  11  23  42  67  95 115 162 215 264 309 364
#     4  12  24  39  59  90 131 165 199 253 314 373
#     4  12  24  40  63  93 131 173 206 250 322 386
#     4  11  20  40  66  99 117 154 217 267 311 360
#     4  11  22  36  62  95 126 159 202 254 313 367
#     4  11  21  37  64  95 129 162 204 259 305 372
#
# _framework density 20.107651000000001
#
# number of rings (size 3 to 8) (size 9 to 14) (size 15 to 20)
#    0.000    0.750    6.250    4.125    0.000    1.500 
#    0.000    1.875    0.000    0.000    0.000    0.000 
#    0.000    0.000    0.000    0.000    0.000    0.000 
#
# Total GULP energy -396582.930682 kJ/mol
# GULP energy per Si atom -12393.216584 kJ/mol
# Density = 2.006189 g / cm^3
# Si number density = 20.107651 Si / 1000 Ang^3
#
#
#
# Elastic Constant Matrix: (Units=GPa)
#
#
# Indices 1 2 3 4 5 6 
#
# 1 78.3333 18.5671 21.3751 0.0000 -1.6735 0.0000
# 2 18.5671 82.8935 35.4832 0.0000 -4.9176 0.0000
# 3 21.3751 35.4832 86.7256 0.0000 5.4140 0.0000
# 4 0.0000 0.0000 0.0000 13.7074 0.0000 -3.9054
# 5 -1.6735 -4.9176 5.4140 0.0000 35.9659 0.0000
# 6 0.0000 0.0000 0.0000 -3.9054 0.0000 8.1646
#
#
#
# Elastic Compliance Matrix: (Units=1/GPa)
#
#
# Indices 1 2 3 4 5 6 
#
# 1 0.013978 -0.001925 -0.002707 0.000000 0.000795 0.000000
# 2 -0.001925 0.015202 -0.005925 0.000000 0.002881 0.000000
# 3 -0.002707 -0.005925 0.014820 0.000000 -0.003167 0.000000
# 4 0.000000 0.000000 0.000000 0.084464 0.000000 0.040401
# 5 0.000795 0.002881 -0.003167 0.000000 0.028712 0.000000
# 6 0.000000 0.000000 0.000000 0.040401 0.000000 0.141805
#
#
# Mechanical properties :
#
#
# Convention : Reuss Voigt Hill
#
# Bulk Modulus (GPa) = 43.69641 44.31149 44.00395
# Shear Modulus (GPa) = 15.25677 23.06938 19.16308
#
# Velocity S-wave (km/s) = 2.75754 3.39085 3.09046
# Velocity P-wave (km/s) = 5.64952 6.11682 5.88781
#
# Compressibility (1/GPa) = 0.02288518
#
# Stress axis : x y z
#
# Youngs Moduli (GPa) = 71.54148 65.78048 67.47717
#
# Poissons Ratio (x) = 0.12662 0.18267
# Poissons Ratio (y) = 0.13771 0.39982
# Poissons Ratio (z) = 0.19367 0.38977
#
# Static dielectric constant tensor:
#      x y z
#    x 3.705670 0.000000 0.030510 
#    y 0.000000 3.350360 0.000000 
#    z 0.030510 0.000000 3.838430 
# 
# 
# High freq. dielectric constant tensor:
#      x y z
#    x 1.787340 0.000000 0.002120 
#    y 0.000000 1.752320 0.000000 
#    z 0.002120 0.000000 1.797990 
# 
# From -- ./inp_files/39956.got.cif
#   From: 2010.06.25/outbox.cif.g09.slc.cpg/sg11_20_cif.got.tgz:39956.got - 2010.06.27 23:14:04.
