data_PCOD8077078
_publ_section_title
;
Structure prediction by ZEFSAII (Michael W. Deem and Ramdas Pophale) SiO2 
 PCOD8077078
Probable space group: P 21/M
;
_chemical_formula_sum "Si O2"
_cell_formula_units_Z 32
_cell_length_a 9.347260
_cell_length_b 14.681940
_cell_length_c 11.009812
_cell_angle_alpha 90.000000
_cell_angle_beta 92.887512
_cell_angle_gamma 90.000000
_cell_volume 1509.023223
_symmetry_space_group_name_H-M "P 21/M"
_symmetry_group_IT_number 11
_symmetry_cell_setting 'monoclinic'
loop_
_space_group_symop_operation_xyz
x,y,z
-x,1/2+y,-z
-x,-y,-z
x,1/2-y,z
loop_
_atom_site_type_symbol
_atom_site_label
_atom_site_fract_x
_atom_site_fract_y
_atom_site_fract_z
Si Si1 0.602425 0.508893 0.283779
Si Si2 0.333241 0.147250 0.915686
Si Si3 0.865935 0.449836 0.436529
Si Si4 0.711142 0.475629 0.657664
Si Si5 0.910879 0.854387 0.709252
Si Si6 0.758130 0.149536 0.886872
Si Si7 0.572432 0.146770 0.101599
Si Si8 0.960377 0.895880 0.990522
O O1 0.589504 0.587240 0.183015
O O2 0.753917 0.516592 0.360962
O O3 0.461172 0.516197 0.362415
O O4 0.599982 0.409796 0.222979
O O5 0.345617 0.250000 0.868522
O O6 0.408381 0.137376 0.050777
O O7 0.172244 0.117621 0.926475
O O8 0.770750 0.414910 0.547051
O O9 0.000000 0.500000 0.500000
O O10 0.935420 0.374210 0.350698
O O11 0.785824 0.576070 0.660726
O O12 0.755835 0.423560 0.780564
O O13 0.865767 0.750000 0.676596
O O14 0.933571 0.862680 0.853543
O O15 0.700409 0.250000 0.844310
O O16 0.665204 0.108784 0.993148
O O17 0.917037 0.164087 0.943553
O O18 0.615241 0.250000 0.134571
O O19 0.000000 0.000000 0.000000
#
# Coordination Sequence:
#
# PCOD8077078 Si02
#       8
#     4   4   4   4   4   4   4   4
#     4  12  23  40  69  94 130 177 213 264 330 385
#     4  11  23  38  60  99 137 167 206 256 327 405
#     4  10  25  46  64  91 123 169 227 278 319 376
#     4  11  24  42  66  92 129 170 224 272 323 383
#     4  11  23  43  67  94 131 171 219 275 329 386
#     4  11  22  38  60  93 131 171 214 265 324 389
#     4  10  22  39  62  98 136 166 208 261 324 398
#     4  12  22  37  62  95 132 168 209 268 327 395
#
# _framework density 21.205769
#
# number of rings (size 3 to 8) (size 9 to 14) (size 15 to 20)
#    0.000    1.000    2.500    4.875    1.750    3.500 
#    0.000    2.500    0.000    4.500    0.000    0.000 
#    0.000    0.000    0.000    0.000    0.000    0.000 
#
# Total GULP energy -396678.930708 kJ/mol
# GULP energy per Si atom -12396.216585 kJ/mol
# Density = 2.115750 g / cm^3
# Si number density = 21.205769 Si / 1000 Ang^3
#
#
#
# Elastic Constant Matrix: (Units=GPa)
#
#
# Indices 1 2 3 4 5 6 
#
# 1 134.6190 31.1586 34.0982 0.0000 -7.4180 0.0000
# 2 31.1586 92.8231 20.4185 0.0000 -6.3749 0.0000
# 3 34.0982 20.4185 77.3540 0.0000 -15.3979 0.0000
# 4 0.0000 0.0000 0.0000 8.8766 0.0000 1.3256
# 5 -7.4180 -6.3749 -15.3979 0.0000 42.0167 0.0000
# 6 0.0000 0.0000 0.0000 1.3256 0.0000 24.0800
#
#
#
# Elastic Compliance Matrix: (Units=1/GPa)
#
#
# Indices 1 2 3 4 5 6 
#
# 1 0.008774 -0.002223 -0.003279 0.000000 0.000010 0.000000
# 2 -0.002223 0.012019 -0.002058 0.000000 0.000677 0.000000
# 3 -0.003279 -0.002058 0.015898 0.000000 0.004935 0.000000
# 4 0.000000 0.000000 0.000000 0.113590 0.000000 -0.006253
# 5 0.000010 0.000677 0.004935 0.000000 0.025713 0.000000
# 6 0.000000 0.000000 0.000000 -0.006253 0.000000 0.041872
#
#
# Mechanical properties :
#
#
# Convention : Reuss Voigt Hill
#
# Bulk Modulus (GPa) = 46.35725 52.90519 49.63122
# Shear Modulus (GPa) = 20.81802 29.60270 25.21036
#
# Velocity S-wave (km/s) = 3.13663 3.74033 3.45170
# Velocity P-wave (km/s) = 5.91828 6.60727 6.27225
#
# Compressibility (1/GPa) = 0.02157160
#
# Stress axis : x y z
#
# Youngs Moduli (GPa) = 113.97273 83.20435 62.89932
#
# Poissons Ratio (x) = 0.18499 0.20623
# Poissons Ratio (y) = 0.25340 0.12942
# Poissons Ratio (z) = 0.37369 0.17121
#
# Static dielectric constant tensor:
#      x y z
#    x 4.179580 0.000000 -0.177110 
#    y 0.000000 3.824180 0.000000 
#    z -0.177110 0.000000 3.879040 
# 
# 
# High freq. dielectric constant tensor:
#      x y z
#    x 1.853390 0.000000 -0.009140 
#    y 0.000000 1.821030 0.000000 
#    z -0.009140 0.000000 1.820950 
# 
# From -- ./inp_files/18080.got.cif
#   From: 2010.06.25/outbox.cif.g09.slc.cpg/sg11_10_cif.got.tgz:18080.got - 2010.06.27 23:14:04.
