data_PCOD8077811
_publ_section_title
;
Structure prediction by ZEFSAII (Michael W. Deem and Ramdas Pophale) SiO2 
 PCOD8077811
Probable space group: P 21/M
;
_chemical_formula_sum "Si O2"
_cell_formula_units_Z 28
_cell_length_a 23.963256
_cell_length_b 8.848720
_cell_length_c 23.963234
_cell_angle_alpha 90.000000
_cell_angle_beta 17.401030
_cell_angle_gamma 90.000000
_cell_volume 1519.592200
_symmetry_space_group_name_H-M "P 21/M"
_symmetry_group_IT_number 11
_symmetry_cell_setting 'monoclinic'
loop_
_space_group_symop_operation_xyz
x,y,z
-x,1/2+y,-z
-x,-y,-z
x,1/2-y,z
loop_
_atom_site_type_symbol
_atom_site_label
_atom_site_fract_x
_atom_site_fract_y
_atom_site_fract_z
Si Si1 0.369062 0.571255 0.780769
Si Si2 0.219231 0.071255 0.630938
Si Si3 0.120690 0.927773 0.120690
Si Si4 0.969445 0.429394 0.969446
Si Si5 0.819036 0.928207 0.819037
Si Si6 0.932971 0.577694 0.507757
Si Si7 0.507757 0.922306 0.932971
O O1 0.381713 0.750000 0.765136
O O2 0.575426 0.499116 0.575426
O O3 0.285647 0.526723 0.920545
O O4 0.229397 0.514142 0.865430
O O5 0.234863 0.250000 0.618287
O O6 0.079455 0.026722 0.714353
O O7 0.134570 0.014142 0.770603
O O8 0.128058 0.750000 0.128060
O O9 0.148514 0.026754 0.148513
O O10 0.971852 0.250000 0.971854
O O11 0.000000 0.500000 0.000000
O O12 0.815693 0.750000 0.815694
O O13 0.985940 0.993033 0.622824
O O14 0.622824 0.993033 0.985940
O O15 0.003394 0.750000 0.441355
O O16 0.712258 0.568596 0.712258
O O17 0.000000 0.500000 0.500000
O O18 0.441356 0.750000 0.003394
O O19 0.500000 0.000000 0.000000
#
# Coordination Sequence:
#
# PCOD8077811 Si02
#       7
#     4   4   4   4   4   4   4
#     4   8  15  30  52  74  99 135 177 222 269 316
#     4   8  15  30  52  74  99 135 177 222 269 316
#     4   9  18  34  55  77  99 130 180 232 270 314
#     4   9  17  29  47  74 106 138 174 214 260 316
#     4  12  25  39  57  83 117 152 181 220 276 340
#     4  11  23  39  61  85 110 142 181 225 273 325
#     4  11  23  39  61  85 110 142 181 225 273 325
#
# _framework density 18.425996000000001
#
# number of rings (size 3 to 8) (size 9 to 14) (size 15 to 20)
#    0.000    2.286    1.429    3.857    0.000    3.429 
#    0.000    5.714    0.000    1.714    0.000    0.000 
#    0.000    0.000    0.000    0.000    0.000    0.000 
#
# Total GULP energy -347159.946818 kJ/mol
# GULP energy per Si atom -12398.569529 kJ/mol
# Density = 1.838406 g / cm^3
# Si number density = 18.425996 Si / 1000 Ang^3
#
#
#
# Elastic Constant Matrix: (Units=GPa)
#
#
# Indices 1 2 3 4 5 6 
#
# 1 151.2590 53.3037 77.7559 0.0000 5.7796 0.0000
# 2 53.3037 98.1474 45.1313 0.0000 1.4871 0.0000
# 3 77.7559 45.1313 159.7608 0.0000 -7.3280 0.0000
# 4 0.0000 0.0000 0.0000 18.0540 0.0000 3.2401
# 5 5.7796 1.4871 -7.3280 0.0000 23.2560 0.0000
# 6 0.0000 0.0000 0.0000 3.2401 0.0000 35.8587
#
#
#
# Elastic Compliance Matrix: (Units=1/GPa)
#
#
# Indices 1 2 3 4 5 6 
#
# 1 0.010093 -0.003555 -0.004072 0.000000 -0.003564 0.000000
# 2 -0.003555 0.013038 -0.001979 0.000000 -0.000574 0.000000
# 3 -0.004072 -0.001979 0.008982 0.000000 0.003969 0.000000
# 4 0.000000 0.000000 0.000000 0.056302 0.000000 -0.005087
# 5 -0.003564 -0.000574 0.003969 0.000000 0.045173 0.000000
# 6 0.000000 0.000000 0.000000 -0.005087 0.000000 0.028347
#
#
# Mechanical properties :
#
#
# Convention : Reuss Voigt Hill
#
# Bulk Modulus (GPa) = 77.50941 84.61657 81.06299
# Shear Modulus (GPa) = 26.96167 30.96549 28.96358
#
# Velocity S-wave (km/s) = 3.82938 4.10388 3.96900
# Velocity P-wave (km/s) = 7.85549 8.27513 8.06804
#
# Compressibility (1/GPa) = 0.01290166
#
# Stress axis : x y z
#
# Youngs Moduli (GPa) = 99.07582 76.69598 111.33247
#
# Poissons Ratio (x) = 0.27269 0.45329
# Poissons Ratio (y) = 0.35226 0.22035
# Poissons Ratio (z) = 0.40339 0.15179
#
# Static dielectric constant tensor:
#      x y z
#    x 3.425750 0.000000 -0.071610 
#    y 0.000000 3.215910 0.000000 
#    z -0.071610 0.000000 3.819160 
# 
# 
# High freq. dielectric constant tensor:
#      x y z
#    x 1.716420 0.000000 -0.002300 
#    y 0.000000 1.689380 0.000000 
#    z -0.002300 0.000000 1.729070 
# 
# From -- ./inp_files/69910.got.cif
#   From: 2010.06.25/outbox.cif.g09.slc.cpg/sg11_35_cif.got.tgz:69910.got - 2010.06.27 23:14:04.
