data_PCOD8077054
_publ_section_title
;
Structure prediction by ZEFSAII (Michael W. Deem and Ramdas Pophale) SiO2 
 PCOD8077054
Probable space group: P 21/M
;
_chemical_formula_sum "Si O2"
_cell_formula_units_Z 28
_cell_length_a 17.316772
_cell_length_b 12.649638
_cell_length_c 20.628770
_cell_angle_alpha 90.000000
_cell_angle_beta 161.448650
_cell_angle_gamma 90.000000
_cell_volume 1437.660566
_symmetry_space_group_name_H-M "P 21/M"
_symmetry_group_IT_number 11
_symmetry_cell_setting 'monoclinic'
loop_
_space_group_symop_operation_xyz
x,y,z
-x,1/2+y,-z
-x,-y,-z
x,1/2-y,z
loop_
_atom_site_type_symbol
_atom_site_label
_atom_site_fract_x
_atom_site_fract_y
_atom_site_fract_z
Si Si1 0.314841 0.627497 0.638811
Si Si2 0.458560 0.049102 0.570050
Si Si3 0.152915 0.493377 0.768865
Si Si4 0.634165 0.371980 0.170495
Si Si5 0.258445 0.628755 0.325145
Si Si6 0.762341 0.516594 0.931752
Si Si7 0.053323 0.628163 0.811045
O O1 0.282778 0.750000 0.596643
O O2 0.295783 0.606229 0.699855
O O3 0.573454 0.589817 0.819043
O O4 0.107343 0.562587 0.436766
O O5 0.570994 0.116546 0.601336
O O6 0.236693 0.115398 0.423121
O O7 0.366542 0.935089 0.472012
O O8 0.659273 0.032298 0.784175
O O9 0.179665 0.561279 0.724796
O O10 0.179387 0.569805 0.851295
O O11 0.358125 0.404026 0.935841
O O12 0.663864 0.250000 0.175876
O O13 0.249461 0.750000 0.339673
O O14 0.990561 0.588663 0.094606
O O15 0.843136 0.418371 0.039955
O O16 0.127075 0.750000 0.865906
#
# Coordination Sequence:
#
# PCOD8077054 Si02
#       7
#     4   4   4   4   4   4   4
#     4  11  22  38  61  90 122 159 197 245 301 351
#     4  10  22  42  61  86 126 155 200 252 297 361
#     4  11  21  40  61  86 123 154 206 246 290 359
#     4  10  22  39  61  87 119 158 197 248 300 347
#     4  10  22  39  63  91 118 158 202 247 301 356
#     4  11  22  41  59  92 124 157 201 252 293 362
#     4  11  23  39  61  88 121 163 204 249 304 354
#
# _framework density 19.476085000000001
#
# number of rings (size 3 to 8) (size 9 to 14) (size 15 to 20)
#    0.000    1.429    2.857    2.571    0.000    2.286 
#    0.000    0.000    0.000    0.000    0.000    0.000 
#    0.000    0.000    0.000    0.000    0.000    0.000 
#
# Total GULP energy -347400.938602 kJ/mol
# GULP energy per Si atom -12407.176379 kJ/mol
# Density = 1.943176 g / cm^3
# Si number density = 19.476085 Si / 1000 Ang^3
#
#
#
# Elastic Constant Matrix: (Units=GPa)
#
#
# Indices 1 2 3 4 5 6 
#
# 1 48.3640 15.5630 8.7982 0.0000 0.4441 0.0000
# 2 15.5630 96.5296 23.8568 0.0000 -10.8183 0.0000
# 3 8.7982 23.8568 85.8669 0.0000 -3.5185 0.0000
# 4 0.0000 0.0000 0.0000 15.7896 0.0000 -0.7446
# 5 0.4441 -10.8183 -3.5185 0.0000 36.0321 0.0000
# 6 0.0000 0.0000 0.0000 -0.7446 0.0000 22.1487
#
#
#
# Elastic Compliance Matrix: (Units=1/GPa)
#
#
# Indices 1 2 3 4 5 6 
#
# 1 0.022024 -0.003369 -0.001379 0.000000 -0.001418 0.000000
# 2 -0.003369 0.011983 -0.002846 0.000000 0.003361 0.000000
# 3 -0.001379 -0.002846 0.012594 0.000000 0.000392 0.000000
# 4 0.000000 0.000000 0.000000 0.063433 0.000000 0.002132
# 5 -0.001418 0.003361 0.000392 0.000000 0.028818 0.000000
# 6 0.000000 0.000000 0.000000 0.002132 0.000000 0.045221
#
#
# Mechanical properties :
#
#
# Convention : Reuss Voigt Hill
#
# Bulk Modulus (GPa) = 31.83371 36.35514 34.09443
# Shear Modulus (GPa) = 23.83984 26.96360 25.40172
#
# Velocity S-wave (km/s) = 3.50245 3.72485 3.61536
# Velocity P-wave (km/s) = 5.72160 6.09971 5.91368
#
# Compressibility (1/GPa) = 0.03141324
#
# Stress axis : x y z
#
# Youngs Moduli (GPa) = 45.40400 83.45260 79.40241
#
# Poissons Ratio (x) = 0.28115 0.10948
# Poissons Ratio (y) = 0.15297 0.22600
# Poissons Ratio (z) = 0.06260 0.23753
#
# Static dielectric constant tensor:
#      x y z
#    x 3.587950 0.000000 0.049750 
#    y 0.000000 3.525790 0.000000 
#    z 0.049750 0.000000 3.513090 
# 
# 
# High freq. dielectric constant tensor:
#      x y z
#    x 1.770890 0.000000 0.003640 
#    y 0.000000 1.760610 0.000000 
#    z 0.003640 0.000000 1.761720 
# 
# From -- ./inp_files/61462.got.cif
#   From: 2010.06.25/outbox.cif.g09.slc.cpg/sg11_31_cif.got.tgz:61462.got - 2010.06.27 23:14:04.
