data_PCOD8077112
_publ_section_title
;
Structure prediction by ZEFSAII (Michael W. Deem and Ramdas Pophale) SiO2 
 PCOD8077112
Probable space group: P 21/M
;
_chemical_formula_sum "Si O2"
_cell_formula_units_Z 32
_cell_length_a 27.584563
_cell_length_b 9.019766
_cell_length_c 11.827646
_cell_angle_alpha 90.000000
_cell_angle_beta 32.910726
_cell_angle_gamma 90.000000
_cell_volume 1598.912425
_symmetry_space_group_name_H-M "P 21/M"
_symmetry_group_IT_number 11
_symmetry_cell_setting 'monoclinic'
loop_
_space_group_symop_operation_xyz
x,y,z
-x,1/2+y,-z
-x,-y,-z
x,1/2-y,z
loop_
_atom_site_type_symbol
_atom_site_label
_atom_site_fract_x
_atom_site_fract_y
_atom_site_fract_z
Si Si1 0.721724 0.921372 0.524781
Si Si2 0.418914 0.424901 0.594439
Si Si3 0.076223 0.075263 0.925720
Si Si4 0.117755 0.918536 0.308219
Si Si5 0.055112 0.075102 0.223482
Si Si6 0.415397 0.579384 0.365171
Si Si7 0.312701 0.918737 0.975639
Si Si8 0.614783 0.917367 0.956988
O O1 0.708097 0.750000 0.515524
O O2 0.825906 0.965597 0.314345
O O3 0.685959 0.950516 0.720334
O O4 0.664360 0.026985 0.557763
O O5 0.500000 0.500000 0.500000
O O6 0.428746 0.250000 0.579970
O O7 0.413657 0.476675 0.477222
O O8 0.330777 0.478394 0.831959
O O9 0.059277 0.250000 0.954631
O O10 0.070066 0.015350 0.066964
O O11 0.000000 0.000000 0.000000
O O12 0.097482 0.750000 0.313716
O O13 0.041519 0.978320 0.541962
O O14 0.125688 0.007893 0.174509
O O15 0.207723 0.933066 0.204402
O O16 0.066997 0.250000 0.200100
O O17 0.398533 0.750000 0.431467
O O18 0.512476 0.561079 0.114902
O O19 0.341008 0.750000 0.893979
O O20 0.368002 0.969886 0.975637
O O21 0.627414 0.750000 0.977799
#
# Coordination Sequence:
#
# PCOD8077112 Si02
#       8
#     4   4   4   4   4   4   4   4
#     4  10  23  42  62  90 122 160 208 254 302 361
#     4  12  24  40  61  87 122 161 198 242 297 356
#     4  10  23  41  62  88 120 157 201 249 302 359
#     4   9  20  37  58  87 118 151 197 247 294 355
#     4   9  19  38  60  84 117 155 196 243 300 359
#     4  11  23  40  63  91 121 160 204 251 304 362
#     4  11  23  37  59  90 122 158 202 249 300 359
#     4  10  22  40  61  86 123 163 206 252 300 359
#
# _framework density 20.013604000000001
#
# number of rings (size 3 to 8) (size 9 to 14) (size 15 to 20)
#    0.000    1.750    1.250    2.250    3.500    3.000 
#    0.000    0.000    0.000    0.000    0.000    0.000 
#    0.000    0.000    0.000    0.000    0.000    0.000 
#
# Total GULP energy -396799.046523 kJ/mol
# GULP energy per Si atom -12399.970204 kJ/mol
# Density = 1.996805 g / cm^3
# Si number density = 20.013604 Si / 1000 Ang^3
#
#
#
# Elastic Constant Matrix: (Units=GPa)
#
#
# Indices 1 2 3 4 5 6 
#
# 1 98.3410 45.6521 53.8613 0.0000 -6.4634 0.0000
# 2 45.6521 99.4711 45.4964 0.0000 -0.5548 0.0000
# 3 53.8613 45.4964 128.8791 0.0000 1.2306 0.0000
# 4 0.0000 0.0000 0.0000 25.9892 0.0000 0.1007
# 5 -6.4634 -0.5548 1.2306 0.0000 34.7914 0.0000
# 6 0.0000 0.0000 0.0000 0.1007 0.0000 37.4665
#
#
#
# Elastic Compliance Matrix: (Units=1/GPa)
#
#
# Indices 1 2 3 4 5 6 
#
# 1 0.015141 -0.004801 -0.004660 0.000000 0.002901 0.000000
# 2 -0.004801 0.013515 -0.002759 0.000000 -0.000579 0.000000
# 3 -0.004660 -0.002759 0.010693 0.000000 -0.001288 0.000000
# 4 0.000000 0.000000 0.000000 0.038478 0.000000 -0.000103
# 5 0.002901 -0.000579 -0.001288 0.000000 0.029318 0.000000
# 6 0.000000 0.000000 0.000000 -0.000103 0.000000 0.026691
#
#
# Mechanical properties :
#
#
# Convention : Reuss Voigt Hill
#
# Bulk Modulus (GPa) = 67.07817 68.52343 67.80080
# Shear Modulus (GPa) = 30.62853 31.76151 31.19502
#
# Velocity S-wave (km/s) = 3.91626 3.98803 3.95231
# Velocity P-wave (km/s) = 7.35109 7.45108 7.40125
#
# Compressibility (1/GPa) = 0.01490798
#
# Stress axis : x y z
#
# Youngs Moduli (GPa) = 66.04746 73.98999 93.51688
#
# Poissons Ratio (x) = 0.35522 0.43583
# Poissons Ratio (y) = 0.31709 0.25803
# Poissons Ratio (z) = 0.30781 0.20415
#
# Static dielectric constant tensor:
#      x y z
#    x 3.197670 0.000000 -0.082490 
#    y 0.000000 3.643550 0.000000 
#    z -0.082490 0.000000 4.001840 
# 
# 
# High freq. dielectric constant tensor:
#      x y z
#    x 1.775190 0.000000 -0.003460 
#    y 0.000000 1.779500 0.000000 
#    z -0.003460 0.000000 1.793260 
# 
# From -- ./inp_files/45184.got.cif
#   From: 2010.06.25/outbox.cif.g09.slc.cpg/sg11_23_cif.got.tgz:45184.got - 2010.06.27 23:14:04.
