data_PCOD8077017
_publ_section_title
;
Structure prediction by ZEFSAII (Michael W. Deem and Ramdas Pophale) SiO2 
 PCOD8077017
Probable space group: P 21/M
;
_chemical_formula_sum "Si O2"
_cell_formula_units_Z 22
_cell_length_a 8.703149
_cell_length_b 19.795201
_cell_length_c 13.542664
_cell_angle_alpha 90.000000
_cell_angle_beta 149.950353
_cell_angle_gamma 90.000000
_cell_volume 1168.319412
_symmetry_space_group_name_H-M "P 21/M"
_symmetry_group_IT_number 11
_symmetry_cell_setting 'monoclinic'
loop_
_space_group_symop_operation_xyz
x,y,z
-x,1/2+y,-z
-x,-y,-z
x,1/2-y,z
loop_
_atom_site_type_symbol
_atom_site_label
_atom_site_fract_x
_atom_site_fract_y
_atom_site_fract_z
Si Si1 0.564633 0.750000 0.633469
Si Si2 0.772604 0.250000 0.939138
Si Si3 0.302649 0.868195 0.618508
Si Si4 0.583976 0.621878 0.187632
Si Si5 0.082534 0.750000 0.207910
Si Si6 0.692630 0.514485 0.887290
Si Si7 0.636039 0.630193 0.993536
O O1 0.460359 0.816429 0.632686
O O2 0.420218 0.750000 0.443782
O O3 0.931852 0.750000 0.824914
O O4 0.569682 0.184514 0.843680
O O5 0.898531 0.250000 0.898566
O O6 0.460632 0.941732 0.689307
O O7 0.369174 0.844970 0.769191
O O8 0.946024 0.872295 0.399924
O O9 0.470672 0.554665 0.176504
O O10 0.490955 0.621319 0.020875
O O11 0.908328 0.684028 0.149806
O O12 0.769854 0.558175 0.029018
O O13 0.000000 0.500000 0.000000
#
# Coordination Sequence:
#
# PCOD8077017 Si02
#       7
#     2   2   4   4   2   4   4
#     4  12  21  41  63  91 122 163 208 256 317 356
#     4  12  26  38  66  90 132 154 208 260 304 368
#     4  10  22  38  68  88 125 164 205 256 304 371
#     4  12  22  42  62  96 122 171 202 252 308 376
#     4  12  21  41  63  91 122 163 208 256 317 356
#     4  10  22  41  63  90 132 160 206 256 311 359
#     4  10  22  38  68  88 125 164 205 256 304 371
#
# _framework density 18.830468
#
# number of rings (size 3 to 8) (size 9 to 14) (size 15 to 20)
#    1.091    0.000    3.636    4.364    0.000    1.455 
#    0.000    0.909    0.000    0.000    0.000    0.000 
#    0.000    0.000    0.000    0.000    0.000    0.000 
#
# Total GULP energy -272755.751890 kJ/mol
# GULP energy per Si atom -12397.988722 kJ/mol
# Density = 1.878761 g / cm^3
# Si number density = 18.830468 Si / 1000 Ang^3
#
#
#
# Elastic Constant Matrix: (Units=GPa)
#
#
# Indices 1 2 3 4 5 6 
#
# 1 57.8455 23.3505 -1.2751 0.0000 6.7904 0.0000
# 2 23.3505 146.6098 19.8627 0.0000 20.0559 0.0000
# 3 -1.2751 19.8627 90.6441 0.0000 7.0019 0.0000
# 4 0.0000 0.0000 0.0000 16.4873 0.0000 19.0923
# 5 6.7904 20.0559 7.0019 0.0000 37.4151 0.0000
# 6 0.0000 0.0000 0.0000 19.0923 0.0000 2.5390
#
#
#
# Elastic Compliance Matrix: (Units=1/GPa)
#
#
# Indices 1 2 3 4 5 6 
#
# 1 0.018698 -0.002837 0.001044 0.000000 -0.002068 0.000000
# 2 -0.002837 0.007952 -0.001515 0.000000 -0.003464 0.000000
# 3 0.001044 -0.001515 0.011497 0.000000 -0.001529 0.000000
# 4 0.000000 0.000000 0.000000 -0.007869 0.000000 0.059173
# 5 -0.002068 -0.003464 -0.001529 0.000000 0.029246 0.000000
# 6 0.000000 0.000000 0.000000 0.059173 0.000000 -0.051099
#
#
# Mechanical properties :
#
#
# Convention : Reuss Voigt Hill
#
# Bulk Modulus (GPa) = 31.71288 42.10841 36.91065
# Shear Modulus (GPa) = 195.70098 28.16571 111.93334
#
# Velocity S-wave (km/s) = 10.20556 3.87169 7.71827
# Velocity P-wave (km/s) = 12.47995 6.51130 9.95355
#
# Compressibility (1/GPa) = 0.03153293
#
# Stress axis : x y z
#
# Youngs Moduli (GPa) = 53.48079 125.75900 86.98003
#
# Poissons Ratio (x) = 0.35673 -0.09084
# Poissons Ratio (y) = 0.15170 0.13175
# Poissons Ratio (z) = -0.05585 0.19049
#
# Static dielectric constant tensor:
#      x y z
#    x 3.488410 0.000000 0.082030 
#    y 0.000000 3.626080 0.000000 
#    z 0.082030 0.000000 3.625090 
# 
# 
# High freq. dielectric constant tensor:
#      x y z
#    x 1.724840 0.000000 -0.001100 
#    y 0.000000 1.747730 0.000000 
#    z -0.001100 0.000000 1.730620 
# 
# From -- ./inp_files/48074.got.cif
#   From: 2010.06.25/outbox.cif.g09.slc.cpg/sg11_25_cif.got.tgz:48074.got - 2010.06.27 23:14:04.
