data_PCOD8077300
_publ_section_title
;
Structure prediction by ZEFSAII (Michael W. Deem and Ramdas Pophale) SiO2 
 PCOD8077300
Probable space group: P 21/M
;
_chemical_formula_sum "Si O2"
_cell_formula_units_Z 28
_cell_length_a 12.554791
_cell_length_b 8.641403
_cell_length_c 14.544730
_cell_angle_alpha 90.000000
_cell_angle_beta 59.676810
_cell_angle_gamma 90.000000
_cell_volume 1362.092034
_symmetry_space_group_name_H-M "P 21/M"
_symmetry_group_IT_number 11
_symmetry_cell_setting 'monoclinic'
loop_
_space_group_symop_operation_xyz
x,y,z
-x,1/2+y,-z
-x,-y,-z
x,1/2-y,z
loop_
_atom_site_type_symbol
_atom_site_label
_atom_site_fract_x
_atom_site_fract_y
_atom_site_fract_z
Si Si1 0.460870 0.433366 0.294778
Si Si2 0.963229 0.566712 0.113037
Si Si3 0.040834 0.425483 0.575993
Si Si4 0.691492 0.566653 0.288007
Si Si5 0.847871 0.424854 0.817171
Si Si6 0.290380 0.567964 0.525914
Si Si7 0.593290 0.569805 0.887036
O O1 0.445532 0.250000 0.309957
O O2 0.599857 0.483404 0.257308
O O3 0.366006 0.515252 0.404405
O O4 0.430858 0.494409 0.205205
O O5 0.962429 0.750000 0.110419
O O6 0.828414 0.508180 0.202478
O O7 0.064367 0.507468 0.141478
O O8 0.000000 0.500000 0.000000
O O9 0.088695 0.250000 0.540589
O O10 0.147710 0.525244 0.575838
O O11 0.000000 0.500000 0.500000
O O12 0.920598 0.427437 0.690613
O O13 0.677078 0.750000 0.285508
O O14 0.657505 0.516893 0.406401
O O15 0.804934 0.250000 0.858904
O O16 0.730814 0.534200 0.860066
O O17 0.305274 0.750000 0.532888
O O18 0.570988 0.750000 0.896094
O O19 0.500000 0.500000 0.000000
#
# Coordination Sequence:
#
# PCOD8077300 Si02
#       7
#     4   4   4   4   4   4   4
#     4  11  25  44  65  93 129 170 215 266 320 380
#     4  10  23  42  65  95 128 167 209 261 319 376
#     4  11  22  39  63  93 130 170 211 261 316 376
#     4  11  23  43  67  95 131 170 212 262 321 383
#     4  10  22  43  66  91 128 167 206 257 317 374
#     4  12  24  40  64  96 130 170 214 261 319 382
#     4  11  26  45  67  94 126 167 214 264 317 376
#
# _framework density 20.556612999999999
#
# number of rings (size 3 to 8) (size 9 to 14) (size 15 to 20)
#    0.000    1.143    1.429    4.286    2.000    7.429 
#    0.000    0.000    0.000    0.000    0.000    0.000 
#    0.000    0.000    0.000    0.000    0.000    0.000 
#
# Total GULP energy -347361.651096 kJ/mol
# GULP energy per Si atom -12405.773253 kJ/mol
# Density = 2.050983 g / cm^3
# Si number density = 20.556613 Si / 1000 Ang^3
#
#
#
# Elastic Constant Matrix: (Units=GPa)
#
#
# Indices 1 2 3 4 5 6 
#
# 1 127.8119 18.8754 48.2296 0.0000 -4.8554 0.0000
# 2 18.8754 44.1671 22.6153 0.0000 0.8852 0.0000
# 3 48.2296 22.6153 127.5699 0.0000 5.1920 0.0000
# 4 0.0000 0.0000 0.0000 36.4584 0.0000 -1.0037
# 5 -4.8554 0.8852 5.1920 0.0000 31.3935 0.0000
# 6 0.0000 0.0000 0.0000 -1.0037 0.0000 38.1614
#
#
#
# Elastic Compliance Matrix: (Units=1/GPa)
#
#
# Indices 1 2 3 4 5 6 
#
# 1 0.009484 -0.002437 -0.003238 0.000000 0.002071 0.000000
# 2 -0.002437 0.025528 -0.003584 0.000000 -0.000504 0.000000
# 3 -0.003238 -0.003584 0.009780 0.000000 -0.002017 0.000000
# 4 0.000000 0.000000 0.000000 0.027448 0.000000 0.000722
# 5 0.002071 -0.000504 -0.002017 0.000000 0.032522 0.000000
# 6 0.000000 0.000000 0.000000 0.000722 0.000000 0.026223
#
#
# Mechanical properties :
#
#
# Convention : Reuss Voigt Hill
#
# Bulk Modulus (GPa) = 38.05821 53.22106 45.63964
# Shear Modulus (GPa) = 31.59319 35.19125 33.39222
#
# Velocity S-wave (km/s) = 3.92457 4.14202 4.03476
# Velocity P-wave (km/s) = 6.25223 6.98723 6.62992
#
# Compressibility (1/GPa) = 0.02627554
#
# Stress axis : x y z
#
# Youngs Moduli (GPa) = 105.43625 39.17298 102.24499
#
# Poissons Ratio (x) = 0.09546 0.33107
# Poissons Ratio (y) = 0.25693 0.36642
# Poissons Ratio (z) = 0.34140 0.14039
#
# Static dielectric constant tensor:
#      x y z
#    x 3.969990 0.000000 0.043020 
#    y 0.000000 3.785470 0.000000 
#    z 0.043020 0.000000 3.784030 
# 
# 
# High freq. dielectric constant tensor:
#      x y z
#    x 1.820280 0.000000 0.002400 
#    y 0.000000 1.805280 0.000000 
#    z 0.002400 0.000000 1.813980 
# 
# From -- ./inp_files/49145.got.cif
#   From: 2010.06.25/outbox.cif.g09.slc.cpg/sg11_25_cif.got.tgz:49145.got - 2010.06.27 23:14:04.
