data_PCOD8077549
_publ_section_title
;
Structure prediction by ZEFSAII (Michael W. Deem and Ramdas Pophale) SiO2 
 PCOD8077549
Probable space group: P 21/M
;
_chemical_formula_sum "Si O2"
_cell_formula_units_Z 32
_cell_length_a 10.965777
_cell_length_b 34.133042
_cell_length_c 5.159301
_cell_angle_alpha 90.000000
_cell_angle_beta 115.000138
_cell_angle_gamma 90.000000
_cell_volume 1750.171045
_symmetry_space_group_name_H-M "P 21/M"
_symmetry_group_IT_number 11
_symmetry_cell_setting 'monoclinic'
loop_
_space_group_symop_operation_xyz
x,y,z
-x,1/2+y,-z
-x,-y,-z
x,1/2-y,z
loop_
_atom_site_type_symbol
_atom_site_label
_atom_site_fract_x
_atom_site_fract_y
_atom_site_fract_z
Si Si1 0.015474 0.838030 0.023334
Si Si2 0.110370 0.968010 0.543661
Si Si3 0.973296 0.425798 0.038716
Si Si4 0.291714 0.069589 0.277345
Si Si5 0.695844 0.840432 0.732017
Si Si6 0.360634 0.021299 0.829023
Si Si7 0.013796 0.706067 0.521165
Si Si8 0.307419 0.294662 0.770960
O O1 0.068993 0.882027 0.071459
O O2 0.855489 0.837751 0.877979
O O3 0.071724 0.815025 0.826405
O O4 0.072575 0.816763 0.327805
O O5 0.089727 0.933805 0.735629
O O6 0.256782 0.986120 0.699512
O O7 0.000000 0.000000 0.500000
O O8 0.092871 0.953531 0.234824
O O9 0.133288 0.431739 0.194926
O O10 0.347073 0.114023 0.310953
O O11 0.368960 0.047731 0.578457
O O12 0.320053 0.048809 0.031163
O O13 0.637589 0.817574 0.430938
O O14 0.637289 0.818447 0.931511
O O15 0.500000 0.000000 0.000000
O O16 0.069615 0.750000 0.565394
O O17 0.853161 0.705814 0.374114
O O18 0.361994 0.250000 0.823140
#
# Coordination Sequence:
#
# PCOD8077549 Si02
#       8
#     4   4   4   4   4   4   4   4
#     4   9  17  26  39  64  92 120 167 205 241 287
#     4  12  21  36  56  76 101 131 173 215 262 304
#     4  11  20  33  54  77  98 132 171 223 258 300
#     4  11  20  36  53  73 102 133 177 216 252 310
#     4   9  17  26  42  63  88 129 165 200 243 290
#     4  12  25  38  54  76 103 137 171 219 264 311
#     4   9  15  24  37  56  90 134 165 191 233 297
#     4   9  15  24  37  60  92 127 165 198 235 292
#
# _framework density 18.283926999999998
#
# number of rings (size 3 to 8) (size 9 to 14) (size 15 to 20)
#    0.000    1.750    2.500    3.750    0.000    7.000 
#    0.000    0.000    0.000    0.000    0.000    0.000 
#    0.000    0.000    0.000   78.750    0.000   35.000 
#
# Total GULP energy -396824.327022 kJ/mol
# GULP energy per Si atom -12400.760219 kJ/mol
# Density = 1.824231 g / cm^3
# Si number density = 18.283927 Si / 1000 Ang^3
#
#
#
# Elastic Constant Matrix: (Units=GPa)
#
#
# Indices 1 2 3 4 5 6 
#
# 1 20.3874 14.9934 23.0063 0.0000 -3.4658 0.0000
# 2 14.9934 126.1829 44.8222 0.0000 -6.0247 0.0000
# 3 23.0063 44.8222 90.6480 0.0000 -25.4668 0.0000
# 4 0.0000 0.0000 0.0000 33.2996 0.0000 -16.2703
# 5 -3.4658 -6.0247 -25.4668 0.0000 36.3476 0.0000
# 6 0.0000 0.0000 0.0000 -16.2703 0.0000 18.6496
#
#
#
# Elastic Compliance Matrix: (Units=1/GPa)
#
#
# Indices 1 2 3 4 5 6 
#
# 1 0.070641 -0.002028 -0.018836 0.000000 -0.006797 0.000000
# 2 -0.002028 0.009810 -0.004898 0.000000 -0.001999 0.000000
# 3 -0.018836 -0.004898 0.021791 0.000000 0.012660 0.000000
# 4 0.000000 0.000000 0.000000 0.052342 0.000000 0.045664
# 5 -0.006797 -0.001999 0.012660 0.000000 0.035403 0.000000
# 6 0.000000 0.000000 0.000000 0.045664 0.000000 0.093459
#
#
# Mechanical properties :
#
#
# Convention : Reuss Voigt Hill
#
# Bulk Modulus (GPa) = 19.71630 44.76246 32.23938
# Shear Modulus (GPa) = 14.20968 27.95245 21.08106
#
# Velocity S-wave (km/s) = 2.79080 3.91423 3.39924
# Velocity P-wave (km/s) = 4.60343 6.70546 5.75130
#
# Compressibility (1/GPa) = 0.05071945
#
# Stress axis : x y z
#
# Youngs Moduli (GPa) = 14.15617 101.93410 45.89151
#
# Poissons Ratio (x) = 0.20668 0.86439
# Poissons Ratio (y) = 0.02870 0.22477
# Poissons Ratio (z) = 0.26664 0.49925
#
# Static dielectric constant tensor:
#      x y z
#    x 5.315580 0.000000 -2.681990 
#    y 0.000000 3.566060 0.000000 
#    z -2.681990 0.000000 5.496300 
# 
# 
# High freq. dielectric constant tensor:
#      x y z
#    x 1.656720 0.000000 -0.049000 
#    y 0.000000 1.728790 0.000000 
#    z -0.049000 0.000000 1.703230 
# 
# From -- ./inp_files/5761.got.cif
#   From: 2010.06.25/outbox.cif.g09.slc.cpg/sg11_3_cif.got.tgz:5761.got - 2010.06.27 23:14:04.
