data_PCOD8077091
_publ_section_title
;
Structure prediction by ZEFSAII (Michael W. Deem and Ramdas Pophale) SiO2 
 PCOD8077091
Probable space group: P 21/M
;
_chemical_formula_sum "Si O2"
_cell_formula_units_Z 32
_cell_length_a 22.429571
_cell_length_b 9.637084
_cell_length_c 14.422864
_cell_angle_alpha 90.000000
_cell_angle_beta 29.973898
_cell_angle_gamma 90.000000
_cell_volume 1557.561695
_symmetry_space_group_name_H-M "P 21/M"
_symmetry_group_IT_number 11
_symmetry_cell_setting 'monoclinic'
loop_
_space_group_symop_operation_xyz
x,y,z
-x,1/2+y,-z
-x,-y,-z
x,1/2-y,z
loop_
_atom_site_type_symbol
_atom_site_label
_atom_site_fract_x
_atom_site_fract_y
_atom_site_fract_z
Si Si1 0.786875 0.532364 0.107015
Si Si2 0.990687 0.401833 0.925712
Si Si3 0.417342 0.411812 0.747970
Si Si4 0.638677 0.598097 0.474080
Si Si5 0.233672 0.090084 0.508650
Si Si6 0.213194 0.583110 0.366324
Si Si7 0.053366 0.402755 0.272836
Si Si8 0.744675 0.910961 0.864816
O O1 0.671280 0.500204 0.199437
O O2 0.742607 0.615273 0.257183
O O3 0.862523 0.402858 0.045424
O O4 0.882977 0.612205 0.913315
O O5 0.011591 0.250000 0.938618
O O6 0.093591 0.437795 0.713547
O O7 0.000000 0.500000 0.000000
O O8 0.421714 0.250000 0.709496
O O9 0.546061 0.481545 0.565764
O O10 0.373296 0.420782 0.913004
O O11 0.577885 0.750000 0.566909
O O12 0.694784 0.550173 0.495251
O O13 0.257247 0.250000 0.448013
O O14 0.277045 0.984499 0.370060
O O15 0.228227 0.750000 0.347201
O O16 0.275907 0.515043 0.192604
O O17 0.076299 0.525938 0.553177
O O18 0.027293 0.250000 0.344662
O O19 0.142880 0.470912 0.227303
O O20 0.763471 0.750000 0.808539
#
# Coordination Sequence:
#
# PCOD8077091 Si02
#       8
#     4   4   4   4   4   4   4   4
#     4  11  20  37  60  90 124 160 196 235 292 357
#     4  11  23  38  59  88 124 164 203 245 295 356
#     4  10  23  41  64  88 118 159 204 252 303 355
#     4  11  23  39  62  86 119 162 204 251 296 346
#     4  10  22  40  57  84 121 162 199 239 299 358
#     4  11  21  34  58  90 116 151 194 247 299 353
#     4   9  18  32  54  85 121 156 191 229 290 358
#     4   9  19  38  59  81 114 157 194 241 301 360
#
# _framework density 20.544934000000001
#
# number of rings (size 3 to 8) (size 9 to 14) (size 15 to 20)
#    0.000    1.750    2.500    3.000    0.000    3.500 
#    0.000    3.125    0.000    0.000    0.000    0.000 
#    0.000    0.000    0.000    0.000    0.000    0.000 
#
# Total GULP energy -396478.239604 kJ/mol
# GULP energy per Si atom -12389.944988 kJ/mol
# Density = 2.049817 g / cm^3
# Si number density = 20.544934 Si / 1000 Ang^3
#
#
#
# Elastic Constant Matrix: (Units=GPa)
#
#
# Indices 1 2 3 4 5 6 
#
# 1 116.4793 48.5051 35.3806 0.0000 13.9562 0.0000
# 2 48.5051 84.8484 28.3464 0.0000 10.7865 0.0000
# 3 35.3806 28.3464 55.2804 0.0000 4.4895 0.0000
# 4 0.0000 0.0000 0.0000 24.2167 0.0000 2.2933
# 5 13.9562 10.7865 4.4895 0.0000 39.0557 0.0000
# 6 0.0000 0.0000 0.0000 2.2933 0.0000 28.0139
#
#
#
# Elastic Compliance Matrix: (Units=1/GPa)
#
#
# Indices 1 2 3 4 5 6 
#
# 1 0.012616 -0.005148 -0.005233 0.000000 -0.002485 0.000000
# 2 -0.005148 0.016709 -0.005095 0.000000 -0.002189 0.000000
# 3 -0.005233 -0.005095 0.024010 0.000000 0.000517 0.000000
# 4 0.000000 0.000000 0.000000 0.041616 0.000000 -0.003407
# 5 -0.002485 -0.002189 0.000517 0.000000 0.027038 0.000000
# 6 0.000000 0.000000 0.000000 -0.003407 0.000000 0.035976
#
#
# Mechanical properties :
#
#
# Convention : Reuss Voigt Hill
#
# Bulk Modulus (GPa) = 44.67855 53.45246 49.06551
# Shear Modulus (GPa) = 25.46099 27.88232 26.67166
#
# Velocity S-wave (km/s) = 3.52416 3.68793 3.60698
# Velocity P-wave (km/s) = 6.19303 6.64893 6.42503
#
# Compressibility (1/GPa) = 0.02238210
#
# Stress axis : x y z
#
# Youngs Moduli (GPa) = 79.26233 59.84657 41.65000
#
# Poissons Ratio (x) = 0.30810 0.21796
# Poissons Ratio (y) = 0.40806 0.21222
# Poissons Ratio (z) = 0.41478 0.30494
#
# Static dielectric constant tensor:
#      x y z
#    x 3.758460 0.000000 0.028300 
#    y 0.000000 3.478670 0.000000 
#    z 0.028300 0.000000 3.628700 
# 
# 
# High freq. dielectric constant tensor:
#      x y z
#    x 1.807090 0.000000 0.009770 
#    y 0.000000 1.780810 0.000000 
#    z 0.009770 0.000000 1.792050 
# 
# From -- ./inp_files/55642.got.cif
#   From: 2010.06.25/outbox.cif.g09.slc.cpg/sg11_28_cif.got.tgz:55642.got - 2010.06.27 23:14:04.
