data_PCOD8077041
_publ_section_title
;
Structure prediction by ZEFSAII (Michael W. Deem and Ramdas Pophale) SiO2 
 PCOD8077041
Probable space group: P 21/M
;
_chemical_formula_sum "Si O2"
_cell_formula_units_Z 32
_cell_length_a 13.950559
_cell_length_b 19.762831
_cell_length_c 13.909009
_cell_angle_alpha 90.000000
_cell_angle_beta 21.455891
_cell_angle_gamma 90.000000
_cell_volume 1402.693084
_symmetry_space_group_name_H-M "P 21/M"
_symmetry_group_IT_number 11
_symmetry_cell_setting 'monoclinic'
loop_
_space_group_symop_operation_xyz
x,y,z
-x,1/2+y,-z
-x,-y,-z
x,1/2-y,z
loop_
_atom_site_type_symbol
_atom_site_label
_atom_site_fract_x
_atom_site_fract_y
_atom_site_fract_z
Si Si1 0.176991 0.558368 0.893920
Si Si2 0.973689 0.495122 0.365485
Si Si3 0.819065 0.094641 0.678273
Si Si4 0.411835 0.393934 0.347820
Si Si5 0.602017 0.378577 0.480984
Si Si6 0.212250 0.323858 0.716963
Si Si7 0.360897 0.330033 0.194773
Si Si8 0.132771 0.076014 0.034011
O O1 0.314864 0.578005 0.866419
O O2 0.386345 0.561066 0.610742
O O3 0.059752 0.482912 0.022140
O O4 0.962918 0.617316 0.071367
O O5 0.810513 0.444029 0.585152
O O6 0.772628 0.541468 0.494806
O O7 0.172429 0.539437 0.243965
O O8 0.145560 0.452823 0.129477
O O9 0.068541 0.143820 0.450792
O O10 0.553821 0.137885 0.935028
O O11 0.278835 0.341726 0.545431
O O12 0.467872 0.352447 0.198834
O O13 0.473304 0.316911 0.541010
O O14 0.897790 0.368020 0.246077
O O15 0.420188 0.396101 0.742232
O O16 0.074090 0.250000 0.845983
O O17 0.365917 0.250000 0.179797
#
# Coordination Sequence:
#
# PCOD8077041 Si02
#       8
#     4   4   4   4   4   4   4   4
#     4  11  22  38  62  93 131 167 202 262 315 383
#     4  10  22  42  66  97 135 160 211 273 333 392
#     4  10  24  42  66  97 131 172 205 264 341 383
#     4  10  22  39  60 101 129 169 205 259 326 392
#     4  11  25  39  61  91 126 166 211 257 311 364
#     4  11  24  42  61  89 132 176 211 255 316 386
#     4  11  23  41  65  94 131 171 217 255 307 396
#     4  12  22  38  64  93 124 160 213 266 315 367
#
# _framework density 22.813258999999999
#
# number of rings (size 3 to 8) (size 9 to 14) (size 15 to 20)
#    0.000    1.250    2.500    3.000    3.500   10.000 
#    0.000    0.000    0.000    4.500    0.000    0.000 
#    0.000    0.000    0.000    0.000    0.000    0.000 
#
# Total GULP energy -396726.750270 kJ/mol
# GULP energy per Si atom -12397.710946 kJ/mol
# Density = 2.276133 g / cm^3
# Si number density = 22.813259 Si / 1000 Ang^3
#
#
#
# Elastic Constant Matrix: (Units=GPa)
#
#
# Indices 1 2 3 4 5 6 
#
# 1 62.5783 25.2554 25.2040 0.0000 17.6489 0.0000
# 2 25.2554 100.2338 33.7656 0.0000 15.0418 0.0000
# 3 25.2040 33.7656 113.4277 0.0000 16.5292 0.0000
# 4 0.0000 0.0000 0.0000 25.4312 0.0000 3.0454
# 5 17.6489 15.0418 16.5292 0.0000 30.3501 0.0000
# 6 0.0000 0.0000 0.0000 3.0454 0.0000 15.8530
#
#
#
# Elastic Compliance Matrix: (Units=1/GPa)
#
#
# Indices 1 2 3 4 5 6 
#
# 1 0.020779 -0.003048 -0.002356 0.000000 -0.009289 0.000000
# 2 -0.003048 0.012006 -0.002485 0.000000 -0.002824 0.000000
# 3 -0.002356 -0.002485 0.010537 0.000000 -0.003137 0.000000
# 4 0.000000 0.000000 0.000000 0.040248 0.000000 -0.007732
# 5 -0.009289 -0.002824 -0.003137 0.000000 0.041459 0.000000
# 6 0.000000 0.000000 0.000000 -0.007732 0.000000 0.064565
#
#
# Mechanical properties :
#
#
# Convention : Reuss Voigt Hill
#
# Bulk Modulus (GPa) = 36.30686 49.40998 42.85842
# Shear Modulus (GPa) = 23.30446 27.12785 25.21615
#
# Velocity S-wave (km/s) = 3.19961 3.45211 3.32826
# Velocity P-wave (km/s) = 5.44053 6.13147 5.79630
#
# Compressibility (1/GPa) = 0.02754300
#
# Stress axis : x y z
#
# Youngs Moduli (GPa) = 48.12589 83.29450 94.90733
#
# Poissons Ratio (x) = 0.25386 0.22362
# Poissons Ratio (y) = 0.14668 0.23585
# Poissons Ratio (z) = 0.11339 0.20699
#
# Static dielectric constant tensor:
#      x y z
#    x 4.100410 0.000000 0.109840 
#    y 0.000000 3.824500 0.000000 
#    z 0.109840 0.000000 4.113630 
# 
# 
# High freq. dielectric constant tensor:
#      x y z
#    x 1.903210 0.000000 0.008440 
#    y 0.000000 1.869560 0.000000 
#    z 0.008440 0.000000 1.910050 
# 
# From -- ./inp_files/52679.got.cif
#   From: 2010.06.25/outbox.cif.g09.slc.cpg/sg11_27_cif.got.tgz:52679.got - 2010.06.27 23:14:04.
