data_PCOD8077792
_publ_section_title
;
Structure prediction by ZEFSAII (Michael W. Deem and Ramdas Pophale) SiO2 
 PCOD8077792
Probable space group: P 21/M
;
_chemical_formula_sum "Si O2"
_cell_formula_units_Z 28
_cell_length_a 18.107009
_cell_length_b 9.237381
_cell_length_c 19.828600
_cell_angle_alpha 90.000000
_cell_angle_beta 27.474735
_cell_angle_gamma 90.000000
_cell_volume 1530.118793
_symmetry_space_group_name_H-M "P 21/M"
_symmetry_group_IT_number 11
_symmetry_cell_setting 'monoclinic'
loop_
_space_group_symop_operation_xyz
x,y,z
-x,1/2+y,-z
-x,-y,-z
x,1/2-y,z
loop_
_atom_site_type_symbol
_atom_site_label
_atom_site_fract_x
_atom_site_fract_y
_atom_site_fract_z
Si Si1 0.765687 0.089283 0.175305
Si Si2 0.781161 0.585953 0.840605
Si Si3 0.929605 0.916258 0.856214
Si Si4 0.622407 0.419534 0.157966
Si Si5 0.904658 0.587050 0.173717
Si Si6 0.462424 0.582577 0.180508
Si Si7 0.151473 0.920035 0.347514
O O1 0.749522 0.250000 0.218739
O O2 0.618642 0.056988 0.242557
O O3 0.766795 0.979226 0.237139
O O4 0.927546 0.078087 0.000772
O O5 0.776146 0.750000 0.816106
O O6 0.926419 0.573178 0.777429
O O7 0.814932 0.472701 0.754948
O O8 0.610762 0.545817 0.011507
O O9 0.931492 0.750000 0.878824
O O10 0.081040 0.997872 0.767628
O O11 0.768839 0.990441 0.010742
O O12 0.643181 0.250000 0.124449
O O13 0.468041 0.485258 0.244516
O O14 0.854900 0.750000 0.231735
O O15 0.466645 0.750000 0.198612
O O16 0.301377 0.540669 0.272756
O O17 0.118669 0.750000 0.372277
O O18 0.000000 0.000000 0.500000
#
# Coordination Sequence:
#
# PCOD8077792 Si02
#       7
#     4   4   4   4   4   4   4
#     4   8  14  22  31  49  80 116 151 186 228 274
#     4   9  18  33  52  73  96 124 160 199 240 286
#     4   9  16  26  40  59  87 120 152 191 236 279
#     4   9  16  25  40  62  86 116 155 195 232 275
#     4   9  15  21  32  52  79 115 156 191 226 272
#     4   9  19  34  51  72  97 126 159 196 241 288
#     4  11  23  37  53  73  98 127 158 195 240 288
#
# _framework density 18.299233000000001
#
# number of rings (size 3 to 8) (size 9 to 14) (size 15 to 20)
#    0.000    2.857    0.000    3.857    0.000    8.000 
#    0.000    0.000    0.000    0.000    0.000    0.000 
#    0.000    1.143    0.000    3.714    0.000   10.000 
#
# Total GULP energy -346992.965906 kJ/mol
# GULP energy per Si atom -12392.605925 kJ/mol
# Density = 1.825758 g / cm^3
# Si number density = 18.299233 Si / 1000 Ang^3
#
#
#
# Elastic Constant Matrix: (Units=GPa)
#
#
# Indices 1 2 3 4 5 6 
#
# 1 166.0813 97.3808 38.8138 0.0000 -13.9552 0.0000
# 2 97.3808 137.0191 28.5741 0.0000 -6.5123 0.0000
# 3 38.8138 28.5741 37.1641 0.0000 -5.2102 0.0000
# 4 0.0000 0.0000 0.0000 15.7249 0.0000 -0.0922
# 5 -13.9552 -6.5123 -5.2102 0.0000 -0.1974 0.0000
# 6 0.0000 0.0000 0.0000 -0.0922 0.0000 41.6012
#
#
#
# Elastic Compliance Matrix: (Units=1/GPa)
#
#
# Indices 1 2 3 4 5 6 
#
# 1 0.007333 -0.005450 -0.010837 0.000000 -0.052561 0.000000
# 2 -0.005450 0.012259 -0.001366 0.000000 0.016889 0.000000
# 3 -0.010837 -0.001366 0.032551 0.000000 -0.047970 0.000000
# 4 0.000000 0.000000 0.000000 0.063594 0.000000 0.000141
# 5 -0.052561 0.016889 -0.047970 0.000000 -0.641094 0.000000
# 6 0.000000 0.000000 0.000000 0.000141 0.000000 0.024038
#
#
# Mechanical properties :
#
#
# Convention : Reuss Voigt Hill
#
# Bulk Modulus (GPa) = 59.39272 74.42242 66.90757
# Shear Modulus (GPa) = -10.86008 23.12547 6.13269
#
# Velocity S-wave (km/s) = -2.43877 3.55877 1.83265
# Velocity P-wave (km/s) = 4.95951 7.59239 6.41253
#
# Compressibility (1/GPa) = 0.01683708
#
# Stress axis : x y z
#
# Youngs Moduli (GPa) = 136.37803 81.57337 30.72104
#
# Poissons Ratio (x) = 0.44454 0.33292
# Poissons Ratio (y) = 0.74320 0.04197
# Poissons Ratio (z) = 1.47792 0.11145
#
# Static dielectric constant tensor:
#      x y z
#    x 4.106290 0.000000 -0.159400 
#    y 0.000000 3.541390 0.000000 
#    z -0.159400 0.000000 2.748370 
# 
# 
# High freq. dielectric constant tensor:
#      x y z
#    x 1.734650 0.000000 -0.010490 
#    y 0.000000 1.722190 0.000000 
#    z -0.010490 0.000000 1.624940 
# 
# From -- ./inp_files/61304.got.cif
#   From: 2010.06.25/outbox.cif.g09.slc.cpg/sg11_31_cif.got.tgz:61304.got - 2010.06.27 23:14:04.
