data_PCOD8077586
_publ_section_title
;
Structure prediction by ZEFSAII (Michael W. Deem and Ramdas Pophale) SiO2 
 PCOD8077586
Probable space group: P 21/M
;
_chemical_formula_sum "Si O2"
_cell_formula_units_Z 32
_cell_length_a 11.635105
_cell_length_b 17.775214
_cell_length_c 14.016125
_cell_angle_alpha 90.000000
_cell_angle_beta 147.815237
_cell_angle_gamma 90.000000
_cell_volume 1544.031074
_symmetry_space_group_name_H-M "P 21/M"
_symmetry_group_IT_number 11
_symmetry_cell_setting 'monoclinic'
loop_
_space_group_symop_operation_xyz
x,y,z
-x,1/2+y,-z
-x,-y,-z
x,1/2-y,z
loop_
_atom_site_type_symbol
_atom_site_label
_atom_site_fract_x
_atom_site_fract_y
_atom_site_fract_z
Si Si1 0.282169 0.336200 0.668445
Si Si2 0.084136 0.837776 0.733615
Si Si3 0.410488 0.061818 0.304123
Si Si4 0.456314 0.411994 0.969763
Si Si5 0.383957 0.604397 0.243832
Si Si6 0.172426 0.094812 0.949348
Si Si7 0.987104 0.933698 0.843031
Si Si8 0.722905 0.335206 0.630002
O O1 0.287066 0.250000 0.706648
O O2 0.302955 0.391224 0.773171
O O3 0.480280 0.348166 0.735885
O O4 0.057266 0.355611 0.459074
O O5 0.092504 0.750000 0.761660
O O6 0.970993 0.875581 0.745212
O O7 0.322239 0.867454 0.883778
O O8 0.618305 0.110216 0.477860
O O9 0.249984 0.053519 0.281268
O O10 0.488858 0.978411 0.330017
O O11 0.292734 0.103152 0.134344
O O12 0.341541 0.385964 0.985548
O O13 0.500000 0.500000 0.000000
O O14 0.379805 0.648944 0.339301
O O15 0.139457 0.596533 0.034552
O O16 0.979569 0.154399 0.810601
O O17 0.079324 0.011549 0.867649
O O18 0.668885 0.250000 0.563444
#
# Coordination Sequence:
#
# PCOD8077586 Si02
#       8
#     4   4   4   4   4   4   4   4
#     4  11  25  43  67 101 136 170 217 279 336 384
#     4  11  25  43  68 101 134 169 219 279 336 386
#     4  11  23  42  68  96 132 171 215 269 323 393
#     4  12  24  44  69  95 128 173 225 272 322 390
#     4  11  20  40  70  97 129 170 217 270 328 390
#     4  11  24  44  64  94 128 171 219 263 318 391
#     4  11  20  42  71  99 129 169 216 268 333 386
#     4  12  26  40  62  98 133 174 216 259 328 396
#
# _framework density 20.724972000000001
#
# number of rings (size 3 to 8) (size 9 to 14) (size 15 to 20)
#    0.000    0.750    5.000    3.375    1.750    5.000 
#    0.000    1.250    0.000    0.000    0.000    0.000 
#    0.000    0.000    0.000    0.000    0.000    0.000 
#
# Total GULP energy -397045.929616 kJ/mol
# GULP energy per Si atom -12407.685301 kJ/mol
# Density = 2.067780 g / cm^3
# Si number density = 20.724972 Si / 1000 Ang^3
#
#
#
# Elastic Constant Matrix: (Units=GPa)
#
#
# Indices 1 2 3 4 5 6 
#
# 1 103.2365 13.8263 17.2053 0.0000 -12.5694 0.0000
# 2 13.8263 95.8316 39.8957 0.0000 -27.2440 0.0000
# 3 17.2053 39.8957 77.7094 0.0000 -19.8346 0.0000
# 4 0.0000 0.0000 0.0000 33.6072 0.0000 -1.5495
# 5 -12.5694 -27.2440 -19.8346 0.0000 25.2146 0.0000
# 6 0.0000 0.0000 0.0000 -1.5495 0.0000 25.5678
#
#
#
# Elastic Compliance Matrix: (Units=1/GPa)
#
#
# Indices 1 2 3 4 5 6 
#
# 1 0.010412 0.000330 -0.001325 0.000000 0.004505 0.000000
# 2 0.000330 0.016429 -0.004923 0.000000 0.014043 0.000000
# 3 -0.001325 -0.004923 0.017721 0.000000 0.007960 0.000000
# 4 0.000000 0.000000 0.000000 0.029839 0.000000 0.001808
# 5 0.004505 0.014043 0.007960 0.000000 0.063340 0.000000
# 6 0.000000 0.000000 0.000000 0.001808 0.000000 0.039221
#
#
# Mechanical properties :
#
#
# Convention : Reuss Voigt Hill
#
# Bulk Modulus (GPa) = 30.55724 46.51470 38.53597
# Shear Modulus (GPa) = 25.03664 30.60128 27.81896
#
# Velocity S-wave (km/s) = 3.47946 3.84675 3.66770
# Velocity P-wave (km/s) = 5.56043 6.49788 6.04735
#
# Compressibility (1/GPa) = 0.03272546
#
# Stress axis : x y z
#
# Youngs Moduli (GPa) = 96.04726 60.86643 56.42979
#
# Poissons Ratio (x) = -0.02009 0.07476
# Poissons Ratio (y) = -0.03170 0.27783
# Poissons Ratio (z) = 0.12725 0.29967
#
# Static dielectric constant tensor:
#      x y z
#    x 3.037300 0.000000 -0.819940 
#    y 0.000000 3.834050 0.000000 
#    z -0.819940 0.000000 3.183320 
# 
# 
# High freq. dielectric constant tensor:
#      x y z
#    x 1.807000 0.000000 -0.005450 
#    y 0.000000 1.809960 0.000000 
#    z -0.005450 0.000000 1.823450 
# 
# From -- ./inp_files/50717.got.cif
#   From: 2010.06.25/outbox.cif.g09.slc.cpg/sg11_26_cif.got.tgz:50717.got - 2010.06.27 23:14:04.
