data_PCOD8077807
_publ_section_title
;
Structure prediction by ZEFSAII (Michael W. Deem and Ramdas Pophale) SiO2 
 PCOD8077807
Probable space group: P 21/M
;
_chemical_formula_sum "Si O2"
_cell_formula_units_Z 28
_cell_length_a 21.251032
_cell_length_b 14.118702
_cell_length_c 8.749183
_cell_angle_alpha 90.000000
_cell_angle_beta 148.577237
_cell_angle_gamma 90.000000
_cell_volume 1368.581264
_symmetry_space_group_name_H-M "P 21/M"
_symmetry_group_IT_number 11
_symmetry_cell_setting 'monoclinic'
loop_
_space_group_symop_operation_xyz
x,y,z
-x,1/2+y,-z
-x,-y,-z
x,1/2-y,z
loop_
_atom_site_type_symbol
_atom_site_label
_atom_site_fract_x
_atom_site_fract_y
_atom_site_fract_z
Si Si1 0.961770 0.857537 0.745490
Si Si2 0.824991 0.357954 0.621164
Si Si3 0.298546 0.137368 0.739617
Si Si4 0.288451 0.481315 0.428782
Si Si5 0.889585 0.454846 0.182520
Si Si6 0.733782 0.142653 0.110781
Si Si7 0.469377 0.995149 0.259589
O O1 0.926740 0.750000 0.695983
O O2 0.829855 0.905894 0.463881
O O3 0.045315 0.869118 0.770262
O O4 0.040558 0.892794 0.053522
O O5 0.800183 0.250000 0.626632
O O6 0.724885 0.424871 0.493219
O O7 0.828103 0.362232 0.444954
O O8 0.316439 0.250000 0.792722
O O9 0.299836 0.109814 0.562560
O O10 0.399383 0.087877 0.053069
O O11 0.411695 0.486108 0.592717
O O12 0.176421 0.474532 0.075695
O O13 0.785541 0.415439 0.075891
O O14 0.000000 0.500000 0.500000
O O15 0.708387 0.250000 0.006001
O O16 0.611062 0.098821 0.923709
O O17 0.500000 0.000000 0.500000
#
# Coordination Sequence:
#
# PCOD8077807 Si02
#       7
#     4   4   4   4   4   4   4
#     4   9  20  39  61  90 126 161 208 260 318 391
#     4   9  20  38  66  96 125 165 215 272 324 380
#     4  11  25  44  67  95 129 174 217 267 329 390
#     4  11  24  42  67  92 130 170 218 271 314 394
#     4  11  23  38  65  96 130 172 209 264 331 385
#     4  11  23  41  67  97 131 170 219 272 327 388
#     4  12  25  46  65  92 130 169 221 274 326 388
#
# _framework density 20.459143000000001
#
# number of rings (size 3 to 8) (size 9 to 14) (size 15 to 20)
#    0.000    1.429    2.857    1.714    2.000    3.429 
#    0.000    0.714    0.000    0.000    0.000    0.000 
#    0.000    0.000    0.000    0.000    0.000    0.000 
#
# Total GULP energy -347006.235246 kJ/mol
# GULP energy per Si atom -12393.079830 kJ/mol
# Density = 2.041258 g / cm^3
# Si number density = 20.459143 Si / 1000 Ang^3
#
#
#
# Elastic Constant Matrix: (Units=GPa)
#
#
# Indices 1 2 3 4 5 6 
#
# 1 114.4771 28.5340 51.8846 0.0000 5.8191 0.0000
# 2 28.5340 86.9289 41.8930 0.0000 -4.8420 0.0000
# 3 51.8846 41.8930 127.0836 0.0000 -7.4711 0.0000
# 4 0.0000 0.0000 0.0000 22.4929 0.0000 -0.3631
# 5 5.8191 -4.8420 -7.4711 0.0000 44.0565 0.0000
# 6 0.0000 0.0000 0.0000 -0.3631 0.0000 31.2875
#
#
#
# Elastic Compliance Matrix: (Units=1/GPa)
#
#
# Indices 1 2 3 4 5 6 
#
# 1 0.011167 -0.001823 -0.004098 0.000000 -0.002370 0.000000
# 2 -0.001823 0.013998 -0.003804 0.000000 0.001134 0.000000
# 3 -0.004098 -0.003804 0.010912 0.000000 0.001974 0.000000
# 4 0.000000 0.000000 0.000000 0.044467 0.000000 0.000516
# 5 -0.002370 0.001134 0.001974 0.000000 0.023471 0.000000
# 6 0.000000 0.000000 0.000000 0.000516 0.000000 0.031968
#
#
# Mechanical properties :
#
#
# Convention : Reuss Voigt Hill
#
# Bulk Modulus (GPa) = 60.13632 63.67921 61.90777
# Shear Modulus (GPa) = 31.06092 33.31257 32.18674
#
# Velocity S-wave (km/s) = 3.90063 4.03953 3.97069
# Velocity P-wave (km/s) = 7.05292 7.27666 7.16566
#
# Compressibility (1/GPa) = 0.01662888
#
# Stress axis : x y z
#
# Youngs Moduli (GPa) = 89.54581 71.43768 91.64444
#
# Poissons Ratio (x) = 0.13022 0.37554
# Poissons Ratio (y) = 0.16323 0.34858
# Poissons Ratio (z) = 0.36694 0.27172
#
# Static dielectric constant tensor:
#      x y z
#    x 3.922680 0.000000 -0.101810 
#    y 0.000000 3.725560 0.000000 
#    z -0.101810 0.000000 4.105180 
# 
# 
# High freq. dielectric constant tensor:
#      x y z
#    x 1.804640 0.000000 -0.004050 
#    y 0.000000 1.787710 0.000000 
#    z -0.004050 0.000000 1.816110 
# 
# From -- ./inp_files/26942.got.cif
#   From: 2010.06.25/outbox.cif.g09.slc.cpg/sg11_14_cif.got.tgz:26942.got - 2010.06.27 23:14:04.
