data_PCOD8077303
_publ_section_title
;
Structure prediction by ZEFSAII (Michael W. Deem and Ramdas Pophale) SiO2 
 PCOD8077303
Probable space group: P 21/M
;
_chemical_formula_sum "Si O2"
_cell_formula_units_Z 32
_cell_length_a 17.370218
_cell_length_b 14.848445
_cell_length_c 11.402824
_cell_angle_alpha 90.000000
_cell_angle_beta 31.797676
_cell_angle_gamma 90.000000
_cell_volume 1549.688598
_symmetry_space_group_name_H-M "P 21/M"
_symmetry_group_IT_number 11
_symmetry_cell_setting 'monoclinic'
loop_
_space_group_symop_operation_xyz
x,y,z
-x,1/2+y,-z
-x,-y,-z
x,1/2-y,z
loop_
_atom_site_type_symbol
_atom_site_label
_atom_site_fract_x
_atom_site_fract_y
_atom_site_fract_z
Si Si1 0.931756 0.347367 0.606382
Si Si2 0.902904 0.466062 0.850970
Si Si3 0.354031 0.353885 0.211487
Si Si4 0.302953 0.982102 0.678297
Si Si5 0.429133 0.352747 0.652659
Si Si6 0.314322 0.853628 0.241352
Si Si7 0.236334 0.112640 0.115199
Si Si8 0.793067 0.005081 0.454712
O O1 0.864678 0.250000 0.715387
O O2 0.965671 0.385103 0.691658
O O3 0.805253 0.396628 0.693893
O O4 0.082143 0.339434 0.340059
O O5 0.801295 0.515542 0.887717
O O6 0.039113 0.522251 0.724853
O O7 0.801759 0.436039 0.089593
O O8 0.302392 0.250000 0.281866
O O9 0.330028 0.394274 0.112588
O O10 0.264318 0.409441 0.423323
O O11 0.524958 0.362753 0.021727
O O12 0.353597 0.082677 0.652974
O O13 0.212942 0.997019 0.677033
O O14 0.428542 0.908753 0.492411
O O15 0.462322 0.250000 0.561841
O O16 0.327643 0.335755 0.897487
O O17 0.279376 0.750000 0.319684
O O18 0.304892 0.912700 0.371370
#
# Coordination Sequence:
#
# PCOD8077303 Si02
#       8
#     4   4   4   4   4   4   4   4
#     4  11  21  37  62  92 123 159 203 253 312 373
#     4  11  23  40  61  87 125 165 206 254 304 357
#     4  11  23  37  60  93 126 157 199 256 314 370
#     4  10  25  41  61  92 122 163 213 249 296 368
#     4  10  22  43  67  89 118 160 208 260 305 357
#     4  10  23  39  59  94 127 157 201 255 313 369
#     4  11  20  38  65  91 118 156 207 253 309 365
#     4  12  22  40  61  86 124 168 202 250 304 362
#
# _framework density 20.649308000000001
#
# number of rings (size 3 to 8) (size 9 to 14) (size 15 to 20)
#    0.000    1.250    2.500    3.750    0.000    5.500 
#    0.000    1.250    0.000    3.000    0.000    0.000 
#    0.000    0.000    0.000    0.000    0.000    0.000 
#
# Total GULP energy -396625.746460 kJ/mol
# GULP energy per Si atom -12394.554577 kJ/mol
# Density = 2.060231 g / cm^3
# Si number density = 20.649308 Si / 1000 Ang^3
#
#
#
# Elastic Constant Matrix: (Units=GPa)
#
#
# Indices 1 2 3 4 5 6 
#
# 1 114.7536 35.6503 47.0170 0.0000 9.8505 0.0000
# 2 35.6503 93.3414 47.8267 0.0000 16.3218 0.0000
# 3 47.0170 47.8267 103.4870 0.0000 0.5197 0.0000
# 4 0.0000 0.0000 0.0000 13.4283 0.0000 -3.5077
# 5 9.8505 16.3218 0.5197 0.0000 35.7539 0.0000
# 6 0.0000 0.0000 0.0000 -3.5077 0.0000 18.8504
#
#
#
# Elastic Compliance Matrix: (Units=1/GPa)
#
#
# Indices 1 2 3 4 5 6 
#
# 1 0.011190 -0.001678 -0.004297 0.000000 -0.002254 0.000000
# 2 -0.001678 0.015875 -0.006541 0.000000 -0.006690 0.000000
# 3 -0.004297 -0.006541 0.014618 0.000000 0.003957 0.000000
# 4 0.000000 0.000000 0.000000 0.078274 0.000000 0.014565
# 5 -0.002254 -0.006690 0.003957 0.000000 0.031587 0.000000
# 6 0.000000 0.000000 0.000000 0.014565 0.000000 0.055760
#
#
# Mechanical properties :
#
#
# Convention : Reuss Voigt Hill
#
# Bulk Modulus (GPa) = 60.05342 63.61890 61.83616
# Shear Modulus (GPa) = 21.01843 25.67906 23.34874
#
# Velocity S-wave (km/s) = 3.19388 3.53027 3.36628
# Velocity P-wave (km/s) = 6.53810 6.89153 6.71714
#
# Compressibility (1/GPa) = 0.01665184
#
# Stress axis : x y z
#
# Youngs Moduli (GPa) = 89.36810 62.99020 68.40687
#
# Poissons Ratio (x) = 0.10568 0.29395
# Poissons Ratio (y) = 0.14994 0.44745
# Poissons Ratio (z) = 0.38402 0.41202
#
# Static dielectric constant tensor:
#      x y z
#    x 3.783070 0.000000 -0.089380 
#    y 0.000000 3.680770 0.000000 
#    z -0.089380 0.000000 3.736250 
# 
# 
# High freq. dielectric constant tensor:
#      x y z
#    x 1.809140 0.000000 -0.012520 
#    y 0.000000 1.802710 0.000000 
#    z -0.012520 0.000000 1.808340 
# 
# From -- ./inp_files/41612.got.cif
#   From: 2010.06.25/outbox.cif.g09.slc.cpg/sg11_21_cif.got.tgz:41612.got - 2010.06.27 23:14:04.
