data_PCOD8077866
_publ_section_title
;
Structure prediction by ZEFSAII (Michael W. Deem and Ramdas Pophale) SiO2 
 PCOD8077866
Probable space group: P 21/M
;
_chemical_formula_sum "Si O2"
_cell_formula_units_Z 24
_cell_length_a 12.619769
_cell_length_b 17.298802
_cell_length_c 18.070412
_cell_angle_alpha 90.000000
_cell_angle_beta 160.541884
_cell_angle_gamma 90.000000
_cell_volume 1314.114414
_symmetry_space_group_name_H-M "P 21/M"
_symmetry_group_IT_number 11
_symmetry_cell_setting 'monoclinic'
loop_
_space_group_symop_operation_xyz
x,y,z
-x,1/2+y,-z
-x,-y,-z
x,1/2-y,z
loop_
_atom_site_type_symbol
_atom_site_label
_atom_site_fract_x
_atom_site_fract_y
_atom_site_fract_z
Si Si1 0.790010 0.159819 0.769988
Si Si2 0.719669 0.556430 0.837369
Si Si3 0.689767 0.543923 0.322719
Si Si4 0.690486 0.443596 0.572769
Si Si5 0.182693 0.342436 0.466324
Si Si6 0.721505 0.043945 0.088575
O O1 0.795063 0.250000 0.772459
O O2 0.769271 0.132254 0.671797
O O3 0.487354 0.130942 0.618640
O O4 0.120453 0.132285 0.023082
O O5 0.494724 0.516896 0.748622
O O6 0.520917 0.582624 0.635457
O O7 0.000000 0.500000 0.000000
O O8 0.778286 0.621326 0.426313
O O9 0.000000 0.500000 0.500000
O O10 0.475610 0.570655 0.112814
O O11 0.500000 0.500000 0.500000
O O12 0.010272 0.483139 0.756354
O O13 0.145915 0.250000 0.447996
O O14 0.870164 0.378642 0.222227
O O15 0.500000 0.000000 0.000000
#
# Coordination Sequence:
#
# PCOD8077866 Si02
#       6
#     4   4   4   4   4   4
#     4  11  24  39  61  97 130 159 203 266 316 353
#     4  12  20  37  63  89 119 162 208 249 299 365
#     4  12  22  39  65  93 120 165 212 249 301 375
#     4  12  20  37  63  89 119 162 208 249 299 365
#     4  11  24  41  61  97 132 155 201 264 316 359
#     4  12  22  39  65  93 120 165 212 249 301 375
#
# _framework density 18.263249999999999
#
# number of rings (size 3 to 8) (size 9 to 14) (size 15 to 20)
#    0.000    0.333   10.000    0.000    0.000    1.333 
#    0.000    6.667    0.000    4.000    0.000    0.000 
#    0.000    0.000    0.000    0.000    0.000    0.000 
#
# Total GULP energy -297672.915781 kJ/mol
# GULP energy per Si atom -12403.038158 kJ/mol
# Density = 1.822168 g / cm^3
# Si number density = 18.263250 Si / 1000 Ang^3
#
#
#
# Elastic Constant Matrix: (Units=GPa)
#
#
# Indices 1 2 3 4 5 6 
#
# 1 132.9257 55.2316 78.7734 0.0000 -11.6070 0.0000
# 2 55.2316 77.4001 56.3117 0.0000 -2.8752 0.0000
# 3 78.7734 56.3117 146.0994 0.0000 -23.5644 0.0000
# 4 0.0000 0.0000 0.0000 32.0570 0.0000 -4.4324
# 5 -11.6070 -2.8752 -23.5644 0.0000 61.2687 0.0000
# 6 0.0000 0.0000 0.0000 -4.4324 0.0000 30.4122
#
#
#
# Elastic Compliance Matrix: (Units=1/GPa)
#
#
# Indices 1 2 3 4 5 6 
#
# 1 0.012611 -0.005672 -0.004553 0.000000 0.000372 0.000000
# 2 -0.005672 0.020725 -0.005273 0.000000 -0.002130 0.000000
# 3 -0.004553 -0.005273 0.011891 0.000000 0.003463 0.000000
# 4 0.000000 0.000000 0.000000 0.031836 0.000000 0.004640
# 5 0.000372 -0.002130 0.003463 0.000000 0.017624 0.000000
# 6 0.000000 0.000000 0.000000 0.004640 0.000000 0.033558
#
#
# Mechanical properties :
#
#
# Convention : Reuss Voigt Hill
#
# Bulk Modulus (GPa) = 70.28005 81.89538 76.08771
# Shear Modulus (GPa) = 30.49073 35.82149 33.15611
#
# Velocity S-wave (km/s) = 4.09040 4.43357 4.26544
# Velocity P-wave (km/s) = 7.80216 8.43491 8.12470
#
# Compressibility (1/GPa) = 0.01422879
#
# Stress axis : x y z
#
# Youngs Moduli (GPa) = 79.29869 48.25087 84.09982
#
# Poissons Ratio (x) = 0.27370 0.38291
# Poissons Ratio (y) = 0.44981 0.44348
# Poissons Ratio (z) = 0.36105 0.25444
#
# Static dielectric constant tensor:
#      x y z
#    x 2.637400 0.000000 1.763000 
#    y 0.000000 3.358300 0.000000 
#    z 1.763000 0.000000 1.999410 
# 
# 
# High freq. dielectric constant tensor:
#      x y z
#    x 1.723690 0.000000 -0.005840 
#    y 0.000000 1.690120 0.000000 
#    z -0.005840 0.000000 1.725820 
# 
# From -- ./inp_files/41885.got.cif
#   From: 2010.06.25/outbox.cif.g09.slc.cpg/sg11_21_cif.got.tgz:41885.got - 2010.06.27 23:14:04.
