data_PCOD8077923
_publ_section_title
;
Structure prediction by ZEFSAII (Michael W. Deem and Ramdas Pophale) SiO2 
 PCOD8077923
Probable space group: P 21/M
;
_chemical_formula_sum "Si O2"
_cell_formula_units_Z 16
_cell_length_a 8.638513
_cell_length_b 14.450668
_cell_length_c 5.126815
_cell_angle_alpha 90.000000
_cell_angle_beta 70.962446
_cell_angle_gamma 90.000000
_cell_volume 604.987648
_symmetry_space_group_name_H-M "P 21/M"
_symmetry_group_IT_number 11
_symmetry_cell_setting 'monoclinic'
loop_
_space_group_symop_operation_xyz
x,y,z
-x,1/2+y,-z
-x,-y,-z
x,1/2-y,z
loop_
_atom_site_type_symbol
_atom_site_label
_atom_site_fract_x
_atom_site_fract_y
_atom_site_fract_z
Si Si1 0.904931 0.641819 0.090657
Si Si2 0.673296 0.555706 0.867745
Si Si3 0.106005 0.597954 0.481123
Si Si4 0.633299 0.250000 0.640659
Si Si5 0.419254 0.250000 0.255476
O O1 0.866600 0.750000 0.059749
O O2 0.975742 0.631911 0.339565
O O3 0.736681 0.583784 0.124806
O O4 0.036015 0.602088 0.811149
O O5 0.822156 0.502350 0.637271
O O6 0.675160 0.651419 0.697395
O O7 0.500000 0.500000 0.000000
O O8 0.264694 0.658646 0.399754
O O9 0.523434 0.250000 0.453034
O O10 0.529341 0.250000 0.949570
#
# Coordination Sequence:
#
# PCOD8077923 Si02
#       5
#     4   4   4   2   2
#     4  12  25  50  76 112 150 195 248 309 367 439
#     4  12  28  50  77 112 153 197 250 305 374 446
#     4  12  26  48  80 109 148 198 252 305 369 440
#     4  12  24  46  78 110 148 197 249 304 374 434
#     4  12  28  48  72 112 154 195 245 312 370 440
#
# _framework density 26.446822999999998
#
# number of rings (size 3 to 8) (size 9 to 14) (size 15 to 20)
#    0.000    0.000    6.250    3.000    0.000    5.000 
#    0.000    0.000    0.000    0.000    0.000    0.000 
#    0.000    0.000    0.000    0.000    0.000    0.000 
#
# Total GULP energy -198252.845199 kJ/mol
# GULP energy per Si atom -12390.802825 kJ/mol
# Density = 2.638663 g / cm^3
# Si number density = 26.446823 Si / 1000 Ang^3
#
#
#
# Elastic Constant Matrix: (Units=GPa)
#
#
# Indices 1 2 3 4 5 6 
#
# 1 145.7742 48.9866 40.8811 0.0000 26.6156 0.0000
# 2 48.9866 180.9705 11.3921 0.0000 1.3288 0.0000
# 3 40.8811 11.3921 103.6782 0.0000 12.2930 0.0000
# 4 0.0000 0.0000 0.0000 40.0305 0.0000 -18.9990
# 5 26.6156 1.3288 12.2930 0.0000 51.4909 0.0000
# 6 0.0000 0.0000 0.0000 -18.9990 0.0000 98.8482
#
#
#
# Elastic Compliance Matrix: (Units=1/GPa)
#
#
# Indices 1 2 3 4 5 6 
#
# 1 0.009161 -0.002268 -0.002890 0.000000 -0.003987 0.000000
# 2 -0.002268 0.006126 0.000104 0.000000 0.000990 0.000000
# 3 -0.002890 0.000104 0.010905 0.000000 -0.001112 0.000000
# 4 0.000000 0.000000 0.000000 0.027489 0.000000 0.005283
# 5 -0.003987 0.000990 -0.001112 0.000000 0.021722 0.000000
# 6 0.000000 0.000000 0.000000 0.005283 0.000000 0.011132
#
#
# Mechanical properties :
#
#
# Convention : Reuss Voigt Hill
#
# Bulk Modulus (GPa) = 62.17867 70.32694 66.25281
# Shear Modulus (GPa) = 49.01764 60.01814 54.51789
#
# Velocity S-wave (km/s) = 4.30983 4.76898 4.54521
# Velocity P-wave (km/s) = 6.95184 7.54810 7.25610
#
# Compressibility (1/GPa) = 0.01608269
#
# Stress axis : x y z
#
# Youngs Moduli (GPa) = 109.16287 163.23877 91.69858
#
# Poissons Ratio (x) = 0.37030 0.26502
# Poissons Ratio (y) = 0.24763 -0.00954
# Poissons Ratio (z) = 0.31550 -0.01698
#
# Static dielectric constant tensor:
#      x y z
#    x 5.328040 0.000000 -0.086360 
#    y 0.000000 5.748650 0.000000 
#    z -0.086360 0.000000 4.790570 
# 
# 
# High freq. dielectric constant tensor:
#      x y z
#    x 2.086650 0.000000 -0.003090 
#    y 0.000000 2.096780 0.000000 
#    z -0.003090 0.000000 2.069890 
# 
# From -- ./inp_files/1511.got.cif
#   From: 2010.06.25/outbox.cif.g09.slc.cpg/sg11_1_cif.got.tgz:1511.got - 2010.06.27 23:14:04.
