data_PCOD8077781
_publ_section_title
;
Structure prediction by ZEFSAII (Michael W. Deem and Ramdas Pophale) SiO2 
 PCOD8077781
Probable space group: P 21/M
;
_chemical_formula_sum "Si O2"
_cell_formula_units_Z 20
_cell_length_a 10.854395
_cell_length_b 14.189181
_cell_length_c 15.841300
_cell_angle_alpha 90.000000
_cell_angle_beta 23.094640
_cell_angle_gamma 90.000000
_cell_volume 957.013142
_symmetry_space_group_name_H-M "P 21/M"
_symmetry_group_IT_number 11
_symmetry_cell_setting 'monoclinic'
loop_
_space_group_symop_operation_xyz
x,y,z
-x,1/2+y,-z
-x,-y,-z
x,1/2-y,z
loop_
_atom_site_type_symbol
_atom_site_label
_atom_site_fract_x
_atom_site_fract_y
_atom_site_fract_z
Si Si1 0.378265 0.475443 0.849018
Si Si2 0.720331 0.084552 0.337028
Si Si3 0.358383 0.356168 0.410570
Si Si4 0.774812 0.356701 0.488378
Si Si5 0.227796 0.514952 0.237860
O O1 0.425430 0.583711 0.790047
O O2 0.450740 0.404967 0.724935
O O3 0.629664 0.452867 0.763458
O O4 0.028384 0.459114 0.100046
O O5 0.536377 0.151054 0.387980
O O6 0.804460 0.142112 0.368217
O O7 0.500000 0.000000 0.500000
O O8 0.313028 0.250000 0.404616
O O9 0.019777 0.406015 0.636894
O O10 0.791517 0.250000 0.510019
O O11 0.057023 0.414241 0.353982
O O12 0.500000 0.500000 0.000000
#
# Coordination Sequence:
#
# PCOD8077781 Si02
#       5
#     4   4   4   4   4
#     4  11  24  43  69  92 134 173 213 268 327 383
#     4  12  22  45  68  92 133 174 213 268 325 383
#     4  11  24  41  66  99 131 170 218 268 323 387
#     4  11  24  40  67  98 128 171 219 264 323 386
#     4  11  22  44  66  93 131 171 213 270 322 377
#
# _framework density 20.898356
#
# number of rings (size 3 to 8) (size 9 to 14) (size 15 to 20)
#    0.000    0.800    6.000    3.600    0.000    5.600 
#    0.000    3.000    0.000    0.000    0.000    0.000 
#    0.000    0.000    0.000    0.000    0.000    0.000 
#
# Total GULP energy -248001.814693 kJ/mol
# GULP energy per Si atom -12400.090735 kJ/mol
# Density = 2.085079 g / cm^3
# Si number density = 20.898356 Si / 1000 Ang^3
#
#
#
# Elastic Constant Matrix: (Units=GPa)
#
#
# Indices 1 2 3 4 5 6 
#
# 1 86.2528 14.1493 36.7503 0.0000 0.1882 0.0000
# 2 14.1493 171.4580 68.4920 0.0000 3.8211 0.0000
# 3 36.7503 68.4920 170.0952 0.0000 11.2514 0.0000
# 4 0.0000 0.0000 0.0000 9.0289 0.0000 1.2501
# 5 0.1882 3.8211 11.2514 0.0000 38.8681 0.0000
# 6 0.0000 0.0000 0.0000 1.2501 0.0000 24.7786
#
#
#
# Elastic Compliance Matrix: (Units=1/GPa)
#
#
# Indices 1 2 3 4 5 6 
#
# 1 0.012791 0.000061 -0.002838 0.000000 0.000754 0.000000
# 2 0.000061 0.006951 -0.002821 0.000000 0.000133 0.000000
# 3 -0.002838 -0.002821 0.007758 0.000000 -0.001955 0.000000
# 4 0.000000 0.000000 0.000000 0.111535 0.000000 -0.005627
# 5 0.000754 0.000133 -0.001955 0.000000 0.026277 0.000000
# 6 0.000000 0.000000 0.000000 -0.005627 0.000000 0.040641
#
#
# Mechanical properties :
#
#
# Convention : Reuss Voigt Hill
#
# Bulk Modulus (GPa) = 61.33354 74.06547 67.69950
# Shear Modulus (GPa) = 22.46345 35.09608 28.77977
#
# Velocity S-wave (km/s) = 3.28211 4.10246 3.71500
# Velocity P-wave (km/s) = 6.61628 7.61301 7.13208
#
# Compressibility (1/GPa) = 0.01630429
#
# Stress axis : x y z
#
# Youngs Moduli (GPa) = 78.17735 143.85909 128.90673
#
# Poissons Ratio (x) = -0.00883 0.36587
# Poissons Ratio (y) = -0.00480 0.36366
# Poissons Ratio (z) = 0.22189 0.40584
#
# Static dielectric constant tensor:
#      x y z
#    x 4.331110 0.000000 0.386000 
#    y 0.000000 3.575910 0.000000 
#    z 0.386000 0.000000 3.360730 
# 
# 
# High freq. dielectric constant tensor:
#      x y z
#    x 1.831990 0.000000 0.002590 
#    y 0.000000 1.803220 0.000000 
#    z 0.002590 0.000000 1.826840 
# 
# From -- ./inp_files/59298.got.cif
#   From: 2010.06.25/outbox.cif.g09.slc.cpg/sg11_30_cif.got.tgz:59298.got - 2010.06.27 23:14:04.
