data_PCOD8077442
_publ_section_title
;
Structure prediction by ZEFSAII (Michael W. Deem and Ramdas Pophale) SiO2 
 PCOD8077442
Probable space group: P 21/M
;
_chemical_formula_sum "Si O2"
_cell_formula_units_Z 14
_cell_length_a 9.976390
_cell_length_b 7.584271
_cell_length_c 7.848704
_cell_angle_alpha 90.000000
_cell_angle_beta 56.828999
_cell_angle_gamma 90.000000
_cell_volume 497.086675
_symmetry_space_group_name_H-M "P 21/M"
_symmetry_group_IT_number 11
_symmetry_cell_setting 'monoclinic'
loop_
_space_group_symop_operation_xyz
x,y,z
-x,1/2+y,-z
-x,-y,-z
x,1/2-y,z
loop_
_atom_site_type_symbol
_atom_site_label
_atom_site_fract_x
_atom_site_fract_y
_atom_site_fract_z
Si Si1 0.888438 0.750000 0.248251
Si Si2 0.870362 0.750000 0.893490
Si Si3 0.385395 0.548974 0.927766
Si Si4 0.888367 0.250000 0.586871
Si Si5 0.673582 0.053503 0.523620
O O1 0.968198 0.750000 0.005042
O O2 0.775148 0.578614 0.338024
O O3 0.028297 0.750000 0.289584
O O4 0.766941 0.574018 0.966758
O O5 0.984812 0.750000 0.654467
O O6 0.325338 0.750000 0.986360
O O7 0.494397 0.521427 0.680859
O O8 0.500000 0.500000 0.000000
O O9 0.773808 0.077165 0.635762
O O10 0.665347 0.250000 0.444526
#
# Coordination Sequence:
#
# PCOD8077442 Si02
#       5
#     2   2   4   2   4
#     4  12  24  44  74 106 148 192 238 304 364 430
#     4  12  27  45  73 115 143 188 246 300 366 434
#     4  12  23  46  77 105 144 191 244 301 362 431
#     4  10  25  49  71 105 151 190 240 302 362 432
#     4  10  23  45  72 101 142 198 242 290 367 430
#
# _framework density 28.164102
#
# number of rings (size 3 to 8) (size 9 to 14) (size 15 to 20)
#    0.857    0.000    4.286    2.571    0.000    3.429 
#    2.571    0.000    0.000    0.000    0.000    0.000 
#    0.000    0.000    0.000    0.000    0.000    0.000 
#
# Total GULP energy -173548.617324 kJ/mol
# GULP energy per Si atom -12396.329809 kJ/mol
# Density = 2.810000 g / cm^3
# Si number density = 28.164102 Si / 1000 Ang^3
#
#
#
# Elastic Constant Matrix: (Units=GPa)
#
#
# Indices 1 2 3 4 5 6 
#
# 1 98.3664 31.6587 49.3482 0.0000 -7.2749 0.0000
# 2 31.6587 222.3433 26.7529 0.0000 -13.3146 0.0000
# 3 49.3482 26.7529 96.6406 0.0000 -10.0008 0.0000
# 4 0.0000 0.0000 0.0000 34.8359 0.0000 -11.4442
# 5 -7.2749 -13.3146 -10.0008 0.0000 50.1568 0.0000
# 6 0.0000 0.0000 0.0000 -11.4442 0.0000 22.8695
#
#
#
# Elastic Compliance Matrix: (Units=1/GPa)
#
#
# Indices 1 2 3 4 5 6 
#
# 1 0.013961 -0.001151 -0.006772 0.000000 0.000369 0.000000
# 2 -0.001151 0.004797 -0.000639 0.000000 0.000979 0.000000
# 3 -0.006772 -0.000639 0.014156 0.000000 0.001671 0.000000
# 4 0.000000 0.000000 0.000000 0.034354 0.000000 0.017191
# 5 0.000369 0.000979 0.001671 0.000000 0.020584 0.000000
# 6 0.000000 0.000000 0.000000 0.017191 0.000000 0.052329
#
#
# Mechanical properties :
#
#
# Convention : Reuss Voigt Hill
#
# Bulk Modulus (GPa) = 63.33340 70.31889 66.82615
# Shear Modulus (GPa) = 30.75640 42.21181 36.48411
#
# Velocity S-wave (km/s) = 3.30819 3.87561 3.60309
# Velocity P-wave (km/s) = 6.09330 6.71185 6.41004
#
# Compressibility (1/GPa) = 0.01578946
#
# Stress axis : x y z
#
# Youngs Moduli (GPa) = 71.62641 208.46668 70.64357
#
# Poissons Ratio (x) = 0.23993 0.47842
# Poissons Ratio (y) = 0.08244 0.04513
# Poissons Ratio (z) = 0.48508 0.13319
#
# Static dielectric constant tensor:
#      x y z
#    x 5.133170 0.000000 -0.208930 
#    y 0.000000 5.370570 0.000000 
#    z -0.208930 0.000000 5.460090 
# 
# 
# High freq. dielectric constant tensor:
#      x y z
#    x 2.149030 0.000000 -0.002970 
#    y 0.000000 2.143970 0.000000 
#    z -0.002970 0.000000 2.155300 
# 
# From -- ./inp_files/11136.got.cif
#   From: 2010.06.25/outbox.cif.g09.slc.cpg/sg11_6_cif.got.tgz:11136.got - 2010.06.27 23:14:04.
