data_PCOD8077156
_publ_section_title
;
Structure prediction by ZEFSAII (Michael W. Deem and Ramdas Pophale) SiO2 
 PCOD8077156
Probable space group: P 21/M
;
_chemical_formula_sum "Si O2"
_cell_formula_units_Z 20
_cell_length_a 11.203553
_cell_length_b 16.870380
_cell_length_c 4.972550
_cell_angle_alpha 90.000000
_cell_angle_beta 73.438051
_cell_angle_gamma 90.000000
_cell_volume 900.860186
_symmetry_space_group_name_H-M "P 21/M"
_symmetry_group_IT_number 11
_symmetry_cell_setting 'monoclinic'
loop_
_space_group_symop_operation_xyz
x,y,z
-x,1/2+y,-z
-x,-y,-z
x,1/2-y,z
loop_
_atom_site_type_symbol
_atom_site_label
_atom_site_fract_x
_atom_site_fract_y
_atom_site_fract_z
Si Si1 0.281654 0.158165 0.325984
Si Si2 0.153320 0.408027 0.901672
Si Si3 0.551356 0.156780 0.306145
Si Si4 0.079361 0.945879 0.651663
Si Si5 0.706561 0.343371 0.709250
O O1 0.287904 0.250000 0.235533
O O2 0.182035 0.149568 0.631789
O O3 0.413543 0.122313 0.342406
O O4 0.247645 0.106803 0.086398
O O5 0.164160 0.498609 0.789294
O O6 0.012833 0.393674 0.101275
O O7 0.537646 0.250000 0.285578
O O8 0.599360 0.132000 0.567192
O O9 0.654269 0.127205 0.027591
O O10 0.164177 0.886967 0.427498
O O11 0.000000 0.000000 0.500000
O O12 0.733825 0.250000 0.680076
#
# Coordination Sequence:
#
# PCOD8077156 Si02
#       5
#     4   4   4   4   4
#     4  11  22  41  67  96 128 161 212 264 313 379
#     4  11  24  41  64  91 126 176 204 252 334 371
#     4   9  20  39  63  93 127 159 201 268 321 364
#     4  11  25  45  64  87 136 170 209 267 322 365
#     4  10  22  40  66  92 118 165 217 255 311 382
#
# _framework density 22.201001000000002
#
# number of rings (size 3 to 8) (size 9 to 14) (size 15 to 20)
#    0.000    1.600    2.000    1.800    5.600    4.800 
#    0.000    6.000    0.000    0.000    0.000    0.000 
#    0.000    0.000    0.000    0.000    0.000    0.000 
#
# Total GULP energy -247990.089854 kJ/mol
# GULP energy per Si atom -12399.504493 kJ/mol
# Density = 2.215047 g / cm^3
# Si number density = 22.201001 Si / 1000 Ang^3
#
#
#
# Elastic Constant Matrix: (Units=GPa)
#
#
# Indices 1 2 3 4 5 6 
#
# 1 80.8055 43.6212 14.1018 0.0000 -0.4250 0.0000
# 2 43.6212 47.0091 17.3330 0.0000 -3.6974 0.0000
# 3 14.1018 17.3330 90.7068 0.0000 1.8058 0.0000
# 4 0.0000 0.0000 0.0000 22.1498 0.0000 3.8066
# 5 -0.4250 -3.6974 1.8058 0.0000 40.1691 0.0000
# 6 0.0000 0.0000 0.0000 3.8066 0.0000 34.3717
#
#
#
# Elastic Compliance Matrix: (Units=1/GPa)
#
#
# Indices 1 2 3 4 5 6 
#
# 1 0.024973 -0.023569 0.000660 0.000000 -0.001935 0.000000
# 2 -0.023569 0.045344 -0.005083 0.000000 0.004153 0.000000
# 3 0.000660 -0.005083 0.011913 0.000000 -0.000996 0.000000
# 4 0.000000 0.000000 0.000000 0.046023 0.000000 -0.005097
# 5 -0.001935 0.004153 -0.000996 0.000000 0.025301 0.000000
# 6 0.000000 0.000000 0.000000 -0.005097 0.000000 0.029658
#
#
# Mechanical properties :
#
#
# Convention : Reuss Voigt Hill
#
# Bulk Modulus (GPa) = 38.10183 40.95928 39.53055
# Shear Modulus (GPa) = 20.16571 28.90250 24.53410
#
# Velocity S-wave (km/s) = 3.01711 3.61204 3.32790
# Velocity P-wave (km/s) = 5.41634 5.99042 5.71060
#
# Compressibility (1/GPa) = 0.02624546
#
# Stress axis : x y z
#
# Youngs Moduli (GPa) = 40.04279 22.05380 83.94102
#
# Poissons Ratio (x) = 0.51978 -0.05538
# Poissons Ratio (y) = 0.94377 0.42669
# Poissons Ratio (z) = -0.02642 0.11210
#
# Static dielectric constant tensor:
#      x y z
#    x 4.036360 0.000000 -0.013670 
#    y 0.000000 3.721830 0.000000 
#    z -0.013670 0.000000 4.324090 
# 
# 
# High freq. dielectric constant tensor:
#      x y z
#    x 1.875470 0.000000 0.002840 
#    y 0.000000 1.840900 0.000000 
#    z 0.002840 0.000000 1.896510 
# 
# From -- ./inp_files/2313.got.cif
#   From: 2010.06.25/outbox.cif.g09.slc.cpg/sg11_2_cif.got.tgz:2313.got - 2010.06.27 23:14:04.
