data_PCOD8077887
_publ_section_title
;
Structure prediction by ZEFSAII (Michael W. Deem and Ramdas Pophale) SiO2 
 PCOD8077887
Probable space group: P 21/M
;
_chemical_formula_sum "Si O2"
_cell_formula_units_Z 20
_cell_length_a 5.301815
_cell_length_b 24.183215
_cell_length_c 8.925703
_cell_angle_alpha 90.000000
_cell_angle_beta 50.785568
_cell_angle_gamma 90.000000
_cell_volume 886.670768
_symmetry_space_group_name_H-M "P 21/M"
_symmetry_group_IT_number 11
_symmetry_cell_setting 'monoclinic'
loop_
_space_group_symop_operation_xyz
x,y,z
-x,1/2+y,-z
-x,-y,-z
x,1/2-y,z
loop_
_atom_site_type_symbol
_atom_site_label
_atom_site_fract_x
_atom_site_fract_y
_atom_site_fract_z
Si Si1 0.975715 0.642306 0.209455
Si Si2 0.015974 0.250000 0.289191
Si Si3 0.279441 0.045426 0.512970
Si Si4 0.269338 0.467619 0.197368
Si Si5 0.241662 0.250000 0.545579
Si Si6 0.258084 0.361077 0.042184
O O1 0.732621 0.600484 0.383961
O O2 0.916499 0.699979 0.308280
O O3 0.867241 0.644193 0.078595
O O4 0.355405 0.627351 0.086748
O O5 0.113038 0.250000 0.425380
O O6 0.166166 0.305025 0.161214
O O7 0.630515 0.250000 0.408788
O O8 0.414298 0.060209 0.295170
O O9 0.500000 0.000000 0.500000
O O10 0.928499 0.017400 0.654378
O O11 0.092114 0.416433 0.177395
O O12 0.500000 0.500000 0.000000
#
# Coordination Sequence:
#
# PCOD8077887 Si02
#       6
#     4   2   4   4   2   4
#     4  12  26  46  70 103 138 186 229 290 344 417
#     4  12  26  46  72 104 134 186 230 291 345 417
#     4  11  26  41  71 100 142 184 235 283 351 409
#     4  11  24  45  67 103 139 185 232 286 343 415
#     4  12  26  46  72 100 144 174 238 287 349 409
#     4  12  26  45  73  99 141 181 238 279 352 414
#
# _framework density 22.556286
#
# number of rings (size 3 to 8) (size 9 to 14) (size 15 to 20)
#    0.000    0.400    2.000    6.000    8.400    1.600 
#    0.000    0.000    0.000    0.000    0.000    0.000 
#    0.000    0.000    0.000    0.000    0.000    0.000 
#
# Total GULP energy -247811.503273 kJ/mol
# GULP energy per Si atom -12390.575164 kJ/mol
# Density = 2.250495 g / cm^3
# Si number density = 22.556286 Si / 1000 Ang^3
#
#
#
# Elastic Constant Matrix: (Units=GPa)
#
#
# Indices 1 2 3 4 5 6 
#
# 1 152.3002 5.7476 54.1131 0.0000 41.9707 0.0000
# 2 5.7476 147.9261 42.2952 0.0000 36.0936 0.0000
# 3 54.1131 42.2952 134.5943 0.0000 50.8917 0.0000
# 4 0.0000 0.0000 0.0000 49.0183 0.0000 6.5789
# 5 41.9707 36.0936 50.8917 0.0000 56.7936 0.0000
# 6 0.0000 0.0000 0.0000 6.5789 0.0000 34.4746
#
#
#
# Elastic Compliance Matrix: (Units=1/GPa)
#
#
# Indices 1 2 3 4 5 6 
#
# 1 0.008769 0.001612 -0.001807 0.000000 -0.005886 0.000000
# 2 0.001612 0.008369 -0.001235 0.000000 -0.005403 0.000000
# 3 -0.001807 -0.001235 0.011710 0.000000 -0.008373 0.000000
# 4 0.000000 0.000000 0.000000 0.020937 0.000000 -0.003995
# 5 -0.005886 -0.005403 -0.008373 0.000000 0.032895 0.000000
# 6 0.000000 0.000000 0.000000 -0.003995 0.000000 0.029769
#
#
# Mechanical properties :
#
#
# Convention : Reuss Voigt Hill
#
# Bulk Modulus (GPa) = 38.47730 71.01472 54.74601
# Shear Modulus (GPa) = 40.33198 50.23495 45.28346
#
# Velocity S-wave (km/s) = 4.23313 4.72433 4.48546
# Velocity P-wave (km/s) = 6.40218 7.83012 7.15188
#
# Compressibility (1/GPa) = 0.02598935
#
# Stress axis : x y z
#
# Youngs Moduli (GPa) = 114.03695 119.48867 85.39563
#
# Poissons Ratio (x) = -0.19261 0.15427
# Poissons Ratio (y) = -0.18383 0.10546
# Poissons Ratio (z) = 0.20601 0.14756
#
# Static dielectric constant tensor:
#      x y z
#    x 4.026530 0.000000 0.337240 
#    y 0.000000 4.433880 0.000000 
#    z 0.337240 0.000000 4.400920 
# 
# 
# High freq. dielectric constant tensor:
#      x y z
#    x 1.890170 0.000000 0.016180 
#    y 0.000000 1.917170 0.000000 
#    z 0.016180 0.000000 1.911360 
# 
# From -- ./inp_files/865.got.cif
#   From: 2010.06.25/outbox.cif.g09.slc.cpg/sg11_1_cif.got.tgz:865.got - 2010.06.27 23:14:04.
