data_PCOD8077780
_publ_section_title
;
Structure prediction by ZEFSAII (Michael W. Deem and Ramdas Pophale) SiO2 
 PCOD8077780
Probable space group: P 21/M
;
_chemical_formula_sum "Si O2"
_cell_formula_units_Z 26
_cell_length_a 9.760747
_cell_length_b 18.371282
_cell_length_c 8.889680
_cell_angle_alpha 90.000000
_cell_angle_beta 47.928654
_cell_angle_gamma 90.000000
_cell_volume 1183.299179
_symmetry_space_group_name_H-M "P 21/M"
_symmetry_group_IT_number 11
_symmetry_cell_setting 'monoclinic'
loop_
_space_group_symop_operation_xyz
x,y,z
-x,1/2+y,-z
-x,-y,-z
x,1/2-y,z
loop_
_atom_site_type_symbol
_atom_site_label
_atom_site_fract_x
_atom_site_fract_y
_atom_site_fract_z
Si Si1 0.134571 0.250000 0.929891
Si Si2 0.671234 0.409215 0.441166
Si Si3 0.051307 0.922780 0.525238
Si Si4 0.261431 0.750000 0.941933
Si Si5 0.618594 0.489728 0.179573
Si Si6 0.476791 0.750000 0.494140
Si Si7 0.627052 0.376323 0.927190
Si Si8 0.244015 0.374695 0.067684
O O1 0.301974 0.250000 0.686734
O O2 0.147632 0.319220 0.026623
O O3 0.938316 0.250000 0.990841
O O4 0.872602 0.423169 0.359708
O O5 0.685973 0.432134 0.255480
O O6 0.546824 0.463661 0.630400
O O7 0.607583 0.325101 0.512070
O O8 0.200598 0.887319 0.308588
O O9 0.862597 0.877303 0.692108
O O10 0.000000 0.000000 0.500000
O O11 0.431459 0.750000 0.702270
O O12 0.286201 0.819671 0.024214
O O13 0.558663 0.446016 0.073648
O O14 0.768959 0.547612 0.009960
O O15 0.453994 0.350491 0.953507
#
# Coordination Sequence:
#
# PCOD8077780 Si02
#       8
#     2   4   4   2   4   2   4   4
#     4  12  27  46  70 108 135 183 242 287 342 425
#     4  11  24  42  73 106 139 188 234 289 347 423
#     4  12  25  42  71 104 140 182 234 284 348 412
#     4  12  29  46  70 100 143 183 234 291 348 417
#     4  11  22  43  72 104 137 184 232 282 351 416
#     4  12  22  48  70  98 140 188 224 288 354 412
#     4  12  25  48  69 102 145 184 226 291 355 413
#     4  12  25  44  74 100 141 184 231 286 350 417
#
# _framework density 21.972463999999999
#
# number of rings (size 3 to 8) (size 9 to 14) (size 15 to 20)
#    0.000    0.308    6.154    2.769    0.000    4.308 
#    0.000    0.000    0.000    0.000    0.000    0.000 
#    0.000    0.000    0.000    0.000    0.000    0.000 
#
# Total GULP energy -322201.833477 kJ/mol
# GULP energy per Si atom -12392.378211 kJ/mol
# Density = 2.192245 g / cm^3
# Si number density = 21.972464 Si / 1000 Ang^3
#
#
#
# Elastic Constant Matrix: (Units=GPa)
#
#
# Indices 1 2 3 4 5 6 
#
# 1 101.7955 69.2509 58.9270 0.0000 3.5256 0.0000
# 2 69.2509 125.4388 38.6707 0.0000 -0.1401 0.0000
# 3 58.9270 38.6707 168.2723 0.0000 -9.1375 0.0000
# 4 0.0000 0.0000 0.0000 35.8356 0.0000 4.2688
# 5 3.5256 -0.1401 -9.1375 0.0000 25.0669 0.0000
# 6 0.0000 0.0000 0.0000 4.2688 0.0000 19.7742
#
#
#
# Elastic Compliance Matrix: (Units=1/GPa)
#
#
# Indices 1 2 3 4 5 6 
#
# 1 0.018809 -0.008915 -0.004779 0.000000 -0.004437 0.000000
# 2 -0.008915 0.012817 0.000254 0.000000 0.001418 0.000000
# 3 -0.004779 0.000254 0.007748 0.000000 0.003498 0.000000
# 4 0.000000 0.000000 0.000000 0.028642 0.000000 -0.006183
# 5 -0.004437 0.001418 0.003498 0.000000 0.041800 0.000000
# 6 0.000000 0.000000 0.000000 -0.006183 0.000000 0.051906
#
#
# Mechanical properties :
#
#
# Convention : Reuss Voigt Hill
#
# Bulk Modulus (GPa) = 80.04660 81.02265 80.53463
# Shear Modulus (GPa) = 25.93802 31.37921 28.65862
#
# Velocity S-wave (km/s) = 3.43954 3.78314 3.61542
# Velocity P-wave (km/s) = 7.23073 7.48582 7.35938
#
# Compressibility (1/GPa) = 0.01249272
#
# Stress axis : x y z
#
# Youngs Moduli (GPa) = 53.16681 78.01892 129.06793
#
# Poissons Ratio (x) = 0.69558 0.61677
# Poissons Ratio (y) = 0.47401 -0.03272
# Poissons Ratio (z) = 0.25407 -0.01978
#
# Static dielectric constant tensor:
#      x y z
#    x 2.916030 0.000000 0.388760 
#    y 0.000000 4.496980 0.000000 
#    z 0.388760 0.000000 4.473590 
# 
# 
# High freq. dielectric constant tensor:
#      x y z
#    x 1.856780 0.000000 0.006060 
#    y 0.000000 1.871450 0.000000 
#    z 0.006060 0.000000 1.890180 
# 
# From -- ./inp_files/14543.got.cif
#   From: 2010.06.25/outbox.cif.g09.slc.cpg/sg11_8_cif.got.tgz:14543.got - 2010.06.27 23:14:04.
