data_PCOD8077544
_publ_section_title
;
Structure prediction by ZEFSAII (Michael W. Deem and Ramdas Pophale) SiO2 
 PCOD8077544
Probable space group: P 21/M
;
_chemical_formula_sum "Si O2"
_cell_formula_units_Z 24
_cell_length_a 12.225801
_cell_length_b 8.717675
_cell_length_c 12.164800
_cell_angle_alpha 90.000000
_cell_angle_beta 101.983633
_cell_angle_gamma 90.000000
_cell_volume 1268.275827
_symmetry_space_group_name_H-M "P 21/M"
_symmetry_group_IT_number 11
_symmetry_cell_setting 'monoclinic'
loop_
_space_group_symop_operation_xyz
x,y,z
-x,1/2+y,-z
-x,-y,-z
x,1/2-y,z
loop_
_atom_site_type_symbol
_atom_site_label
_atom_site_fract_x
_atom_site_fract_y
_atom_site_fract_z
Si Si1 0.524691 0.074883 0.177361
Si Si2 0.763903 0.073006 0.173030
Si Si3 0.611662 0.572178 0.571940
Si Si4 0.687727 0.070252 0.814051
Si Si5 0.314576 0.426716 0.641822
Si Si6 0.120748 0.430642 0.008109
O O1 0.487144 0.250000 0.180557
O O2 0.630059 0.055457 0.115703
O O3 0.414100 0.977520 0.124740
O O4 0.566907 0.011607 0.305193
O O5 0.800917 0.250000 0.176744
O O6 0.781377 0.007129 0.301601
O O7 0.835205 0.977103 0.102624
O O8 0.500000 0.500000 0.500000
O O9 0.591851 0.750000 0.598158
O O10 0.662579 0.483243 0.685510
O O11 0.704856 0.557840 0.492836
O O12 0.705421 0.250000 0.822966
O O13 0.800583 0.992174 0.878976
O O14 0.324339 0.250000 0.680053
O O15 0.113879 0.250000 0.014481
O O16 0.000000 0.500000 0.000000
#
# Coordination Sequence:
#
# PCOD8077544 Si02
#       6
#     4   4   4   4   4   4
#     4   9  18  32  53  83 119 152 188 231 284 343
#     4   9  19  36  59  86 117 151 192 237 289 349
#     4  11  20  31  52  83 123 161 195 234 286 349
#     4  12  24  37  57  86 122 159 200 241 290 349
#     4   9  17  30  51  82 117 155 190 227 280 340
#     4  12  26  45  66  84 111 149 197 248 296 346
#
# _framework density 18.923327
#
# number of rings (size 3 to 8) (size 9 to 14) (size 15 to 20)
#    1.000    0.667    1.667    4.500    0.000    2.667 
#    0.000    0.000    0.000    1.000    0.000    0.000 
#    0.000    0.000    0.000    0.000    0.000    0.000 
#
# Total GULP energy -297317.505748 kJ/mol
# GULP energy per Si atom -12388.229406 kJ/mol
# Density = 1.888026 g / cm^3
# Si number density = 18.923327 Si / 1000 Ang^3
#
#
#
# Elastic Constant Matrix: (Units=GPa)
#
#
# Indices 1 2 3 4 5 6 
#
# 1 96.6475 45.3413 4.2137 0.0000 -17.9726 0.0000
# 2 45.3413 154.3497 2.5337 0.0000 -16.5982 0.0000
# 3 4.2137 2.5337 -60.4573 0.0000 -56.0244 0.0000
# 4 0.0000 0.0000 0.0000 27.5446 0.0000 -1.2313
# 5 -17.9726 -16.5982 -56.0244 0.0000 9.0587 0.0000
# 6 0.0000 0.0000 0.0000 -1.2313 0.0000 30.7944
#
#
#
# Elastic Compliance Matrix: (Units=1/GPa)
#
#
# Indices 1 2 3 4 5 6 
#
# 1 0.012658 -0.003299 -0.002515 0.000000 0.003517 0.000000
# 2 -0.003299 0.007591 -0.001001 0.000000 0.001175 0.000000
# 3 -0.002515 -0.001001 -0.001550 0.000000 -0.016411 0.000000
# 4 0.000000 0.000000 0.000000 0.036370 0.000000 0.001454
# 5 0.003517 0.001175 -0.016411 0.000000 0.018027 0.000000
# 6 0.000000 0.000000 0.000000 0.001454 0.000000 0.032532
#
#
# Mechanical properties :
#
#
# Convention : Reuss Voigt Hill
#
# Bulk Modulus (GPa) = 197.24318 32.74634 114.99476
# Shear Modulus (GPa) = 41.34104 22.70963 32.02533
#
# Velocity S-wave (km/s) = 4.67911 3.46798 4.11831
# Velocity P-wave (km/s) = 11.56076 5.77739 9.13864
#
# Compressibility (1/GPa) = 0.00506988
#
# Stress axis : x y z
#
# Youngs Moduli (GPa) = 79.00054 131.74077 -645.02859
#
# Poissons Ratio (x) = 0.43461 -1.62208
# Poissons Ratio (y) = 0.26062 -0.64540
# Poissons Ratio (z) = 0.19867 0.13182
#
# Static dielectric constant tensor:
#      x y z
#    x 3.313950 0.000000 -0.251050 
#    y 0.000000 3.587560 0.000000 
#    z -0.251050 0.000000 3.362420 
# 
# 
# High freq. dielectric constant tensor:
#      x y z
#    x 1.707620 0.000000 -0.032560 
#    y 0.000000 1.756470 0.000000 
#    z -0.032560 0.000000 1.720410 
# 
# From -- ./inp_files/48831.got.cif
#   From: 2010.06.25/outbox.cif.g09.slc.cpg/sg11_25_cif.got.tgz:48831.got - 2010.06.27 23:14:04.
