data_PCOD8077686
_publ_section_title
;
Structure prediction by ZEFSAII (Michael W. Deem and Ramdas Pophale) SiO2 
 PCOD8077686
Probable space group: P 21/M
;
_chemical_formula_sum "Si O2"
_cell_formula_units_Z 28
_cell_length_a 21.077752
_cell_length_b 9.465391
_cell_length_c 11.378580
_cell_angle_alpha 90.000000
_cell_angle_beta 49.478794
_cell_angle_gamma 90.000000
_cell_volume 1725.675353
_symmetry_space_group_name_H-M "P 21/M"
_symmetry_group_IT_number 11
_symmetry_cell_setting 'monoclinic'
loop_
_space_group_symop_operation_xyz
x,y,z
-x,1/2+y,-z
-x,-y,-z
x,1/2-y,z
loop_
_atom_site_type_symbol
_atom_site_label
_atom_site_fract_x
_atom_site_fract_y
_atom_site_fract_z
Si Si1 0.735911 0.418006 0.027680
Si Si2 0.410160 0.905007 0.488515
Si Si3 0.049242 0.411677 0.599549
Si Si4 0.928647 0.917236 0.154302
Si Si5 0.444334 0.593393 0.722707
Si Si6 0.225285 0.582760 0.758191
Si Si7 0.122910 0.915062 0.314796
O O1 0.730845 0.250000 0.038146
O O2 0.641205 0.474978 0.121686
O O3 0.773514 0.466483 0.107359
O O4 0.795027 0.471647 0.851627
O O5 0.420922 0.750000 0.420639
O O6 0.433825 0.901015 0.596071
O O7 0.314185 0.952917 0.590789
O O8 0.473692 0.004888 0.340569
O O9 0.070024 0.250000 0.546273
O O10 0.056718 0.445632 0.726690
O O11 0.115547 0.505078 0.447483
O O12 0.955561 0.450184 0.673595
O O13 0.931083 0.750000 0.121899
O O14 0.840441 0.984710 0.228203
O O15 0.000000 0.000000 0.000000
O O16 0.458490 0.750000 0.756509
O O17 0.203730 0.750000 0.773073
O O18 0.130091 0.750000 0.333017
#
# Coordination Sequence:
#
# PCOD8077686 Si02
#       7
#     4   4   4   4   4   4   4
#     4   8  14  26  44  66  91 119 147 178 221 262
#     4   8  14  24  38  58  86 118 146 174 212 255
#     4   9  19  33  46  63  88 115 142 178 222 257
#     4  11  22  34  48  66  90 118 147 180 217 258
#     4   8  13  22  38  59  85 116 146 175 210 257
#     4   9  17  30  46  64  91 123 150 178 216 261
#     4   9  16  29  49  66  83 112 148 180 212 259
#
# _framework density 16.225532000000001
#
# number of rings (size 3 to 8) (size 9 to 14) (size 15 to 20)
#    0.000    3.143    0.000    3.000    0.000    4.000 
#    0.000    6.429    0.000    0.000    0.000    1.000 
#    0.000    0.000    0.000    0.000    0.000    0.000 
#
# Total GULP energy -347029.897838 kJ/mol
# GULP energy per Si atom -12393.924923 kJ/mol
# Density = 1.618860 g / cm^3
# Si number density = 16.225532 Si / 1000 Ang^3
#
#
#
# Elastic Constant Matrix: (Units=GPa)
#
#
# Indices 1 2 3 4 5 6 
#
# 1 70.4048 47.9618 53.3426 0.0000 -14.3454 0.0000
# 2 47.9618 74.3182 60.6087 0.0000 -10.8185 0.0000
# 3 53.3426 60.6087 128.8749 0.0000 -17.9555 0.0000
# 4 0.0000 0.0000 0.0000 26.3835 0.0000 -3.7837
# 5 -14.3454 -10.8185 -17.9555 0.0000 25.2298 0.0000
# 6 0.0000 0.0000 0.0000 -3.7837 0.0000 24.8355
#
#
#
# Elastic Compliance Matrix: (Units=1/GPa)
#
#
# Indices 1 2 3 4 5 6 
#
# 1 0.028207 -0.013713 -0.004230 0.000000 0.007147 0.000000
# 2 -0.013713 0.028613 -0.007945 0.000000 -0.001182 0.000000
# 3 -0.004230 -0.007945 0.013806 0.000000 0.004013 0.000000
# 4 0.000000 0.000000 0.000000 0.038749 0.000000 0.005903
# 5 0.007147 -0.001182 0.004013 0.000000 0.046049 0.000000
# 6 0.000000 0.000000 0.000000 0.005903 0.000000 0.041164
#
#
# Mechanical properties :
#
#
# Convention : Reuss Voigt Hill
#
# Bulk Modulus (GPa) = 53.05345 66.38047 59.71696
# Shear Modulus (GPa) = 19.63500 22.73542 21.18521
#
# Velocity S-wave (km/s) = 3.48247 3.74734 3.61733
# Velocity P-wave (km/s) = 6.99561 7.72809 7.37095
#
# Compressibility (1/GPa) = 0.01884891
#
# Stress axis : x y z
#
# Youngs Moduli (GPa) = 35.45267 34.94932 72.43245
#
# Poissons Ratio (x) = 0.47927 0.30639
# Poissons Ratio (y) = 0.48617 0.57548
# Poissons Ratio (z) = 0.14996 0.27767
#
# Static dielectric constant tensor:
#      x y z
#    x 2.918770 0.000000 -0.298200 
#    y 0.000000 3.102390 0.000000 
#    z -0.298200 0.000000 3.234470 
# 
# 
# High freq. dielectric constant tensor:
#      x y z
#    x 1.595280 0.000000 -0.026630 
#    y 0.000000 1.612370 0.000000 
#    z -0.026630 0.000000 1.619870 
# 
# From -- ./inp_files/42360.got.cif
#   From: 2010.06.25/outbox.cif.g09.slc.cpg/sg11_22_cif.got.tgz:42360.got - 2010.06.27 23:14:04.
