data_PCOD8077279
_publ_section_title
;
Structure prediction by ZEFSAII (Michael W. Deem and Ramdas Pophale) SiO2 
 PCOD8077279
Probable space group: P 21/M
;
_chemical_formula_sum "Si O2"
_cell_formula_units_Z 28
_cell_length_a 21.607913
_cell_length_b 8.896878
_cell_length_c 9.659418
_cell_angle_alpha 90.000000
_cell_angle_beta 131.857104
_cell_angle_gamma 90.000000
_cell_volume 1383.081242
_symmetry_space_group_name_H-M "P 21/M"
_symmetry_group_IT_number 11
_symmetry_cell_setting 'monoclinic'
loop_
_space_group_symop_operation_xyz
x,y,z
-x,1/2+y,-z
-x,-y,-z
x,1/2-y,z
loop_
_atom_site_type_symbol
_atom_site_label
_atom_site_fract_x
_atom_site_fract_y
_atom_site_fract_z
Si Si1 0.327042 0.074654 0.729359
Si Si2 0.135999 0.072584 0.850593
Si Si3 0.432691 0.571970 0.109643
Si Si4 0.607698 0.424431 0.426060
Si Si5 0.306639 0.922534 0.157073
Si Si6 0.143346 0.074603 0.549861
Si Si7 0.009722 0.571665 0.165024
O O1 0.346049 0.250000 0.748082
O O2 0.240631 0.041805 0.676374
O O3 0.325316 0.003282 0.574253
O O4 0.403889 0.995029 0.920659
O O5 0.139410 0.250000 0.854622
O O6 0.119103 0.017081 0.667788
O O7 0.063897 0.013551 0.844500
O O8 0.222766 0.016397 0.039279
O O9 0.442417 0.750000 0.114191
O O10 0.519137 0.502534 0.283667
O O11 0.363123 0.521781 0.115372
O O12 0.599485 0.250000 0.376270
O O13 0.640375 0.450751 0.627807
O O14 0.281161 0.750000 0.100909
O O15 0.122807 0.250000 0.498145
O O16 0.095405 0.979981 0.362523
O O17 0.009116 0.750000 0.147909
O O18 0.000000 0.500000 0.000000
#
# Coordination Sequence:
#
# PCOD8077279 Si02
#       7
#     4   4   4   4   4   4   4
#     4  11  23  40  63  90 122 163 206 254 308 361
#     4  10  22  42  66  92 122 161 206 250 302 363
#     4  11  22  40  63  90 121 159 208 255 307 367
#     4  11  24  40  59  88 126 164 206 256 309 362
#     4  10  23  40  62  92 123 159 205 255 306 362
#     4  10  22  42  66  92 123 160 206 253 303 362
#     4  11  25  42  65  96 129 163 200 247 304 363
#
# _framework density 20.244655000000002
#
# number of rings (size 3 to 8) (size 9 to 14) (size 15 to 20)
#    0.000    1.429    1.429    3.000    2.000    4.571 
#    0.000    0.000    0.000    0.000    0.000    0.000 
#    0.000    0.000    0.000    0.000    0.000    0.000 
#
# Total GULP energy -347346.393207 kJ/mol
# GULP energy per Si atom -12405.228329 kJ/mol
# Density = 2.019858 g / cm^3
# Si number density = 20.244655 Si / 1000 Ang^3
#
#
#
# Elastic Constant Matrix: (Units=GPa)
#
#
# Indices 1 2 3 4 5 6 
#
# 1 78.8504 36.1604 39.5373 0.0000 0.5647 0.0000
# 2 36.1604 82.6852 43.1761 0.0000 -0.2356 0.0000
# 3 39.5373 43.1761 102.9232 0.0000 5.1125 0.0000
# 4 0.0000 0.0000 0.0000 34.0917 0.0000 0.3120
# 5 0.5647 -0.2356 5.1125 0.0000 28.3016 0.0000
# 6 0.0000 0.0000 0.0000 0.3120 0.0000 32.4065
#
#
#
# Elastic Compliance Matrix: (Units=1/GPa)
#
#
# Indices 1 2 3 4 5 6 
#
# 1 0.017327 -0.005237 -0.004480 0.000000 0.000420 0.000000
# 2 -0.005237 0.017118 -0.005228 0.000000 0.001191 0.000000
# 3 -0.004480 -0.005228 0.013751 0.000000 -0.002438 0.000000
# 4 0.000000 0.000000 0.000000 0.029335 0.000000 -0.000282
# 5 0.000420 0.001191 -0.002438 0.000000 0.035776 0.000000
# 6 0.000000 0.000000 0.000000 -0.000282 0.000000 0.030861
#
#
# Mechanical properties :
#
#
# Convention : Reuss Voigt Hill
#
# Bulk Modulus (GPa) = 54.62818 55.80071 55.21445
# Shear Modulus (GPa) = 27.75295 28.66564 28.20930
#
# Velocity S-wave (km/s) = 3.70655 3.76701 3.73690
# Velocity P-wave (km/s) = 6.73503 6.82228 6.77879
#
# Compressibility (1/GPa) = 0.01830557
#
# Stress axis : x y z
#
# Youngs Moduli (GPa) = 57.71214 58.41854 72.72015
#
# Poissons Ratio (x) = 0.30595 0.32579
# Poissons Ratio (y) = 0.30225 0.38020
# Poissons Ratio (z) = 0.25856 0.30543
#
# Static dielectric constant tensor:
#      x y z
#    x 3.947590 0.000000 -0.137520 
#    y 0.000000 3.681170 0.000000 
#    z -0.137520 0.000000 3.621290 
# 
# 
# High freq. dielectric constant tensor:
#      x y z
#    x 1.805610 0.000000 -0.005080 
#    y 0.000000 1.792340 0.000000 
#    z -0.005080 0.000000 1.799660 
# 
# From -- ./inp_files/26172.got.cif
#   From: 2010.06.25/outbox.cif.g09.slc.cpg/sg11_14_cif.got.tgz:26172.got - 2010.06.27 23:14:04.
