data_PCOD8077633
_publ_section_title
;
Structure prediction by ZEFSAII (Michael W. Deem and Ramdas Pophale) SiO2 
 PCOD8077633
Probable space group: P 21/M
;
_chemical_formula_sum "Si O2"
_cell_formula_units_Z 28
_cell_length_a 15.097927
_cell_length_b 8.566830
_cell_length_c 16.739521
_cell_angle_alpha 90.000000
_cell_angle_beta 134.665273
_cell_angle_gamma 90.000000
_cell_volume 1539.883695
_symmetry_space_group_name_H-M "P 21/M"
_symmetry_group_IT_number 11
_symmetry_cell_setting 'monoclinic'
loop_
_space_group_symop_operation_xyz
x,y,z
-x,1/2+y,-z
-x,-y,-z
x,1/2-y,z
loop_
_atom_site_type_symbol
_atom_site_label
_atom_site_fract_x
_atom_site_fract_y
_atom_site_fract_z
Si Si1 0.314572 0.066130 0.908805
Si Si2 0.104797 0.432659 0.892821
Si Si3 0.441046 0.566418 0.847835
Si Si4 0.239845 0.568532 0.128205
Si Si5 0.609151 0.566520 0.515087
Si Si6 0.848142 0.569007 0.768082
Si Si7 0.510093 0.066241 0.298198
O O1 0.322127 0.250000 0.912786
O O2 0.185268 0.012917 0.866923
O O3 0.325425 0.003282 0.824993
O O4 0.429204 0.999300 0.034492
O O5 0.073277 0.250000 0.869617
O O6 0.979289 0.532330 0.809940
O O7 0.184905 0.465153 0.022499
O O8 0.435927 0.750000 0.852889
O O9 0.431013 0.515468 0.749211
O O10 0.226639 0.750000 0.098359
O O11 0.162315 0.534011 0.159021
O O12 0.382384 0.523965 0.233806
O O13 0.500000 0.500000 0.500000
O O14 0.590428 0.750000 0.492818
O O15 0.740718 0.524125 0.637741
O O16 0.607557 0.483382 0.427905
O O17 0.840006 0.750000 0.786876
O O18 0.482347 0.250000 0.283629
#
# Coordination Sequence:
#
# PCOD8077633 Si02
#       7
#     4   4   4   4   4   4   4
#     4   9  18  33  53  79 111 143 177 221 271 325
#     4  11  22  38  57  80 114 149 184 226 275 329
#     4   9  18  33  53  80 111 143 176 220 276 325
#     4  12  23  35  55  82 112 149 187 222 273 331
#     4  11  23  38  58  81 109 145 187 232 275 322
#     4  11  24  40  56  78 111 148 187 230 273 324
#     4  11  21  36  57  82 115 146 181 230 277 325
#
# _framework density 18.18319
#
# number of rings (size 3 to 8) (size 9 to 14) (size 15 to 20)
#    0.000    1.429    2.857    3.429    0.000    4.000 
#    0.000    0.000    0.000    0.857    0.000    0.000 
#    0.000    0.000    0.000    0.000    0.000    0.000 
#
# Total GULP energy -347303.712293 kJ/mol
# GULP energy per Si atom -12403.704010 kJ/mol
# Density = 1.814180 g / cm^3
# Si number density = 18.183190 Si / 1000 Ang^3
#
#
#
# Elastic Constant Matrix: (Units=GPa)
#
#
# Indices 1 2 3 4 5 6 
#
# 1 133.8107 27.9619 44.9463 0.0000 -18.1534 0.0000
# 2 27.9619 39.9496 17.7387 0.0000 -2.5039 0.0000
# 3 44.9463 17.7387 72.3839 0.0000 -11.4468 0.0000
# 4 0.0000 0.0000 0.0000 28.8134 0.0000 -2.6332
# 5 -18.1534 -2.5039 -11.4468 0.0000 30.2565 0.0000
# 6 0.0000 0.0000 0.0000 -2.6332 0.0000 29.7054
#
#
#
# Elastic Compliance Matrix: (Units=1/GPa)
#
#
# Indices 1 2 3 4 5 6 
#
# 1 0.010703 -0.005130 -0.004723 0.000000 0.004210 0.000000
# 2 -0.005130 0.030550 -0.004667 0.000000 -0.002316 0.000000
# 3 -0.004723 -0.004667 0.018489 0.000000 0.003775 0.000000
# 4 0.000000 0.000000 0.000000 0.034990 0.000000 0.003102
# 5 0.004210 -0.002316 0.003775 0.000000 0.036813 0.000000
# 6 0.000000 0.000000 0.000000 0.003102 0.000000 0.033939
#
#
# Mechanical properties :
#
#
# Convention : Reuss Voigt Hill
#
# Bulk Modulus (GPa) = 32.57285 47.49311 40.03298
# Shear Modulus (GPa) = 24.41922 28.12153 26.27037
#
# Velocity S-wave (km/s) = 3.66861 3.93691 3.80513
# Velocity P-wave (km/s) = 5.99146 6.84409 6.43192
#
# Compressibility (1/GPa) = 0.03070041
#
# Stress axis : x y z
#
# Youngs Moduli (GPa) = 93.43303 32.73365 54.08755
#
# Poissons Ratio (x) = 0.16793 0.25545
# Poissons Ratio (y) = 0.47934 0.25244
# Poissons Ratio (z) = 0.44127 0.15277
#
# Static dielectric constant tensor:
#      x y z
#    x 3.531970 0.000000 -0.109280 
#    y 0.000000 3.340500 0.000000 
#    z -0.109280 0.000000 3.361910 
# 
# 
# High freq. dielectric constant tensor:
#      x y z
#    x 1.705260 0.000000 -0.011420 
#    y 0.000000 1.711300 0.000000 
#    z -0.011420 0.000000 1.684950 
# 
# From -- ./inp_files/37484.got.cif
#   From: 2010.06.25/outbox.cif.g09.slc.cpg/sg11_19_cif.got.tgz:37484.got - 2010.06.27 23:14:04.
