data_PCOD8077030
_publ_section_title
;
Structure prediction by ZEFSAII (Michael W. Deem and Ramdas Pophale) SiO2 
 PCOD8077030
Probable space group: P 21/M
;
_chemical_formula_sum "Si O2"
_cell_formula_units_Z 24
_cell_length_a 11.365967
_cell_length_b 14.100281
_cell_length_c 13.687948
_cell_angle_alpha 90.000000
_cell_angle_beta 33.330039
_cell_angle_gamma 90.000000
_cell_volume 1205.339334
_symmetry_space_group_name_H-M "P 21/M"
_symmetry_group_IT_number 11
_symmetry_cell_setting 'monoclinic'
loop_
_space_group_symop_operation_xyz
x,y,z
-x,1/2+y,-z
-x,-y,-z
x,1/2-y,z
loop_
_atom_site_type_symbol
_atom_site_label
_atom_site_fract_x
_atom_site_fract_y
_atom_site_fract_z
Si Si1 0.528025 0.861119 0.464944
Si Si2 0.336193 0.358275 0.839347
Si Si3 0.742602 0.637386 0.511863
Si Si4 0.539867 0.519827 0.816435
Si Si5 0.946195 0.140647 0.242237
Si Si6 0.846868 0.484026 0.776743
O O1 0.516193 0.750000 0.488108
O O2 0.660940 0.888931 0.276020
O O3 0.644162 0.904243 0.479128
O O4 0.286269 0.900355 0.624488
O O5 0.415702 0.250000 0.796347
O O6 0.499951 0.421239 0.787996
O O7 0.093548 0.370756 0.044235
O O8 0.751184 0.750000 0.508050
O O9 0.591788 0.602957 0.704488
O O10 0.982806 0.599242 0.354849
O O11 0.743038 0.504677 0.744466
O O12 0.331603 0.551090 0.022286
O O13 0.935477 0.250000 0.284452
O O14 0.041056 0.081062 0.266216
#
# Coordination Sequence:
#
# PCOD8077030 Si02
#       6
#     4   4   4   4   4   4
#     4   9  19  35  54  79 111 144 182 228 273 325
#     4   9  18  34  57  82 108 142 183 229 281 330
#     4  11  24  39  56  81 114 151 185 221 273 329
#     4  10  22  39  58  83 113 144 185 232 273 323
#     4   9  18  34  57  82 108 142 183 229 281 330
#     4  10  22  39  58  83 113 144 185 232 273 323
#
# _framework density 19.911405999999999
#
# number of rings (size 3 to 8) (size 9 to 14) (size 15 to 20)
#    0.000    2.333    0.000    1.500    0.000    6.000 
#    0.000   11.667    0.000    0.000    0.000    0.000 
#    0.000    0.000    0.000    0.000    0.000    0.000 
#
# Total GULP energy -297642.826660 kJ/mol
# GULP energy per Si atom -12401.784444 kJ/mol
# Density = 1.986609 g / cm^3
# Si number density = 19.911406 Si / 1000 Ang^3
#
#
#
# Elastic Constant Matrix: (Units=GPa)
#
#
# Indices 1 2 3 4 5 6 
#
# 1 68.2331 12.2546 7.6375 0.0000 16.1660 0.0000
# 2 12.2546 75.4187 24.9072 0.0000 9.2135 0.0000
# 3 7.6375 24.9072 71.0395 0.0000 10.1371 0.0000
# 4 0.0000 0.0000 0.0000 20.5689 0.0000 5.5661
# 5 16.1660 9.2135 10.1371 0.0000 33.7007 0.0000
# 6 0.0000 0.0000 0.0000 5.5661 0.0000 25.8998
#
#
#
# Elastic Compliance Matrix: (Units=1/GPa)
#
#
# Indices 1 2 3 4 5 6 
#
# 1 0.016769 -0.001769 -0.000108 0.000000 -0.007528 0.000000
# 2 -0.001769 0.015409 -0.004945 0.000000 -0.001877 0.000000
# 3 -0.000108 -0.004945 0.016322 0.000000 -0.003506 0.000000
# 4 0.000000 0.000000 0.000000 0.051619 0.000000 -0.011093
# 5 -0.007528 -0.001877 -0.003506 0.000000 0.034852 0.000000
# 6 0.000000 0.000000 0.000000 -0.011093 0.000000 0.040994
#
#
# Mechanical properties :
#
#
# Convention : Reuss Voigt Hill
#
# Bulk Modulus (GPa) = 28.68960 33.80998 31.24979
# Shear Modulus (GPa) = 24.84739 27.36002 26.10370
#
# Velocity S-wave (km/s) = 3.53639 3.71089 3.62469
# Velocity P-wave (km/s) = 5.57805 5.94794 5.76596
#
# Compressibility (1/GPa) = 0.03485584
#
# Stress axis : x y z
#
# Youngs Moduli (GPa) = 59.63371 64.89713 61.26625
#
# Poissons Ratio (x) = 0.11483 0.00664
# Poissons Ratio (y) = 0.10551 0.30293
# Poissons Ratio (z) = 0.00646 0.32089
#
# Static dielectric constant tensor:
#      x y z
#    x 3.752180 0.000000 0.037250 
#    y 0.000000 3.473870 0.000000 
#    z 0.037250 0.000000 3.784790 
# 
# 
# High freq. dielectric constant tensor:
#      x y z
#    x 1.776420 0.000000 0.003920 
#    y 0.000000 1.772070 0.000000 
#    z 0.003920 0.000000 1.789360 
# 
# From -- ./inp_files/39705.got.cif
#   From: 2010.06.25/outbox.cif.g09.slc.cpg/sg11_20_cif.got.tgz:39705.got - 2010.06.27 23:14:04.
