data_PCOD8077744
_publ_section_title
;
Structure prediction by ZEFSAII (Michael W. Deem and Ramdas Pophale) SiO2 
 PCOD8077744
Probable space group: P 21/M
;
_chemical_formula_sum "Si O2"
_cell_formula_units_Z 24
_cell_length_a 8.888597
_cell_length_b 14.858836
_cell_length_c 9.326791
_cell_angle_alpha 90.000000
_cell_angle_beta 104.854809
_cell_angle_gamma 90.000000
_cell_volume 1190.659059
_symmetry_space_group_name_H-M "P 21/M"
_symmetry_group_IT_number 11
_symmetry_cell_setting 'monoclinic'
loop_
_space_group_symop_operation_xyz
x,y,z
-x,1/2+y,-z
-x,-y,-z
x,1/2-y,z
loop_
_atom_site_type_symbol
_atom_site_label
_atom_site_fract_x
_atom_site_fract_y
_atom_site_fract_z
Si Si1 0.466450 0.250000 0.030486
Si Si2 0.919703 0.750000 0.390640
Si Si3 0.536217 0.555469 0.868960
Si Si4 0.424185 0.060760 0.597808
Si Si5 0.900270 0.572871 0.893711
Si Si6 0.546367 0.750000 0.292477
Si Si7 0.925109 0.581096 0.564618
Si Si8 0.100087 0.250000 0.937914
O O1 0.517674 0.159869 0.128268
O O2 0.532296 0.250000 0.884687
O O3 0.283392 0.250000 0.964685
O O4 0.733098 0.750000 0.335405
O O5 0.991394 0.667902 0.498738
O O6 0.980321 0.750000 0.239913
O O7 0.421539 0.503437 0.734540
O O8 0.716352 0.550870 0.863018
O O9 0.500000 0.500000 0.000000
O O10 0.510993 0.157388 0.644692
O O11 0.256677 0.083941 0.501327
O O12 0.500000 0.000000 0.500000
O O13 0.956635 0.578651 0.742476
O O14 0.950378 0.664403 0.982863
O O15 0.000000 0.500000 0.000000
O O16 0.000000 0.500000 0.500000
#
# Coordination Sequence:
#
# PCOD8077744 Si02
#       8
#     2   2   4   4   4   2   4   2
#     4   9  18  34  58  90 114 158 200 239 295 361
#     4   9  19  37  61  87 115 159 200 241 300 368
#     4  11  22  38  65  88 122 159 204 250 300 362
#     4  11  22  40  61  91 121 159 203 248 303 357
#     4  11  23  39  62  90 120 158 204 249 299 357
#     4   9  18  34  60  84 120 157 196 241 298 361
#     4  11  23  39  63  87 123 160 200 248 302 359
#     4   9  19  37  61  87 117 154 204 245 293 368
#
# _framework density 20.156903
#
# number of rings (size 3 to 8) (size 9 to 14) (size 15 to 20)
#    0.000    1.667    3.333    1.500    4.667    0.667 
#    0.000    3.333    0.000    0.000    0.000    0.000 
#    0.000    0.000    0.000    0.000    0.000    0.000 
#
# Total GULP energy -297364.748033 kJ/mol
# GULP energy per Si atom -12390.197835 kJ/mol
# Density = 2.011102 g / cm^3
# Si number density = 20.156903 Si / 1000 Ang^3
#
#
#
# Elastic Constant Matrix: (Units=GPa)
#
#
# Indices 1 2 3 4 5 6 
#
# 1 17.3537 18.8949 14.1257 0.0000 -13.2372 0.0000
# 2 18.8949 204.2902 85.7106 0.0000 -15.3527 0.0000
# 3 14.1257 85.7106 183.0250 0.0000 -25.0340 0.0000
# 4 0.0000 0.0000 0.0000 41.2624 0.0000 -6.2691
# 5 -13.2372 -15.3527 -25.0340 0.0000 32.9148 0.0000
# 6 0.0000 0.0000 0.0000 -6.2691 0.0000 29.8303
#
#
#
# Elastic Compliance Matrix: (Units=1/GPa)
#
#
# Indices 1 2 3 4 5 6 
#
# 1 0.089242 -0.005936 0.000471 0.000000 0.033480 0.000000
# 2 -0.005936 0.006503 -0.002789 0.000000 -0.001475 0.000000
# 3 0.000471 -0.002789 0.007346 0.000000 0.004476 0.000000
# 4 0.000000 0.000000 0.000000 0.025034 0.000000 0.005261
# 5 0.033480 -0.001475 0.004476 0.000000 0.046562 0.000000
# 6 0.000000 0.000000 0.000000 0.005261 0.000000 0.034629
#
#
# Mechanical properties :
#
#
# Convention : Reuss Voigt Hill
#
# Bulk Modulus (GPa) = 11.54947 71.34790 41.44868
# Shear Modulus (GPa) = 19.63216 39.86403 29.74809
#
# Velocity S-wave (km/s) = 3.12423 4.45194 3.84582
# Velocity P-wave (km/s) = 4.33089 7.86762 6.35044
#
# Compressibility (1/GPa) = 0.08658409
#
# Stress axis : x y z
#
# Youngs Moduli (GPa) = 11.20549 153.76700 136.13462
#
# Poissons Ratio (x) = 0.91272 -0.06418
# Poissons Ratio (y) = 0.06651 0.37970
# Poissons Ratio (z) = -0.00528 0.42888
#
# Static dielectric constant tensor:
#      x y z
#    x 3.204720 0.000000 -0.069310 
#    y 0.000000 -11.726970 0.000000 
#    z -0.069310 0.000000 4.194190 
# 
# 
# High freq. dielectric constant tensor:
#      x y z
#    x 1.740910 0.000000 -0.011560 
#    y 0.000000 1.812150 0.000000 
#    z -0.011560 0.000000 1.805690 
# 
# From -- ./inp_files/12592.got.cif
#   From: 2010.06.25/outbox.cif.g09.slc.cpg/sg11_7_cif.got.tgz:12592.got - 2010.06.27 23:14:04.
