data_PCOD8077956
_publ_section_title
;
Structure prediction by ZEFSAII (Michael W. Deem and Ramdas Pophale) SiO2 
 PCOD8077956
Probable space group: P 21/M
;
_chemical_formula_sum "Si O2"
_cell_formula_units_Z 28
_cell_length_a 18.165391
_cell_length_b 9.301976
_cell_length_c 20.599025
_cell_angle_alpha 90.000000
_cell_angle_beta 152.393964
_cell_angle_gamma 90.000000
_cell_volume 1612.919593
_symmetry_space_group_name_H-M "P 21/M"
_symmetry_group_IT_number 11
_symmetry_cell_setting 'monoclinic'
loop_
_space_group_symop_operation_xyz
x,y,z
-x,1/2+y,-z
-x,-y,-z
x,1/2-y,z
loop_
_atom_site_type_symbol
_atom_site_label
_atom_site_fract_x
_atom_site_fract_y
_atom_site_fract_z
Si Si1 0.583853 0.583096 0.157025
Si Si2 0.529451 0.586179 0.673302
Si Si3 0.616834 0.581917 0.330813
Si Si4 0.360270 0.580259 0.353997
Si Si5 0.813977 0.091177 0.660273
Si Si6 0.946892 0.917143 0.655250
Si Si7 0.737072 0.417934 0.165933
O O1 0.624101 0.750000 0.180771
O O2 0.600656 0.532838 0.244069
O O3 0.711571 0.497121 0.214260
O O4 0.405974 0.547410 0.994974
O O5 0.588969 0.750000 0.728899
O O6 0.511905 0.509137 0.729228
O O7 0.657559 0.496026 0.730299
O O8 0.361230 0.580435 0.506364
O O9 0.578992 0.750000 0.310650
O O10 0.795088 0.545105 0.492777
O O11 0.500000 0.500000 0.500000
O O12 0.399613 0.750000 0.376815
O O13 0.201610 0.558736 0.274425
O O14 0.883551 0.250000 0.703976
O O15 0.932021 0.983722 0.715727
O O16 0.967255 0.750000 0.683003
O O17 0.102115 0.978760 0.740615
O O18 0.751233 0.250000 0.192165
#
# Coordination Sequence:
#
# PCOD8077956 Si02
#       7
#     4   4   4   4   4   4   4
#     4   9  18  32  48  64  84 112 144 175 211 257
#     4   9  16  25  38  59  86 115 145 177 215 256
#     4   9  17  29  44  63  87 114 143 175 213 257
#     4   9  15  23  36  56  84 117 149 179 213 253
#     4   8  15  25  37  57  85 114 143 174 209 250
#     4   9  17  28  43  63  87 113 141 175 214 253
#     4   9  18  32  47  64  86 111 141 177 214 253
#
# _framework density 17.359824
#
# number of rings (size 3 to 8) (size 9 to 14) (size 15 to 20)
#    0.000    3.143    0.000    1.714    0.000    5.714 
#    0.000    0.000    0.000    0.000    0.000    1.000 
#    0.000    0.000    0.000    0.000    0.000    0.000 
#
# Total GULP energy -347051.675675 kJ/mol
# GULP energy per Si atom -12394.702703 kJ/mol
# Density = 1.732031 g / cm^3
# Si number density = 17.359824 Si / 1000 Ang^3
#
#
#
# Elastic Constant Matrix: (Units=GPa)
#
#
# Indices 1 2 3 4 5 6 
#
# 1 192.1921 81.6901 46.3455 0.0000 -7.3944 0.0000
# 2 81.6901 84.0217 24.6289 0.0000 -3.3640 0.0000
# 3 46.3455 24.6289 28.8273 0.0000 -2.9769 0.0000
# 4 0.0000 0.0000 0.0000 11.7720 0.0000 -0.2249
# 5 -7.3944 -3.3640 -2.9769 0.0000 2.8679 0.0000
# 6 0.0000 0.0000 0.0000 -0.2249 0.0000 39.4316
#
#
#
# Elastic Compliance Matrix: (Units=1/GPa)
#
#
# Indices 1 2 3 4 5 6 
#
# 1 0.011379 -0.007486 -0.010949 0.000000 0.009193 0.000000
# 2 -0.007486 0.020869 -0.005892 0.000000 -0.000937 0.000000
# 3 -0.010949 -0.005892 0.060143 0.000000 0.027288 0.000000
# 4 0.000000 0.000000 0.000000 0.084957 0.000000 0.000485
# 5 0.009193 -0.000937 0.027288 0.000000 0.399621 0.000000
# 6 0.000000 0.000000 0.000000 0.000485 0.000000 0.025363
#
#
# Mechanical properties :
#
#
# Convention : Reuss Voigt Hill
#
# Bulk Modulus (GPa) = 22.86317 67.81891 45.34104
# Shear Modulus (GPa) = 7.51242 20.97273 14.24258
#
# Velocity S-wave (km/s) = 2.08252 3.47957 2.86743
# Velocity P-wave (km/s) = 4.35675 7.43604 6.09409
#
# Compressibility (1/GPa) = 0.04373847
#
# Stress axis : x y z
#
# Youngs Moduli (GPa) = 87.88348 47.91779 16.62692
#
# Poissons Ratio (x) = 0.35869 0.18205
# Poissons Ratio (y) = 0.65785 0.09797
# Poissons Ratio (z) = 0.96222 0.28233
#
# Static dielectric constant tensor:
#      x y z
#    x 3.765910 0.000000 0.006920 
#    y 0.000000 3.279700 0.000000 
#    z 0.006920 0.000000 2.759610 
# 
# 
# High freq. dielectric constant tensor:
#      x y z
#    x 1.690250 0.000000 -0.001570 
#    y 0.000000 1.672870 0.000000 
#    z -0.001570 0.000000 1.607740 
# 
# From -- ./inp_files/42588.got.cif
#   From: 2010.06.25/outbox.cif.g09.slc.cpg/sg11_22_cif.got.tgz:42588.got - 2010.06.27 23:14:04.
