data_PCOD8077469
_publ_section_title
;
Structure prediction by ZEFSAII (Michael W. Deem and Ramdas Pophale) SiO2 
 PCOD8077469
Probable space group: P 21/M
;
_chemical_formula_sum "Si O2"
_cell_formula_units_Z 24
_cell_length_a 10.982444
_cell_length_b 19.562890
_cell_length_c 5.338984
_cell_angle_alpha 90.000000
_cell_angle_beta 65.946390
_cell_angle_gamma 90.000000
_cell_volume 1047.465295
_symmetry_space_group_name_H-M "P 21/M"
_symmetry_group_IT_number 11
_symmetry_cell_setting 'monoclinic'
loop_
_space_group_symop_operation_xyz
x,y,z
-x,1/2+y,-z
-x,-y,-z
x,1/2-y,z
loop_
_atom_site_type_symbol
_atom_site_label
_atom_site_fract_x
_atom_site_fract_y
_atom_site_fract_z
Si Si1 0.190240 0.363945 0.987469
Si Si2 0.012362 0.250000 0.326593
Si Si3 0.201465 0.510252 0.229097
Si Si4 0.512180 0.673244 0.339921
Si Si5 0.839016 0.250000 0.964969
Si Si6 0.627459 0.132769 0.057473
Si Si7 0.942003 0.948815 0.248472
O O1 0.329001 0.329899 0.801953
O O2 0.097290 0.373318 0.818078
O O3 0.108419 0.316483 0.245377
O O4 0.209152 0.442180 0.055652
O O5 0.940089 0.250000 0.650310
O O6 0.910719 0.250000 0.176045
O O7 0.193319 0.482263 0.519877
O O8 0.066906 0.557704 0.332349
O O9 0.326828 0.556548 0.055427
O O10 0.468212 0.750000 0.446021
O O11 0.459172 0.626628 0.614024
O O12 0.457650 0.656520 0.109842
O O13 0.750071 0.182202 0.013967
O O14 0.000000 0.000000 0.000000
#
# Coordination Sequence:
#
# PCOD8077469 Si02
#       7
#     4   2   4   4   2   4   4
#     4  11  26  45  70 104 142 185 234 292 359 424
#     4  12  28  42  74 106 138 180 236 298 354 434
#     4  10  24  43  71 106 142 182 234 297 361 419
#     4  12  26  50  70 100 143 195 238 291 345 415
#     4  12  26  46  72 106 138 184 244 282 360 420
#     4  12  27  47  74 100 144 190 240 293 345 419
#     4   9  21  42  67 100 141 176 220 288 363 407
#
# _framework density 22.912451999999998
#
# number of rings (size 3 to 8) (size 9 to 14) (size 15 to 20)
#    0.000    1.000    2.500    2.000   16.333    1.333 
#    0.000    0.000    0.000    0.000    0.000    0.000 
#    0.000    0.000    0.000    0.000    0.000    0.000 
#
# Total GULP energy -297357.125414 kJ/mol
# GULP energy per Si atom -12389.880226 kJ/mol
# Density = 2.286030 g / cm^3
# Si number density = 22.912452 Si / 1000 Ang^3
#
#
#
# Elastic Constant Matrix: (Units=GPa)
#
#
# Indices 1 2 3 4 5 6 
#
# 1 62.4853 13.0939 25.4779 0.0000 -6.2672 0.0000
# 2 13.0939 78.0038 -4.5131 0.0000 -3.0926 0.0000
# 3 25.4779 -4.5131 123.3597 0.0000 0.0742 0.0000
# 4 0.0000 0.0000 0.0000 33.3463 0.0000 -8.0887
# 5 -6.2672 -3.0926 0.0742 0.0000 30.7884 0.0000
# 6 0.0000 0.0000 0.0000 -8.0887 0.0000 31.2178
#
#
#
# Elastic Compliance Matrix: (Units=1/GPa)
#
#
# Indices 1 2 3 4 5 6 
#
# 1 0.018647 -0.003222 -0.003971 0.000000 0.003482 0.000000
# 2 -0.003222 0.013455 0.001157 0.000000 0.000693 0.000000
# 3 -0.003971 0.001157 0.008969 0.000000 -0.000714 0.000000
# 4 0.000000 0.000000 0.000000 0.031999 0.000000 0.008291
# 5 0.003482 0.000693 -0.000714 0.000000 0.033260 0.000000
# 6 0.000000 0.000000 0.000000 0.008291 0.000000 0.034181
#
#
# Mechanical properties :
#
#
# Convention : Reuss Voigt Hill
#
# Bulk Modulus (GPa) = 34.48269 36.88511 35.68390
# Shear Modulus (GPa) = 30.81643 34.38984 32.60314
#
# Velocity S-wave (km/s) = 3.67135 3.87838 3.77629
# Velocity P-wave (km/s) = 5.74928 6.01573 5.88401
#
# Compressibility (1/GPa) = 0.02900006
#
# Stress axis : x y z
#
# Youngs Moduli (GPa) = 53.62678 74.32094 111.49080
#
# Poissons Ratio (x) = 0.23946 0.44276
# Poissons Ratio (y) = 0.17278 -0.12903
# Poissons Ratio (z) = 0.21297 -0.08601
#
# Static dielectric constant tensor:
#      x y z
#    x 4.805950 0.000000 0.227130 
#    y 0.000000 4.337080 0.000000 
#    z 0.227130 0.000000 4.284320 
# 
# 
# High freq. dielectric constant tensor:
#      x y z
#    x 1.895760 0.000000 0.000300 
#    y 0.000000 1.906800 0.000000 
#    z 0.000300 0.000000 1.921600 
# 
# From -- ./inp_files/4841.got.cif
#   From: 2010.06.25/outbox.cif.g09.slc.cpg/sg11_3_cif.got.tgz:4841.got - 2010.06.27 23:14:04.
