data_PCOD8077044
_publ_section_title
;
Structure prediction by ZEFSAII (Michael W. Deem and Ramdas Pophale) SiO2 
 PCOD8077044
Probable space group: P 21/M
;
_chemical_formula_sum "Si O2"
_cell_formula_units_Z 24
_cell_length_a 18.475495
_cell_length_b 9.024275
_cell_length_c 7.681413
_cell_angle_alpha 90.000000
_cell_angle_beta 111.209424
_cell_angle_gamma 90.000000
_cell_volume 1193.956703
_symmetry_space_group_name_H-M "P 21/M"
_symmetry_group_IT_number 11
_symmetry_cell_setting 'monoclinic'
loop_
_space_group_symop_operation_xyz
x,y,z
-x,1/2+y,-z
-x,-y,-z
x,1/2-y,z
loop_
_atom_site_type_symbol
_atom_site_label
_atom_site_fract_x
_atom_site_fract_y
_atom_site_fract_z
Si Si1 0.171237 0.077264 0.492475
Si Si2 0.005004 0.422213 0.321998
Si Si3 0.335171 0.424553 0.496768
Si Si4 0.839201 0.076095 0.147715
Si Si5 0.419325 0.924204 0.888255
Si Si6 0.681261 0.422448 0.861535
O O1 0.174935 0.250000 0.539268
O O2 0.244803 0.030674 0.441785
O O3 0.090250 0.037930 0.316337
O O4 0.174670 0.994797 0.677548
O O5 0.001030 0.250000 0.357182
O O6 0.925994 0.466431 0.146769
O O7 0.000000 0.500000 0.500000
O O8 0.350332 0.250000 0.522730
O O9 0.386956 0.505651 0.683935
O O10 0.358809 0.482945 0.326371
O O11 0.830323 0.250000 0.169551
O O12 0.771412 0.025090 0.957586
O O13 0.431109 0.750000 0.871070
O O14 0.360850 0.958745 0.994419
O O15 0.500000 0.000000 0.000000
O O16 0.674077 0.250000 0.807016
#
# Coordination Sequence:
#
# PCOD8077044 Si02
#       6
#     4   4   4   4   4   4
#     4   9  17  30  50  79 114 151 191 237 286 334
#     4   8  14  25  45  74 108 146 190 237 282 330
#     4  11  23  38  60  89 121 157 194 235 286 343
#     4   9  16  30  53  79 109 150 196 239 285 335
#     4  11  24  44  68  91 117 148 187 236 290 349
#     4  10  22  39  60  87 118 154 194 237 285 342
#
# _framework density 20.101232
#
# number of rings (size 3 to 8) (size 9 to 14) (size 15 to 20)
#    0.000    2.333    1.667    1.000    0.000    3.333 
#    0.000    0.833    0.000    0.000    0.000    0.000 
#    0.000    0.000    0.000    0.000    0.000    0.000 
#
# Total GULP energy -297327.193473 kJ/mol
# GULP energy per Si atom -12388.633061 kJ/mol
# Density = 2.005548 g / cm^3
# Si number density = 20.101232 Si / 1000 Ang^3
#
#
#
# Elastic Constant Matrix: (Units=GPa)
#
#
# Indices 1 2 3 4 5 6 
#
# 1 61.8832 27.9951 44.2553 0.0000 35.5117 0.0000
# 2 27.9951 55.4725 45.3392 0.0000 10.9232 0.0000
# 3 44.2553 45.3392 120.7630 0.0000 15.2925 0.0000
# 4 0.0000 0.0000 0.0000 30.3637 0.0000 2.0002
# 5 35.5117 10.9232 15.2925 0.0000 30.0923 0.0000
# 6 0.0000 0.0000 0.0000 2.0002 0.0000 24.0189
#
#
#
# Elastic Compliance Matrix: (Units=1/GPa)
#
#
# Indices 1 2 3 4 5 6 
#
# 1 0.077064 -0.012076 -0.013623 0.000000 -0.079637 0.000000
# 2 -0.012076 0.028561 -0.007256 0.000000 0.007571 0.000000
# 3 -0.013623 -0.007256 0.014565 0.000000 0.011308 0.000000
# 4 0.000000 0.000000 0.000000 0.033116 0.000000 -0.002758
# 5 -0.079637 0.007571 0.011308 0.000000 0.118715 0.000000
# 6 0.000000 0.000000 0.000000 -0.002758 0.000000 0.041864
#
#
# Mechanical properties :
#
#
# Convention : Reuss Voigt Hill
#
# Bulk Modulus (GPa) = 18.42284 52.58864 35.50574
# Shear Modulus (GPa) = 12.56632 24.93025 18.74829
#
# Velocity S-wave (km/s) = 2.50302 3.52552 3.05732
# Velocity P-wave (km/s) = 4.18789 6.54149 5.49224
#
# Compressibility (1/GPa) = 0.05428044
#
# Stress axis : x y z
#
# Youngs Moduli (GPa) = 12.97618 35.01241 68.65632
#
# Poissons Ratio (x) = 0.42281 0.93530
# Poissons Ratio (y) = 0.15670 0.49820
# Poissons Ratio (z) = 0.17677 0.25406
#
# Static dielectric constant tensor:
#      x y z
#    x 4.281780 0.000000 0.658470 
#    y 0.000000 3.473400 0.000000 
#    z 0.658470 0.000000 3.678000 
# 
# 
# High freq. dielectric constant tensor:
#      x y z
#    x 1.790010 0.000000 0.027880 
#    y 0.000000 1.782750 0.000000 
#    z 0.027880 0.000000 1.770470 
# 
# From -- ./inp_files/25611.got.cif
#   From: 2010.06.25/outbox.cif.g09.slc.cpg/sg11_13_cif.got.tgz:25611.got - 2010.06.27 23:14:04.
