data_PCOD8077714
_publ_section_title
;
Structure prediction by ZEFSAII (Michael W. Deem and Ramdas Pophale) SiO2 
 PCOD8077714
Probable space group: P 21/M
;
_chemical_formula_sum "Si O2"
_cell_formula_units_Z 32
_cell_length_a 9.195547
_cell_length_b 19.721699
_cell_length_c 15.170468
_cell_angle_alpha 90.000000
_cell_angle_beta 39.138110
_cell_angle_gamma 90.000000
_cell_volume 1736.529865
_symmetry_space_group_name_H-M "P 21/M"
_symmetry_group_IT_number 11
_symmetry_cell_setting 'monoclinic'
loop_
_space_group_symop_operation_xyz
x,y,z
-x,1/2+y,-z
-x,-y,-z
x,1/2-y,z
loop_
_atom_site_type_symbol
_atom_site_label
_atom_site_fract_x
_atom_site_fract_y
_atom_site_fract_z
Si Si1 0.348762 0.933592 0.562742
Si Si2 0.826101 0.402167 0.832649
Si Si3 0.570544 0.606157 0.861344
Si Si4 0.189798 0.172052 0.409787
Si Si5 0.104222 0.444018 0.146734
Si Si6 0.715442 0.829009 0.436155
Si Si7 0.837662 0.439681 0.539940
Si Si8 0.496981 0.547397 0.160079
O O1 0.508512 0.867536 0.483948
O O2 0.190210 0.944002 0.551278
O O3 0.166318 0.924038 0.729569
O O4 0.500000 0.000000 0.500000
O O5 0.895909 0.477659 0.826032
O O6 0.674737 0.405688 0.815516
O O7 0.043538 0.354473 0.715858
O O8 0.669804 0.368781 0.983232
O O9 0.630197 0.655042 0.752296
O O10 0.768628 0.604611 0.842632
O O11 0.544858 0.530463 0.839691
O O12 0.119040 0.250000 0.437974
O O13 0.303431 0.155123 0.450874
O O14 0.955567 0.130845 0.508570
O O15 0.236432 0.434569 0.989985
O O16 0.689482 0.750000 0.427387
O O17 0.578619 0.440849 0.703116
O O18 0.000000 0.500000 0.500000
#
# Coordination Sequence:
#
# PCOD8077714 Si02
#       8
#     4   4   4   4   4   4   4   4
#     4  12  23  36  58  84 118 151 188 228 288 352
#     4   9  16  33  57  84 114 140 186 230 289 336
#     4   9  17  31  57  87 110 143 181 242 282 325
#     4  11  22  36  56  84 113 147 195 237 275 330
#     4   9  17  33  54  87 112 141 183 237 286 331
#     4  11  24  39  55  80 118 157 186 230 288 347
#     4  12  20  36  62  87 110 146 193 241 281 327
#     4   9  17  30  59  86 112 136 184 244 286 322
#
# _framework density 18.427555000000002
#
# number of rings (size 3 to 8) (size 9 to 14) (size 15 to 20)
#    0.000    1.750    5.000    3.000    0.000    1.000 
#    0.000    1.875    0.000    0.750    0.000    0.000 
#    0.000    0.000    0.000    0.000    0.000    0.000 
#
# Total GULP energy -396589.946643 kJ/mol
# GULP energy per Si atom -12393.435833 kJ/mol
# Density = 1.838561 g / cm^3
# Si number density = 18.427555 Si / 1000 Ang^3
#
#
#
# Elastic Constant Matrix: (Units=GPa)
#
#
# Indices 1 2 3 4 5 6 
#
# 1 54.4678 40.0491 26.0578 0.0000 -6.5507 0.0000
# 2 40.0491 83.0387 43.8147 0.0000 -8.0382 0.0000
# 3 26.0578 43.8147 166.4576 0.0000 -10.2849 0.0000
# 4 0.0000 0.0000 0.0000 23.7816 0.0000 0.7982
# 5 -6.5507 -8.0382 -10.2849 0.0000 29.0044 0.0000
# 6 0.0000 0.0000 0.0000 0.7982 0.0000 23.0678
#
#
#
# Elastic Compliance Matrix: (Units=1/GPa)
#
#
# Indices 1 2 3 4 5 6 
#
# 1 0.028764 -0.013162 -0.000882 0.000000 0.002536 0.000000
# 2 -0.013162 0.020206 -0.003165 0.000000 0.001505 0.000000
# 3 -0.000882 -0.003165 0.007067 0.000000 0.001430 0.000000
# 4 0.000000 0.000000 0.000000 0.042098 0.000000 -0.001457
# 5 0.002536 0.001505 0.001430 0.000000 0.035974 0.000000
# 6 0.000000 0.000000 0.000000 -0.001457 0.000000 0.043401
#
#
# Mechanical properties :
#
#
# Convention : Reuss Voigt Hill
#
# Bulk Modulus (GPa) = 46.25447 58.20081 52.22764
# Shear Modulus (GPa) = 22.81695 28.10693 25.46194
#
# Velocity S-wave (km/s) = 3.52262 3.90970 3.72120
# Velocity P-wave (km/s) = 6.45758 7.21340 6.84593
#
# Compressibility (1/GPa) = 0.02161953
#
# Stress axis : x y z
#
# Youngs Moduli (GPa) = 34.76565 49.48937 141.50207
#
# Poissons Ratio (x) = 0.65138 0.12475
# Poissons Ratio (y) = 0.45759 0.44789
# Poissons Ratio (z) = 0.03065 0.15665
#
# Static dielectric constant tensor:
#      x y z
#    x 3.319180 0.000000 0.101740 
#    y 0.000000 3.788370 0.000000 
#    z 0.101740 0.000000 5.897730 
# 
# 
# High freq. dielectric constant tensor:
#      x y z
#    x 1.677560 0.000000 0.001460 
#    y 0.000000 1.688910 0.000000 
#    z 0.001460 0.000000 1.744540 
# 
# From -- ./inp_files/23096.got.cif
#   From: 2010.06.25/outbox.cif.g09.slc.cpg/sg11_12_cif.got.tgz:23096.got - 2010.06.27 23:14:04.
