data_PCOD8077046
_publ_section_title
;
Structure prediction by ZEFSAII (Michael W. Deem and Ramdas Pophale) SiO2 
 PCOD8077046
Probable space group: P 21/M
;
_chemical_formula_sum "Si O2"
_cell_formula_units_Z 24
_cell_length_a 12.409724
_cell_length_b 8.711820
_cell_length_c 12.387359
_cell_angle_alpha 90.000000
_cell_angle_beta 108.913404
_cell_angle_gamma 90.000000
_cell_volume 1266.908538
_symmetry_space_group_name_H-M "P 21/M"
_symmetry_group_IT_number 11
_symmetry_cell_setting 'monoclinic'
loop_
_space_group_symop_operation_xyz
x,y,z
-x,1/2+y,-z
-x,-y,-z
x,1/2-y,z
loop_
_atom_site_type_symbol
_atom_site_label
_atom_site_fract_x
_atom_site_fract_y
_atom_site_fract_z
Si Si1 0.869837 0.427684 0.637991
Si Si2 0.497187 0.570280 0.380617
Si Si3 0.104096 0.926944 0.743684
Si Si4 0.722894 0.072994 0.382508
Si Si5 0.270944 0.430484 0.219263
Si Si6 0.882902 0.429453 0.003009
O O1 0.854302 0.250000 0.663618
O O2 0.808279 0.468571 0.506787
O O3 0.818036 0.530590 0.715665
O O4 0.002253 0.466877 0.668178
O O5 0.500000 0.500000 0.500000
O O6 0.482320 0.750000 0.389107
O O7 0.611744 0.532111 0.353223
O O8 0.392246 0.506599 0.278834
O O9 0.067806 0.750000 0.716264
O O10 0.215751 0.965115 0.710133
O O11 0.133628 0.964046 0.876500
O O12 0.685130 0.250000 0.376972
O O13 0.286883 0.250000 0.217940
O O14 0.223318 0.492246 0.090727
O O15 0.884410 0.250000 0.977547
O O16 0.000000 0.500000 0.000000
#
# Coordination Sequence:
#
# PCOD8077046 Si02
#       6
#     4   4   4   4   4   4
#     4  11  21  34  59  90 124 158 196 246 301 361
#     4  12  24  40  63  90 120 157 200 247 299 359
#     4  10  22  39  60  87 124 163 201 245 301 359
#     4  10  22  40  60  88 124 162 200 245 299 359
#     4  12  24  39  61  89 121 157 202 252 299 352
#     4  11  22  38  61  89 122 160 202 250 298 355
#
# _framework density 18.943752
#
# number of rings (size 3 to 8) (size 9 to 14) (size 15 to 20)
#    0.000    1.000    3.333    4.500    0.000    2.000 
#    0.000    0.833    0.000    0.000    0.000    0.000 
#    0.000    0.000    0.000    0.000    0.000    0.000 
#
# Total GULP energy -297768.580965 kJ/mol
# GULP energy per Si atom -12407.024207 kJ/mol
# Density = 1.890063 g / cm^3
# Si number density = 18.943752 Si / 1000 Ang^3
#
#
#
# Elastic Constant Matrix: (Units=GPa)
#
#
# Indices 1 2 3 4 5 6 
#
# 1 129.0545 57.3718 70.0990 0.0000 6.8074 0.0000
# 2 57.3718 123.1795 47.6262 0.0000 12.5912 0.0000
# 3 70.0990 47.6262 108.5591 0.0000 11.9035 0.0000
# 4 0.0000 0.0000 0.0000 27.1144 0.0000 6.3542
# 5 6.8074 12.5912 11.9035 0.0000 38.3871 0.0000
# 6 0.0000 0.0000 0.0000 6.3542 0.0000 34.1058
#
#
#
# Elastic Compliance Matrix: (Units=1/GPa)
#
#
# Indices 1 2 3 4 5 6 
#
# 1 0.013046 -0.003467 -0.007013 0.000000 0.000998 0.000000
# 2 -0.003467 0.010840 -0.002272 0.000000 -0.002236 0.000000
# 3 -0.007013 -0.002272 0.015029 0.000000 -0.002672 0.000000
# 4 0.000000 0.000000 0.000000 0.038564 0.000000 -0.007185
# 5 0.000998 -0.002236 -0.002672 0.000000 0.027435 0.000000
# 6 0.000000 0.000000 0.000000 -0.007185 0.000000 0.030659
#
#
# Mechanical properties :
#
#
# Convention : Reuss Voigt Hill
#
# Bulk Modulus (GPa) = 74.55547 78.99855 76.77701
# Shear Modulus (GPa) = 30.20254 32.30120 31.25187
#
# Velocity S-wave (km/s) = 3.99723 4.13378 4.06608
# Velocity P-wave (km/s) = 7.79394 8.03594 7.91587
#
# Compressibility (1/GPa) = 0.01341283
#
# Stress axis : x y z
#
# Youngs Moduli (GPa) = 76.64892 92.25123 66.53609
#
# Poissons Ratio (x) = 0.31984 0.46660
# Poissons Ratio (y) = 0.26575 0.15114
# Poissons Ratio (z) = 0.53752 0.20956
#
# Static dielectric constant tensor:
#      x y z
#    x 3.494700 0.000000 0.035000 
#    y 0.000000 3.499710 0.000000 
#    z 0.035000 0.000000 3.638730 
# 
# 
# High freq. dielectric constant tensor:
#      x y z
#    x 1.735370 0.000000 0.004050 
#    y 0.000000 1.746230 0.000000 
#    z 0.004050 0.000000 1.740080 
# 
# From -- ./inp_files/33721.got.cif
#   From: 2010.06.25/outbox.cif.g09.slc.cpg/sg11_17_cif.got.tgz:33721.got - 2010.06.27 23:14:04.
