data_PCOD8077799
_publ_section_title
;
Structure prediction by ZEFSAII (Michael W. Deem and Ramdas Pophale) SiO2 
 PCOD8077799
Probable space group: P 21/M
;
_chemical_formula_sum "Si O2"
_cell_formula_units_Z 32
_cell_length_a 8.937479
_cell_length_b 20.381935
_cell_length_c 15.162432
_cell_angle_alpha 90.000000
_cell_angle_beta 32.144712
_cell_angle_gamma 90.000000
_cell_volume 1469.567384
_symmetry_space_group_name_H-M "P 21/M"
_symmetry_group_IT_number 11
_symmetry_cell_setting 'monoclinic'
loop_
_space_group_symop_operation_xyz
x,y,z
-x,1/2+y,-z
-x,-y,-z
x,1/2-y,z
loop_
_atom_site_type_symbol
_atom_site_label
_atom_site_fract_x
_atom_site_fract_y
_atom_site_fract_z
Si Si1 0.766820 0.903088 0.676640
Si Si2 0.240491 0.410204 0.822140
Si Si3 0.101610 0.510198 0.740836
Si Si4 0.734897 0.322963 0.134688
Si Si5 0.041636 0.425342 0.610114
Si Si6 0.281075 0.823796 0.484084
Si Si7 0.561539 0.359086 0.406182
Si Si8 0.461783 0.029163 0.883479
O O1 0.564844 0.842771 0.754853
O O2 0.879559 0.937927 0.531123
O O3 0.610864 0.958206 0.811721
O O4 0.013077 0.871160 0.611717
O O5 0.193825 0.448282 0.754288
O O6 0.473663 0.353992 0.697808
O O7 0.324509 0.461379 0.856009
O O8 0.953636 0.375951 0.992175
O O9 0.116577 0.489687 0.630807
O O10 0.324863 0.566957 0.644408
O O11 0.782801 0.532675 0.921736
O O12 0.814123 0.250000 0.062584
O O13 0.720195 0.322441 0.248107
O O14 0.222893 0.363720 0.556652
O O15 0.701163 0.415386 0.785650
O O16 0.216550 0.750000 0.482540
O O17 0.381898 0.818511 0.534488
#
# Coordination Sequence:
#
# PCOD8077799 Si02
#       8
#     4   4   4   4   4   4   4   4
#     4  11  24  41  66  97 126 164 215 267 323 385
#     4  12  23  43  65  96 131 170 220 262 328 384
#     4  12  23  40  64  97 134 165 207 268 331 387
#     4  11  23  44  66  88 127 176 221 263 313 386
#     4  11  23  37  62  95 128 161 196 263 329 371
#     4  12  26  45  67  92 128 172 219 265 313 389
#     4  11  24  41  66  97 126 164 215 267 323 385
#     4  12  23  40  64  97 134 165 207 268 331 387
#
# _framework density 21.775116000000001
#
# number of rings (size 3 to 8) (size 9 to 14) (size 15 to 20)
#    0.000    0.500    5.000    4.875    3.500    0.000 
#    0.000    0.000    0.000    0.000    0.000    0.000 
#    0.000    0.000    0.000    0.000    0.000    0.000 
#
# Total GULP energy -396843.086345 kJ/mol
# GULP energy per Si atom -12401.346448 kJ/mol
# Density = 2.172556 g / cm^3
# Si number density = 21.775116 Si / 1000 Ang^3
#
#
#
# Elastic Constant Matrix: (Units=GPa)
#
#
# Indices 1 2 3 4 5 6 
#
# 1 70.9396 17.0996 4.4793 0.0000 -17.4522 0.0000
# 2 17.0996 89.7221 16.3977 0.0000 -9.4738 0.0000
# 3 4.4793 16.3977 69.0633 0.0000 -21.4536 0.0000
# 4 0.0000 0.0000 0.0000 22.1722 0.0000 -1.8999
# 5 -17.4522 -9.4738 -21.4536 0.0000 33.1857 0.0000
# 6 0.0000 0.0000 0.0000 -1.8999 0.0000 25.3589
#
#
#
# Elastic Compliance Matrix: (Units=1/GPa)
#
#
# Indices 1 2 3 4 5 6 
#
# 1 0.017001 -0.002674 0.002593 0.000000 0.009854 0.000000
# 2 -0.002674 0.012171 -0.002595 0.000000 0.000391 0.000000
# 3 0.002593 -0.002595 0.018920 0.000000 0.012855 0.000000
# 4 0.000000 0.000000 0.000000 0.045393 0.000000 0.003401
# 5 0.009854 0.000391 0.012855 0.000000 0.043737 0.000000
# 6 0.000000 0.000000 0.000000 0.003401 0.000000 0.039689
#
#
# Mechanical properties :
#
#
# Convention : Reuss Voigt Hill
#
# Bulk Modulus (GPa) = 23.39622 33.96426 28.68024
# Shear Modulus (GPa) = 25.44407 28.92659 27.18533
#
# Velocity S-wave (km/s) = 3.42203 3.64871 3.53719
# Velocity P-wave (km/s) = 5.13630 5.77775 5.46644
#
# Compressibility (1/GPa) = 0.04274195
#
# Stress axis : x y z
#
# Youngs Moduli (GPa) = 58.81837 82.16530 52.85282
#
# Poissons Ratio (x) = 0.21968 -0.13706
# Poissons Ratio (y) = 0.15726 0.13714
# Poissons Ratio (z) = -0.15253 0.21321
#
# Static dielectric constant tensor:
#      x y z
#    x 4.177390 0.000000 -0.188640 
#    y 0.000000 3.628350 0.000000 
#    z -0.188640 0.000000 4.076810 
# 
# 
# High freq. dielectric constant tensor:
#      x y z
#    x 1.870710 0.000000 -0.009790 
#    y 0.000000 1.829980 0.000000 
#    z -0.009790 0.000000 1.863040 
# 
# From -- ./inp_files/48433.got.cif
#   From: 2010.06.25/outbox.cif.g09.slc.cpg/sg11_25_cif.got.tgz:48433.got - 2010.06.27 23:14:04.
