data_PCOD8077892
_publ_section_title
;
Structure prediction by ZEFSAII (Michael W. Deem and Ramdas Pophale) SiO2 
 PCOD8077892
Probable space group: P 21/M
;
_chemical_formula_sum "Si O2"
_cell_formula_units_Z 18
_cell_length_a 9.130996
_cell_length_b 9.892916
_cell_length_c 12.337775
_cell_angle_alpha 90.000000
_cell_angle_beta 48.407303
_cell_angle_gamma 90.000000
_cell_volume 833.513835
_symmetry_space_group_name_H-M "P 21/M"
_symmetry_group_IT_number 11
_symmetry_cell_setting 'monoclinic'
loop_
_space_group_symop_operation_xyz
x,y,z
-x,1/2+y,-z
-x,-y,-z
x,1/2-y,z
loop_
_atom_site_type_symbol
_atom_site_label
_atom_site_fract_x
_atom_site_fract_y
_atom_site_fract_z
Si Si1 0.792595 0.750000 0.553047
Si Si2 0.234416 0.750000 0.158997
Si Si3 0.898646 0.961195 0.339422
Si Si4 0.517190 0.750000 0.219176
Si Si5 0.137131 0.750000 0.543123
Si Si6 0.394635 0.750000 0.839417
Si Si7 0.785640 0.986419 0.154513
O O1 0.765239 0.884658 0.493594
O O2 0.630939 0.750000 0.726395
O O3 0.009066 0.750000 0.497144
O O4 0.411413 0.750000 0.155744
O O5 0.109217 0.886977 0.235150
O O6 0.320173 0.750000 0.997125
O O7 0.796271 0.943107 0.274223
O O8 0.917845 0.118708 0.359252
O O9 0.363286 0.750000 0.394741
O O10 0.658339 0.878312 0.152282
O O11 0.322778 0.626613 0.803222
O O12 0.000000 0.000000 0.000000
#
# Coordination Sequence:
#
# PCOD8077892 Si02
#       7
#     2   2   4   2   2   2   4
#     4  11  25  43  73 104 150 182 237 302 352 420
#     4  11  25  47  72 104 144 197 237 295 356 418
#     4  11  24  47  74 100 149 189 233 295 361 414
#     4  12  27  45  76 104 141 192 241 291 363 425
#     4  12  25  43  75 109 142 186 246 294 352 427
#     4  12  26  44  72 107 143 187 245 292 359 422
#     4  12  26  46  72 103 144 187 235 294 355 425
#
# _framework density 21.595321999999999
#
# number of rings (size 3 to 8) (size 9 to 14) (size 15 to 20)
#    0.000    0.444    4.444    4.667    3.111    8.000 
#    0.000    0.000    0.000    0.000    0.000    0.000 
#    0.000    0.000    0.000    0.000    0.000    0.000 
#
# Total GULP energy -223281.715486 kJ/mol
# GULP energy per Si atom -12404.539749 kJ/mol
# Density = 2.154617 g / cm^3
# Si number density = 21.595322 Si / 1000 Ang^3
#
#
#
# Elastic Constant Matrix: (Units=GPa)
#
#
# Indices 1 2 3 4 5 6 
#
# 1 142.7909 57.6556 39.0522 0.0000 1.0278 0.0000
# 2 57.6556 170.8535 29.3230 0.0000 -10.0505 0.0000
# 3 39.0522 29.3230 115.7481 0.0000 -19.3800 0.0000
# 4 0.0000 0.0000 0.0000 36.9122 0.0000 0.6664
# 5 1.0278 -10.0505 -19.3800 0.0000 45.5216 0.0000
# 6 0.0000 0.0000 0.0000 0.6664 0.0000 36.1979
#
#
#
# Elastic Compliance Matrix: (Units=1/GPa)
#
#
# Indices 1 2 3 4 5 6 
#
# 1 0.008795 -0.002630 -0.002618 0.000000 -0.001894 0.000000
# 2 -0.002630 0.006929 -0.000648 0.000000 0.001313 0.000000
# 3 -0.002618 -0.000648 0.010415 0.000000 0.004350 0.000000
# 4 0.000000 0.000000 0.000000 0.027100 0.000000 -0.000499
# 5 -0.001894 0.001313 0.004350 0.000000 0.024152 0.000000
# 6 0.000000 0.000000 0.000000 -0.000499 0.000000 0.027635
#
#
# Mechanical properties :
#
#
# Convention : Reuss Voigt Hill
#
# Bulk Modulus (GPa) = 69.70246 75.71712 72.70979
# Shear Modulus (GPa) = 41.11792 43.95044 42.53418
#
# Velocity S-wave (km/s) = 4.36824 4.51619 4.44283
# Velocity P-wave (km/s) = 7.60189 7.89510 7.74988
#
# Compressibility (1/GPa) = 0.01434670
#
# Stress axis : x y z
#
# Youngs Moduli (GPa) = 113.70335 144.32206 96.01234
#
# Poissons Ratio (x) = 0.37956 0.25137
# Poissons Ratio (y) = 0.29903 0.06223
# Poissons Ratio (z) = 0.29769 0.09354
#
# Static dielectric constant tensor:
#      x y z
#    x 4.021820 0.000000 -0.021160 
#    y 0.000000 4.097950 0.000000 
#    z -0.021160 0.000000 3.961890 
# 
# 
# High freq. dielectric constant tensor:
#      x y z
#    x 1.855160 0.000000 0.002050 
#    y 0.000000 1.863850 0.000000 
#    z 0.002050 0.000000 1.855340 
# 
# From -- ./inp_files/26043.got.cif
#   From: 2010.06.25/outbox.cif.g09.slc.cpg/sg11_14_cif.got.tgz:26043.got - 2010.06.27 23:14:04.
