data_PCOD8077983
_publ_section_title
;
Structure prediction by ZEFSAII (Michael W. Deem and Ramdas Pophale) SiO2 
 PCOD8077983
Probable space group: P 21/M
;
_chemical_formula_sum "Si O2"
_cell_formula_units_Z 32
_cell_length_a 13.984003
_cell_length_b 27.901525
_cell_length_c 8.485190
_cell_angle_alpha 90.000000
_cell_angle_beta 34.510438
_cell_angle_gamma 90.000000
_cell_volume 1875.703305
_symmetry_space_group_name_H-M "P 21/M"
_symmetry_group_IT_number 11
_symmetry_cell_setting 'monoclinic'
loop_
_space_group_symop_operation_xyz
x,y,z
-x,1/2+y,-z
-x,-y,-z
x,1/2-y,z
loop_
_atom_site_type_symbol
_atom_site_label
_atom_site_fract_x
_atom_site_fract_y
_atom_site_fract_z
Si Si1 0.659191 0.304705 0.679692
Si Si2 0.030483 0.866526 0.678442
Si Si3 0.862084 0.553609 0.321616
Si Si4 0.708976 0.633503 0.321475
Si Si5 0.184376 0.383563 0.323243
Si Si6 0.816292 0.053613 0.321511
Si Si7 0.492329 0.616467 0.323366
Si Si8 0.338789 0.195297 0.320375
O O1 0.674517 0.250000 0.602765
O O2 0.839302 0.322690 0.496818
O O3 0.598021 0.334995 0.612111
O O4 0.528846 0.310444 0.000058
O O5 0.117627 0.914847 0.622539
O O6 0.973206 0.875504 0.577720
O O7 0.872871 0.851307 0.999935
O O8 0.740128 0.585169 0.377453
O O9 0.860014 0.572462 0.502576
O O10 0.790534 0.499999 0.418799
O O11 0.053801 0.555300 0.000078
O O12 0.550922 0.624569 0.422303
O O13 0.664073 0.677339 0.496589
O O14 0.210109 0.335011 0.387846
O O15 0.351003 0.397597 0.999917
O O16 0.637466 0.072493 0.502305
O O17 0.277177 0.250000 0.397192
#
# Coordination Sequence:
#
# PCOD8077983 Si02
#       8
#     4   4   4   4   4   4   4   4
#     4   9  18  32  48  67  92 120 150 187 231 275
#     4   9  18  32  49  69  93 122 156 191 229 275
#     4   9  18  32  48  68  96 126 155 191 234 277
#     4   9  18  32  49  69  93 122 156 191 229 275
#     4   9  18  32  49  69  93 121 155 193 230 272
#     4   9  18  32  48  68  96 126 155 191 234 277
#     4   9  18  32  49  69  93 121 155 193 230 272
#     4   9  18  32  48  67  92 120 150 187 231 275
#
# _framework density 17.060267
#
# number of rings (size 3 to 8) (size 9 to 14) (size 15 to 20)
#    0.000    3.000    0.000    0.000    0.000    4.000 
#    0.000    2.500    0.000    0.000    0.000    0.000 
#    0.000    0.000    0.000    0.000    0.000    0.000 
#
# Total GULP energy -396886.683586 kJ/mol
# GULP energy per Si atom -12402.708862 kJ/mol
# Density = 1.702144 g / cm^3
# Si number density = 17.060267 Si / 1000 Ang^3
#
#
#
# Elastic Constant Matrix: (Units=GPa)
#
#
# Indices 1 2 3 4 5 6 
#
# 1 122.2852 36.3198 43.3747 0.0000 -0.6816 0.0000
# 2 36.3198 107.1322 39.3100 0.0000 0.0834 0.0000
# 3 43.3747 39.3100 49.5232 0.0000 -1.5286 0.0000
# 4 0.0000 0.0000 0.0000 29.5485 0.0000 0.4425
# 5 -0.6816 0.0834 -1.5286 0.0000 28.2826 0.0000
# 6 0.0000 0.0000 0.0000 0.4425 0.0000 14.8629
#
#
#
# Elastic Compliance Matrix: (Units=1/GPa)
#
#
# Indices 1 2 3 4 5 6 
#
# 1 0.011872 -0.000291 -0.010175 0.000000 -0.000263 0.000000
# 2 -0.000291 0.013188 -0.010232 0.000000 -0.000599 0.000000
# 3 -0.010175 -0.010232 0.037281 0.000000 0.001800 0.000000
# 4 0.000000 0.000000 0.000000 0.033858 0.000000 -0.001008
# 5 -0.000263 -0.000599 0.001800 0.000000 0.035450 0.000000
# 6 0.000000 0.000000 0.000000 -0.001008 0.000000 0.067312
#
#
# Mechanical properties :
#
#
# Convention : Reuss Voigt Hill
#
# Bulk Modulus (GPa) = 47.74258 57.43883 52.59071
# Shear Modulus (GPa) = 20.21538 25.20121 22.70830
#
# Velocity S-wave (km/s) = 3.44603 3.84759 3.65233
# Velocity P-wave (km/s) = 6.62412 7.31299 6.97706
#
# Compressibility (1/GPa) = 0.02094566
#
# Stress axis : x y z
#
# Youngs Moduli (GPa) = 84.23473 75.82856 26.82325
#
# Poissons Ratio (x) = 0.02207 0.27292
# Poissons Ratio (y) = 0.02452 0.27444
# Poissons Ratio (z) = 0.85707 0.77584
#
# Static dielectric constant tensor:
#      x y z
#    x 3.195920 0.000000 -0.000350 
#    y 0.000000 3.202310 0.000000 
#    z -0.000350 0.000000 3.184600 
# 
# 
# High freq. dielectric constant tensor:
#      x y z
#    x 1.656470 0.000000 -0.000010 
#    y 0.000000 1.657400 0.000000 
#    z -0.000010 0.000000 1.656190 
# 
# From -- ./inp_files/15088.got.cif
#   From: 2010.06.25/outbox.cif.g09.slc.cpg/sg11_8_cif.got.tgz:15088.got - 2010.06.27 23:14:04.
