data_PCOD8077527
_publ_section_title
;
Structure prediction by ZEFSAII (Michael W. Deem and Ramdas Pophale) SiO2 
 PCOD8077527
Probable space group: P 21/M
;
_chemical_formula_sum "Si O2"
_cell_formula_units_Z 20
_cell_length_a 7.086810
_cell_length_b 17.506581
_cell_length_c 10.989154
_cell_angle_alpha 90.000000
_cell_angle_beta 42.257895
_cell_angle_gamma 90.000000
_cell_volume 916.829386
_symmetry_space_group_name_H-M "P 21/M"
_symmetry_group_IT_number 11
_symmetry_cell_setting 'monoclinic'
loop_
_space_group_symop_operation_xyz
x,y,z
-x,1/2+y,-z
-x,-y,-z
x,1/2-y,z
loop_
_atom_site_type_symbol
_atom_site_label
_atom_site_fract_x
_atom_site_fract_y
_atom_site_fract_z
Si Si1 0.695058 0.434345 0.456857
Si Si2 0.228401 0.543435 0.971988
Si Si3 0.933033 0.337405 0.122525
Si Si4 0.815751 0.469730 0.722224
Si Si5 0.446763 0.836876 0.264555
O O1 0.500000 0.500000 0.500000
O O2 0.510988 0.374519 0.622303
O O3 0.854187 0.387922 0.276366
O O4 0.918677 0.476774 0.441947
O O5 0.535108 0.508839 0.804574
O O6 0.222906 0.630651 0.924368
O O7 0.150026 0.535631 0.149061
O O8 0.000000 0.500000 0.000000
O O9 0.839020 0.250000 0.185331
O O10 0.268708 0.343787 0.948492
O O11 0.807324 0.381823 0.681338
O O12 0.350157 0.750000 0.326057
#
# Coordination Sequence:
#
# PCOD8077527 Si02
#       5
#     4   4   4   4   4
#     4  12  24  43  69  97 134 179 231 277 330 406
#     4  11  19  40  69 100 128 169 229 270 321 406
#     4  11  23  42  68  98 135 177 218 279 346 393
#     4  11  22  39  69  97 129 177 225 269 332 398
#     4  11  24  42  64  99 138 172 221 284 341 399
#
# _framework density 21.814309999999999
#
# number of rings (size 3 to 8) (size 9 to 14) (size 15 to 20)
#    0.000    0.800    4.000    4.800    0.000    0.800 
#    0.000    6.000    0.000    0.000    0.000    0.000 
#    0.000    0.000    0.000    0.000    0.000    0.000 
#
# Total GULP energy -247981.774205 kJ/mol
# GULP energy per Si atom -12399.088710 kJ/mol
# Density = 2.176466 g / cm^3
# Si number density = 21.814310 Si / 1000 Ang^3
#
#
#
# Elastic Constant Matrix: (Units=GPa)
#
#
# Indices 1 2 3 4 5 6 
#
# 1 119.3444 70.8208 21.8403 0.0000 -12.4632 0.0000
# 2 70.8208 211.0573 65.1817 0.0000 -2.7072 0.0000
# 3 21.8403 65.1817 91.6869 0.0000 -1.9126 0.0000
# 4 0.0000 0.0000 0.0000 39.3113 0.0000 5.1423
# 5 -12.4632 -2.7072 -1.9126 0.0000 25.8783 0.0000
# 6 0.0000 0.0000 0.0000 5.1423 0.0000 37.5688
#
#
#
# Elastic Compliance Matrix: (Units=1/GPa)
#
#
# Indices 1 2 3 4 5 6 
#
# 1 0.011061 -0.003672 0.000079 0.000000 0.004949 0.000000
# 2 -0.003672 0.007293 -0.004338 0.000000 -0.001326 0.000000
# 3 0.000079 -0.004338 0.013984 0.000000 0.000618 0.000000
# 4 0.000000 0.000000 0.000000 0.025902 0.000000 -0.003545
# 5 0.004949 -0.001326 0.000618 0.000000 0.040933 0.000000
# 6 0.000000 0.000000 0.000000 -0.003545 0.000000 0.027103
#
#
# Mechanical properties :
#
#
# Convention : Reuss Voigt Hill
#
# Bulk Modulus (GPa) = 60.69222 81.97491 71.33357
# Shear Modulus (GPa) = 33.86871 38.16806 36.01838
#
# Velocity S-wave (km/s) = 3.94457 4.18746 4.06783
# Velocity P-wave (km/s) = 6.97343 7.81280 7.40502
#
# Compressibility (1/GPa) = 0.01647658
#
# Stress axis : x y z
#
# Youngs Moduli (GPa) = 90.41036 137.11948 71.50884
#
# Poissons Ratio (x) = 0.50357 -0.00567
# Poissons Ratio (y) = 0.33203 0.31017
# Poissons Ratio (z) = -0.00717 0.59476
#
# Static dielectric constant tensor:
#      x y z
#    x 4.116050 0.000000 0.153620 
#    y 0.000000 4.569730 0.000000 
#    z 0.153620 0.000000 4.134520 
# 
# 
# High freq. dielectric constant tensor:
#      x y z
#    x 1.856610 0.000000 0.017810 
#    y 0.000000 1.863820 0.000000 
#    z 0.017810 0.000000 1.872970 
# 
# From -- ./inp_files/29745.got.cif
#   From: 2010.06.25/outbox.cif.g09.slc.cpg/sg11_15_cif.got.tgz:29745.got - 2010.06.27 23:14:04.
