data_PCOD8077673
_publ_section_title
;
Structure prediction by ZEFSAII (Michael W. Deem and Ramdas Pophale) SiO2 
 PCOD8077673
Probable space group: P 21/M
;
_chemical_formula_sum "Si O2"
_cell_formula_units_Z 28
_cell_length_a 6.644634
_cell_length_b 16.509016
_cell_length_c 14.978794
_cell_angle_alpha 90.000000
_cell_angle_beta 55.106930
_cell_angle_gamma 90.000000
_cell_volume 1347.721085
_symmetry_space_group_name_H-M "P 21/M"
_symmetry_group_IT_number 11
_symmetry_cell_setting 'monoclinic'
loop_
_space_group_symop_operation_xyz
x,y,z
-x,1/2+y,-z
-x,-y,-z
x,1/2-y,z
loop_
_atom_site_type_symbol
_atom_site_label
_atom_site_fract_x
_atom_site_fract_y
_atom_site_fract_z
Si Si1 0.711096 0.656102 0.052604
Si Si2 0.768349 0.432256 0.839476
Si Si3 0.984945 0.154059 0.339277
Si Si4 0.067447 0.924212 0.836235
Si Si5 0.383567 0.947110 0.453058
Si Si6 0.234901 0.157804 0.752850
Si Si7 0.624882 0.536893 0.713976
O O1 0.655664 0.750000 0.050269
O O2 0.492182 0.604006 0.062422
O O3 0.733977 0.636217 0.151081
O O4 0.965919 0.633666 0.939660
O O5 0.876587 0.501270 0.877053
O O6 0.737909 0.468505 0.748973
O O7 0.958323 0.357788 0.789908
O O8 0.971439 0.250000 0.350478
O O9 0.815173 0.114277 0.457883
O O10 0.899202 0.125998 0.263310
O O11 0.262273 0.124317 0.288282
O O12 0.331567 0.958266 0.797716
O O13 0.591442 0.897931 0.349243
O O14 0.500000 0.000000 0.500000
O O15 0.277559 0.011329 0.408561
O O16 0.303900 0.250000 0.716260
#
# Coordination Sequence:
#
# PCOD8077673 Si02
#       7
#     4   4   4   4   4   4   4
#     4  11  24  41  64  94 134 171 213 271 328 383
#     4  11  21  42  66  96 126 167 220 264 319 388
#     4  11  25  41  65  98 130 167 216 270 325 383
#     4  11  23  43  67  94 130 173 217 267 321 392
#     4  12  21  46  67  92 127 170 220 264 320 389
#     4  11  24  42  65  98 133 168 214 271 329 381
#     4  11  23  44  67  93 129 171 216 262 320 390
#
# _framework density 20.775812999999999
#
# number of rings (size 3 to 8) (size 9 to 14) (size 15 to 20)
#    0.000    0.857    4.286    3.000    0.000    5.714 
#    0.000    2.857    0.000    0.000    0.000    0.000 
#    0.000    0.000    0.000    0.000    0.000    0.000 
#
# Total GULP energy -347223.175963 kJ/mol
# GULP energy per Si atom -12400.827713 kJ/mol
# Density = 2.072853 g / cm^3
# Si number density = 20.775813 Si / 1000 Ang^3
#
#
#
# Elastic Constant Matrix: (Units=GPa)
#
#
# Indices 1 2 3 4 5 6 
#
# 1 112.6315 44.5028 30.0913 0.0000 -10.7794 0.0000
# 2 44.5028 110.9840 33.9868 0.0000 -5.5555 0.0000
# 3 30.0913 33.9868 107.3876 0.0000 -11.0055 0.0000
# 4 0.0000 0.0000 0.0000 39.9287 0.0000 -0.8885
# 5 -10.7794 -5.5555 -11.0055 0.0000 24.1355 0.0000
# 6 0.0000 0.0000 0.0000 -0.8885 0.0000 26.3113
#
#
#
# Elastic Compliance Matrix: (Units=1/GPa)
#
#
# Indices 1 2 3 4 5 6 
#
# 1 0.011127 -0.003813 -0.001565 0.000000 0.003378 0.000000
# 2 -0.003813 0.011303 -0.002535 0.000000 -0.000257 0.000000
# 3 -0.001565 -0.002535 0.010932 0.000000 0.003703 0.000000
# 4 0.000000 0.000000 0.000000 0.025063 0.000000 0.000846
# 5 0.003378 -0.000257 0.003703 0.000000 0.044571 0.000000
# 6 0.000000 0.000000 0.000000 0.000846 0.000000 0.038035
#
#
# Mechanical properties :
#
#
# Convention : Reuss Voigt Hill
#
# Bulk Modulus (GPa) = 57.02714 60.90720 58.96717
# Shear Modulus (GPa) = 30.73098 32.90323 31.81710
#
# Velocity S-wave (km/s) = 3.85017 3.98392 3.91762
# Velocity P-wave (km/s) = 6.87557 7.10931 6.99342
#
# Compressibility (1/GPa) = 0.01753551
#
# Stress axis : x y z
#
# Youngs Moduli (GPa) = 89.87497 88.47361 91.47215
#
# Poissons Ratio (x) = 0.33738 0.14313
# Poissons Ratio (y) = 0.34272 0.23189
# Poissons Ratio (z) = 0.14063 0.22428
#
# Static dielectric constant tensor:
#      x y z
#    x 3.990900 0.000000 -0.023820 
#    y 0.000000 3.875170 0.000000 
#    z -0.023820 0.000000 3.897980 
# 
# 
# High freq. dielectric constant tensor:
#      x y z
#    x 1.820050 0.000000 -0.000110 
#    y 0.000000 1.820970 0.000000 
#    z -0.000110 0.000000 1.814520 
# 
# From -- ./inp_files/6765.got.cif
#   From: 2010.06.25/outbox.cif.g09.slc.cpg/sg11_4_cif.got.tgz:6765.got - 2010.06.27 23:14:04.
