data_PCOD8077499
_publ_section_title
;
Structure prediction by ZEFSAII (Michael W. Deem and Ramdas Pophale) SiO2 
 PCOD8077499
Probable space group: P 21/M
;
_chemical_formula_sum "Si O2"
_cell_formula_units_Z 20
_cell_length_a 5.407039
_cell_length_b 17.552363
_cell_length_c 9.612355
_cell_angle_alpha 90.000000
_cell_angle_beta 103.870296
_cell_angle_gamma 90.000000
_cell_volume 885.672085
_symmetry_space_group_name_H-M "P 21/M"
_symmetry_group_IT_number 11
_symmetry_cell_setting 'monoclinic'
loop_
_space_group_symop_operation_xyz
x,y,z
-x,1/2+y,-z
-x,-y,-z
x,1/2-y,z
loop_
_atom_site_type_symbol
_atom_site_label
_atom_site_fract_x
_atom_site_fract_y
_atom_site_fract_z
Si Si1 0.526147 0.832581 0.026034
Si Si2 0.607213 0.894591 0.757310
Si Si3 0.957847 0.161034 0.388629
Si Si4 0.213027 0.545035 0.112332
Si Si5 0.017690 0.334792 0.715824
O O1 0.388212 0.750000 0.998602
O O2 0.331094 0.902256 0.008086
O O3 0.699355 0.834119 0.185458
O O4 0.684798 0.846220 0.905397
O O5 0.325496 0.871503 0.670170
O O6 0.827472 0.880243 0.674325
O O7 0.595762 0.984339 0.792946
O O8 0.957878 0.250000 0.352146
O O9 0.037465 0.144956 0.557209
O O10 0.136590 0.600156 0.227316
O O11 0.000000 0.500000 0.000000
O O12 0.893715 0.250000 0.719694
#
# Coordination Sequence:
#
# PCOD8077499 Si02
#       5
#     4   4   4   4   4
#     4  11  24  45  73 100 134 188 242 286 347 425
#     4  12  26  44  75 106 142 186 232 297 357 418
#     4  11  26  48  70 104 145 187 237 292 352 422
#     4  12  25  44  71 105 145 179 238 297 357 411
#     4  10  25  46  72 100 138 188 237 287 349 424
#
# _framework density 22.581720000000001
#
# number of rings (size 3 to 8) (size 9 to 14) (size 15 to 20)
#    0.000    0.800    2.000    4.200    5.600    1.600 
#    0.000    0.000    0.000    0.000    0.000    0.000 
#    0.000    0.000    0.000    0.000    0.000    0.000 
#
# Total GULP energy -247938.064314 kJ/mol
# GULP energy per Si atom -12396.903216 kJ/mol
# Density = 2.253032 g / cm^3
# Si number density = 22.581720 Si / 1000 Ang^3
#
#
#
# Elastic Constant Matrix: (Units=GPa)
#
#
# Indices 1 2 3 4 5 6 
#
# 1 118.9821 52.1443 59.2136 0.0000 -7.0190 0.0000
# 2 52.1443 175.5539 68.6840 0.0000 -11.0358 0.0000
# 3 59.2136 68.6840 158.4982 0.0000 -5.7345 0.0000
# 4 0.0000 0.0000 0.0000 22.5206 0.0000 -56.2628
# 5 -7.0190 -11.0358 -5.7345 0.0000 31.2908 0.0000
# 6 0.0000 0.0000 0.0000 -56.2628 0.0000 53.8108
#
#
#
# Elastic Compliance Matrix: (Units=1/GPa)
#
#
# Indices 1 2 3 4 5 6 
#
# 1 0.010907 -0.001912 -0.003203 0.000000 0.001185 0.000000
# 2 -0.001912 0.007307 -0.002390 0.000000 0.001710 0.000000
# 3 -0.003203 -0.002390 0.008542 0.000000 0.000004 0.000000
# 4 0.000000 0.000000 0.000000 -0.027544 0.000000 -0.028799
# 5 0.001185 0.001710 0.000004 0.000000 0.032828 0.000000
# 6 0.000000 0.000000 0.000000 -0.028799 0.000000 -0.011527
#
#
# Mechanical properties :
#
#
# Convention : Reuss Voigt Hill
#
# Bulk Modulus (GPa) = 85.14537 90.34645 87.74591
# Shear Modulus (GPa) = 126.78330 39.72395 83.25362
#
# Velocity S-wave (km/s) = 7.50107 4.19874 6.07847
# Velocity P-wave (km/s) = 10.62115 7.97505 9.39176
#
# Compressibility (1/GPa) = 0.01174462
#
# Stress axis : x y z
#
# Youngs Moduli (GPa) = 91.68804 136.85929 117.07059
#
# Poissons Ratio (x) = 0.26165 0.37501
# Poissons Ratio (y) = 0.17529 0.27983
# Poissons Ratio (z) = 0.29370 0.32713
#
# Static dielectric constant tensor:
#      x y z
#    x 3.877420 0.000000 -0.055350 
#    y 0.000000 4.554470 0.000000 
#    z -0.055350 0.000000 4.258080 
# 
# 
# High freq. dielectric constant tensor:
#      x y z
#    x 1.876210 0.000000 -0.005190 
#    y 0.000000 1.914560 0.000000 
#    z -0.005190 0.000000 1.905940 
# 
# From -- ./inp_files/4557.got.cif
#   From: 2010.06.25/outbox.cif.g09.slc.cpg/sg11_3_cif.got.tgz:4557.got - 2010.06.27 23:14:04.
