data_PCOD8077692
_publ_section_title
;
Structure prediction by ZEFSAII (Michael W. Deem and Ramdas Pophale) SiO2 
 PCOD8077692
Probable space group: P 21/M
;
_chemical_formula_sum "Si O2"
_cell_formula_units_Z 32
_cell_length_a 16.205724
_cell_length_b 8.564948
_cell_length_c 12.242068
_cell_angle_alpha 90.000000
_cell_angle_beta 99.642709
_cell_angle_gamma 90.000000
_cell_volume 1675.206105
_symmetry_space_group_name_H-M "P 21/M"
_symmetry_group_IT_number 11
_symmetry_cell_setting 'monoclinic'
loop_
_space_group_symop_operation_xyz
x,y,z
-x,1/2+y,-z
-x,-y,-z
x,1/2-y,z
loop_
_atom_site_type_symbol
_atom_site_label
_atom_site_fract_x
_atom_site_fract_y
_atom_site_fract_z
Si Si1 0.068591 0.431031 0.591766
Si Si2 0.729030 0.567723 0.888140
Si Si3 0.231543 0.570527 0.543653
Si Si4 0.011061 0.431313 0.222408
Si Si5 0.407905 0.434382 0.974545
Si Si6 0.860159 0.568193 0.102085
Si Si7 0.284946 0.066763 0.765123
Si Si8 0.809249 0.066833 0.706518
O O1 0.090404 0.250000 0.572510
O O2 0.146344 0.541934 0.588512
O O3 0.000000 0.500000 0.500000
O O4 0.032363 0.449517 0.703540
O O5 0.729574 0.750000 0.858939
O O6 0.737148 0.468601 0.778552
O O7 0.642218 0.518436 0.926740
O O8 0.805466 0.525105 0.984599
O O9 0.254758 0.750000 0.538846
O O10 0.298013 0.494017 0.642989
O O11 0.223154 0.500735 0.418564
O O12 0.008096 0.250000 0.255190
O O13 0.107596 0.479184 0.231117
O O14 0.946588 0.466132 0.108213
O O15 0.410960 0.250000 0.965873
O O16 0.358970 0.502724 0.857814
O O17 0.500000 0.500000 0.000000
O O18 0.883035 0.750000 0.105305
O O19 0.805683 0.527060 0.199777
O O20 0.293841 0.250000 0.762881
O O21 0.828102 0.250000 0.700178
#
# Coordination Sequence:
#
# PCOD8077692 Si02
#       8
#     4   4   4   4   4   4   4   4
#     4  12  22  33  49  71 102 142 189 240 282 319
#     4   9  20  39  59  80 109 143 182 223 272 331
#     4  11  22  34  51  77 108 144 186 231 276 322
#     4  12  23  33  50  75 104 144 192 237 281 327
#     4   9  19  37  63  94 118 140 168 213 270 329
#     4   9  18  34  54  75 104 141 182 236 283 320
#     4   9  18  33  55  82 113 143 175 220 276 325
#     4  11  24  38  52  73 108 150 191 233 274 322
#
# _framework density 19.102128
#
# number of rings (size 3 to 8) (size 9 to 14) (size 15 to 20)
#    0.000    1.750    2.500    4.500    0.000    3.500 
#    0.000    2.500    0.000    0.750    0.000    0.000 
#    0.000    0.000    0.000    0.000    0.000    0.000 
#
# Total GULP energy -396485.725718 kJ/mol
# GULP energy per Si atom -12390.178929 kJ/mol
# Density = 1.905865 g / cm^3
# Si number density = 19.102128 Si / 1000 Ang^3
#
#
#
# Elastic Constant Matrix: (Units=GPa)
#
#
# Indices 1 2 3 4 5 6 
#
# 1 103.2808 24.8134 50.5282 0.0000 6.1792 0.0000
# 2 24.8134 52.2049 26.9711 0.0000 2.6719 0.0000
# 3 50.5282 26.9711 108.7337 0.0000 -8.0298 0.0000
# 4 0.0000 0.0000 0.0000 27.6496 0.0000 0.8648
# 5 6.1792 2.6719 -8.0298 0.0000 20.1420 0.0000
# 6 0.0000 0.0000 0.0000 0.8648 0.0000 27.5023
#
#
#
# Elastic Compliance Matrix: (Units=1/GPa)
#
#
# Indices 1 2 3 4 5 6 
#
# 1 0.013781 -0.003078 -0.006102 0.000000 -0.006252 0.000000
# 2 -0.003078 0.023209 -0.004620 0.000000 -0.003977 0.000000
# 3 -0.006102 -0.004620 0.013768 0.000000 0.007974 0.000000
# 4 0.000000 0.000000 0.000000 0.036202 0.000000 -0.001138
# 5 -0.006252 -0.003977 0.007974 0.000000 0.055272 0.000000
# 6 0.000000 0.000000 0.000000 -0.001138 0.000000 0.036396
#
#
# Mechanical properties :
#
#
# Convention : Reuss Voigt Hill
#
# Bulk Modulus (GPa) = 43.18417 52.09384 47.63900
# Shear Modulus (GPa) = 23.37015 25.85255 24.61135
#
# Velocity S-wave (km/s) = 3.50155 3.68283 3.59334
# Velocity P-wave (km/s) = 6.24531 6.73905 6.49687
#
# Compressibility (1/GPa) = 0.02315664
#
# Stress axis : x y z
#
# Youngs Moduli (GPa) = 72.56184 43.08732 72.63482
#
# Poissons Ratio (x) = 0.13261 0.44325
# Poissons Ratio (y) = 0.22332 0.33560
# Poissons Ratio (z) = 0.44281 0.19908
#
# Static dielectric constant tensor:
#      x y z
#    x 2.893100 0.000000 -0.057510 
#    y 0.000000 3.303770 0.000000 
#    z -0.057510 0.000000 3.659470 
# 
# 
# High freq. dielectric constant tensor:
#      x y z
#    x 1.707240 0.000000 0.014520 
#    y 0.000000 1.734740 0.000000 
#    z 0.014520 0.000000 1.751610 
# 
# From -- ./inp_files/38188.got.cif
#   From: 2010.06.25/outbox.cif.g09.slc.cpg/sg11_20_cif.got.tgz:38188.got - 2010.06.27 23:14:04.
