data_PCOD8077588
_publ_section_title
;
Structure prediction by ZEFSAII (Michael W. Deem and Ramdas Pophale) SiO2 
 PCOD8077588
Probable space group: P 21/M
;
_chemical_formula_sum "Si O2"
_cell_formula_units_Z 28
_cell_length_a 15.537591
_cell_length_b 16.550720
_cell_length_c 6.586720
_cell_angle_alpha 90.000000
_cell_angle_beta 53.369283
_cell_angle_gamma 90.000000
_cell_volume 1359.294576
_symmetry_space_group_name_H-M "P 21/M"
_symmetry_group_IT_number 11
_symmetry_cell_setting 'monoclinic'
loop_
_space_group_symop_operation_xyz
x,y,z
-x,1/2+y,-z
-x,-y,-z
x,1/2-y,z
loop_
_atom_site_type_symbol
_atom_site_label
_atom_site_fract_x
_atom_site_fract_y
_atom_site_fract_z
Si Si1 0.556965 0.064919 0.062312
Si Si2 0.838074 0.055520 0.236035
Si Si3 0.357111 0.157900 0.455820
Si Si4 0.035986 0.579898 0.329387
Si Si5 0.778159 0.155762 0.665429
Si Si6 0.187212 0.416228 0.407528
Si Si7 0.313056 0.027945 0.839161
O O1 0.476469 0.138287 0.212863
O O2 0.577702 0.012585 0.235774
O O3 0.669563 0.102053 0.828695
O O4 0.500000 0.000000 0.000000
O O5 0.825000 0.140820 0.373370
O O6 0.850515 0.987731 0.390185
O O7 0.732956 0.037520 0.251596
O O8 0.937579 0.058902 0.942355
O O9 0.349730 0.250000 0.527209
O O10 0.274798 0.140343 0.389027
O O11 0.332381 0.111530 0.697652
O O12 0.134074 0.628818 0.290828
O O13 0.000000 0.500000 0.500000
O O14 0.924149 0.632140 0.483143
O O15 0.752092 0.250000 0.733496
O O16 0.232132 0.455870 0.138721
#
# Coordination Sequence:
#
# PCOD8077588 Si02
#       7
#     4   4   4   4   4   4   4
#     4  12  21  47  71  93 126 177 232 271 324 412
#     4  11  20  41  68  99 129 169 228 270 325 395
#     4  11  26  41  64  99 136 170 215 279 339 388
#     4  12  22  41  73  98 128 177 225 270 323 400
#     4  12  27  43  64 104 144 173 219 287 347 389
#     4  11  22  41  69  98 127 173 224 272 318 397
#     4  11  21  43  68  97 127 172 228 268 320 400
#
# _framework density 20.598921000000001
#
# number of rings (size 3 to 8) (size 9 to 14) (size 15 to 20)
#    0.000    0.571    7.143    2.143    0.000    1.714 
#    0.000    2.857    0.000    0.000    0.000    0.000 
#    0.000    0.000    0.000    0.000    0.000    0.000 
#
# Total GULP energy -346991.967882 kJ/mol
# GULP energy per Si atom -12392.570282 kJ/mol
# Density = 2.055204 g / cm^3
# Si number density = 20.598921 Si / 1000 Ang^3
#
#
#
# Elastic Constant Matrix: (Units=GPa)
#
#
# Indices 1 2 3 4 5 6 
#
# 1 145.2396 42.9012 42.1363 0.0000 -11.1527 0.0000
# 2 42.9012 102.2949 32.0128 0.0000 -0.5080 0.0000
# 3 42.1363 32.0128 121.5629 0.0000 3.0053 0.0000
# 4 0.0000 0.0000 0.0000 20.5318 0.0000 0.6447
# 5 -11.1527 -0.5080 3.0053 0.0000 37.5897 0.0000
# 6 0.0000 0.0000 0.0000 0.6447 0.0000 21.1261
#
#
#
# Elastic Compliance Matrix: (Units=1/GPa)
#
#
# Indices 1 2 3 4 5 6 
#
# 1 0.008608 -0.002879 -0.002292 0.000000 0.002698 0.000000
# 2 -0.002879 0.011622 -0.002049 0.000000 -0.000533 0.000000
# 3 -0.002292 -0.002049 0.009597 0.000000 -0.001475 0.000000
# 4 0.000000 0.000000 0.000000 0.048752 0.000000 -0.001488
# 5 0.002698 -0.000533 -0.001475 0.000000 0.027514 0.000000
# 6 0.000000 0.000000 0.000000 -0.001488 0.000000 0.047380
#
#
# Mechanical properties :
#
#
# Convention : Reuss Voigt Hill
#
# Bulk Modulus (GPa) = 64.99821 67.02200 66.01011
# Shear Modulus (GPa) = 28.89460 32.65264 30.77362
#
# Velocity S-wave (km/s) = 3.74936 3.98573 3.86935
# Velocity P-wave (km/s) = 7.09692 7.33408 7.21647
#
# Compressibility (1/GPa) = 0.01538504
#
# Stress axis : x y z
#
# Youngs Moduli (GPa) = 116.17301 86.04445 104.20102
#
# Poissons Ratio (x) = 0.24775 0.23884
# Poissons Ratio (y) = 0.33450 0.21354
# Poissons Ratio (z) = 0.26628 0.17633
#
# Static dielectric constant tensor:
#      x y z
#    x 4.592840 0.000000 -0.090980 
#    y 0.000000 3.421610 0.000000 
#    z -0.090980 0.000000 4.226570 
# 
# 
# High freq. dielectric constant tensor:
#      x y z
#    x 1.834770 0.000000 -0.000480 
#    y 0.000000 1.770370 0.000000 
#    z -0.000480 0.000000 1.816620 
# 
# From -- ./inp_files/6766.got.cif
#   From: 2010.06.25/outbox.cif.g09.slc.cpg/sg11_4_cif.got.tgz:6766.got - 2010.06.27 23:14:04.
