data_PCOD8077153
_publ_section_title
;
Structure prediction by ZEFSAII (Michael W. Deem and Ramdas Pophale) SiO2 
 PCOD8077153
Probable space group: P 21/M
;
_chemical_formula_sum "Si O2"
_cell_formula_units_Z 28
_cell_length_a 11.806331
_cell_length_b 8.678072
_cell_length_c 15.479094
_cell_angle_alpha 90.000000
_cell_angle_beta 121.218749
_cell_angle_gamma 90.000000
_cell_volume 1356.278077
_symmetry_space_group_name_H-M "P 21/M"
_symmetry_group_IT_number 11
_symmetry_cell_setting 'monoclinic'
loop_
_space_group_symop_operation_xyz
x,y,z
-x,1/2+y,-z
-x,-y,-z
x,1/2-y,z
loop_
_atom_site_type_symbol
_atom_site_label
_atom_site_fract_x
_atom_site_fract_y
_atom_site_fract_z
Si Si1 0.099223 0.069178 0.968603
Si Si2 0.587297 0.928754 0.109184
Si Si3 0.872474 0.430738 0.202628
Si Si4 0.643218 0.426484 0.857591
Si Si5 0.057721 0.431797 0.436358
Si Si6 0.401759 0.427333 0.338500
Si Si7 0.683742 0.428840 0.526664
O O1 0.078641 0.250000 0.960990
O O2 0.068208 0.007732 0.860279
O O3 0.251339 0.029472 0.049439
O O4 0.000000 0.000000 0.000000
O O5 0.613321 0.750000 0.100234
O O6 0.504859 0.954346 0.164855
O O7 0.726749 0.013199 0.170904
O O8 0.500000 0.000000 0.000000
O O9 0.866624 0.250000 0.183952
O O10 0.967244 0.475551 0.319059
O O11 0.686659 0.250000 0.887149
O O12 0.645404 0.467720 0.758379
O O13 0.077838 0.250000 0.452482
O O14 0.196691 0.517409 0.484630
O O15 0.000000 0.500000 0.500000
O O16 0.378741 0.250000 0.304959
O O17 0.553353 0.464459 0.419810
O O18 0.311863 0.470523 0.384641
O O19 0.692056 0.250000 0.554742
#
# Coordination Sequence:
#
# PCOD8077153 Si02
#       7
#     4   4   4   4   4   4   4
#     4  12  26  44  68  96 132 173 216 265 321 388
#     4  11  23  40  65  94 127 165 208 259 313 373
#     4  11  25  45  67  94 130 171 217 268 323 383
#     4  11  24  41  64  96 130 167 212 262 317 381
#     4  11  26  45  67  94 129 170 216 268 323 383
#     4  10  22  40  65  95 127 166 211 264 321 378
#     4  10  22  42  66  93 127 166 213 265 321 382
#
# _framework density 20.644732999999999
#
# number of rings (size 3 to 8) (size 9 to 14) (size 15 to 20)
#    0.000    1.143    1.429    3.857    4.000    5.714 
#    0.000    0.000    0.000    0.000    0.000    0.000 
#    0.000    0.000    0.000    0.000    0.000    0.000 
#
# Total GULP energy -347367.117531 kJ/mol
# GULP energy per Si atom -12405.968483 kJ/mol
# Density = 2.059774 g / cm^3
# Si number density = 20.644733 Si / 1000 Ang^3
#
#
#
# Elastic Constant Matrix: (Units=GPa)
#
#
# Indices 1 2 3 4 5 6 
#
# 1 122.3932 38.6850 37.3397 0.0000 -9.8560 0.0000
# 2 38.6850 102.5147 48.8132 0.0000 -4.1792 0.0000
# 3 37.3397 48.8132 102.9243 0.0000 -17.7997 0.0000
# 4 0.0000 0.0000 0.0000 34.6192 0.0000 -2.1332
# 5 -9.8560 -4.1792 -17.7997 0.0000 27.9557 0.0000
# 6 0.0000 0.0000 0.0000 -2.1332 0.0000 40.8173
#
#
#
# Elastic Compliance Matrix: (Units=1/GPa)
#
#
# Indices 1 2 3 4 5 6 
#
# 1 0.009759 -0.002675 -0.001962 0.000000 0.001792 0.000000
# 2 -0.002675 0.013451 -0.005870 0.000000 -0.002670 0.000000
# 3 -0.001962 -0.005870 0.014541 0.000000 0.007689 0.000000
# 4 0.000000 0.000000 0.000000 0.028979 0.000000 0.001514
# 5 0.001792 -0.002670 0.007689 0.000000 0.040899 0.000000
# 6 0.000000 0.000000 0.000000 0.001514 0.000000 0.024579
#
#
# Mechanical properties :
#
#
# Convention : Reuss Voigt Hill
#
# Bulk Modulus (GPa) = 59.75145 64.16755 61.95950
# Shear Modulus (GPa) = 31.48593 34.21142 32.84868
#
# Velocity S-wave (km/s) = 3.90953 4.07523 3.99324
# Velocity P-wave (km/s) = 7.02743 7.30018 7.16510
#
# Compressibility (1/GPa) = 0.01673599
#
# Stress axis : x y z
#
# Youngs Moduli (GPa) = 102.47210 74.34591 68.76914
#
# Poissons Ratio (x) = 0.19891 0.13490
# Poissons Ratio (y) = 0.27416 0.40369
# Poissons Ratio (z) = 0.20101 0.43643
#
# Static dielectric constant tensor:
#      x y z
#    x 3.991250 0.000000 0.000640 
#    y 0.000000 3.919090 0.000000 
#    z 0.000640 0.000000 3.784600 
# 
# 
# High freq. dielectric constant tensor:
#      x y z
#    x 1.821610 0.000000 -0.005380 
#    y 0.000000 1.822550 0.000000 
#    z -0.005380 0.000000 1.810380 
# 
# From -- ./inp_files/49476.got.cif
#   From: 2010.06.25/outbox.cif.g09.slc.cpg/sg11_25_cif.got.tgz:49476.got - 2010.06.27 23:14:04.
