data_PCOD8077996
_publ_section_title
;
Structure prediction by ZEFSAII (Michael W. Deem and Ramdas Pophale) SiO2 
 PCOD8077996
Probable space group: P 21/M
;
_chemical_formula_sum "Si O2"
_cell_formula_units_Z 32
_cell_length_a 27.000000
_cell_length_b 9.000000
_cell_length_c 21.000000
_cell_angle_alpha 90.000000
_cell_angle_beta 20.000000
_cell_angle_gamma 90.000000
_cell_volume 1745.328791
_symmetry_space_group_name_H-M "P 21/M"
_symmetry_group_IT_number 11
_symmetry_cell_setting 'monoclinic'
loop_
_space_group_symop_operation_xyz
x,y,z
-x,1/2+y,-z
-x,-y,-z
x,1/2-y,z
loop_
_atom_site_type_symbol
_atom_site_label
_atom_site_fract_x
_atom_site_fract_y
_atom_site_fract_z
Si Si1 0.768605 0.925345 0.309535
Si Si2 0.740347 0.420952 0.547862
Si Si3 0.080873 0.918794 0.980293
Si Si4 0.959475 0.080517 0.827452
Si Si5 0.962124 0.426970 0.478983
Si Si6 0.796830 0.574413 0.914369
Si Si7 0.349038 0.923159 0.202330
Si Si8 0.535497 0.423532 0.678722
O O1 0.744576 0.750000 0.338200
O O2 0.914753 0.973807 0.170533
O O3 0.623715 0.996114 0.515234
O O4 0.797631 0.983338 0.202586
O O5 0.792129 0.250000 0.482321
O O6 0.671257 0.458164 0.699136
O O7 0.616604 0.456684 0.646497
O O8 0.876381 0.524521 0.370216
O O9 0.094451 0.750000 0.939134
O O10 0.112730 0.931875 0.016168
O O11 0.960414 0.250000 0.802171
O O12 0.857599 0.980787 0.907514
O O13 0.965204 0.250000 0.480958
O O14 0.799772 0.478930 0.653055
O O15 0.000000 0.500000 0.500000
O O16 0.090497 0.482190 0.276128
O O17 0.796339 0.750000 0.913851
O O18 0.629820 0.516575 0.111075
O O19 0.369399 0.750000 0.164096
O O20 0.500000 0.000000 0.000000
O O21 0.533168 0.250000 0.664781
#
# Coordination Sequence:
#
# PCOD8077996 Si02
#       8
#     4   4   4   4   4   4   4   4
#     4  10  19  33  54  83 117 148 182 234 286 331
#     4  10  20  37  60  83 112 149 190 234 282 338
#     4   9  19  34  53  81 115 148 186 231 280 337
#     4  11  21  36  59  87 114 147 189 237 285 328
#     4  10  22  40  60  83 114 151 191 232 279 337
#     4  10  22  41  60  81 114 153 192 232 277 341
#     4  10  22  39  59  86 116 148 188 237 283 334
#     4  10  21  36  59  85 111 150 191 232 284 336
#
# _framework density 18.334654
#
# number of rings (size 3 to 8) (size 9 to 14) (size 15 to 20)
#    0.000    2.000    2.500    0.750    1.750    3.500 
#    0.000    0.625    0.000    0.000    0.000    0.000 
#    0.000    0.000    0.000    0.000    0.000    0.000 
#
# Total GULP energy -396692.596432 kJ/mol
# GULP energy per Si atom -12396.643638 kJ/mol
# Density = 1.829292 g / cm^3
# Si number density = 18.334654 Si / 1000 Ang^3
#
#
#
# Elastic Constant Matrix: (Units=GPa)
#
#
# Indices 1 2 3 4 5 6 
#
# 1 95.6507 16.7517 64.3883 0.0000 1.8541 0.0000
# 2 16.7517 25.4634 41.9274 0.0000 6.6258 0.0000
# 3 64.3883 41.9274 183.1205 0.0000 -3.7496 0.0000
# 4 0.0000 0.0000 0.0000 36.1686 0.0000 2.2938
# 5 1.8541 6.6258 -3.7496 0.0000 33.1540 0.0000
# 6 0.0000 0.0000 0.0000 2.2938 0.0000 26.6229
#
#
#
# Elastic Compliance Matrix: (Units=1/GPa)
#
#
# Indices 1 2 3 4 5 6 
#
# 1 0.013776 -0.001256 -0.004578 0.000000 -0.001037 0.000000
# 2 -0.001256 0.070685 -0.016068 0.000000 -0.015873 0.000000
# 3 -0.004578 -0.016068 0.010845 0.000000 0.004694 0.000000
# 4 0.000000 0.000000 0.000000 0.027800 0.000000 -0.002395
# 5 -0.001037 -0.015873 0.004694 0.000000 0.033923 0.000000
# 6 0.000000 0.000000 0.000000 -0.002395 0.000000 0.037768
#
#
# Mechanical properties :
#
#
# Convention : Reuss Voigt Hill
#
# Bulk Modulus (GPa) = 19.41565 61.15216 40.28391
# Shear Modulus (GPa) = 19.54893 31.26691 25.40792
#
# Velocity S-wave (km/s) = 3.26886 4.13406 3.72665
# Velocity P-wave (km/s) = 4.98596 7.49753 6.36682
#
# Compressibility (1/GPa) = 0.05150484
#
# Stress axis : x y z
#
# Youngs Moduli (GPa) = 72.58873 14.14727 92.20461
#
# Poissons Ratio (x) = 0.01776 0.42209
# Poissons Ratio (y) = 0.09114 1.48151
# Poissons Ratio (z) = 0.33229 0.22731
#
# Static dielectric constant tensor:
#      x y z
#    x 3.416550 0.000000 -0.009600 
#    y 0.000000 3.340910 0.000000 
#    z -0.009600 0.000000 3.758390 
# 
# 
# High freq. dielectric constant tensor:
#      x y z
#    x 1.710900 0.000000 0.006880 
#    y 0.000000 1.706840 0.000000 
#    z 0.006880 0.000000 1.731870 
# 
# From -- ./inp_files/66957.got.cif
#   From: 2010.06.25/outbox.ucp.g09.slc.cvg/sg11_34_cif.got.tgz:66957.got - 2010.06.28 13:43:20.
