data_PCOD8077958
_publ_section_title
;
Structure prediction by ZEFSAII (Michael W. Deem and Ramdas Pophale) SiO2 
 PCOD8077958
Probable space group: P 21/M
;
_chemical_formula_sum "Si O2"
_cell_formula_units_Z 28
_cell_length_a 20.656610
_cell_length_b 9.139955
_cell_length_c 18.206944
_cell_angle_alpha 90.000000
_cell_angle_beta 27.781080
_cell_angle_gamma 90.000000
_cell_volume 1602.190503
_symmetry_space_group_name_H-M "P 21/M"
_symmetry_group_IT_number 11
_symmetry_cell_setting 'monoclinic'
loop_
_space_group_symop_operation_xyz
x,y,z
-x,1/2+y,-z
-x,-y,-z
x,1/2-y,z
loop_
_atom_site_type_symbol
_atom_site_label
_atom_site_fract_x
_atom_site_fract_y
_atom_site_fract_z
Si Si1 0.353572 0.078726 0.648794
Si Si2 0.818530 0.577592 0.470568
Si Si3 0.828077 0.084757 0.606209
Si Si4 0.841485 0.584995 0.733970
Si Si5 0.138600 0.579669 0.142257
Si Si6 0.366398 0.079821 0.475175
Si Si7 0.679414 0.077246 0.178665
O O1 0.371574 0.250000 0.647058
O O2 0.290256 0.053152 0.630538
O O3 0.500000 0.000000 0.500000
O O4 0.264849 0.003245 0.803083
O O5 0.798327 0.750000 0.502287
O O6 0.768715 0.497974 0.594600
O O7 0.726460 0.510958 0.496491
O O8 0.977734 0.540563 0.291991
O O9 0.770928 0.250000 0.664725
O O10 0.993510 0.082865 0.438337
O O11 0.774613 0.001968 0.732723
O O12 0.784000 0.750000 0.790953
O O13 0.796122 0.507919 0.855059
O O14 0.159676 0.750000 0.138133
O O15 0.219062 0.531191 0.988579
O O16 0.376555 0.250000 0.448511
O O17 0.524139 0.018632 0.315947
O O18 0.680783 0.250000 0.191986
#
# Coordination Sequence:
#
# PCOD8077958 Si02
#       7
#     4   4   4   4   4   4   4
#     4   9  16  28  46  66  86 112 147 183 215 251
#     4   9  16  28  45  64  86 114 145 176 213 257
#     4   9  16  26  41  63  89 114 142 178 216 252
#     4   9  16  26  42  63  87 115 146 177 211 254
#     4   9  17  28  44  65  89 114 142 178 217 254
#     4   8  15  28  46  64  84 112 145 177 212 256
#     4   9  17  30  46  65  88 115 145 177 215 257
#
# _framework density 17.476073
#
# number of rings (size 3 to 8) (size 9 to 14) (size 15 to 20)
#    0.000    3.143    0.000    2.143    0.000    4.000 
#    0.000    4.286    0.000    0.857    0.000    0.000 
#    0.000    0.000    0.000    0.000    0.000    0.000 
#
# Total GULP energy -347026.626721 kJ/mol
# GULP energy per Si atom -12393.808097 kJ/mol
# Density = 1.743630 g / cm^3
# Si number density = 17.476073 Si / 1000 Ang^3
#
#
#
# Elastic Constant Matrix: (Units=GPa)
#
#
# Indices 1 2 3 4 5 6 
#
# 1 127.3092 46.3281 22.5987 0.0000 19.1275 0.0000
# 2 46.3281 75.3138 19.1237 0.0000 14.3546 0.0000
# 3 22.5987 19.1237 27.7903 0.0000 7.8403 0.0000
# 4 0.0000 0.0000 0.0000 19.6399 0.0000 12.1317
# 5 19.1275 14.3546 7.8403 0.0000 18.6550 0.0000
# 6 0.0000 0.0000 0.0000 12.1317 0.0000 27.7342
#
#
#
# Elastic Compliance Matrix: (Units=1/GPa)
#
#
# Indices 1 2 3 4 5 6 
#
# 1 0.011220 -0.004668 -0.004174 0.000000 -0.006158 0.000000
# 2 -0.004668 0.019403 -0.007594 0.000000 -0.006952 0.000000
# 3 -0.004174 -0.007594 0.047364 0.000000 -0.009783 0.000000
# 4 0.000000 0.000000 0.000000 0.069768 0.000000 -0.030519
# 5 -0.006158 -0.006952 -0.009783 0.000000 0.069379 0.000000
# 6 0.000000 0.000000 0.000000 -0.030519 0.000000 0.049406
#
#
# Mechanical properties :
#
#
# Convention : Reuss Voigt Hill
#
# Bulk Modulus (GPa) = 22.16658 45.16825 33.66742
# Shear Modulus (GPa) = 15.90071 22.69666 19.29869
#
# Velocity S-wave (km/s) = 3.01965 3.60770 3.32669
# Velocity P-wave (km/s) = 4.98691 6.57692 5.83631
#
# Compressibility (1/GPa) = 0.04511296
#
# Stress axis : x y z
#
# Youngs Moduli (GPa) = 89.12867 51.53928 21.11302
#
# Poissons Ratio (x) = 0.24059 0.08813
# Poissons Ratio (y) = 0.41606 0.16034
# Poissons Ratio (z) = 0.37204 0.39141
#
# Static dielectric constant tensor:
#      x y z
#    x 3.562650 0.000000 0.371980 
#    y 0.000000 3.259620 0.000000 
#    z 0.371980 0.000000 3.155190 
# 
# 
# High freq. dielectric constant tensor:
#      x y z
#    x 1.675350 0.000000 0.034750 
#    y 0.000000 1.666830 0.000000 
#    z 0.034750 0.000000 1.636980 
# 
# From -- ./inp_files/42216.got.cif
#   From: 2010.06.25/outbox.cif.g09.slc.cpg/sg11_22_cif.got.tgz:42216.got - 2010.06.27 23:14:04.
