data_PCOD8077752
_publ_section_title
;
Structure prediction by ZEFSAII (Michael W. Deem and Ramdas Pophale) SiO2 
 PCOD8077752
Probable space group: P 21/M
;
_chemical_formula_sum "Si O2"
_cell_formula_units_Z 32
_cell_length_a 21.472937
_cell_length_b 14.978545
_cell_length_c 15.660164
_cell_angle_alpha 90.000000
_cell_angle_beta 18.153868
_cell_angle_gamma 90.000000
_cell_volume 1569.325162
_symmetry_space_group_name_H-M "P 21/M"
_symmetry_group_IT_number 11
_symmetry_cell_setting 'monoclinic'
loop_
_space_group_symop_operation_xyz
x,y,z
-x,1/2+y,-z
-x,-y,-z
x,1/2-y,z
loop_
_atom_site_type_symbol
_atom_site_label
_atom_site_fract_x
_atom_site_fract_y
_atom_site_fract_z
Si Si1 0.299026 0.946921 0.773330
Si Si2 0.305216 0.647655 0.936989
Si Si3 0.634969 0.649196 0.809909
Si Si4 0.074375 0.564375 0.753640
Si Si5 0.037383 0.021473 0.548334
Si Si6 0.819668 0.350563 0.549921
Si Si7 0.929479 0.151266 0.063493
Si Si8 0.301570 0.392349 0.469396
O O1 0.334975 0.872181 0.798389
O O2 0.254105 0.899491 0.741735
O O3 0.500000 0.000000 0.500000
O O4 0.114914 0.011414 0.039097
O O5 0.235906 0.750000 0.038096
O O6 0.505683 0.631365 0.727726
O O7 0.140807 0.581570 0.186470
O O8 0.689730 0.750000 0.767900
O O9 0.759460 0.576652 0.701016
O O10 0.675962 0.642251 0.655907
O O11 0.405564 0.628515 0.129118
O O12 0.147677 0.642073 0.594691
O O13 0.007017 0.602326 0.932482
O O14 0.263046 0.498329 0.519086
O O15 0.040338 0.925116 0.589987
O O16 0.000000 0.000000 0.500000
O O17 0.880319 0.250000 0.499348
O O18 0.857511 0.250000 0.180405
O O19 0.114189 0.155922 0.757610
#
# Coordination Sequence:
#
# PCOD8077752 Si02
#       8
#     4   4   4   4   4   4   4   4
#     4  11  22  41  64  94 134 167 212 264 330 386
#     4  12  24  40  64  99 134 170 213 270 332 388
#     4  11  23  42  68  96 126 167 221 272 321 386
#     4  11  22  41  65  91 126 178 216 263 311 393
#     4  12  25  41  65  94 133 168 209 272 333 389
#     4  11  24  44  66  93 129 175 224 265 316 390
#     4  11  22  39  63  95 127 167 218 266 314 379
#     4  11  22  40  69  95 128 163 223 266 323 376
#
# _framework density 20.390930999999998
#
# number of rings (size 3 to 8) (size 9 to 14) (size 15 to 20)
#    0.000    0.750    2.500    7.125    1.750    2.000 
#    0.000    1.875    0.000    0.000    0.000    0.000 
#    0.000    0.000    0.000    0.000    0.000    0.000 
#
# Total GULP energy -396849.849326 kJ/mol
# GULP energy per Si atom -12401.557791 kJ/mol
# Density = 2.034452 g / cm^3
# Si number density = 20.390931 Si / 1000 Ang^3
#
#
#
# Elastic Constant Matrix: (Units=GPa)
#
#
# Indices 1 2 3 4 5 6 
#
# 1 136.7547 61.3266 47.2135 0.0000 3.5056 0.0000
# 2 61.3266 149.0887 50.2661 0.0000 -9.7428 0.0000
# 3 47.2135 50.2661 81.7044 0.0000 2.4016 0.0000
# 4 0.0000 0.0000 0.0000 24.1475 0.0000 8.4031
# 5 3.5056 -9.7428 2.4016 0.0000 33.4341 0.0000
# 6 0.0000 0.0000 0.0000 8.4031 0.0000 20.1866
#
#
#
# Elastic Compliance Matrix: (Units=1/GPa)
#
#
# Indices 1 2 3 4 5 6 
#
# 1 0.010018 -0.002889 -0.003964 0.000000 -0.001608 0.000000
# 2 -0.002889 0.009575 -0.004321 0.000000 0.003404 0.000000
# 3 -0.003964 -0.004321 0.017250 0.000000 -0.002083 0.000000
# 4 0.000000 0.000000 0.000000 0.048427 0.000000 -0.020159
# 5 -0.001608 0.003404 -0.002083 0.000000 0.031220 0.000000
# 6 0.000000 0.000000 0.000000 -0.020159 0.000000 0.057929
#
#
# Mechanical properties :
#
#
# Convention : Reuss Voigt Hill
#
# Bulk Modulus (GPa) = 68.99700 76.12892 72.56296
# Shear Modulus (GPa) = 24.80162 29.46973 27.13568
#
# Velocity S-wave (km/s) = 3.49134 3.80575 3.65193
# Velocity P-wave (km/s) = 7.08260 7.53176 7.31063
#
# Compressibility (1/GPa) = 0.01449338
#
# Stress axis : x y z
#
# Youngs Moduli (GPa) = 99.82203 104.43534 57.97209
#
# Poissons Ratio (x) = 0.30175 0.22981
# Poissons Ratio (y) = 0.28842 0.25052
# Poissons Ratio (z) = 0.39570 0.45130
#
# Static dielectric constant tensor:
#      x y z
#    x 4.072720 0.000000 0.001450 
#    y 0.000000 4.042800 0.000000 
#    z 0.001450 0.000000 3.697780 
# 
# 
# High freq. dielectric constant tensor:
#      x y z
#    x 1.803480 0.000000 0.006700 
#    y 0.000000 1.811560 0.000000 
#    z 0.006700 0.000000 1.793250 
# 
# From -- ./inp_files/54973.got.cif
#   From: 2010.06.25/outbox.cif.g09.slc.cpg/sg11_28_cif.got.tgz:54973.got - 2010.06.27 23:14:04.
