data_PCOD8077229
_publ_section_title
;
Structure prediction by ZEFSAII (Michael W. Deem and Ramdas Pophale) SiO2 
 PCOD8077229
Probable space group: P 21/M
;
_chemical_formula_sum "Si O2"
_cell_formula_units_Z 24
_cell_length_a 9.378377
_cell_length_b 16.811736
_cell_length_c 7.520279
_cell_angle_alpha 90.000000
_cell_angle_beta 90.032783
_cell_angle_gamma 90.000000
_cell_volume 1185.698118
_symmetry_space_group_name_H-M "P 21/M"
_symmetry_group_IT_number 11
_symmetry_cell_setting 'monoclinic'
loop_
_space_group_symop_operation_xyz
x,y,z
-x,1/2+y,-z
-x,-y,-z
x,1/2-y,z
loop_
_atom_site_type_symbol
_atom_site_label
_atom_site_fract_x
_atom_site_fract_y
_atom_site_fract_z
Si Si1 0.234873 0.842322 0.499219
Si Si2 0.463166 0.092277 0.498421
Si Si3 0.946915 0.341566 0.834876
Si Si4 0.528801 0.658075 0.877814
Si Si5 0.263010 0.396279 0.823356
Si Si6 0.767928 0.419454 0.128015
O O1 0.210310 0.750000 0.542043
O O2 0.398359 0.857319 0.443885
O O3 0.133468 0.872190 0.341274
O O4 0.195008 0.893422 0.672060
O O5 0.412977 0.116536 0.301030
O O6 0.336068 0.111416 0.631865
O O7 0.500000 0.000000 0.500000
O O8 0.908808 0.250000 0.870772
O O9 0.114007 0.351768 0.807453
O O10 0.896200 0.392752 0.002231
O O11 0.498926 0.750000 0.837566
O O12 0.380501 0.618251 0.938693
O O13 0.643863 0.649270 0.031298
O O14 0.244100 0.486389 0.883518
#
# Coordination Sequence:
#
# PCOD8077229 Si02
#       6
#     4   4   4   4   4   4
#     4  10  22  41  66  90 123 171 217 256 310 380
#     4  11  22  41  66  96 125 162 211 268 315 368
#     4  11  25  41  61  91 130 171 210 257 320 382
#     4  11  24  41  67  96 128 168 212 262 319 377
#     4  12  25  40  65  97 131 162 211 268 321 371
#     4  11  22  41  65  91 122 169 216 260 309 382
#
# _framework density 20.241237999999999
#
# number of rings (size 3 to 8) (size 9 to 14) (size 15 to 20)
#    0.000    1.000    3.333    5.500    2.333    6.000 
#    0.000    1.667    0.000    0.000    0.000    0.000 
#    0.000    0.000    0.000    0.000    0.000    0.000 
#
# Total GULP energy -297768.290469 kJ/mol
# GULP energy per Si atom -12407.012103 kJ/mol
# Density = 2.019517 g / cm^3
# Si number density = 20.241238 Si / 1000 Ang^3
#
#
#
# Elastic Constant Matrix: (Units=GPa)
#
#
# Indices 1 2 3 4 5 6 
#
# 1 99.5975 -10.5541 55.1071 0.0000 -11.0432 0.0000
# 2 -10.5541 70.2846 5.6259 0.0000 0.9790 0.0000
# 3 55.1071 5.6259 93.3022 0.0000 -12.2151 0.0000
# 4 0.0000 0.0000 0.0000 29.0769 0.0000 -1.5022
# 5 -11.0432 0.9790 -12.2151 0.0000 24.3946 0.0000
# 6 0.0000 0.0000 0.0000 -1.5022 0.0000 27.0976
#
#
#
# Elastic Compliance Matrix: (Units=1/GPa)
#
#
# Indices 1 2 3 4 5 6 
#
# 1 0.015683 0.003053 -0.009132 0.000000 0.002404 0.000000
# 2 0.003053 0.014917 -0.002782 0.000000 -0.000610 0.000000
# 3 -0.009132 -0.002782 0.016858 0.000000 0.004419 0.000000
# 4 0.000000 0.000000 0.000000 0.034490 0.000000 0.001912
# 5 0.002404 -0.000610 0.004419 0.000000 0.044318 0.000000
# 6 0.000000 0.000000 0.000000 0.001912 0.000000 0.037010
#
#
# Mechanical properties :
#
#
# Convention : Reuss Voigt Hill
#
# Bulk Modulus (GPa) = 33.63081 40.39359 37.01220
# Shear Modulus (GPa) = 26.18996 30.31417 28.25206
#
# Velocity S-wave (km/s) = 3.60097 3.87414 3.74005
# Velocity P-wave (km/s) = 5.82584 6.32545 6.08078
#
# Compressibility (1/GPa) = 0.02973464
#
# Stress axis : x y z
#
# Youngs Moduli (GPa) = 63.76168 67.03557 59.31903
#
# Poissons Ratio (x) = -0.20463 0.54172
# Poissons Ratio (y) = -0.19464 0.16504
# Poissons Ratio (z) = 0.58230 0.18651
#
# Static dielectric constant tensor:
#      x y z
#    x 3.745440 0.000000 -0.121620 
#    y 0.000000 3.738680 0.000000 
#    z -0.121620 0.000000 3.826810 
# 
# 
# High freq. dielectric constant tensor:
#      x y z
#    x 1.785080 0.000000 -0.000400 
#    y 0.000000 1.804020 0.000000 
#    z -0.000400 0.000000 1.800520 
# 
# From -- ./inp_files/13203.got.cif
#   From: 2010.06.25/outbox.cif.g09.slc.cpg/sg11_7_cif.got.tgz:13203.got - 2010.06.27 23:14:04.
