data_PCOD8077787
_publ_section_title
;
Structure prediction by ZEFSAII (Michael W. Deem and Ramdas Pophale) SiO2 
 PCOD8077787
Probable space group: P 21/M
;
_chemical_formula_sum "Si O2"
_cell_formula_units_Z 24
_cell_length_a 18.657607
_cell_length_b 8.823664
_cell_length_c 22.824772
_cell_angle_alpha 90.000000
_cell_angle_beta 18.127528
_cell_angle_gamma 90.000000
_cell_volume 1169.115799
_symmetry_space_group_name_H-M "P 21/M"
_symmetry_group_IT_number 11
_symmetry_cell_setting 'monoclinic'
loop_
_space_group_symop_operation_xyz
x,y,z
-x,1/2+y,-z
-x,-y,-z
x,1/2-y,z
loop_
_atom_site_type_symbol
_atom_site_label
_atom_site_fract_x
_atom_site_fract_y
_atom_site_fract_z
Si Si1 0.981298 0.586333 0.657910
Si Si2 0.122130 0.069775 0.960812
Si Si3 0.346517 0.570597 0.461154
Si Si4 0.201574 0.928184 0.307794
Si Si5 0.652005 0.916164 0.020004
Si Si6 0.991595 0.929061 0.182222
O O1 0.011524 0.750000 0.601993
O O2 0.836350 0.472970 0.730124
O O3 0.227957 0.524936 0.490227
O O4 0.842745 0.613388 0.823996
O O5 0.099163 0.250000 0.979219
O O6 0.389532 0.018986 0.749827
O O7 0.987333 0.003943 0.121599
O O8 0.000000 0.000000 0.000000
O O9 0.323764 0.750000 0.489245
O O10 0.222125 0.488618 0.612639
O O11 0.205705 0.750000 0.307966
O O12 0.432671 0.992343 0.158309
O O13 0.000000 0.000000 0.500000
O O14 0.592332 0.750000 0.094593
O O15 0.757474 0.029045 0.985907
O O16 0.969392 0.750000 0.193888
#
# Coordination Sequence:
#
# PCOD8077787 Si02
#       6
#     4   4   4   4   4   4
#     4   9  18  36  59  82 109 147 197 246 295 350
#     4  11  24  43  67  94 126 162 202 248 303 367
#     4   9  21  42  66  90 121 165 206 246 303 366
#     4  11  23  35  51  80 116 155 197 244 294 345
#     4   9  20  39  59  79 112 158 201 240 294 356
#     4  11  23  39  64  96 126 158 202 255 307 361
#
# _framework density 20.528334999999998
#
# number of rings (size 3 to 8) (size 9 to 14) (size 15 to 20)
#    0.000    2.000    0.000    4.000    2.333    6.000 
#    0.000    0.000    0.000    0.000    0.000    0.000 
#    0.000    0.000    0.000    0.000    0.000    0.000 
#
# Total GULP energy -297445.285174 kJ/mol
# GULP energy per Si atom -12393.553549 kJ/mol
# Density = 2.048161 g / cm^3
# Si number density = 20.528335 Si / 1000 Ang^3
#
#
#
# Elastic Constant Matrix: (Units=GPa)
#
#
# Indices 1 2 3 4 5 6 
#
# 1 84.6485 28.8548 3.6351 0.0000 -3.1850 0.0000
# 2 28.8548 83.2222 16.6576 0.0000 2.7019 0.0000
# 3 3.6351 16.6576 66.3051 0.0000 -13.1568 0.0000
# 4 0.0000 0.0000 0.0000 23.5983 0.0000 -0.9923
# 5 -3.1850 2.7019 -13.1568 0.0000 31.3962 0.0000
# 6 0.0000 0.0000 0.0000 -0.9923 0.0000 37.9471
#
#
#
# Elastic Compliance Matrix: (Units=1/GPa)
#
#
# Indices 1 2 3 4 5 6 
#
# 1 0.013545 -0.004955 0.000938 0.000000 0.002193 0.000000
# 2 -0.004955 0.014669 -0.004105 0.000000 -0.003485 0.000000
# 3 0.000938 -0.004105 0.017615 0.000000 0.007830 0.000000
# 4 0.000000 0.000000 0.000000 0.042423 0.000000 0.001109
# 5 0.002193 -0.003485 0.007830 0.000000 0.035655 0.000000
# 6 0.000000 0.000000 0.000000 0.001109 0.000000 0.026381
#
#
# Mechanical properties :
#
#
# Convention : Reuss Voigt Hill
#
# Bulk Modulus (GPa) = 33.80237 36.94121 35.37179
# Shear Modulus (GPa) = 28.34547 30.92355 29.63451
#
# Velocity S-wave (km/s) = 3.71994 3.88543 3.80358
# Velocity P-wave (km/s) = 5.91207 6.17762 6.04630
#
# Compressibility (1/GPa) = 0.02958372
#
# Stress axis : x y z
#
# Youngs Moduli (GPa) = 73.82830 68.17132 56.76822
#
# Poissons Ratio (x) = 0.33780 -0.05322
# Poissons Ratio (y) = 0.36583 0.23304
# Poissons Ratio (z) = -0.06922 0.27985
#
# Static dielectric constant tensor:
#      x y z
#    x 3.047640 0.000000 0.227700 
#    y 0.000000 3.830300 0.000000 
#    z 0.227700 0.000000 3.742260 
# 
# 
# High freq. dielectric constant tensor:
#      x y z
#    x 1.807150 0.000000 -0.005750 
#    y 0.000000 1.792650 0.000000 
#    z -0.005750 0.000000 1.808030 
# 
# From -- ./inp_files/69505.got.cif
#   From: 2010.06.25/outbox.cif.g09.slc.cpg/sg11_35_cif.got.tgz:69505.got - 2010.06.27 23:14:04.
