data_PCOD8077230
_publ_section_title
;
Structure prediction by ZEFSAII (Michael W. Deem and Ramdas Pophale) SiO2 
 PCOD8077230
Probable space group: P 21/M
;
_chemical_formula_sum "Si O2"
_cell_formula_units_Z 32
_cell_length_a 11.516608
_cell_length_b 8.726884
_cell_length_c 26.939793
_cell_angle_alpha 90.000000
_cell_angle_beta 33.735738
_cell_angle_gamma 90.000000
_cell_volume 1503.679151
_symmetry_space_group_name_H-M "P 21/M"
_symmetry_group_IT_number 11
_symmetry_cell_setting 'monoclinic'
loop_
_space_group_symop_operation_xyz
x,y,z
-x,1/2+y,-z
-x,-y,-z
x,1/2-y,z
loop_
_atom_site_type_symbol
_atom_site_label
_atom_site_fract_x
_atom_site_fract_y
_atom_site_fract_z
Si Si1 0.037029 0.925211 0.885600
Si Si2 0.515805 0.426100 0.236818
Si Si3 0.240208 0.928414 0.541687
Si Si4 0.424726 0.070992 0.077530
Si Si5 0.284659 0.931304 0.936448
Si Si6 0.026138 0.573014 0.193059
Si Si7 0.680187 0.425651 0.373708
Si Si8 0.917172 0.067907 0.581214
O O1 0.971608 0.750000 0.900225
O O2 0.288010 0.940596 0.795859
O O3 0.942563 0.028364 0.875457
O O4 0.937129 0.984489 0.973297
O O5 0.439401 0.250000 0.259507
O O6 0.601360 0.488490 0.153823
O O7 0.326761 0.528008 0.324764
O O8 0.269265 0.750000 0.517822
O O9 0.214811 0.950099 0.609748
O O10 0.441415 0.024390 0.454526
O O11 0.041655 0.996106 0.583418
O O12 0.437262 0.250000 0.068305
O O13 0.562240 0.014454 0.074292
O O14 0.186528 0.018606 0.171215
O O15 0.500000 0.000000 0.000000
O O16 0.244569 0.750000 0.947524
O O17 0.072772 0.750000 0.182157
O O18 0.795620 0.530993 0.292880
O O19 0.695989 0.250000 0.351467
O O20 0.946042 0.250000 0.570167
O O21 0.000000 0.000000 0.500000
#
# Coordination Sequence:
#
# PCOD8077230 Si02
#       8
#     4   4   4   4   4   4   4   4
#     4  11  23  40  65  93 128 168 216 270 320 380
#     4  10  24  45  67  95 127 166 214 267 324 382
#     4  10  22  43  69  96 129 165 206 260 322 384
#     4  11  22  38  60  90 126 165 207 253 313 376
#     4  10  22  41  66  93 128 168 208 262 324 383
#     4  12  25  39  60  90 129 170 213 262 313 377
#     4  10  22  41  67  97 129 166 209 260 316 381
#     4  12  27  46  69  96 129 170 216 269 323 384
#
# _framework density 21.281134000000002
#
# number of rings (size 3 to 8) (size 9 to 14) (size 15 to 20)
#    0.000    1.250    1.250    4.125    3.500    3.500 
#    0.000    0.000    0.000    0.000    0.000    0.000 
#    0.000    0.000    0.000    0.000    0.000    0.000 
#
# Total GULP energy -396888.421384 kJ/mol
# GULP energy per Si atom -12402.763168 kJ/mol
# Density = 2.123270 g / cm^3
# Si number density = 21.281134 Si / 1000 Ang^3
#
#
#
# Elastic Constant Matrix: (Units=GPa)
#
#
# Indices 1 2 3 4 5 6 
#
# 1 53.8965 30.0406 21.3056 0.0000 -6.2293 0.0000
# 2 30.0406 75.2751 22.5590 0.0000 -0.9613 0.0000
# 3 21.3056 22.5590 108.9960 0.0000 2.5663 0.0000
# 4 0.0000 0.0000 0.0000 42.1511 0.0000 -1.5046
# 5 -6.2293 -0.9613 2.5663 0.0000 30.1216 0.0000
# 6 0.0000 0.0000 0.0000 -1.5046 0.0000 27.3208
#
#
#
# Elastic Compliance Matrix: (Units=1/GPa)
#
#
# Indices 1 2 3 4 5 6 
#
# 1 0.025542 -0.009161 -0.003221 0.000000 0.005264 0.000000
# 2 -0.009161 0.017464 -0.001796 0.000000 -0.001184 0.000000
# 3 -0.003221 -0.001796 0.010213 0.000000 -0.001594 0.000000
# 4 0.000000 0.000000 0.000000 0.023771 0.000000 0.001309
# 5 0.005264 -0.001184 -0.001594 0.000000 0.034385 0.000000
# 6 0.000000 0.000000 0.000000 0.001309 0.000000 0.036674
#
#
# Mechanical properties :
#
#
# Convention : Reuss Voigt Hill
#
# Bulk Modulus (GPa) = 40.21857 42.88643 41.55250
# Shear Modulus (GPa) = 27.07218 30.86952 28.97085
#
# Velocity S-wave (km/s) = 3.57055 3.81275 3.69364
# Velocity P-wave (km/s) = 5.99484 6.29117 6.14479
#
# Compressibility (1/GPa) = 0.02486414
#
# Stress axis : x y z
#
# Youngs Moduli (GPa) = 39.15190 57.26222 97.91052
#
# Poissons Ratio (x) = 0.52456 0.31533
# Poissons Ratio (y) = 0.35866 0.17584
# Poissons Ratio (z) = 0.12609 0.10284
#
# Static dielectric constant tensor:
#      x y z
#    x 3.967270 0.000000 -0.052080 
#    y 0.000000 3.849050 0.000000 
#    z -0.052080 0.000000 3.938430 
# 
# 
# High freq. dielectric constant tensor:
#      x y z
#    x 1.841090 0.000000 -0.005010 
#    y 0.000000 1.836280 0.000000 
#    z -0.005010 0.000000 1.843080 
# 
# From -- ./inp_files/73083.got.cif
#   From: 2010.06.25/outbox.cif.g09.slc.cpg/sg11_37_cif.got.tgz:73083.got - 2010.06.27 23:14:04.
