data_PCOD8077390
_publ_section_title
;
Structure prediction by ZEFSAII (Michael W. Deem and Ramdas Pophale) SiO2 
 PCOD8077390
Probable space group: P 21/M
;
_chemical_formula_sum "Si O2"
_cell_formula_units_Z 28
_cell_length_a 15.570750
_cell_length_b 8.456046
_cell_length_c 11.756551
_cell_angle_alpha 90.000000
_cell_angle_beta 56.233517
_cell_angle_gamma 90.000000
_cell_volume 1286.825549
_symmetry_space_group_name_H-M "P 21/M"
_symmetry_group_IT_number 11
_symmetry_cell_setting 'monoclinic'
loop_
_space_group_symop_operation_xyz
x,y,z
-x,1/2+y,-z
-x,-y,-z
x,1/2-y,z
loop_
_atom_site_type_symbol
_atom_site_label
_atom_site_fract_x
_atom_site_fract_y
_atom_site_fract_z
Si Si1 0.704379 0.565685 0.582558
Si Si2 0.034125 0.434161 0.854712
Si Si3 0.857334 0.565555 0.844246
Si Si4 0.743404 0.432502 0.323299
Si Si5 0.115053 0.565255 0.412731
Si Si6 0.479168 0.563490 0.139990
Si Si7 0.325339 0.435532 0.854642
O O1 0.695952 0.750000 0.564872
O O2 0.678664 0.472971 0.484526
O O3 0.819678 0.522784 0.538312
O O4 0.624697 0.514933 0.738013
O O5 0.007505 0.250000 0.866231
O O6 0.155281 0.458841 0.749603
O O7 0.972387 0.526711 0.802361
O O8 0.000000 0.500000 0.000000
O O9 0.847376 0.750000 0.822941
O O10 0.833718 0.468759 0.747388
O O11 0.775098 0.512828 0.999674
O O12 0.775278 0.250000 0.297712
O O13 0.673874 0.471951 0.264955
O O14 0.115674 0.750000 0.438817
O O15 0.000000 0.500000 0.500000
O O16 0.464990 0.750000 0.146343
O O17 0.573271 0.513338 0.151790
O O18 0.500000 0.500000 0.000000
O O19 0.322832 0.250000 0.831414
#
# Coordination Sequence:
#
# PCOD8077390 Si02
#       7
#     4   4   4   4   4   4   4
#     4  12  26  46  69  95 132 176 220 270 330 389
#     4  12  23  38  60  92 132 175 218 266 322 385
#     4  11  22  39  64  95 131 170 216 268 326 388
#     4  12  25  42  66  96 131 172 220 272 328 394
#     4  12  25  43  66  95 131 170 218 269 325 391
#     4  11  24  45  72 102 133 169 218 270 330 391
#     4  10  23  42  66  95 130 169 213 267 323 387
#
# _framework density 21.758970999999999
#
# number of rings (size 3 to 8) (size 9 to 14) (size 15 to 20)
#    0.000    0.571    1.429    7.714    0.000    3.429 
#    0.000    0.000    0.000    0.000    0.000    0.000 
#    0.000    0.000    0.000    0.000    0.000    0.000 
#
# Total GULP energy -347461.775324 kJ/mol
# GULP energy per Si atom -12409.349119 kJ/mol
# Density = 2.170945 g / cm^3
# Si number density = 21.758971 Si / 1000 Ang^3
#
#
#
# Elastic Constant Matrix: (Units=GPa)
#
#
# Indices 1 2 3 4 5 6 
#
# 1 120.4250 34.5644 40.6441 0.0000 8.8284 0.0000
# 2 34.5644 96.3390 29.9572 0.0000 5.3064 0.0000
# 3 40.6441 29.9572 121.5659 0.0000 14.6796 0.0000
# 4 0.0000 0.0000 0.0000 39.7288 0.0000 4.4762
# 5 8.8284 5.3064 14.6796 0.0000 41.3556 0.0000
# 6 0.0000 0.0000 0.0000 4.4762 0.0000 35.9924
#
#
#
# Elastic Compliance Matrix: (Units=1/GPa)
#
#
# Indices 1 2 3 4 5 6 
#
# 1 0.010024 -0.002750 -0.002568 0.000000 -0.000876 0.000000
# 2 -0.002750 0.012005 -0.002010 0.000000 -0.000240 0.000000
# 3 -0.002568 -0.002010 0.009907 0.000000 -0.002711 0.000000
# 4 0.000000 0.000000 0.000000 0.025528 0.000000 -0.003175
# 5 -0.000876 -0.000240 -0.002711 0.000000 0.025360 0.000000
# 6 0.000000 0.000000 0.000000 -0.003175 0.000000 0.028178
#
#
# Mechanical properties :
#
#
# Convention : Reuss Voigt Hill
#
# Bulk Modulus (GPa) = 57.86864 60.96235 59.41550
# Shear Modulus (GPa) = 38.04626 38.95964 38.50295
#
# Velocity S-wave (km/s) = 4.18608 4.23603 4.21113
# Velocity P-wave (km/s) = 7.07230 7.21133 7.14215
#
# Compressibility (1/GPa) = 0.01728052
#
# Stress axis : x y z
#
# Youngs Moduli (GPa) = 99.75999 83.30027 100.93616
#
# Poissons Ratio (x) = 0.22904 0.25922
# Poissons Ratio (y) = 0.27430 0.20289
# Poissons Ratio (z) = 0.25620 0.16744
#
# Static dielectric constant tensor:
#      x y z
#    x 4.159860 0.000000 -0.014030 
#    y 0.000000 3.930490 0.000000 
#    z -0.014030 0.000000 4.176220 
# 
# 
# High freq. dielectric constant tensor:
#      x y z
#    x 1.859650 0.000000 0.011380 
#    y 0.000000 1.862340 0.000000 
#    z 0.011380 0.000000 1.866230 
# 
# From -- ./inp_files/37931.got.cif
#   From: 2010.06.25/outbox.cif.g09.slc.cpg/sg11_19_cif.got.tgz:37931.got - 2010.06.27 23:14:04.
