data_PCOD8077547
_publ_section_title
;
Structure prediction by ZEFSAII (Michael W. Deem and Ramdas Pophale) SiO2 
 PCOD8077547
Probable space group: P 21/M
;
_chemical_formula_sum "Si O2"
_cell_formula_units_Z 32
_cell_length_a 16.933737
_cell_length_b 21.725145
_cell_length_c 15.920619
_cell_angle_alpha 90.000000
_cell_angle_beta 17.311283
_cell_angle_gamma 90.000000
_cell_volume 1742.826698
_symmetry_space_group_name_H-M "P 21/M"
_symmetry_group_IT_number 11
_symmetry_cell_setting 'monoclinic'
loop_
_space_group_symop_operation_xyz
x,y,z
-x,1/2+y,-z
-x,-y,-z
x,1/2-y,z
loop_
_atom_site_type_symbol
_atom_site_label
_atom_site_fract_x
_atom_site_fract_y
_atom_site_fract_z
Si Si1 0.422034 0.986282 0.209901
Si Si2 0.757521 0.117731 0.049704
Si Si3 0.732774 0.079178 0.253658
Si Si4 0.442655 0.601373 0.037154
Si Si5 0.738708 0.680520 0.520648
Si Si6 0.110820 0.483731 0.147375
Si Si7 0.783113 0.559154 0.137506
Si Si8 0.076863 0.321138 0.476097
O O1 0.344714 0.938227 0.215862
O O2 0.189264 0.987037 0.514983
O O3 0.692628 0.962488 0.978089
O O4 0.462349 0.054830 0.132416
O O5 0.668307 0.120352 0.237529
O O6 0.540170 0.147147 0.209677
O O7 0.035280 0.152829 0.767244
O O8 0.795585 0.049573 0.978397
O O9 0.502048 0.089563 0.556444
O O10 0.765770 0.009821 0.188824
O O11 0.002701 0.098055 0.026706
O O12 0.201015 0.643795 0.251637
O O13 0.690276 0.644830 0.812792
O O14 0.691647 0.750000 0.541322
O O15 0.828871 0.674529 0.524417
O O16 0.135172 0.437597 0.043621
O O17 0.044571 0.250000 0.479919
#
# Coordination Sequence:
#
# PCOD8077547 Si02
#       8
#     4   4   4   4   4   4   4   4
#     4  11  22  34  52  76 107 142 169 208 259 314
#     4  11  20  32  51  71 101 138 170 201 244 306
#     4   9  17  29  45  68  96 130 159 189 235 278
#     4  11  22  37  53  75 107 137 173 212 256 314
#     4  11  22  34  49  72 100 131 171 215 248 284
#     4  11  20  32  51  75 102 137 172 201 248 305
#     4   9  17  29  45  68 100 126 157 198 228 279
#     4  11  22  37  56  75 101 137 176 217 256 298
#
# _framework density 18.360976999999998
#
# number of rings (size 3 to 8) (size 9 to 14) (size 15 to 20)
#    0.000    1.500    0.000    7.500    0.000    8.000 
#    0.000    0.000    0.000    0.000    0.000    0.000 
#    0.000   70.000    0.000    0.000    0.000    0.000 
#
# Total GULP energy -396791.040463 kJ/mol
# GULP energy per Si atom -12399.720014 kJ/mol
# Density = 1.831919 g / cm^3
# Si number density = 18.360977 Si / 1000 Ang^3
#
#
#
# Elastic Constant Matrix: (Units=GPa)
#
#
# Indices 1 2 3 4 5 6 
#
# 1 73.2229 27.7784 30.2651 0.0000 3.7687 0.0000
# 2 27.7784 72.6904 35.2496 0.0000 2.0945 0.0000
# 3 30.2651 35.2496 129.9701 0.0000 1.2138 0.0000
# 4 0.0000 0.0000 0.0000 32.5422 0.0000 2.1098
# 5 3.7687 2.0945 1.2138 0.0000 35.7885 0.0000
# 6 0.0000 0.0000 0.0000 2.1098 0.0000 20.2897
#
#
#
# Elastic Compliance Matrix: (Units=1/GPa)
#
#
# Indices 1 2 3 4 5 6 
#
# 1 0.016704 -0.005140 -0.002483 0.000000 -0.001374 0.000000
# 2 -0.005140 0.017444 -0.003531 0.000000 -0.000360 0.000000
# 3 -0.002483 -0.003531 0.009228 0.000000 0.000155 0.000000
# 4 0.000000 0.000000 0.000000 0.030938 0.000000 -0.003217
# 5 -0.001374 -0.000360 0.000155 0.000000 0.028102 0.000000
# 6 0.000000 0.000000 0.000000 -0.003217 0.000000 0.049621
#
#
# Mechanical properties :
#
#
# Convention : Reuss Voigt Hill
#
# Bulk Modulus (GPa) = 47.46278 51.38549 49.42413
# Shear Modulus (GPa) = 27.56853 29.89677 28.73265
#
# Velocity S-wave (km/s) = 3.87909 4.03957 3.96014
# Velocity P-wave (km/s) = 6.78005 7.05723 6.92003
#
# Compressibility (1/GPa) = 0.02106914
#
# Stress axis : x y z
#
# Youngs Moduli (GPa) = 59.86692 57.32757 108.36133
#
# Poissons Ratio (x) = 0.29464 0.26905
# Poissons Ratio (y) = 0.30770 0.38260
# Poissons Ratio (z) = 0.14864 0.20241
#
# Static dielectric constant tensor:
#      x y z
#    x 3.460570 0.000000 -0.032560 
#    y 0.000000 3.197740 0.000000 
#    z -0.032560 0.000000 3.560100 
# 
# 
# High freq. dielectric constant tensor:
#      x y z
#    x 1.707680 0.000000 -0.007010 
#    y 0.000000 1.668870 0.000000 
#    z -0.007010 0.000000 1.733370 
# 
# From -- ./inp_files/52700.got.cif
#   From: 2010.06.25/outbox.cif.g09.slc.cpg/sg11_27_cif.got.tgz:52700.got - 2010.06.27 23:14:04.
