data_PCOD8077949
_publ_section_title
;
Structure prediction by ZEFSAII (Michael W. Deem and Ramdas Pophale) SiO2 
 PCOD8077949
Probable space group: P 21/M
;
_chemical_formula_sum "Si O2"
_cell_formula_units_Z 32
_cell_length_a 9.789302
_cell_length_b 15.102806
_cell_length_c 13.194716
_cell_angle_alpha 90.000000
_cell_angle_beta 68.225471
_cell_angle_gamma 90.000000
_cell_volume 1811.598146
_symmetry_space_group_name_H-M "P 21/M"
_symmetry_group_IT_number 11
_symmetry_cell_setting 'monoclinic'
loop_
_space_group_symop_operation_xyz
x,y,z
-x,1/2+y,-z
-x,-y,-z
x,1/2-y,z
loop_
_atom_site_type_symbol
_atom_site_label
_atom_site_fract_x
_atom_site_fract_y
_atom_site_fract_z
Si Si1 0.476377 0.348591 0.221589
Si Si2 0.399254 0.499588 0.378572
Si Si3 0.608059 0.144902 0.980685
Si Si4 0.197966 0.651409 0.778412
Si Si5 0.801674 0.647910 0.213084
Si Si6 0.485244 0.852090 0.213084
Si Si7 0.722174 0.000412 0.378571
Si Si8 0.911255 0.355098 0.980685
O O1 0.405929 0.250000 0.245776
O O2 0.371820 0.416686 0.310788
O O3 0.637312 0.345641 0.225376
O O4 0.493757 0.382876 0.100821
O O5 0.391076 0.591716 0.319636
O O6 0.274270 0.500001 0.500000
O O7 0.556892 0.487794 0.386216
O O8 0.617152 0.250000 0.977689
O O9 0.548890 0.110516 0.889353
O O10 0.771132 0.105822 0.957735
O O11 0.151705 0.750000 0.754224
O O12 0.182609 0.583314 0.689212
O O13 0.094578 0.617124 0.899180
O O14 0.822064 0.750000 0.239555
O O15 0.658502 0.634500 0.182998
O O16 0.789288 0.591716 0.319637
O O17 0.938245 0.610516 0.110647
O O18 0.438383 0.750000 0.239555
O O19 0.905158 0.250000 0.977688
#
# Coordination Sequence:
#
# PCOD8077949 Si02
#       8
#     4   4   4   4   4   4   4   4
#     4   8  14  25  41  60  81 106 139 177 209 240
#     4   9  17  27  39  58  84 113 144 174 205 245
#     4   8  14  26  44  64  84 108 140 173 205 246
#     4   8  14  25  41  60  81 106 139 177 209 240
#     4   9  17  28  42  63  90 113 133 166 212 254
#     4   9  17  28  42  63  90 113 133 166 212 254
#     4   9  17  27  39  58  84 113 144 174 205 245
#     4   8  14  26  44  64  84 108 140 173 205 246
#
# _framework density 17.663961
#
# number of rings (size 3 to 8) (size 9 to 14) (size 15 to 20)
#    0.000    3.500    0.000    1.500    0.000    2.000 
#    0.000    5.000    0.000    0.750    0.000    0.000 
#    0.000    8.000    0.000    0.000    0.000    0.000 
#
# Total GULP energy -396576.427562 kJ/mol
# GULP energy per Si atom -12393.013361 kJ/mol
# Density = 1.762376 g / cm^3
# Si number density = 17.663961 Si / 1000 Ang^3
#
#
#
# Elastic Constant Matrix: (Units=GPa)
#
#
# Indices 1 2 3 4 5 6 
#
# 1 31.5749 23.8135 42.4786 0.0000 3.0367 0.0000
# 2 23.8135 91.8610 75.9425 0.0000 3.7078 0.0000
# 3 42.4786 75.9425 183.9208 0.0000 7.7990 0.0000
# 4 0.0000 0.0000 0.0000 32.0354 0.0000 1.6603
# 5 3.0367 3.7078 7.7990 0.0000 16.2346 0.0000
# 6 0.0000 0.0000 0.0000 1.6603 0.0000 8.6912
#
#
#
# Elastic Compliance Matrix: (Units=1/GPa)
#
#
# Indices 1 2 3 4 5 6 
#
# 1 0.047562 -0.004903 -0.008810 0.000000 -0.003544 0.000000
# 2 -0.004903 0.017037 -0.005896 0.000000 -0.000141 0.000000
# 3 -0.008810 -0.005896 0.009983 0.000000 -0.001801 0.000000
# 4 0.000000 0.000000 0.000000 0.031528 0.000000 -0.006023
# 5 -0.003544 -0.000141 -0.001801 0.000000 0.063157 0.000000
# 6 0.000000 0.000000 0.000000 -0.006023 0.000000 0.116209
#
#
# Mechanical properties :
#
#
# Convention : Reuss Voigt Hill
#
# Bulk Modulus (GPa) = 28.27820 65.75845 47.01832
# Shear Modulus (GPa) = 14.85955 22.40038 18.62996
#
# Velocity S-wave (km/s) = 2.90355 3.56496 3.25112
# Velocity P-wave (km/s) = 5.22346 7.36570 6.38506
#
# Compressibility (1/GPa) = 0.03536293
#
# Stress axis : x y z
#
# Youngs Moduli (GPa) = 21.02513 58.69411 100.17024
#
# Poissons Ratio (x) = 0.28779 0.88251
# Poissons Ratio (y) = 0.10309 0.59065
# Poissons Ratio (z) = 0.18523 0.34609
#
# Static dielectric constant tensor:
#      x y z
#    x 2.936990 0.000000 0.048560 
#    y 0.000000 3.331920 0.000000 
#    z 0.048560 0.000000 3.619800 
# 
# 
# High freq. dielectric constant tensor:
#      x y z
#    x 1.619180 0.000000 0.004670 
#    y 0.000000 1.681170 0.000000 
#    z 0.004670 0.000000 1.684790 
# 
# From -- ./inp_files/36023.got.cif
#   From: 2010.06.25/outbox.cif.g09.slc.cpg/sg11_19_cif.got.tgz:36023.got - 2010.06.27 23:14:04.
