data_PCOD8077910
_publ_section_title
;
Structure prediction by ZEFSAII (Michael W. Deem and Ramdas Pophale) SiO2 
 PCOD8077910
Probable space group: P 21/M
;
_chemical_formula_sum "Si O2"
_cell_formula_units_Z 24
_cell_length_a 9.689090
_cell_length_b 13.750232
_cell_length_c 19.412324
_cell_angle_alpha 90.000000
_cell_angle_beta 28.603378
_cell_angle_gamma 90.000000
_cell_volume 1238.150812
_symmetry_space_group_name_H-M "P 21/M"
_symmetry_group_IT_number 11
_symmetry_cell_setting 'monoclinic'
loop_
_space_group_symop_operation_xyz
x,y,z
-x,1/2+y,-z
-x,-y,-z
x,1/2-y,z
loop_
_atom_site_type_symbol
_atom_site_label
_atom_site_fract_x
_atom_site_fract_y
_atom_site_fract_z
Si Si1 0.194254 0.045814 0.121527
Si Si2 0.846406 0.453878 0.133855
Si Si3 0.979627 0.750000 0.750807
Si Si4 0.391656 0.250000 0.471547
Si Si5 0.038936 0.750000 0.563941
Si Si6 0.761453 0.045120 0.556709
Si Si7 0.545606 0.250000 0.253133
Si Si8 0.215848 0.045723 0.596470
O O1 0.198581 0.154080 0.151368
O O2 0.081301 0.047134 0.092343
O O3 0.011202 0.969742 0.244845
O O4 0.500000 0.000000 0.000000
O O5 0.563143 0.514607 0.280504
O O6 0.749288 0.344361 0.158466
O O7 0.000000 0.500000 0.000000
O O8 0.074997 0.750000 0.630048
O O9 0.266397 0.750000 0.670450
O O10 0.349550 0.250000 0.407930
O O11 0.241247 0.159492 0.572646
O O12 0.694126 0.750000 0.701804
O O13 0.209195 0.660823 0.454992
O O14 0.864115 0.008955 0.437711
O O15 0.000000 0.000000 0.500000
O O16 0.500000 0.000000 0.500000
#
# Coordination Sequence:
#
# PCOD8077910 Si02
#       8
#     4   4   2   2   2   4   2   4
#     4  12  27  45  69 102 140 180 230 287 349 413
#     4  12  27  46  69  98 144 185 222 285 349 422
#     4  12  22  43  72  94 134 179 230 288 352 408
#     4  12  20  41  74  96 126 185 232 282 344 404
#     4  12  24  37  74 108 128 177 234 290 341 400
#     4  12  23  42  69 102 134 172 235 285 333 404
#     4  12  22  47  68  94 134 189 226 266 357 420
#     4  12  21  42  69 100 127 175 233 290 332 398
#
# _framework density 19.383747
#
# number of rings (size 3 to 8) (size 9 to 14) (size 15 to 20)
#    0.000    0.000   10.000    0.000    4.667    1.333 
#    0.000    1.667    0.000    0.000    0.000    0.000 
#    0.000    0.000    0.000    0.000    0.000    0.000 
#
# Total GULP energy -297577.048234 kJ/mol
# GULP energy per Si atom -12399.043676 kJ/mol
# Density = 1.933963 g / cm^3
# Si number density = 19.383747 Si / 1000 Ang^3
#
#
#
# Elastic Constant Matrix: (Units=GPa)
#
#
# Indices 1 2 3 4 5 6 
#
# 1 105.5247 29.6180 28.9423 0.0000 -2.9934 0.0000
# 2 29.6180 183.8221 51.4111 0.0000 1.8191 0.0000
# 3 28.9423 51.4111 105.7979 0.0000 -1.6553 0.0000
# 4 0.0000 0.0000 0.0000 43.5486 0.0000 5.8351
# 5 -2.9934 1.8191 -1.6553 0.0000 40.7074 0.0000
# 6 0.0000 0.0000 0.0000 5.8351 0.0000 31.1001
#
#
#
# Elastic Compliance Matrix: (Units=1/GPa)
#
#
# Indices 1 2 3 4 5 6 
#
# 1 0.010428 -0.001033 -0.002340 0.000000 0.000718 0.000000
# 2 -0.001033 0.006405 -0.002837 0.000000 -0.000478 0.000000
# 3 -0.002340 -0.002837 0.011477 0.000000 0.000421 0.000000
# 4 0.000000 0.000000 0.000000 0.023555 0.000000 -0.004420
# 5 0.000718 -0.000478 0.000421 0.000000 0.024657 0.000000
# 6 0.000000 0.000000 0.000000 -0.004420 0.000000 0.032983
#
#
# Mechanical properties :
#
#
# Convention : Reuss Voigt Hill
#
# Bulk Modulus (GPa) = 62.92932 68.34307 65.63619
# Shear Modulus (GPa) = 39.30129 42.08277 40.69203
#
# Velocity S-wave (km/s) = 4.50770 4.66449 4.58677
# Velocity P-wave (km/s) = 7.72192 8.02150 7.87313
#
# Compressibility (1/GPa) = 0.01589084
#
# Stress axis : x y z
#
# Youngs Moduli (GPa) = 95.89160 156.13519 87.12861
#
# Poissons Ratio (x) = 0.16129 0.20385
# Poissons Ratio (y) = 0.09906 0.24720
# Poissons Ratio (z) = 0.22435 0.44298
#
# Static dielectric constant tensor:
#      x y z
#    x 3.822360 0.000000 0.021720 
#    y 0.000000 4.003930 0.000000 
#    z 0.021720 0.000000 3.325650 
# 
# 
# High freq. dielectric constant tensor:
#      x y z
#    x 1.779000 0.000000 0.001520 
#    y 0.000000 1.774910 0.000000 
#    z 0.001520 0.000000 1.739530 
# 
# From -- ./inp_files/58082.got.cif
#   From: 2010.06.25/outbox.cif.g09.slc.cpg/sg11_30_cif.got.tgz:58082.got - 2010.06.27 23:14:04.
