data_PCOD8077404
_publ_section_title
;
Structure prediction by ZEFSAII (Michael W. Deem and Ramdas Pophale) SiO2 
 PCOD8077404
Probable space group: P 21/M
;
_chemical_formula_sum "Si O2"
_cell_formula_units_Z 28
_cell_length_a 14.572283
_cell_length_b 8.662563
_cell_length_c 12.631911
_cell_angle_alpha 90.000000
_cell_angle_beta 59.931319
_cell_angle_gamma 90.000000
_cell_volume 1379.979742
_symmetry_space_group_name_H-M "P 21/M"
_symmetry_group_IT_number 11
_symmetry_cell_setting 'monoclinic'
loop_
_space_group_symop_operation_xyz
x,y,z
-x,1/2+y,-z
-x,-y,-z
x,1/2-y,z
loop_
_atom_site_type_symbol
_atom_site_label
_atom_site_fract_x
_atom_site_fract_y
_atom_site_fract_z
Si Si1 0.683882 0.925206 0.636117
Si Si2 0.213235 0.567211 0.796853
Si Si3 0.991262 0.430844 0.203886
Si Si4 0.388284 0.568894 0.534763
Si Si5 0.782805 0.068373 0.967553
Si Si6 0.612970 0.567637 0.906517
Si Si7 0.072841 0.426405 0.545470
O O1 0.645063 0.750000 0.639022
O O2 0.642185 0.989712 0.772061
O O3 0.809657 0.933784 0.567613
O O4 0.637353 0.031458 0.571403
O O5 0.218855 0.750000 0.786741
O O6 0.298681 0.496836 0.664926
O O7 0.093377 0.516204 0.836482
O O8 0.239454 0.509462 0.899970
O O9 0.018466 0.250000 0.181428
O O10 0.097348 0.528987 0.132306
O O11 0.935398 0.467885 0.346812
O O12 0.500000 0.500000 0.500000
O O13 0.393551 0.750000 0.546940
O O14 0.765694 0.250000 0.967921
O O15 0.701386 0.985752 0.937695
O O16 0.607879 0.750000 0.913386
O O17 0.500000 0.500000 0.000000
O O18 0.039046 0.250000 0.589499
O O19 0.000000 0.500000 0.500000
#
# Coordination Sequence:
#
# PCOD8077404 Si02
#       7
#     4   4   4   4   4   4   4
#     4  10  23  43  64  89 124 162 206 260 311 364
#     4   9  21  40  63  91 128 167 204 255 314 369
#     4  11  21  39  62  91 128 166 208 257 312 373
#     4  11  23  41  65  95 127 164 207 255 313 375
#     4  11  23  41  64  93 127 168 213 258 313 374
#     4  11  25  45  66  92 125 165 211 263 316 371
#     4  11  22  37  61  92 125 164 208 257 312 372
#
# _framework density 20.290154000000001
#
# number of rings (size 3 to 8) (size 9 to 14) (size 15 to 20)
#    0.000    1.429    1.429    3.429    2.000    2.857 
#    0.000    4.286    0.000    0.000    0.000    0.000 
#    0.000    0.000    0.000    0.000    0.000    0.000 
#
# Total GULP energy -347296.643263 kJ/mol
# GULP energy per Si atom -12403.451545 kJ/mol
# Density = 2.024397 g / cm^3
# Si number density = 20.290154 Si / 1000 Ang^3
#
#
#
# Elastic Constant Matrix: (Units=GPa)
#
#
# Indices 1 2 3 4 5 6 
#
# 1 135.9126 35.9302 67.2956 0.0000 -3.4262 0.0000
# 2 35.9302 54.3845 27.1416 0.0000 5.3198 0.0000
# 3 67.2956 27.1416 154.7475 0.0000 5.9859 0.0000
# 4 0.0000 0.0000 0.0000 31.3776 0.0000 -0.5209
# 5 -3.4262 5.3198 5.9859 0.0000 33.9800 0.0000
# 6 0.0000 0.0000 0.0000 -0.5209 0.0000 36.8465
#
#
#
# Elastic Compliance Matrix: (Units=1/GPa)
#
#
# Indices 1 2 3 4 5 6 
#
# 1 0.010759 -0.005456 -0.003823 0.000000 0.002612 0.000000
# 2 -0.005456 0.023140 -0.001535 0.000000 -0.003902 0.000000
# 3 -0.003823 -0.001535 0.008457 0.000000 -0.001635 0.000000
# 4 0.000000 0.000000 0.000000 0.031877 0.000000 0.000451
# 5 0.002612 -0.003902 -0.001635 0.000000 0.030591 0.000000
# 6 0.000000 0.000000 0.000000 0.000451 0.000000 0.027146
#
#
# Mechanical properties :
#
#
# Convention : Reuss Voigt Hill
#
# Bulk Modulus (GPa) = 48.24291 67.30882 57.77586
# Shear Modulus (GPa) = 31.15136 34.75263 32.95199
#
# Velocity S-wave (km/s) = 3.92253 4.14307 4.03431
# Velocity P-wave (km/s) = 6.65907 7.49212 7.08784
#
# Compressibility (1/GPa) = 0.02072843
#
# Stress axis : x y z
#
# Youngs Moduli (GPa) = 92.94897 43.21567 118.24423
#
# Poissons Ratio (x) = 0.23577 0.45203
# Poissons Ratio (y) = 0.50709 0.18152
# Poissons Ratio (z) = 0.35533 0.06634
#
# Static dielectric constant tensor:
#      x y z
#    x 3.814590 0.000000 0.148050 
#    y 0.000000 3.727740 0.000000 
#    z 0.148050 0.000000 4.274950 
# 
# 
# High freq. dielectric constant tensor:
#      x y z
#    x 1.806860 0.000000 0.002430 
#    y 0.000000 1.785510 0.000000 
#    z 0.002430 0.000000 1.806880 
# 
# From -- ./inp_files/37943.got.cif
#   From: 2010.06.25/outbox.cif.g09.slc.cpg/sg11_19_cif.got.tgz:37943.got - 2010.06.27 23:14:04.
