data_PCOD8077622
_publ_section_title
;
Structure prediction by ZEFSAII (Michael W. Deem and Ramdas Pophale) SiO2 
 PCOD8077622
Probable space group: P 21/M
;
_chemical_formula_sum "Si O2"
_cell_formula_units_Z 28
_cell_length_a 26.461955
_cell_length_b 8.654923
_cell_length_c 19.786762
_cell_angle_alpha 90.000000
_cell_angle_beta 160.453047
_cell_angle_gamma 90.000000
_cell_volume 1516.208191
_symmetry_space_group_name_H-M "P 21/M"
_symmetry_group_IT_number 11
_symmetry_cell_setting 'monoclinic'
loop_
_space_group_symop_operation_xyz
x,y,z
-x,1/2+y,-z
-x,-y,-z
x,1/2-y,z
loop_
_atom_site_type_symbol
_atom_site_label
_atom_site_fract_x
_atom_site_fract_y
_atom_site_fract_z
Si Si1 0.141295 0.431054 0.640944
Si Si2 0.077032 0.931928 0.163094
Si Si3 0.089119 0.570061 0.920662
Si Si4 0.586868 0.069047 0.409524
Si Si5 0.584814 0.931656 0.670249
Si Si6 0.033331 0.930182 0.701791
Si Si7 0.316922 0.432997 0.983823
O O1 0.135490 0.250000 0.642657
O O2 0.000000 0.500000 0.500000
O O3 0.120029 0.475478 0.534661
O O4 0.289013 0.488496 0.869921
O O5 0.084132 0.750000 0.162047
O O6 0.245524 0.003607 0.384058
O O7 0.982322 0.970740 0.110008
O O8 0.000000 0.000000 0.000000
O O9 0.078829 0.750000 0.926664
O O10 0.001627 0.531870 0.740271
O O11 0.260923 0.523053 0.126134
O O12 0.601205 0.250000 0.415693
O O13 0.519948 0.031757 0.398201
O O14 0.474860 0.996966 0.210970
O O15 0.616233 0.750000 0.701162
O O16 0.500000 0.000000 0.500000
O O17 0.069872 0.750000 0.738494
O O18 0.179104 0.019964 0.858595
O O19 0.327653 0.250000 0.002751
#
# Coordination Sequence:
#
# PCOD8077622 Si02
#       7
#     4   4   4   4   4   4   4
#     4   8  14  24  43  71 102 134 165 202 252 306
#     4  11  23  40  58  76 101 136 178 222 269 321
#     4  11  22  36  53  76 108 142 177 215 256 311
#     4   9  19  34  53  76 102 130 168 218 264 313
#     4  11  21  35  55  79 105 132 169 218 274 322
#     4   9  17  29  46  74 108 137 168 209 253 301
#     4   9  15  28  50  75 102 132 168 210 260 313
#
# _framework density 18.467122
#
# number of rings (size 3 to 8) (size 9 to 14) (size 15 to 20)
#    0.000    2.286    1.429    2.143    0.000    1.714 
#    0.000    3.571    0.000    0.857    0.000    0.000 
#    0.000    0.000    0.000    0.000    0.000    0.286 
#
# Total GULP energy -346877.756469 kJ/mol
# GULP energy per Si atom -12388.491302 kJ/mol
# Density = 1.842509 g / cm^3
# Si number density = 18.467122 Si / 1000 Ang^3
#
#
#
# Elastic Constant Matrix: (Units=GPa)
#
#
# Indices 1 2 3 4 5 6 
#
# 1 81.5668 18.6940 47.2605 0.0000 -27.6435 0.0000
# 2 18.6940 26.5986 22.3878 0.0000 -8.3900 0.0000
# 3 47.2605 22.3878 117.4351 0.0000 -32.1687 0.0000
# 4 0.0000 0.0000 0.0000 20.3064 0.0000 -1.5570
# 5 -27.6435 -8.3900 -32.1687 0.0000 42.1105 0.0000
# 6 0.0000 0.0000 0.0000 -1.5570 0.0000 18.5714
#
#
#
# Elastic Compliance Matrix: (Units=1/GPa)
#
#
# Indices 1 2 3 4 5 6 
#
# 1 0.018991 -0.007440 -0.004066 0.000000 0.007878 0.000000
# 2 -0.007440 0.048005 -0.006166 0.000000 -0.000029 0.000000
# 3 -0.004066 -0.006166 0.012975 0.000000 0.006014 0.000000
# 4 0.000000 0.000000 0.000000 0.049564 0.000000 0.004155
# 5 0.007878 -0.000029 0.006014 0.000000 0.033506 0.000000
# 6 0.000000 0.000000 0.000000 0.004155 0.000000 0.054195
#
#
# Mechanical properties :
#
#
# Convention : Reuss Voigt Hill
#
# Bulk Modulus (GPa) = 22.40793 44.69837 33.55315
# Shear Modulus (GPa) = 18.69472 25.34820 22.02146
#
# Velocity S-wave (km/s) = 3.18516 3.70890 3.45696
# Velocity P-wave (km/s) = 5.06826 6.52672 5.84317
#
# Compressibility (1/GPa) = 0.04462706
#
# Stress axis : x y z
#
# Youngs Moduli (GPa) = 52.65660 20.83113 77.07406
#
# Poissons Ratio (x) = 0.15497 0.31342
# Poissons Ratio (y) = 0.39174 0.47522
# Poissons Ratio (z) = 0.21412 0.12844
#
# Static dielectric constant tensor:
#      x y z
#    x 3.573790 0.000000 -0.584000 
#    y 0.000000 3.279940 0.000000 
#    z -0.584000 0.000000 4.136310 
# 
# 
# High freq. dielectric constant tensor:
#      x y z
#    x 1.704930 0.000000 -0.039440 
#    y 0.000000 1.704520 0.000000 
#    z -0.039440 0.000000 1.720640 
# 
# From -- ./inp_files/61250.got.cif
#   From: 2010.06.25/outbox.cif.g09.slc.cpg/sg11_31_cif.got.tgz:61250.got - 2010.06.27 23:14:04.
