data_PCOD8077210
_publ_section_title
;
Structure prediction by ZEFSAII (Michael W. Deem and Ramdas Pophale) SiO2 
 PCOD8077210
Probable space group: P 21/M
;
_chemical_formula_sum "Si O2"
_cell_formula_units_Z 32
_cell_length_a 14.166846
_cell_length_b 8.672387
_cell_length_c 15.295104
_cell_angle_alpha 90.000000
_cell_angle_beta 124.389432
_cell_angle_gamma 90.000000
_cell_volume 1550.717852
_symmetry_space_group_name_H-M "P 21/M"
_symmetry_group_IT_number 11
_symmetry_cell_setting 'monoclinic'
loop_
_space_group_symop_operation_xyz
x,y,z
-x,1/2+y,-z
-x,-y,-z
x,1/2-y,z
loop_
_atom_site_type_symbol
_atom_site_label
_atom_site_fract_x
_atom_site_fract_y
_atom_site_fract_z
Si Si1 0.262123 0.429117 0.790364
Si Si2 0.775496 0.431018 0.720585
Si Si3 0.753788 0.069647 0.036631
Si Si4 0.007579 0.068836 0.599649
Si Si5 0.216393 0.431447 0.451926
Si Si6 0.003959 0.931625 0.906429
Si Si7 0.609222 0.070132 0.790185
Si Si8 0.632932 0.429602 0.319816
O O1 0.288310 0.250000 0.790046
O O2 0.294171 0.477599 0.905328
O O3 0.342987 0.523730 0.767361
O O4 0.130285 0.469757 0.704213
O O5 0.796963 0.250000 0.732943
O O6 0.724566 0.486350 0.600860
O O7 0.896098 0.515420 0.794368
O O8 0.689528 0.480055 0.752020
O O9 0.752780 0.250000 0.057597
O O10 0.881326 0.010841 0.081627
O O11 0.672488 0.030169 0.913028
O O12 0.982953 0.250000 0.583053
O O13 0.914677 0.986540 0.611955
O O14 0.000000 0.000000 0.500000
O O15 0.221527 0.250000 0.441806
O O16 0.281422 0.476073 0.574023
O O17 0.006584 0.750000 0.917551
O O18 0.000000 0.000000 0.000000
O O19 0.577305 0.250000 0.767786
O O20 0.496357 0.968780 0.723061
O O21 0.655666 0.250000 0.345659
#
# Coordination Sequence:
#
# PCOD8077210 Si02
#       8
#     4   4   4   4   4   4   4   4
#     4  11  24  41  64  95 128 165 206 256 315 373
#     4  11  23  42  66  95 129 168 210 260 317 375
#     4  10  22  41  64  93 127 168 209 254 312 369
#     4  11  22  38  64  95 129 168 207 254 312 374
#     4  12  25  42  65  95 130 168 208 258 315 378
#     4  11  21  37  63  96 132 170 209 255 314 376
#     4  10  23  45  67  89 124 166 211 264 314 369
#     4  12  26  44  67  92 121 163 213 265 316 375
#
# _framework density 20.635601999999999
#
# number of rings (size 3 to 8) (size 9 to 14) (size 15 to 20)
#    0.000    1.000    2.500    4.500    0.000    7.000 
#    0.000    0.000    0.000    0.000    0.000    0.000 
#    0.000    0.000    0.000    0.000    0.000    0.000 
#
# Total GULP energy -397036.946540 kJ/mol
# GULP energy per Si atom -12407.404579 kJ/mol
# Density = 2.058863 g / cm^3
# Si number density = 20.635602 Si / 1000 Ang^3
#
#
#
# Elastic Constant Matrix: (Units=GPa)
#
#
# Indices 1 2 3 4 5 6 
#
# 1 79.6152 26.6220 35.7784 0.0000 -1.6963 0.0000
# 2 26.6220 64.2359 16.4749 0.0000 -1.1381 0.0000
# 3 35.7784 16.4749 65.2470 0.0000 -25.4935 0.0000
# 4 0.0000 0.0000 0.0000 38.8277 0.0000 -2.9462
# 5 -1.6963 -1.1381 -25.4935 0.0000 37.3542 0.0000
# 6 0.0000 0.0000 0.0000 -2.9462 0.0000 35.3010
#
#
#
# Elastic Compliance Matrix: (Units=1/GPa)
#
#
# Indices 1 2 3 4 5 6 
#
# 1 0.019775 -0.005094 -0.012637 0.000000 -0.007882 0.000000
# 2 -0.005094 0.018247 -0.002301 0.000000 -0.001246 0.000000
# 3 -0.012637 -0.002301 0.030798 0.000000 0.020375 0.000000
# 4 0.000000 0.000000 0.000000 0.025919 0.000000 0.002163
# 5 -0.007882 -0.001246 0.020375 0.000000 0.040280 0.000000
# 6 0.000000 0.000000 0.000000 0.002163 0.000000 0.028508
#
#
# Mechanical properties :
#
#
# Convention : Reuss Voigt Hill
#
# Bulk Modulus (GPa) = 34.77518 40.76097 37.76808
# Shear Modulus (GPa) = 23.45492 30.97810 27.21651
#
# Velocity S-wave (km/s) = 3.37504 3.87873 3.63562
# Velocity P-wave (km/s) = 5.66361 6.31308 5.99715
#
# Compressibility (1/GPa) = 0.02875614
#
# Stress axis : x y z
#
# Youngs Moduli (GPa) = 50.56960 54.80411 32.47013
#
# Poissons Ratio (x) = 0.27918 0.41032
# Poissons Ratio (y) = 0.25761 0.07470
# Poissons Ratio (z) = 0.63904 0.12608
#
# Static dielectric constant tensor:
#      x y z
#    x 3.832340 0.000000 -0.082370 
#    y 0.000000 3.721430 0.000000 
#    z -0.082370 0.000000 3.800550 
# 
# 
# High freq. dielectric constant tensor:
#      x y z
#    x 1.812960 0.000000 -0.011790 
#    y 0.000000 1.811730 0.000000 
#    z -0.011790 0.000000 1.815220 
# 
# From -- ./inp_files/51770.got.cif
#   From: 2010.06.25/outbox.cif.g09.slc.cpg/sg11_26_cif.got.tgz:51770.got - 2010.06.27 23:14:04.
