data_PCOD8077772
_publ_section_title
;
Structure prediction by ZEFSAII (Michael W. Deem and Ramdas Pophale) SiO2 
 PCOD8077772
Probable space group: P 21/M
;
_chemical_formula_sum "Si O2"
_cell_formula_units_Z 32
_cell_length_a 23.199774
_cell_length_b 8.551445
_cell_length_c 14.175682
_cell_angle_alpha 90.000000
_cell_angle_beta 148.441663
_cell_angle_gamma 90.000000
_cell_volume 1471.882307
_symmetry_space_group_name_H-M "P 21/M"
_symmetry_group_IT_number 11
_symmetry_cell_setting 'monoclinic'
loop_
_space_group_symop_operation_xyz
x,y,z
-x,1/2+y,-z
-x,-y,-z
x,1/2-y,z
loop_
_atom_site_type_symbol
_atom_site_label
_atom_site_fract_x
_atom_site_fract_y
_atom_site_fract_z
Si Si1 0.839403 0.430539 0.791740
Si Si2 0.612148 0.565688 0.197341
Si Si3 0.602710 0.068489 0.390462
Si Si4 0.996335 0.066733 0.850085
Si Si5 0.995451 0.564443 0.344567
Si Si6 0.448048 0.565327 0.331135
Si Si7 0.751852 0.934754 0.045366
Si Si8 0.229111 0.564995 0.733817
O O1 0.870929 0.250000 0.848035
O O2 0.710180 0.455754 0.604116
O O3 0.901092 0.500334 0.785440
O O4 0.882287 0.523772 0.942375
O O5 0.616139 0.750000 0.189337
O O6 0.618629 0.524690 0.316315
O O7 0.713965 0.489260 0.283601
O O8 0.500000 0.500000 0.000000
O O9 0.581368 0.250000 0.337359
O O10 0.504772 0.001806 0.316497
O O11 0.984248 0.250000 0.824429
O O12 0.981814 0.992249 0.727073
O O13 0.988922 0.750000 0.331301
O O14 0.099728 0.512843 0.553514
O O15 0.877369 0.500722 0.214392
O O16 0.500000 0.500000 0.500000
O O17 0.458795 0.750000 0.349995
O O18 0.320663 0.514812 0.138692
O O19 0.742740 0.750000 0.019522
O O20 0.711279 0.984343 0.093578
O O21 0.242077 0.750000 0.760309
#
# Coordination Sequence:
#
# PCOD8077772 Si02
#       8
#     4   4   4   4   4   4   4   4
#     4   9  19  34  55  84 120 157 197 249 307 364
#     4  12  25  42  65  95 128 167 212 262 322 383
#     4  11  23  42  66  93 125 161 207 259 315 379
#     4   9  17  33  55  83 118 159 203 249 302 364
#     4   9  20  37  62  91 124 168 215 262 318 378
#     4  12  27  47  68  94 127 168 216 268 324 383
#     4  11  23  42  65  94 129 168 217 270 323 383
#     4  11  22  41  66  95 132 173 215 264 322 383
#
# _framework density 21.740867999999999
#
# number of rings (size 3 to 8) (size 9 to 14) (size 15 to 20)
#    0.000    1.500    0.000    5.250    1.750    3.000 
#    0.000    6.250    0.000    0.000    0.000    0.000 
#    0.000    0.000    0.000    0.000    0.000    0.000 
#
# Total GULP energy -396797.494462 kJ/mol
# GULP energy per Si atom -12399.921702 kJ/mol
# Density = 2.169138 g / cm^3
# Si number density = 21.740868 Si / 1000 Ang^3
#
#
#
# Elastic Constant Matrix: (Units=GPa)
#
#
# Indices 1 2 3 4 5 6 
#
# 1 74.1743 6.6668 38.4873 0.0000 -4.6498 0.0000
# 2 6.6668 57.7564 31.4573 0.0000 2.0934 0.0000
# 3 38.4873 31.4573 119.4384 0.0000 -2.8850 0.0000
# 4 0.0000 0.0000 0.0000 36.7465 0.0000 -3.4780
# 5 -4.6498 2.0934 -2.8850 0.0000 41.5362 0.0000
# 6 0.0000 0.0000 0.0000 -3.4780 0.0000 31.1780
#
#
#
# Elastic Compliance Matrix: (Units=1/GPa)
#
#
# Indices 1 2 3 4 5 6 
#
# 1 0.016332 0.001065 -0.005510 0.000000 0.001392 0.000000
# 2 0.001065 0.020364 -0.005738 0.000000 -0.001306 0.000000
# 3 -0.005510 -0.005738 0.011671 0.000000 0.000483 0.000000
# 4 0.000000 0.000000 0.000000 0.027504 0.000000 0.003068
# 5 0.001392 -0.001306 0.000483 0.000000 0.024331 0.000000
# 6 0.000000 0.000000 0.000000 0.003068 0.000000 0.032416
#
#
# Mechanical properties :
#
#
# Convention : Reuss Voigt Hill
#
# Bulk Modulus (GPa) = 35.71231 44.95466 40.33349
# Shear Modulus (GPa) = 30.80401 33.54265 32.17333
#
# Velocity S-wave (km/s) = 3.76822 3.93216 3.85106
# Velocity P-wave (km/s) = 5.94934 6.42948 6.19406
#
# Compressibility (1/GPa) = 0.02800155
#
# Stress axis : x y z
#
# Youngs Moduli (GPa) = 61.22901 49.10682 85.68312
#
# Poissons Ratio (x) = -0.05231 0.47209
# Poissons Ratio (y) = -0.06522 0.49166
# Poissons Ratio (z) = 0.33736 0.28178
#
# Static dielectric constant tensor:
#      x y z
#    x 4.147390 0.000000 -0.095870 
#    y 0.000000 3.817250 0.000000 
#    z -0.095870 0.000000 4.461340 
# 
# 
# High freq. dielectric constant tensor:
#      x y z
#    x 1.859670 0.000000 -0.002470 
#    y 0.000000 1.840550 0.000000 
#    z -0.002470 0.000000 1.869870 
# 
# From -- ./inp_files/55693.got.cif
#   From: 2010.06.25/outbox.cif.g09.slc.cpg/sg11_28_cif.got.tgz:55693.got - 2010.06.27 23:14:04.
