data_PCOD8077234
_publ_section_title
;
Structure prediction by ZEFSAII (Michael W. Deem and Ramdas Pophale) SiO2 
 PCOD8077234
Probable space group: P 21/M
;
_chemical_formula_sum "Si O2"
_cell_formula_units_Z 32
_cell_length_a 19.224756
_cell_length_b 8.848837
_cell_length_c 11.756145
_cell_angle_alpha 90.000000
_cell_angle_beta 129.087326
_cell_angle_gamma 90.000000
_cell_volume 1552.307345
_symmetry_space_group_name_H-M "P 21/M"
_symmetry_group_IT_number 11
_symmetry_cell_setting 'monoclinic'
loop_
_space_group_symop_operation_xyz
x,y,z
-x,1/2+y,-z
-x,-y,-z
x,1/2-y,z
loop_
_atom_site_type_symbol
_atom_site_label
_atom_site_fract_x
_atom_site_fract_y
_atom_site_fract_z
Si Si1 0.573846 0.571686 0.658947
Si Si2 0.628112 0.576551 0.179324
Si Si3 0.222784 0.424376 0.188828
Si Si4 0.799759 0.426575 0.405267
Si Si5 0.440784 0.575516 0.108988
Si Si6 0.883719 0.921062 0.697666
Si Si7 0.916655 0.927060 0.351905
Si Si8 0.083322 0.922991 0.885570
O O1 0.500000 0.500000 0.500000
O O2 0.557369 0.750000 0.646959
O O3 0.672481 0.533889 0.711467
O O4 0.565738 0.505225 0.776653
O O5 0.655138 0.750000 0.191519
O O6 0.700721 0.487730 0.329950
O O7 0.539822 0.558332 0.162495
O O8 0.623793 0.503738 0.049071
O O9 0.206056 0.250000 0.137664
O O10 0.188536 0.457308 0.280228
O O11 0.165035 0.532597 0.049922
O O12 0.800190 0.250000 0.386180
O O13 0.867158 0.466152 0.576576
O O14 0.827288 0.508905 0.317254
O O15 0.412848 0.750000 0.093892
O O16 0.870714 0.750000 0.639882
O O17 0.986219 0.943580 0.846864
O O18 0.922735 0.750000 0.374378
O O19 0.914215 0.966968 0.218191
O O20 0.000000 0.000000 0.500000
O O21 0.096703 0.750000 0.860915
#
# Coordination Sequence:
#
# PCOD8077234 Si02
#       8
#     4   4   4   4   4   4   4   4
#     4  11  25  44  66  93 128 169 214 266 323 380
#     4  10  22  41  66  94 127 166 207 260 320 379
#     4  10  24  44  66  92 125 170 216 262 320 381
#     4  12  25  39  62  95 128 167 213 260 314 380
#     4  10  22  42  67  94 126 164 210 262 319 382
#     4  10  22  42  65  91 128 170 215 265 317 375
#     4  12  24  41  63  90 128 169 210 257 313 374
#     4  11  23  40  66  96 128 167 211 266 320 377
#
# _framework density 20.614474000000001
#
# number of rings (size 3 to 8) (size 9 to 14) (size 15 to 20)
#    0.000    1.250    1.250    4.125    3.500    3.500 
#    0.000    0.000    0.000    0.000    0.000    0.000 
#    0.000    0.000    0.000    0.000    0.000    0.000 
#
# Total GULP energy -396892.468127 kJ/mol
# GULP energy per Si atom -12402.889629 kJ/mol
# Density = 2.056755 g / cm^3
# Si number density = 20.614474 Si / 1000 Ang^3
#
#
#
# Elastic Constant Matrix: (Units=GPa)
#
#
# Indices 1 2 3 4 5 6 
#
# 1 108.7427 63.1126 57.8284 0.0000 -5.2447 0.0000
# 2 63.1126 156.2703 53.8605 0.0000 4.8077 0.0000
# 3 57.8284 53.8605 99.3135 0.0000 11.2163 0.0000
# 4 0.0000 0.0000 0.0000 40.3857 0.0000 0.7954
# 5 -5.2447 4.8077 11.2163 0.0000 32.3962 0.0000
# 6 0.0000 0.0000 0.0000 0.7954 0.0000 32.1382
#
#
#
# Elastic Compliance Matrix: (Units=1/GPa)
#
#
# Indices 1 2 3 4 5 6 
#
# 1 0.015894 -0.003913 -0.007793 0.000000 0.005852 0.000000
# 2 -0.003913 0.008837 -0.002388 0.000000 -0.001118 0.000000
# 3 -0.007793 -0.002388 0.016656 0.000000 -0.006674 0.000000
# 4 0.000000 0.000000 0.000000 0.024773 0.000000 -0.000613
# 5 0.005852 -0.001118 -0.006674 0.000000 0.034292 0.000000
# 6 0.000000 0.000000 0.000000 -0.000613 0.000000 0.031131
#
#
# Mechanical properties :
#
#
# Convention : Reuss Voigt Hill
#
# Bulk Modulus (GPa) = 75.76842 79.32552 77.54697
# Shear Modulus (GPa) = 30.45622 33.61901 32.03762
#
# Velocity S-wave (km/s) = 3.84789 4.04275 3.94653
# Velocity P-wave (km/s) = 7.52173 7.76890 7.64632
#
# Compressibility (1/GPa) = 0.01319811
#
# Stress axis : x y z
#
# Youngs Moduli (GPa) = 62.91774 113.16252 60.03905
#
# Poissons Ratio (x) = 0.44279 0.46791
# Poissons Ratio (y) = 0.24619 0.14336
# Poissons Ratio (z) = 0.49035 0.27021
#
# Static dielectric constant tensor:
#      x y z
#    x 4.192670 0.000000 -0.172770 
#    y 0.000000 3.839260 0.000000 
#    z -0.172770 0.000000 3.972460 
# 
# 
# High freq. dielectric constant tensor:
#      x y z
#    x 1.817590 0.000000 0.006720 
#    y 0.000000 1.816880 0.000000 
#    z 0.006720 0.000000 1.806210 
# 
# From -- ./inp_files/42934.got.cif
#   From: 2010.06.25/outbox.cif.g09.slc.cpg/sg11_22_cif.got.tgz:42934.got - 2010.06.27 23:14:04.
