data_PCOD8077259
_publ_section_title
;
Structure prediction by ZEFSAII (Michael W. Deem and Ramdas Pophale) SiO2 
 PCOD8077259
Probable space group: P 21/M
;
_chemical_formula_sum "Si O2"
_cell_formula_units_Z 32
_cell_length_a 15.207243
_cell_length_b 17.560271
_cell_length_c 6.872373
_cell_angle_alpha 90.000000
_cell_angle_beta 63.133514
_cell_angle_gamma 90.000000
_cell_volume 1637.131149
_symmetry_space_group_name_H-M "P 21/M"
_symmetry_group_IT_number 11
_symmetry_cell_setting 'monoclinic'
loop_
_space_group_symop_operation_xyz
x,y,z
-x,1/2+y,-z
-x,-y,-z
x,1/2-y,z
loop_
_atom_site_type_symbol
_atom_site_label
_atom_site_fract_x
_atom_site_fract_y
_atom_site_fract_z
Si Si1 0.545407 0.083076 0.444945
Si Si2 0.045407 0.416924 0.964241
Si Si3 0.178437 0.161717 0.533063
Si Si4 0.779072 0.916072 0.908473
Si Si5 0.279072 0.916072 0.033383
Si Si6 0.678437 0.161717 0.610063
Si Si7 0.151011 0.836727 0.857072
Si Si8 0.651011 0.836727 0.340906
O O1 0.624863 0.085686 0.195996
O O2 0.594053 0.108416 0.600829
O O3 0.458453 0.141677 0.482517
O O4 0.500000 0.000000 0.500000
O O5 0.094053 0.391584 0.711064
O O6 0.124864 0.414314 0.054277
O O7 0.000000 0.500000 0.000000
O O8 0.958453 0.358323 0.100578
O O9 0.145377 0.250000 0.576486
O O10 0.196767 0.138255 0.294338
O O11 0.279950 0.147926 0.544127
O O12 0.685149 0.885841 0.121734
O O13 0.750000 1.000000 0.863664
O O14 0.185149 0.885842 0.007966
O O15 0.303232 0.861744 0.187873
O O16 0.645376 0.250000 0.632762
O O17 0.779950 0.147927 0.395974
O O18 0.154927 0.750000 0.920373
O O19 0.654928 0.750000 0.269774
#
# Coordination Sequence:
#
# PCOD8077259 Si02
#       8
#     4   4   4   4   4   4   4   4
#     4  11  23  40  64  92 122 160 205 251 304 358
#     4  11  23  40  64  92 122 160 205 251 304 358
#     4  10  24  41  62  90 124 161 203 250 307 368
#     4  11  23  39  64  91 124 160 204 255 302 363
#     4  11  23  39  64  91 124 160 204 255 302 363
#     4  10  24  41  62  90 124 161 203 250 307 368
#     4  10  22  42  63  87 123 162 200 249 307 365
#     4  10  22  42  63  87 123 162 200 249 307 365
#
# _framework density 19.546388
#
# number of rings (size 3 to 8) (size 9 to 14) (size 15 to 20)
#    0.000    1.500    2.500    1.500    3.500    6.000 
#    0.000    2.500    0.000    0.000    0.000    0.000 
#    0.000    0.000    0.000    0.000    0.000    0.000 
#
# Total GULP energy -396921.369764 kJ/mol
# GULP energy per Si atom -12403.792805 kJ/mol
# Density = 1.950190 g / cm^3
# Si number density = 19.546388 Si / 1000 Ang^3
#
#
#
# Elastic Constant Matrix: (Units=GPa)
#
#
# Indices 1 2 3 4 5 6 
#
# 1 100.8314 40.3420 43.8345 0.0000 -14.4497 0.0000
# 2 40.3420 88.5970 40.9148 0.0000 0.2742 0.0000
# 3 43.8345 40.9148 95.8170 0.0000 12.0413 0.0000
# 4 0.0000 0.0000 0.0000 35.9895 0.0000 -2.2000
# 5 -14.4497 0.2742 12.0413 0.0000 26.1722 0.0000
# 6 0.0000 0.0000 0.0000 -2.2000 0.0000 40.5710
#
#
#
# Elastic Compliance Matrix: (Units=1/GPa)
#
#
# Indices 1 2 3 4 5 6 
#
# 1 0.016620 -0.004189 -0.007401 0.000000 0.012625 0.000000
# 2 -0.004189 0.015308 -0.004574 0.000000 -0.000369 0.000000
# 3 -0.007401 -0.004574 0.017282 0.000000 -0.011990 0.000000
# 4 0.000000 0.000000 0.000000 0.027878 0.000000 0.001512
# 5 0.012625 -0.000369 -0.011990 0.000000 0.050699 0.000000
# 6 0.000000 0.000000 0.000000 0.001512 0.000000 0.024730
#
#
# Mechanical properties :
#
#
# Convention : Reuss Voigt Hill
#
# Bulk Modulus (GPa) = 59.23427 59.49200 59.36314
# Shear Modulus (GPa) = 26.25030 31.22348 28.73689
#
# Velocity S-wave (km/s) = 3.66864 4.00109 3.83846
# Velocity P-wave (km/s) = 6.95093 7.20051 7.07682
#
# Compressibility (1/GPa) = 0.01688212
#
# Stress axis : x y z
#
# Youngs Moduli (GPa) = 60.16685 65.32569 57.86247
#
# Poissons Ratio (x) = 0.27365 0.42826
# Poissons Ratio (y) = 0.25204 0.26465
# Poissons Ratio (z) = 0.44532 0.29879
#
# Static dielectric constant tensor:
#      x y z
#    x 4.225330 0.000000 -0.323330 
#    y 0.000000 3.821880 0.000000 
#    z -0.323330 0.000000 3.551950 
# 
# 
# High freq. dielectric constant tensor:
#      x y z
#    x 1.769740 0.000000 -0.006600 
#    y 0.000000 1.779530 0.000000 
#    z -0.006600 0.000000 1.755990 
# 
# From -- ./inp_files/6821.got.cif
#   From: 2010.06.25/outbox.cif.g09.slc.cpg/sg11_4_cif.got.tgz:6821.got - 2010.06.27 23:14:04.
