data_PCOD8077226
_publ_section_title
;
Structure prediction by ZEFSAII (Michael W. Deem and Ramdas Pophale) SiO2 
 PCOD8077226
Probable space group: P 21/M
;
_chemical_formula_sum "Si O2"
_cell_formula_units_Z 32
_cell_length_a 13.182116
_cell_length_b 8.733673
_cell_length_c 14.728115
_cell_angle_alpha 90.000000
_cell_angle_beta 116.383964
_cell_angle_gamma 90.000000
_cell_volume 1519.000149
_symmetry_space_group_name_H-M "P 21/M"
_symmetry_group_IT_number 11
_symmetry_cell_setting 'monoclinic'
loop_
_space_group_symop_operation_xyz
x,y,z
-x,1/2+y,-z
-x,-y,-z
x,1/2-y,z
loop_
_atom_site_type_symbol
_atom_site_label
_atom_site_fract_x
_atom_site_fract_y
_atom_site_fract_z
Si Si1 0.116497 0.573519 0.026683
Si Si2 0.795834 0.575288 0.096636
Si Si3 0.495522 0.927110 0.279881
Si Si4 0.573081 0.429373 0.951126
Si Si5 0.736389 0.425272 0.410590
Si Si6 0.734541 0.931113 0.762754
Si Si7 0.889348 0.927310 0.322431
Si Si8 0.864291 0.426038 0.645571
O O1 0.120633 0.750000 0.051917
O O2 0.217036 0.495380 0.123545
O O3 0.120775 0.541707 0.920523
O O4 0.000000 0.500000 0.000000
O O5 0.829992 0.750000 0.089131
O O6 0.798456 0.547456 0.205384
O O7 0.680160 0.537049 0.001097
O O8 0.485159 0.750000 0.301285
O O9 0.485770 0.954170 0.168641
O O10 0.620013 0.982903 0.356398
O O11 0.396055 0.012337 0.296587
O O12 0.601481 0.250000 0.978618
O O13 0.500000 0.500000 0.000000
O O14 0.712896 0.250000 0.375751
O O15 0.839347 0.483666 0.388331
O O16 0.775879 0.444353 0.529256
O O17 0.735299 0.750000 0.764958
O O18 0.813595 0.984038 0.710918
O O19 0.900285 0.750000 0.354402
O O20 0.012312 0.989283 0.337980
O O21 0.879402 0.250000 0.681327
#
# Coordination Sequence:
#
# PCOD8077226 Si02
#       8
#     4   4   4   4   4   4   4   4
#     4  12  24  40  62  91 128 169 211 258 312 373
#     4  11  22  37  60  91 124 163 208 253 310 376
#     4  11  24  43  65  90 128 175 217 265 327 390
#     4  11  23  38  59  87 122 166 209 257 316 377
#     4  11  24  41  66  97 127 167 218 274 331 386
#     4  12  25  42  67  97 129 169 218 271 326 387
#     4  10  22  41  65  94 130 170 212 264 327 391
#     4  10  23  44  67  93 129 171 216 270 331 391
#
# _framework density 21.066488
#
# number of rings (size 3 to 8) (size 9 to 14) (size 15 to 20)
#    0.000    1.000    1.250    5.625    0.000    8.500 
#    0.000    0.000    0.000    0.000    0.000    0.000 
#    0.000    0.000    0.000    0.000    0.000    0.000 
#
# Total GULP energy -396672.348472 kJ/mol
# GULP energy per Si atom -12396.010890 kJ/mol
# Density = 2.101854 g / cm^3
# Si number density = 21.066488 Si / 1000 Ang^3
#
#
#
# Elastic Constant Matrix: (Units=GPa)
#
#
# Indices 1 2 3 4 5 6 
#
# 1 106.4064 45.2022 12.6926 0.0000 -4.0319 0.0000
# 2 45.2022 124.4362 40.2492 0.0000 -2.1884 0.0000
# 3 12.6926 40.2492 66.5960 0.0000 0.6377 0.0000
# 4 0.0000 0.0000 0.0000 29.9590 0.0000 -3.3595
# 5 -4.0319 -2.1884 0.6377 0.0000 37.5151 0.0000
# 6 0.0000 0.0000 0.0000 -3.3595 0.0000 42.1570
#
#
#
# Elastic Compliance Matrix: (Units=1/GPa)
#
#
# Indices 1 2 3 4 5 6 
#
# 1 0.011155 -0.004158 0.000378 0.000000 0.000950 0.000000
# 2 -0.004158 0.011556 -0.006195 0.000000 0.000333 0.000000
# 3 0.000378 -0.006195 0.018694 0.000000 -0.000639 0.000000
# 4 0.000000 0.000000 0.000000 0.033680 0.000000 0.002684
# 5 0.000950 0.000333 -0.000639 0.000000 0.026788 0.000000
# 6 0.000000 0.000000 0.000000 0.002684 0.000000 0.023935
#
#
# Mechanical properties :
#
#
# Convention : Reuss Voigt Hill
#
# Bulk Modulus (GPa) = 46.60844 54.85849 50.73347
# Shear Modulus (GPa) = 32.69890 35.21252 33.95571
#
# Velocity S-wave (km/s) = 3.94404 4.09283 4.01912
# Velocity P-wave (km/s) = 6.55081 6.95932 6.75815
#
# Compressibility (1/GPa) = 0.02145534
#
# Stress axis : x y z
#
# Youngs Moduli (GPa) = 89.64554 86.53386 53.49237
#
# Poissons Ratio (x) = 0.35977 -0.02020
# Poissons Ratio (y) = 0.37271 0.33139
# Poissons Ratio (z) = -0.03385 0.53608
#
# Static dielectric constant tensor:
#      x y z
#    x 3.722810 0.000000 -0.085430 
#    y 0.000000 3.911510 0.000000 
#    z -0.085430 0.000000 3.661090 
# 
# 
# High freq. dielectric constant tensor:
#      x y z
#    x 1.844130 0.000000 -0.001190 
#    y 0.000000 1.828260 0.000000 
#    z -0.001190 0.000000 1.827920 
# 
# From -- ./inp_files/49446.got.cif
#   From: 2010.06.25/outbox.cif.g09.slc.cpg/sg11_25_cif.got.tgz:49446.got - 2010.06.27 23:14:04.
