data_PCOD8077380
_publ_section_title
;
Structure prediction by ZEFSAII (Michael W. Deem and Ramdas Pophale) SiO2 
 PCOD8077380
Probable space group: P 21/M
;
_chemical_formula_sum "Si O2"
_cell_formula_units_Z 28
_cell_length_a 14.582509
_cell_length_b 8.700723
_cell_length_c 12.683368
_cell_angle_alpha 90.000000
_cell_angle_beta 59.564406
_cell_angle_gamma 90.000000
_cell_volume 1387.489718
_symmetry_space_group_name_H-M "P 21/M"
_symmetry_group_IT_number 11
_symmetry_cell_setting 'monoclinic'
loop_
_space_group_symop_operation_xyz
x,y,z
-x,1/2+y,-z
-x,-y,-z
x,1/2-y,z
loop_
_atom_site_type_symbol
_atom_site_label
_atom_site_fract_x
_atom_site_fract_y
_atom_site_fract_z
Si Si1 0.111553 0.931949 0.466708
Si Si2 0.114234 0.932742 0.908948
Si Si3 0.279337 0.427862 0.213278
Si Si4 0.813382 0.424707 0.356242
Si Si5 0.491129 0.428260 0.203582
Si Si6 0.717186 0.929531 0.029936
Si Si7 0.571260 0.425794 0.546242
O O1 0.104843 0.750000 0.475894
O O2 0.138728 0.002725 0.566241
O O3 0.203028 0.972423 0.330686
O O4 0.000000 0.000000 0.500000
O O5 0.109547 0.750000 0.910538
O O6 0.146341 0.001870 0.775642
O O7 0.201172 0.980752 0.944100
O O8 0.000000 0.000000 0.000000
O O9 0.254420 0.250000 0.250041
O O10 0.403455 0.463368 0.164688
O O11 0.256163 0.472364 0.106142
O O12 0.852414 0.250000 0.332431
O O13 0.687751 0.436167 0.431462
O O14 0.523344 0.250000 0.186934
O O15 0.595986 0.527159 0.124417
O O16 0.436638 0.474176 0.344517
O O17 0.731518 0.750000 0.042405
O O18 0.500000 0.500000 0.500000
O O19 0.538068 0.250000 0.588934
#
# Coordination Sequence:
#
# PCOD8077380 Si02
#       7
#     4   4   4   4   4   4   4
#     4  11  23  41  65  94 124 163 208 256 314 374
#     4  11  24  44  66  92 125 165 212 260 314 374
#     4  10  23  42  64  93 129 167 209 259 313 371
#     4   9  21  41  63  86 122 162 200 252 309 364
#     4  11  22  39  62  93 128 164 207 258 314 375
#     4  11  24  42  64  92 127 169 213 259 314 373
#     4  11  21  37  61  91 124 165 209 254 311 371
#
# _framework density 20.180330999999999
#
# number of rings (size 3 to 8) (size 9 to 14) (size 15 to 20)
#    0.000    1.429    1.429    3.429    2.000    2.857 
#    0.000    4.286    0.000    0.000    0.000    0.000 
#    0.000    0.000    0.000    0.000    0.000    0.000 
#
# Total GULP energy -347248.696977 kJ/mol
# GULP energy per Si atom -12401.739178 kJ/mol
# Density = 2.013440 g / cm^3
# Si number density = 20.180331 Si / 1000 Ang^3
#
#
#
# Elastic Constant Matrix: (Units=GPa)
#
#
# Indices 1 2 3 4 5 6 
#
# 1 141.0834 44.4619 67.9645 0.0000 9.1115 0.0000
# 2 44.4619 61.6834 39.9752 0.0000 3.3735 0.0000
# 3 67.9645 39.9752 144.6484 0.0000 13.9521 0.0000
# 4 0.0000 0.0000 0.0000 33.9755 0.0000 -4.3230
# 5 9.1115 3.3735 13.9521 0.0000 34.1277 0.0000
# 6 0.0000 0.0000 0.0000 -4.3230 0.0000 36.3990
#
#
#
# Elastic Compliance Matrix: (Units=1/GPa)
#
#
# Indices 1 2 3 4 5 6 
#
# 1 0.010429 -0.005297 -0.003350 0.000000 -0.000891 0.000000
# 2 -0.005297 0.022442 -0.003785 0.000000 0.000743 0.000000
# 3 -0.003350 -0.003785 0.009797 0.000000 -0.002737 0.000000
# 4 0.000000 0.000000 0.000000 0.029885 0.000000 0.003549
# 5 -0.000891 0.000743 -0.002737 0.000000 0.030585 0.000000
# 6 0.000000 0.000000 0.000000 0.003549 0.000000 0.027895
#
#
# Mechanical properties :
#
#
# Convention : Reuss Voigt Hill
#
# Bulk Modulus (GPa) = 56.16755 72.46870 64.31813
# Shear Modulus (GPa) = 30.89613 33.90135 32.39874
#
# Velocity S-wave (km/s) = 3.91705 4.10313 4.01117
# Velocity P-wave (km/s) = 6.95348 7.64435 7.30709
#
# Compressibility (1/GPa) = 0.01780387
#
# Stress axis : x y z
#
# Youngs Moduli (GPa) = 95.88761 44.55849 102.06772
#
# Poissons Ratio (x) = 0.23604 0.34195
# Poissons Ratio (y) = 0.50795 0.38632
# Poissons Ratio (z) = 0.32124 0.16865
#
# Static dielectric constant tensor:
#      x y z
#    x 3.822180 0.000000 -0.011120 
#    y 0.000000 3.603930 0.000000 
#    z -0.011120 0.000000 3.359810 
# 
# 
# High freq. dielectric constant tensor:
#      x y z
#    x 1.804150 0.000000 0.006570 
#    y 0.000000 1.781600 0.000000 
#    z 0.006570 0.000000 1.802390 
# 
# From -- ./inp_files/37851.got.cif
#   From: 2010.06.25/outbox.cif.g09.slc.cpg/sg11_19_cif.got.tgz:37851.got - 2010.06.27 23:14:04.
