data_PCOD8077629
_publ_section_title
;
Structure prediction by ZEFSAII (Michael W. Deem and Ramdas Pophale) SiO2 
 PCOD8077629
Probable space group: P 21/M
;
_chemical_formula_sum "Si O2"
_cell_formula_units_Z 16
_cell_length_a 11.007969
_cell_length_b 12.415377
_cell_length_c 7.547259
_cell_angle_alpha 90.000000
_cell_angle_beta 121.665051
_cell_angle_gamma 90.000000
_cell_volume 877.916103
_symmetry_space_group_name_H-M "P 21/M"
_symmetry_group_IT_number 11
_symmetry_cell_setting 'monoclinic'
loop_
_space_group_symop_operation_xyz
x,y,z
-x,1/2+y,-z
-x,-y,-z
x,1/2-y,z
loop_
_atom_site_type_symbol
_atom_site_label
_atom_site_fract_x
_atom_site_fract_y
_atom_site_fract_z
Si Si1 0.114759 0.630762 0.037202
Si Si2 0.814656 0.564702 0.709717
Si Si3 0.340382 0.013890 0.081053
Si Si4 0.616581 0.876185 0.250189
O O1 0.172624 0.750000 0.119778
O O2 0.951369 0.639501 0.849690
O O3 0.131549 0.560316 0.231612
O O4 0.211879 0.573484 0.959217
O O5 0.691986 0.584399 0.766267
O O6 0.754014 0.592944 0.471744
O O7 0.486165 0.948251 0.218321
O O8 0.346022 0.095856 0.922888
O O9 0.580259 0.750000 0.238513
#
# Coordination Sequence:
#
# PCOD8077629 Si02
#       4
#     4   4   4   4
#     4   9  18  37  58  78 112 145 174 225 272 311
#     4   9  20  37  56  81 109 139 186 222 260 328
#     4   9  21  38  52  81 113 136 186 221 261 327
#     4  11  21  35  58  81 110 146 177 221 272 316
#
# _framework density 18.224976000000002
#
# number of rings (size 3 to 8) (size 9 to 14) (size 15 to 20)
#    1.500    1.000    0.000    2.250    0.000    3.000 
#    0.000    6.250    0.000    0.000    0.000    0.000 
#    0.000    0.000    0.000    0.000    0.000    0.000 
#
# Total GULP energy -198222.260904 kJ/mol
# GULP energy per Si atom -12388.891306 kJ/mol
# Density = 1.818350 g / cm^3
# Si number density = 18.224976 Si / 1000 Ang^3
#
#
#
# Elastic Constant Matrix: (Units=GPa)
#
#
# Indices 1 2 3 4 5 6 
#
# 1 44.5867 8.7124 8.8787 0.0000 8.6834 0.0000
# 2 8.7124 64.6867 25.1797 0.0000 5.8933 0.0000
# 3 8.8787 25.1797 89.6599 0.0000 3.9143 0.0000
# 4 0.0000 0.0000 0.0000 16.9363 0.0000 -0.4306
# 5 8.6834 5.8933 3.9143 0.0000 15.2619 0.0000
# 6 0.0000 0.0000 0.0000 -0.4306 0.0000 16.5384
#
#
#
# Elastic Compliance Matrix: (Units=1/GPa)
#
#
# Indices 1 2 3 4 5 6 
#
# 1 0.025695 -0.001642 -0.001490 0.000000 -0.013603 0.000000
# 2 -0.001642 0.017933 -0.004664 0.000000 -0.004794 0.000000
# 3 -0.001490 -0.004664 0.012637 0.000000 -0.000592 0.000000
# 4 0.000000 0.000000 0.000000 0.059084 0.000000 0.001538
# 5 -0.013603 -0.004794 -0.000592 0.000000 0.075265 0.000000
# 6 0.000000 0.000000 0.000000 0.001538 0.000000 0.060505
#
#
# Mechanical properties :
#
#
# Convention : Reuss Voigt Hill
#
# Bulk Modulus (GPa) = 24.58622 31.60833 28.09727
# Shear Modulus (GPa) = 17.84011 20.15816 18.99914
#
# Velocity S-wave (km/s) = 3.13210 3.32938 3.23225
# Velocity P-wave (km/s) = 5.15750 5.67104 5.42036
#
# Compressibility (1/GPa) = 0.04067320
#
# Stress axis : x y z
#
# Youngs Moduli (GPa) = 38.91821 55.76438 79.13570
#
# Poissons Ratio (x) = 0.09154 0.11788
# Poissons Ratio (y) = 0.06389 0.36911
# Poissons Ratio (z) = 0.05797 0.26010
#
# Static dielectric constant tensor:
#      x y z
#    x 3.341120 0.000000 0.138570 
#    y 0.000000 3.228840 0.000000 
#    z 0.138570 0.000000 3.028900 
# 
# 
# High freq. dielectric constant tensor:
#      x y z
#    x 1.705320 0.000000 0.018580 
#    y 0.000000 1.703130 0.000000 
#    z 0.018580 0.000000 1.684840 
# 
# From -- ./inp_files/3936.got.cif
#   From: 2010.06.25/outbox.cif.g09.slc.cpg/sg11_2_cif.got.tgz:3936.got - 2010.06.27 23:14:04.
