data_PCOD8077490
_publ_section_title
;
Structure prediction by ZEFSAII (Michael W. Deem and Ramdas Pophale) SiO2 
 PCOD8077490
Probable space group: P 21/M
;
_chemical_formula_sum "Si O2"
_cell_formula_units_Z 32
_cell_length_a 11.556986
_cell_length_b 18.190755
_cell_length_c 13.497522
_cell_angle_alpha 90.000000
_cell_angle_beta 146.665166
_cell_angle_gamma 90.000000
_cell_volume 1559.342237
_symmetry_space_group_name_H-M "P 21/M"
_symmetry_group_IT_number 11
_symmetry_cell_setting 'monoclinic'
loop_
_space_group_symop_operation_xyz
x,y,z
-x,1/2+y,-z
-x,-y,-z
x,1/2-y,z
loop_
_atom_site_type_symbol
_atom_site_label
_atom_site_fract_x
_atom_site_fract_y
_atom_site_fract_z
Si Si1 0.587875 0.833922 0.316158
Si Si2 0.647690 0.566391 0.919705
Si Si3 0.101072 0.399307 0.613264
Si Si4 0.983736 0.832059 0.250073
Si Si5 0.230828 0.334352 0.343225
Si Si6 0.538395 0.334601 0.381207
Si Si7 0.793346 0.091407 0.037241
Si Si8 0.259873 0.944463 0.776785
O O1 0.646895 0.750000 0.336481
O O2 0.717954 0.886447 0.336975
O O3 0.638865 0.855032 0.465350
O O4 0.342970 0.847508 0.117868
O O5 0.511801 0.606448 0.739127
O O6 0.502020 0.553788 0.913123
O O7 0.851420 0.614911 0.086128
O O8 0.734703 0.487381 0.947492
O O9 0.090890 0.336908 0.689265
O O10 0.149408 0.475900 0.703414
O O11 0.876146 0.396826 0.397670
O O12 0.941064 0.750000 0.181768
O O13 0.228029 0.852820 0.413539
O O14 0.152016 0.250000 0.291983
O O15 0.381203 0.347552 0.358605
O O16 0.035623 0.389260 0.192117
O O17 0.526063 0.250000 0.333345
O O18 0.744883 0.093570 0.119774
#
# Coordination Sequence:
#
# PCOD8077490 Si02
#       8
#     4   4   4   4   4   4   4   4
#     4  11  23  40  64  94 124 164 213 258 310 377
#     4  12  23  40  67  95 128 166 207 256 317 379
#     4  11  20  39  65  89 127 171 203 251 312 378
#     4  11  23  40  64  94 124 164 213 258 310 377
#     4  10  24  46  66  89 125 166 210 263 315 364
#     4  10  24  46  66  89 125 166 210 263 315 364
#     4  12  23  40  67  95 128 166 207 256 317 379
#     4  11  22  38  64  93 134 169 198 249 321 376
#
# _framework density 20.521473
#
# number of rings (size 3 to 8) (size 9 to 14) (size 15 to 20)
#    0.000    1.000    5.000    2.250    0.000    2.500 
#    0.000    5.625    0.000    0.000    0.000    0.000 
#    0.000    0.000    0.000    0.000    0.000    0.000 
#
# Total GULP energy -396951.145348 kJ/mol
# GULP energy per Si atom -12404.723292 kJ/mol
# Density = 2.047476 g / cm^3
# Si number density = 20.521473 Si / 1000 Ang^3
#
#
#
# Elastic Constant Matrix: (Units=GPa)
#
#
# Indices 1 2 3 4 5 6 
#
# 1 80.5697 20.3544 21.6858 0.0000 17.8694 0.0000
# 2 20.3544 62.1363 33.6816 0.0000 8.7824 0.0000
# 3 21.6858 33.6816 111.5069 0.0000 18.5904 0.0000
# 4 0.0000 0.0000 0.0000 37.5294 0.0000 1.7114
# 5 17.8694 8.7824 18.5904 0.0000 21.7425 0.0000
# 6 0.0000 0.0000 0.0000 1.7114 0.0000 23.1383
#
#
#
# Elastic Compliance Matrix: (Units=1/GPa)
#
#
# Indices 1 2 3 4 5 6 
#
# 1 0.015889 -0.003517 -0.000102 0.000000 -0.011551 0.000000
# 2 -0.003517 0.020224 -0.005301 0.000000 -0.000747 0.000000
# 3 -0.000102 -0.005301 0.011917 0.000000 -0.007964 0.000000
# 4 0.000000 0.000000 0.000000 0.026736 0.000000 -0.001977
# 5 -0.011551 -0.000747 -0.007964 0.000000 0.062598 0.000000
# 6 0.000000 0.000000 0.000000 -0.001977 0.000000 0.043365
#
#
# Mechanical properties :
#
#
# Convention : Reuss Voigt Hill
#
# Bulk Modulus (GPa) = 33.12188 45.07294 39.09741
# Shear Modulus (GPa) = 23.96565 28.38145 26.17355
#
# Velocity S-wave (km/s) = 3.42106 3.72292 3.57518
# Velocity P-wave (km/s) = 5.63738 6.36331 6.01131
#
# Compressibility (1/GPa) = 0.03019152
#
# Stress axis : x y z
#
# Youngs Moduli (GPa) = 62.93467 49.44500 83.91539
#
# Poissons Ratio (x) = 0.17390 0.00856
# Poissons Ratio (y) = 0.22135 0.44480
# Poissons Ratio (z) = 0.00642 0.26208
#
# Static dielectric constant tensor:
#      x y z
#    x 3.499810 0.000000 -0.001010 
#    y 0.000000 3.719880 0.000000 
#    z -0.001010 0.000000 3.879460 
# 
# 
# High freq. dielectric constant tensor:
#      x y z
#    x 1.788290 0.000000 0.001670 
#    y 0.000000 1.800090 0.000000 
#    z 0.001670 0.000000 1.822290 
# 
# From -- ./inp_files/50699.got.cif
#   From: 2010.06.25/outbox.cif.g09.slc.cpg/sg11_26_cif.got.tgz:50699.got - 2010.06.27 23:14:04.
