data_PCOD8077071
_publ_section_title
;
Structure prediction by ZEFSAII (Michael W. Deem and Ramdas Pophale) SiO2 
 PCOD8077071
Probable space group: P 21/M
;
_chemical_formula_sum "Si O2"
_cell_formula_units_Z 32
_cell_length_a 9.424955
_cell_length_b 13.717555
_cell_length_c 12.236167
_cell_angle_alpha 90.000000
_cell_angle_beta 88.276779
_cell_angle_gamma 90.000000
_cell_volume 1581.266022
_symmetry_space_group_name_H-M "P 21/M"
_symmetry_group_IT_number 11
_symmetry_cell_setting 'monoclinic'
loop_
_space_group_symop_operation_xyz
x,y,z
-x,1/2+y,-z
-x,-y,-z
x,1/2-y,z
loop_
_atom_site_type_symbol
_atom_site_label
_atom_site_fract_x
_atom_site_fract_y
_atom_site_fract_z
Si Si1 0.678000 0.862113 0.385566
Si Si2 0.643169 0.359410 0.607746
Si Si3 0.574308 0.363181 0.065188
Si Si4 0.745160 0.140363 0.843198
Si Si5 0.921801 0.540967 0.794222
Si Si6 0.150900 0.027000 0.448399
Si Si7 0.764766 0.992907 0.180921
Si Si8 0.744453 0.637705 0.975544
O O1 0.700130 0.750000 0.350510
O O2 0.516664 0.881298 0.426713
O O3 0.780126 0.885589 0.484695
O O4 0.715345 0.929581 0.283387
O O5 0.689060 0.250000 0.573360
O O6 0.647061 0.371198 0.738901
O O7 0.749542 0.431914 0.544386
O O8 0.587385 0.250000 0.096332
O O9 0.646123 0.425706 0.159259
O O10 0.411343 0.396094 0.059515
O O11 0.648879 0.386622 0.948469
O O12 0.806564 0.250000 0.851501
O O13 0.878385 0.067881 0.833970
O O14 0.864049 0.563354 0.674944
O O15 0.854640 0.621638 0.874817
O O16 0.090924 0.549437 0.793099
O O17 0.000000 0.000000 0.500000
O O18 0.793975 0.924202 0.077430
O O19 0.743012 0.750000 0.010216
#
# Coordination Sequence:
#
# PCOD8077071 Si02
#       8
#     4   4   4   4   4   4   4   4
#     4  11  24  42  67  96 122 160 213 265 314 370
#     4   9  20  39  66  97 121 156 210 263 313 367
#     4  10  22  39  62  91 126 168 209 251 309 374
#     4   9  18  35  61  91 125 161 203 252 308 372
#     4  11  24  40  61  90 124 165 207 250 314 373
#     4  11  23  44  64  88 126 167 208 259 319 372
#     4  12  23  40  64  94 130 162 206 258 311 369
#     4  11  24  40  61  94 128 165 206 252 311 372
#
# _framework density 20.23695
#
# number of rings (size 3 to 8) (size 9 to 14) (size 15 to 20)
#    0.000    1.500    2.500    2.250    3.500    4.500 
#    0.000    0.625    0.000    0.000    0.000    0.000 
#    0.000    0.000    0.000    0.000    0.000    0.000 
#
# Total GULP energy -396978.820829 kJ/mol
# GULP energy per Si atom -12405.588151 kJ/mol
# Density = 2.019089 g / cm^3
# Si number density = 20.236950 Si / 1000 Ang^3
#
#
#
# Elastic Constant Matrix: (Units=GPa)
#
#
# Indices 1 2 3 4 5 6 
#
# 1 108.9157 33.1065 30.3016 0.0000 4.1520 0.0000
# 2 33.1065 60.9781 41.7863 0.0000 5.5739 0.0000
# 3 30.3016 41.7863 89.2900 0.0000 -0.1774 0.0000
# 4 0.0000 0.0000 0.0000 31.9680 0.0000 -1.2491
# 5 4.1520 5.5739 -0.1774 0.0000 31.6386 0.0000
# 6 0.0000 0.0000 0.0000 -1.2491 0.0000 26.9474
#
#
#
# Elastic Compliance Matrix: (Units=1/GPa)
#
#
# Indices 1 2 3 4 5 6 
#
# 1 0.011124 -0.005002 -0.001435 0.000000 -0.000587 0.000000
# 2 -0.005002 0.026995 -0.010944 0.000000 -0.004161 0.000000
# 3 -0.001435 -0.010944 0.016813 0.000000 0.002211 0.000000
# 4 0.000000 0.000000 0.000000 0.031338 0.000000 0.001453
# 5 -0.000587 -0.004161 0.002211 0.000000 0.032429 0.000000
# 6 0.000000 0.000000 0.000000 0.001453 0.000000 0.037177
#
#
# Mechanical properties :
#
#
# Convention : Reuss Voigt Hill
#
# Bulk Modulus (GPa) = 49.58230 52.17476 50.87853
# Shear Modulus (GPa) = 25.33434 28.37674 26.85554
#
# Velocity S-wave (km/s) = 3.54204 3.74869 3.64683
# Velocity P-wave (km/s) = 6.42511 6.67644 6.55198
#
# Compressibility (1/GPa) = 0.02016849
#
# Stress axis : x y z
#
# Youngs Moduli (GPa) = 89.89956 37.04384 59.47953
#
# Poissons Ratio (x) = 0.18530 0.08536
# Poissons Ratio (y) = 0.44969 0.65094
# Poissons Ratio (z) = 0.12902 0.40541
#
# Static dielectric constant tensor:
#      x y z
#    x 3.725550 0.000000 0.102000 
#    y 0.000000 3.700860 0.000000 
#    z 0.102000 0.000000 3.693490 
# 
# 
# High freq. dielectric constant tensor:
#      x y z
#    x 1.796020 0.000000 0.004340 
#    y 0.000000 1.793120 0.000000 
#    z 0.004340 0.000000 1.784430 
# 
# From -- ./inp_files/31867.got.cif
#   From: 2010.06.25/outbox.cif.g09.slc.cpg/sg11_16_cif.got.tgz:31867.got - 2010.06.27 23:14:04.
