data_PCOD8077216
_publ_section_title
;
Structure prediction by ZEFSAII (Michael W. Deem and Ramdas Pophale) SiO2 
 PCOD8077216
Probable space group: P 21/M
;
_chemical_formula_sum "Si O2"
_cell_formula_units_Z 28
_cell_length_a 5.189864
_cell_length_b 17.568880
_cell_length_c 12.808899
_cell_angle_alpha 90.000000
_cell_angle_beta 117.258742
_cell_angle_gamma 90.000000
_cell_volume 1038.216330
_symmetry_space_group_name_H-M "P 21/M"
_symmetry_group_IT_number 11
_symmetry_cell_setting 'monoclinic'
loop_
_space_group_symop_operation_xyz
x,y,z
-x,1/2+y,-z
-x,-y,-z
x,1/2-y,z
loop_
_atom_site_type_symbol
_atom_site_label
_atom_site_fract_x
_atom_site_fract_y
_atom_site_fract_z
Si Si1 0.807775 0.033069 0.243424
Si Si2 0.435273 0.336415 0.911316
Si Si3 0.747111 0.940682 0.952781
Si Si4 0.558244 0.973817 0.627683
Si Si5 0.007565 0.663532 0.846036
Si Si6 0.397808 0.661437 0.485590
Si Si7 0.279301 0.161145 0.657143
O O1 0.563361 0.013183 0.109563
O O2 0.692813 0.004900 0.335502
O O3 0.859294 0.125069 0.234385
O O4 0.121864 0.995531 0.279890
O O5 0.315523 0.250000 0.887717
O O6 0.400183 0.372960 0.788818
O O7 0.219812 0.384278 0.944226
O O8 0.760026 0.338651 0.015495
O O9 0.750551 0.890636 0.844696
O O10 0.000000 0.000000 0.000000
O O11 0.545945 0.880798 0.612125
O O12 0.500000 0.000000 0.500000
O O13 0.909129 0.750000 0.804843
O O14 0.470668 0.750000 0.510218
O O15 0.057808 0.643853 0.420502
O O16 0.535924 0.625414 0.404115
O O17 0.345361 0.250000 0.668799
#
# Coordination Sequence:
#
# PCOD8077216 Si02
#       7
#     4   4   4   4   4   4   4
#     4  11  25  48  70 101 139 182 237 285 360 413
#     4   9  20  37  64  99 138 183 228 282 350 418
#     4  11  24  44  68 106 147 183 235 287 353 432
#     4  12  26  48  70 101 135 183 239 296 349 422
#     4  10  22  44  71 103 144 185 237 291 347 431
#     4  10  22  41  64  95 131 171 226 288 344 402
#     4   9  19  37  61  95 131 167 217 270 338 409
#
# _framework density 26.969329999999999
#
# number of rings (size 3 to 8) (size 9 to 14) (size 15 to 20)
#    0.000    1.714    1.429    1.714    2.000    5.143 
#    5.143    0.000    0.000    0.000    0.000    0.000 
#    0.000    0.000    0.000    0.000    0.000    0.000 
#
# Total GULP energy -347085.607238 kJ/mol
# GULP energy per Si atom -12395.914544 kJ/mol
# Density = 2.690795 g / cm^3
# Si number density = 26.969330 Si / 1000 Ang^3
#
#
#
# Elastic Constant Matrix: (Units=GPa)
#
#
# Indices 1 2 3 4 5 6 
#
# 1 163.6650 12.5248 37.4850 0.0000 -5.0642 0.0000
# 2 12.5248 36.0715 -6.4449 0.0000 -7.1129 0.0000
# 3 37.4850 -6.4449 82.2992 0.0000 -5.6287 0.0000
# 4 0.0000 0.0000 0.0000 45.5824 0.0000 -10.6617
# 5 -5.0642 -7.1129 -5.6287 0.0000 52.0384 0.0000
# 6 0.0000 0.0000 0.0000 -10.6617 0.0000 39.9500
#
#
#
# Elastic Compliance Matrix: (Units=1/GPa)
#
#
# Indices 1 2 3 4 5 6 
#
# 1 0.007150 -0.003132 -0.003510 0.000000 -0.000112 0.000000
# 2 -0.003132 0.030389 0.004100 0.000000 0.004292 0.000000
# 3 -0.003510 0.004100 0.014190 0.000000 0.001754 0.000000
# 4 0.000000 0.000000 0.000000 0.023399 0.000000 0.006245
# 5 -0.000112 0.004292 0.001754 0.000000 0.019982 0.000000
# 6 0.000000 0.000000 0.000000 0.006245 0.000000 0.026698
#
#
# Mechanical properties :
#
#
# Convention : Reuss Voigt Hill
#
# Bulk Modulus (GPa) = 21.43788 41.01839 31.22814
# Shear Modulus (GPa) = 35.10248 43.41221 39.25734
#
# Velocity S-wave (km/s) = 3.61164 4.01644 3.81941
# Velocity P-wave (km/s) = 5.03569 6.06229 5.57268
#
# Compressibility (1/GPa) = 0.04664639
#
# Stress axis : x y z
#
# Youngs Moduli (GPa) = 139.85911 32.90654 70.47076
#
# Poissons Ratio (x) = 0.10306 0.24732
# Poissons Ratio (y) = 0.43800 -0.28892
# Poissons Ratio (z) = 0.49084 -0.13491
#
# Static dielectric constant tensor:
#      x y z
#    x 5.044210 0.000000 -0.178790 
#    y 0.000000 5.472710 0.000000 
#    z -0.178790 0.000000 5.120130 
# 
# 
# High freq. dielectric constant tensor:
#      x y z
#    x 2.083810 0.000000 -0.004520 
#    y 0.000000 2.106000 0.000000 
#    z -0.004520 0.000000 2.088330 
# 
# From -- ./inp_files/46084.got.cif
#   From: 2010.06.25/outbox.cif.g09.slc.cpg/sg11_24_cif.got.tgz:46084.got - 2010.06.27 23:14:04.
