data_PCOD8077700
_publ_section_title
;
Structure prediction by ZEFSAII (Michael W. Deem and Ramdas Pophale) SiO2 
 PCOD8077700
Probable space group: P 21/M
;
_chemical_formula_sum "Si O2"
_cell_formula_units_Z 32
_cell_length_a 20.537415
_cell_length_b 8.664615
_cell_length_c 28.258780
_cell_angle_alpha 90.000000
_cell_angle_beta 156.289668
_cell_angle_gamma 90.000000
_cell_volume 2022.071237
_symmetry_space_group_name_H-M "P 21/M"
_symmetry_group_IT_number 11
_symmetry_cell_setting 'monoclinic'
loop_
_space_group_symop_operation_xyz
x,y,z
-x,1/2+y,-z
-x,-y,-z
x,1/2-y,z
loop_
_atom_site_type_symbol
_atom_site_label
_atom_site_fract_x
_atom_site_fract_y
_atom_site_fract_z
Si Si1 0.728964 0.074283 0.521656
Si Si2 0.059302 0.428268 0.267309
Si Si3 0.826290 0.930471 0.233634
Si Si4 0.284771 0.927690 0.937544
Si Si5 0.616951 0.427897 0.173859
Si Si6 0.839297 0.570170 0.509197
Si Si7 0.640686 0.427585 0.563175
Si Si8 0.166859 0.570143 0.593273
O O1 0.734434 0.250000 0.508517
O O2 0.600860 0.050408 0.479990
O O3 0.904156 0.023659 0.659836
O O4 0.699645 0.969725 0.455498
O O5 0.099718 0.250000 0.303533
O O6 0.183651 0.491894 0.309461
O O7 0.869706 0.451852 0.129697
O O8 0.826916 0.750000 0.221340
O O9 0.770922 0.029960 0.152098
O O10 0.694125 0.961155 0.186285
O O11 0.998978 0.979501 0.369330
O O12 0.340590 0.750000 0.975159
O O13 0.426587 0.035996 0.050981
O O14 0.643537 0.250000 0.176979
O O15 0.694173 0.461618 0.276155
O O16 0.876753 0.750000 0.532475
O O17 0.775847 0.513908 0.416367
O O18 0.500000 0.500000 0.500000
O O19 0.656773 0.250000 0.587559
O O20 0.141191 0.750000 0.566344
O O21 0.000000 0.500000 0.500000
#
# Coordination Sequence:
#
# PCOD8077700 Si02
#       8
#     4   4   4   4   4   4   4   4
#     4   9  18  30  46  70  97 130 164 194 237 286
#     4   9  17  29  46  67  96 129 160 191 231 281
#     4  12  22  33  51  70  93 123 159 204 252 300
#     4  11  22  35  51  70  97 128 162 202 247 297
#     4  11  24  38  51  68  92 122 163 208 253 300
#     4  12  22  33  52  73  97 127 165 209 254 302
#     4   9  17  27  45  70 102 136 165 195 233 284
#     4  11  23  38  55  71  92 124 164 212 260 304
#
# _framework density 15.825358
#
# number of rings (size 3 to 8) (size 9 to 14) (size 15 to 20)
#    0.750    0.750    2.500    4.500    0.000    3.000 
#    0.000    0.000    0.000    0.000    0.000    0.000 
#    0.000    1.000    0.000    3.250    0.000    4.000 
#
# Total GULP energy -396556.427376 kJ/mol
# GULP energy per Si atom -12392.388356 kJ/mol
# Density = 1.578934 g / cm^3
# Si number density = 15.825358 Si / 1000 Ang^3
#
#
#
# Elastic Constant Matrix: (Units=GPa)
#
#
# Indices 1 2 3 4 5 6 
#
# 1 92.5328 30.7509 34.7290 0.0000 9.6866 0.0000
# 2 30.7509 67.9393 18.0154 0.0000 4.7391 0.0000
# 3 34.7290 18.0154 61.7402 0.0000 -0.0543 0.0000
# 4 0.0000 0.0000 0.0000 21.8820 0.0000 1.2662
# 5 9.6866 4.7391 -0.0543 0.0000 17.2507 0.0000
# 6 0.0000 0.0000 0.0000 1.2662 0.0000 27.6783
#
#
#
# Elastic Compliance Matrix: (Units=1/GPa)
#
#
# Indices 1 2 3 4 5 6 
#
# 1 0.016056 -0.004693 -0.007669 0.000000 -0.007751 0.000000
# 2 -0.004693 0.017666 -0.002517 0.000000 -0.002226 0.000000
# 3 -0.007669 -0.002517 0.021250 0.000000 0.005065 0.000000
# 4 0.000000 0.000000 0.000000 0.045821 0.000000 -0.002096
# 5 -0.007751 -0.002226 0.005065 0.000000 0.062948 0.000000
# 6 0.000000 0.000000 0.000000 -0.002096 0.000000 0.036225
#
#
# Mechanical properties :
#
#
# Convention : Reuss Voigt Hill
#
# Bulk Modulus (GPa) = 39.66107 43.24476 41.45292
# Shear Modulus (GPa) = 20.99702 22.61001 21.80351
#
# Velocity S-wave (km/s) = 3.64647 3.78394 3.71584
# Velocity P-wave (km/s) = 6.54562 6.81737 6.68288
#
# Compressibility (1/GPa) = 0.02521364
#
# Stress axis : x y z
#
# Youngs Moduli (GPa) = 62.28063 56.60614 47.05962
#
# Poissons Ratio (x) = 0.26567 0.36090
# Poissons Ratio (y) = 0.29230 0.11844
# Poissons Ratio (z) = 0.47764 0.14247
#
# Static dielectric constant tensor:
#      x y z
#    x 3.088420 0.000000 0.001050 
#    y 0.000000 3.155950 0.000000 
#    z 0.001050 0.000000 2.807560 
# 
# 
# High freq. dielectric constant tensor:
#      x y z
#    x 1.596500 0.000000 0.004360 
#    y 0.000000 1.630450 0.000000 
#    z 0.004360 0.000000 1.566570 
# 
# From -- ./inp_files/69471.got.cif
#   From: 2010.06.25/outbox.cif.g09.slc.cpg/sg11_35_cif.got.tgz:69471.got - 2010.06.27 23:14:04.
