data_PCOD8077056
_publ_section_title
;
Structure prediction by ZEFSAII (Michael W. Deem and Ramdas Pophale) SiO2 
 PCOD8077056
Probable space group: P 21/M
;
_chemical_formula_sum "Si O2"
_cell_formula_units_Z 20
_cell_length_a 14.310410
_cell_length_b 9.082967
_cell_length_c 16.146747
_cell_angle_alpha 90.000000
_cell_angle_beta 28.697472
_cell_angle_gamma 90.000000
_cell_volume 1007.797457
_symmetry_space_group_name_H-M "P 21/M"
_symmetry_group_IT_number 11
_symmetry_cell_setting 'monoclinic'
loop_
_space_group_symop_operation_xyz
x,y,z
-x,1/2+y,-z
-x,-y,-z
x,1/2-y,z
loop_
_atom_site_type_symbol
_atom_site_label
_atom_site_fract_x
_atom_site_fract_y
_atom_site_fract_z
Si Si1 0.872556 0.421329 0.838994
Si Si2 0.522607 0.920885 0.178810
Si Si3 0.110140 0.076552 0.488844
Si Si4 0.784708 0.578074 0.317302
Si Si5 0.566631 0.581336 0.329859
O O1 0.816977 0.250000 0.886909
O O2 0.990123 0.458553 0.664835
O O3 0.002707 0.472008 0.817031
O O4 0.674024 0.515069 0.994173
O O5 0.482103 0.750000 0.190929
O O6 0.622309 0.944308 0.191293
O O7 0.323386 0.008954 0.329580
O O8 0.127405 0.250000 0.459510
O O9 0.000000 0.000000 0.500000
O O10 0.766376 0.750000 0.346808
O O11 0.745690 0.533872 0.251402
O O12 0.624360 0.509597 0.501572
O O13 0.513171 0.750000 0.388696
#
# Coordination Sequence:
#
# PCOD8077056 Si02
#       5
#     4   4   4   4   4
#     4  10  22  39  61  88 119 157 199 240 290 352
#     4  11  23  38  60  91 124 157 195 241 293 350
#     4  11  24  44  67  89 115 151 195 246 302 355
#     4   9  17  33  56  83 117 158 199 239 285 340
#     4   9  18  32  54  85 120 156 196 239 286 340
#
# _framework density 19.845257
#
# number of rings (size 3 to 8) (size 9 to 14) (size 15 to 20)
#    0.000    2.000    2.000    1.200    0.000    4.800 
#    0.000    0.000    0.000    0.000    0.000    0.000 
#    0.000    0.000    0.000    0.000    0.000    0.000 
#
# Total GULP energy -247958.168312 kJ/mol
# GULP energy per Si atom -12397.908416 kJ/mol
# Density = 1.980009 g / cm^3
# Si number density = 19.845257 Si / 1000 Ang^3
#
#
#
# Elastic Constant Matrix: (Units=GPa)
#
#
# Indices 1 2 3 4 5 6 
#
# 1 110.7462 55.9415 57.8900 0.0000 -7.1700 0.0000
# 2 55.9415 87.5264 67.9610 0.0000 -2.4785 0.0000
# 3 57.8900 67.9610 136.6819 0.0000 -4.4438 0.0000
# 4 0.0000 0.0000 0.0000 34.6880 0.0000 -2.8840
# 5 -7.1700 -2.4785 -4.4438 0.0000 7.7192 0.0000
# 6 0.0000 0.0000 0.0000 -2.8840 0.0000 30.1344
#
#
#
# Elastic Compliance Matrix: (Units=1/GPa)
#
#
# Indices 1 2 3 4 5 6 
#
# 1 0.014493 -0.007275 -0.002200 0.000000 0.009859 0.000000
# 2 -0.007275 0.022265 -0.008129 0.000000 -0.004288 0.000000
# 3 -0.002200 -0.008129 0.012370 0.000000 0.002467 0.000000
# 4 0.000000 0.000000 0.000000 0.029060 0.000000 0.002781
# 5 0.009859 -0.004288 0.002467 0.000000 0.138749 0.000000
# 6 0.000000 0.000000 0.000000 0.002781 0.000000 0.033451
#
#
# Mechanical properties :
#
#
# Convention : Reuss Voigt Hill
#
# Bulk Modulus (GPa) = 71.84124 77.61549 74.72836
# Shear Modulus (GPa) = 17.22726 24.71911 20.97319
#
# Velocity S-wave (km/s) = 2.94952 3.53312 3.25443
# Velocity P-wave (km/s) = 6.91945 7.47256 7.20132
#
# Compressibility (1/GPa) = 0.01391958
#
# Stress axis : x y z
#
# Youngs Moduli (GPa) = 68.99760 44.91257 80.83915
#
# Poissons Ratio (x) = 0.32676 0.17788
# Poissons Ratio (y) = 0.50199 0.65713
# Poissons Ratio (z) = 0.15182 0.36509
#
# Static dielectric constant tensor:
#      x y z
#    x 4.095840 0.000000 -0.070830 
#    y 0.000000 3.960260 0.000000 
#    z -0.070830 0.000000 3.402300 
# 
# 
# High freq. dielectric constant tensor:
#      x y z
#    x 1.783540 0.000000 -0.004100 
#    y 0.000000 1.775340 0.000000 
#    z -0.004100 0.000000 1.761880 
# 
# From -- ./inp_files/23828.got.cif
#   From: 2010.06.25/outbox.cif.g09.slc.cpg/sg11_12_cif.got.tgz:23828.got - 2010.06.27 23:14:04.
