data_PCOD8077167
_publ_section_title
;
Structure prediction by ZEFSAII (Michael W. Deem and Ramdas Pophale) SiO2 
 PCOD8077167
Probable space group: P 21/M
;
_chemical_formula_sum "Si O2"
_cell_formula_units_Z 28
_cell_length_a 15.476472
_cell_length_b 8.931418
_cell_length_c 12.699535
_cell_angle_alpha 90.000000
_cell_angle_beta 124.624948
_cell_angle_gamma 90.000000
_cell_volume 1444.513076
_symmetry_space_group_name_H-M "P 21/M"
_symmetry_group_IT_number 11
_symmetry_cell_setting 'monoclinic'
loop_
_space_group_symop_operation_xyz
x,y,z
-x,1/2+y,-z
-x,-y,-z
x,1/2-y,z
loop_
_atom_site_type_symbol
_atom_site_label
_atom_site_fract_x
_atom_site_fract_y
_atom_site_fract_z
Si Si1 0.648254 0.075000 0.576460
Si Si2 0.873372 0.412462 0.661933
Si Si3 0.944945 0.591609 0.049464
Si Si4 0.203387 0.430188 0.880859
Si Si5 0.429310 0.929189 0.042905
Si Si6 0.485258 0.926795 0.319203
Si Si7 0.020949 0.573931 0.623835
O O1 0.626801 0.250000 0.549354
O O2 0.770788 0.032447 0.654313
O O3 0.606923 0.021706 0.663062
O O4 0.592426 0.995010 0.439038
O O5 0.849197 0.250000 0.589599
O O6 0.968412 0.380770 0.803963
O O7 0.912477 0.541817 0.611103
O O8 0.911551 0.750000 0.975893
O O9 0.842369 0.521327 0.035358
O O10 0.000000 0.500000 0.000000
O O11 0.212147 0.250000 0.876901
O O12 0.124241 0.493042 0.739279
O O13 0.313584 0.509748 0.941532
O O14 0.431619 0.750000 0.035423
O O15 0.464936 0.982622 0.185106
O O16 0.500000 0.000000 0.000000
O O17 0.496364 0.750000 0.325176
O O18 0.041039 0.750000 0.631904
O O19 0.000000 0.500000 0.500000
#
# Coordination Sequence:
#
# PCOD8077167 Si02
#       7
#     4   4   4   4   4   4   4
#     4   9  18  35  59  84 113 150 191 239 295 351
#     4   9  19  35  54  80 114 148 186 234 284 341
#     4   9  19  33  53  81 114 148 182 227 283 346
#     4  10  22  41  60  84 117 151 194 244 290 343
#     4  11  24  41  62  86 118 159 204 250 302 360
#     4   9  20  37  57  83 114 150 193 243 295 349
#     4  11  22  38  60  85 115 152 192 236 290 349
#
# _framework density 19.383693999999998
#
# number of rings (size 3 to 8) (size 9 to 14) (size 15 to 20)
#    0.000    2.286    0.000    3.000    2.000    5.714 
#    0.000    2.857    0.000    0.000    0.000    0.000 
#    0.000    0.000    0.000    0.000    0.000    0.000 
#
# Total GULP energy -346886.948308 kJ/mol
# GULP energy per Si atom -12388.819582 kJ/mol
# Density = 1.933958 g / cm^3
# Si number density = 19.383694 Si / 1000 Ang^3
#
#
#
# Elastic Constant Matrix: (Units=GPa)
#
#
# Indices 1 2 3 4 5 6 
#
# 1 158.1671 46.3189 56.2009 0.0000 -2.5072 0.0000
# 2 46.3189 80.5783 39.1972 0.0000 -10.9482 0.0000
# 3 56.2009 39.1972 81.2902 0.0000 -24.1500 0.0000
# 4 0.0000 0.0000 0.0000 32.1319 0.0000 -0.6899
# 5 -2.5072 -10.9482 -24.1500 0.0000 30.0509 0.0000
# 6 0.0000 0.0000 0.0000 -0.6899 0.0000 32.5453
#
#
#
# Elastic Compliance Matrix: (Units=1/GPa)
#
#
# Indices 1 2 3 4 5 6 
#
# 1 0.009543 -0.002908 -0.006928 0.000000 -0.005831 0.000000
# 2 -0.002908 0.017105 -0.005856 0.000000 0.001283 0.000000
# 3 -0.006928 -0.005856 0.025103 0.000000 0.017462 0.000000
# 4 0.000000 0.000000 0.000000 0.031136 0.000000 0.000660
# 5 -0.005831 0.001283 0.017462 0.000000 0.047291 0.000000
# 6 0.000000 0.000000 0.000000 0.000660 0.000000 0.030740
#
#
# Mechanical properties :
#
#
# Convention : Reuss Voigt Hill
#
# Bulk Modulus (GPa) = 49.09956 67.05218 58.07587
# Shear Modulus (GPa) = 25.11412 30.83352 27.97382
#
# Velocity S-wave (km/s) = 3.60339 3.99268 3.80302
# Velocity P-wave (km/s) = 6.53436 7.47813 7.02212
#
# Compressibility (1/GPa) = 0.02036678
#
# Stress axis : x y z
#
# Youngs Moduli (GPa) = 104.78628 58.46276 39.83617
#
# Poissons Ratio (x) = 0.17000 0.27598
# Poissons Ratio (y) = 0.30471 0.23329
# Poissons Ratio (z) = 0.72595 0.34238
#
# Static dielectric constant tensor:
#      x y z
#    x 3.754300 0.000000 -0.009500 
#    y 0.000000 3.070430 0.000000 
#    z -0.009500 0.000000 3.458340 
# 
# 
# High freq. dielectric constant tensor:
#      x y z
#    x 1.766280 0.000000 -0.001670 
#    y 0.000000 1.756070 0.000000 
#    z -0.001670 0.000000 1.743050 
# 
# From -- ./inp_files/38445.got.cif
#   From: 2010.06.25/outbox.cif.g09.slc.cpg/sg11_20_cif.got.tgz:38445.got - 2010.06.27 23:14:04.
