data_PCOD8077260
_publ_section_title
;
Structure prediction by ZEFSAII (Michael W. Deem and Ramdas Pophale) SiO2 
 PCOD8077260
Probable space group: P 21/M
;
_chemical_formula_sum "Si O2"
_cell_formula_units_Z 24
_cell_length_a 14.469327
_cell_length_b 8.946280
_cell_length_c 14.692642
_cell_angle_alpha 90.000000
_cell_angle_beta 38.042640
_cell_angle_gamma 90.000000
_cell_volume 1172.049788
_symmetry_space_group_name_H-M "P 21/M"
_symmetry_group_IT_number 11
_symmetry_cell_setting 'monoclinic'
loop_
_space_group_symop_operation_xyz
x,y,z
-x,1/2+y,-z
-x,-y,-z
x,1/2-y,z
loop_
_atom_site_type_symbol
_atom_site_label
_atom_site_fract_x
_atom_site_fract_y
_atom_site_fract_z
Si Si1 0.012895 0.418921 0.395134
Si Si2 0.635252 0.073120 0.448251
Si Si3 0.503257 0.078980 0.094110
Si Si4 0.836262 0.422986 0.881845
Si Si5 0.675119 0.417181 0.618714
Si Si6 0.960393 0.072209 0.126396
O O1 0.074165 0.250000 0.360003
O O2 0.853522 0.415632 0.469193
O O3 0.000000 0.500000 0.500000
O O4 0.125783 0.514796 0.247095
O O5 0.624750 0.250000 0.447859
O O6 0.615290 0.022158 0.568538
O O7 0.794686 0.018316 0.284634
O O8 0.500000 0.000000 0.500000
O O9 0.470723 0.250000 0.098408
O O10 0.372122 0.020118 0.260950
O O11 0.657830 0.057180 0.029431
O O12 0.500000 0.000000 0.000000
O O13 0.884429 0.250000 0.852367
O O14 0.916649 0.518506 0.896763
O O15 0.615040 0.250000 0.684572
O O16 0.969472 0.250000 0.112086
O O17 0.000000 0.000000 0.000000
#
# Coordination Sequence:
#
# PCOD8077260 Si02
#       6
#     4   4   4   4   4   4
#     4  11  22  39  63  92 124 161 205 256 310 370
#     4  10  23  43  65  93 126 162 205 255 310 371
#     4  11  25  42  62  92 127 166 211 259 308 368
#     4  11  24  42  63  92 127 164 209 259 310 371
#     4  10  22  42  63  88 125 164 204 254 309 368
#     4  11  24  44  67  95 128 164 207 258 313 375
#
# _framework density 20.476944
#
# number of rings (size 3 to 8) (size 9 to 14) (size 15 to 20)
#    0.000    1.333    1.667    3.000    2.333   10.000 
#    0.000    0.000    0.000    0.000    0.000    0.000 
#    0.000    0.000    0.000    0.000    0.000    0.000 
#
# Total GULP energy -297698.505639 kJ/mol
# GULP energy per Si atom -12404.104402 kJ/mol
# Density = 2.043034 g / cm^3
# Si number density = 20.476944 Si / 1000 Ang^3
#
#
#
# Elastic Constant Matrix: (Units=GPa)
#
#
# Indices 1 2 3 4 5 6 
#
# 1 93.1870 34.1843 16.6421 0.0000 11.1555 0.0000
# 2 34.1843 101.5828 41.2009 0.0000 4.2445 0.0000
# 3 16.6421 41.2009 94.6149 0.0000 12.9867 0.0000
# 4 0.0000 0.0000 0.0000 37.8342 0.0000 3.9978
# 5 11.1555 4.2445 12.9867 0.0000 37.7948 0.0000
# 6 0.0000 0.0000 0.0000 3.9978 0.0000 41.5216
#
#
#
# Elastic Compliance Matrix: (Units=1/GPa)
#
#
# Indices 1 2 3 4 5 6 
#
# 1 0.012631 -0.004123 0.000023 0.000000 -0.003273 0.000000
# 2 -0.004123 0.013310 -0.005282 0.000000 0.001537 0.000000
# 3 0.000023 -0.005282 0.013417 0.000000 -0.004024 0.000000
# 4 0.000000 0.000000 0.000000 0.026703 0.000000 -0.002571
# 5 -0.003273 0.001537 -0.004024 0.000000 0.028635 0.000000
# 6 0.000000 0.000000 0.000000 -0.002571 0.000000 0.024331
#
#
# Mechanical properties :
#
#
# Convention : Reuss Voigt Hill
#
# Bulk Modulus (GPa) = 48.55594 52.60437 50.58016
# Shear Modulus (GPa) = 34.56479 36.58727 35.57603
#
# Velocity S-wave (km/s) = 4.11297 4.23159 4.17270
# Velocity P-wave (km/s) = 6.80583 7.04418 6.92603
#
# Compressibility (1/GPa) = 0.02059480
#
# Stress axis : x y z
#
# Youngs Moduli (GPa) = 79.16787 75.13348 74.53043
#
# Poissons Ratio (x) = 0.30979 -0.00171
# Poissons Ratio (y) = 0.32643 0.39364
# Poissons Ratio (z) = -0.00182 0.39682
#
# Static dielectric constant tensor:
#      x y z
#    x 4.074240 0.000000 -0.131100 
#    y 0.000000 3.758990 0.000000 
#    z -0.131100 0.000000 3.675080 
# 
# 
# High freq. dielectric constant tensor:
#      x y z
#    x 1.814040 0.000000 0.002260 
#    y 0.000000 1.806110 0.000000 
#    z 0.002260 0.000000 1.806820 
# 
# From -- ./inp_files/51520.got.cif
#   From: 2010.06.25/outbox.cif.g09.slc.cpg/sg11_26_cif.got.tgz:51520.got - 2010.06.27 23:14:04.
