data_PCOD8077722
_publ_section_title
;
Structure prediction by ZEFSAII (Michael W. Deem and Ramdas Pophale) SiO2 
 PCOD8077722
Probable space group: P 21/M
;
_chemical_formula_sum "Si O2"
_cell_formula_units_Z 28
_cell_length_a 17.294774
_cell_length_b 8.762876
_cell_length_c 14.256314
_cell_angle_alpha 90.000000
_cell_angle_beta 42.900458
_cell_angle_gamma 90.000000
_cell_volume 1470.759325
_symmetry_space_group_name_H-M "P 21/M"
_symmetry_group_IT_number 11
_symmetry_cell_setting 'monoclinic'
loop_
_space_group_symop_operation_xyz
x,y,z
-x,1/2+y,-z
-x,-y,-z
x,1/2-y,z
loop_
_atom_site_type_symbol
_atom_site_label
_atom_site_fract_x
_atom_site_fract_y
_atom_site_fract_z
Si Si1 0.341017 0.928561 0.373730
Si Si2 0.823771 0.930275 0.337731
Si Si3 0.081298 0.568932 0.096258
Si Si4 0.735987 0.074167 0.922656
Si Si5 0.755688 0.070953 0.209821
Si Si6 0.559379 0.076641 0.243596
Si Si7 0.382359 0.429163 0.137247
O O1 0.332807 0.750000 0.363329
O O2 0.229126 0.986222 0.526034
O O3 0.451413 0.965571 0.338780
O O4 0.346854 0.013659 0.270294
O O5 0.818735 0.750000 0.357208
O O6 0.953006 0.990527 0.214324
O O7 0.755755 0.975245 0.304878
O O8 0.090112 0.750000 0.087833
O O9 0.151164 0.511438 0.125303
O O10 0.141139 0.511014 0.947574
O O11 0.750185 0.250000 0.880168
O O12 0.716991 0.973927 0.847003
O O13 0.628852 0.054840 0.086274
O O14 0.768175 0.250000 0.221131
O O15 0.636900 0.036312 0.263939
O O16 0.515196 0.250000 0.290107
O O17 0.398181 0.250000 0.126578
O O18 0.500000 0.500000 0.000000
#
# Coordination Sequence:
#
# PCOD8077722 Si02
#       7
#     4   4   4   4   4   4   4
#     4  12  25  39  56  80 113 151 191 234 281 335
#     4  11  22  37  56  81 115 154 192 232 280 333
#     4   8  17  35  60  86 113 148 189 233 279 327
#     4   9  17  34  60  87 113 143 183 233 282 326
#     4   9  18  35  59  86 113 146 188 232 283 335
#     4   9  18  34  57  83 113 146 183 231 284 335
#     4  12  23  37  59  88 116 145 182 226 278 337
#
# _framework density 19.037785
#
# number of rings (size 3 to 8) (size 9 to 14) (size 15 to 20)
#    0.000    2.000    1.429    5.143    0.000    1.143 
#    0.000    5.000    0.000    0.000    0.000    0.000 
#    0.000    0.000    0.000    0.000    0.000    0.000 
#
# Total GULP energy -347258.894604 kJ/mol
# GULP energy per Si atom -12402.103379 kJ/mol
# Density = 1.899445 g / cm^3
# Si number density = 19.037785 Si / 1000 Ang^3
#
#
#
# Elastic Constant Matrix: (Units=GPa)
#
#
# Indices 1 2 3 4 5 6 
#
# 1 91.9890 31.3792 34.1024 0.0000 17.2715 0.0000
# 2 31.3792 94.7558 29.2007 0.0000 8.1677 0.0000
# 3 34.1024 29.2007 79.7388 0.0000 15.2541 0.0000
# 4 0.0000 0.0000 0.0000 24.7283 0.0000 4.3149
# 5 17.2715 8.1677 15.2541 0.0000 24.7709 0.0000
# 6 0.0000 0.0000 0.0000 4.3149 0.0000 32.1403
#
#
#
# Elastic Compliance Matrix: (Units=1/GPa)
#
#
# Indices 1 2 3 4 5 6 
#
# 1 0.014618 -0.003075 -0.003820 0.000000 -0.006826 0.000000
# 2 -0.003075 0.012586 -0.003299 0.000000 0.000026 0.000000
# 3 -0.003820 -0.003299 0.016623 0.000000 -0.006486 0.000000
# 4 0.000000 0.000000 0.000000 0.041410 0.000000 -0.005559
# 5 -0.006826 0.000026 -0.006486 0.000000 0.049115 0.000000
# 6 0.000000 0.000000 0.000000 -0.005559 0.000000 0.031860
#
#
# Mechanical properties :
#
#
# Convention : Reuss Voigt Hill
#
# Bulk Modulus (GPa) = 42.66269 50.64980 46.65624
# Shear Modulus (GPa) = 25.71858 27.78131 26.74994
#
# Velocity S-wave (km/s) = 3.67948 3.82419 3.75253
# Velocity P-wave (km/s) = 6.36471 6.79425 6.58298
#
# Compressibility (1/GPa) = 0.02343968
#
# Stress axis : x y z
#
# Youngs Moduli (GPa) = 68.41113 79.45190 60.15656
#
# Poissons Ratio (x) = 0.24434 0.22977
# Poissons Ratio (y) = 0.21038 0.19845
# Poissons Ratio (z) = 0.26130 0.26210
#
# Static dielectric constant tensor:
#      x y z
#    x 3.775390 0.000000 0.004100 
#    y 0.000000 3.336500 0.000000 
#    z 0.004100 0.000000 3.473390 
# 
# 
# High freq. dielectric constant tensor:
#      x y z
#    x 1.750480 0.000000 0.002590 
#    y 0.000000 1.726250 0.000000 
#    z 0.002590 0.000000 1.727290 
# 
# From -- ./inp_files/53207.got.cif
#   From: 2010.06.25/outbox.cif.g09.slc.cpg/sg11_27_cif.got.tgz:53207.got - 2010.06.27 23:14:04.
