data_PCOD8077797
_publ_section_title
;
Structure prediction by ZEFSAII (Michael W. Deem and Ramdas Pophale) SiO2 
 PCOD8077797
Probable space group: P 21/M
;
_chemical_formula_sum "Si O2"
_cell_formula_units_Z 24
_cell_length_a 9.545835
_cell_length_b 18.073579
_cell_length_c 9.689658
_cell_angle_alpha 90.000000
_cell_angle_beta 43.191141
_cell_angle_gamma 90.000000
_cell_volume 1144.190543
_symmetry_space_group_name_H-M "P 21/M"
_symmetry_group_IT_number 11
_symmetry_cell_setting 'monoclinic'
loop_
_space_group_symop_operation_xyz
x,y,z
-x,1/2+y,-z
-x,-y,-z
x,1/2-y,z
loop_
_atom_site_type_symbol
_atom_site_label
_atom_site_fract_x
_atom_site_fract_y
_atom_site_fract_z
Si Si1 0.647038 0.420746 0.479452
Si Si2 0.020793 0.167819 0.578905
Si Si3 0.036130 0.976989 0.231134
Si Si4 0.606786 0.048327 0.217220
Si Si5 0.696974 0.587333 0.809777
Si Si6 0.577196 0.331757 0.785742
O O1 0.463228 0.471061 0.667814
O O2 0.609507 0.395492 0.347194
O O3 0.642622 0.350123 0.582151
O O4 0.862490 0.463023 0.330649
O O5 0.086368 0.250000 0.585930
O O6 0.142234 0.150744 0.349906
O O7 0.071091 0.100254 0.646839
O O8 0.778719 0.166938 0.733860
O O9 0.188467 0.009547 0.241222
O O10 0.162511 0.961740 0.001969
O O11 0.462439 0.077080 0.199539
O O12 0.585000 0.611576 0.031051
O O13 0.480249 0.250000 0.855860
#
# Coordination Sequence:
#
# PCOD8077797 Si02
#       6
#     4   4   4   4   4   4
#     4  11  23  41  61  92 125 162 201 251 309 371
#     4  11  23  37  60  94 124 156 205 264 310 353
#     4  12  21  39  67  92 121 162 211 257 298 370
#     4  11  23  37  65  92 123 154 209 253 305 358
#     4  12  21  39  67  95 117 162 215 258 297 368
#     4  11  23  41  63  91 127 164 205 257 309 367
#
# _framework density 20.975529000000002
#
# number of rings (size 3 to 8) (size 9 to 14) (size 15 to 20)
#    0.000    0.667    6.667    3.000    0.000    0.000 
#    0.000    2.500    0.000    0.000    0.000    0.000 
#    0.000    0.000    0.000    0.000    0.000    0.000 
#
# Total GULP energy -297521.804229 kJ/mol
# GULP energy per Si atom -12396.741843 kJ/mol
# Density = 2.092779 g / cm^3
# Si number density = 20.975529 Si / 1000 Ang^3
#
#
#
# Elastic Constant Matrix: (Units=GPa)
#
#
# Indices 1 2 3 4 5 6 
#
# 1 65.4977 21.5548 30.1546 0.0000 21.9803 0.0000
# 2 21.5548 101.3746 36.5682 0.0000 7.9504 0.0000
# 3 30.1546 36.5682 139.9958 0.0000 4.8076 0.0000
# 4 0.0000 0.0000 0.0000 21.6740 0.0000 -2.3168
# 5 21.9803 7.9504 4.8076 0.0000 33.8531 0.0000
# 6 0.0000 0.0000 0.0000 -2.3168 0.0000 16.2753
#
#
#
# Elastic Compliance Matrix: (Units=1/GPa)
#
#
# Indices 1 2 3 4 5 6 
#
# 1 0.022232 -0.002338 -0.003719 0.000000 -0.013358 0.000000
# 2 -0.002338 0.011297 -0.002420 0.000000 -0.000791 0.000000
# 3 -0.003719 -0.002420 0.008515 0.000000 0.001774 0.000000
# 4 0.000000 0.000000 0.000000 0.046851 0.000000 0.006669
# 5 -0.013358 -0.000791 0.001774 0.000000 0.038146 0.000000
# 6 0.000000 0.000000 0.000000 0.006669 0.000000 0.062392
#
#
# Mechanical properties :
#
#
# Convention : Reuss Voigt Hill
#
# Bulk Modulus (GPa) = 39.85709 53.71370 46.78539
# Shear Modulus (GPa) = 23.28273 28.93317 26.10795
#
# Velocity S-wave (km/s) = 3.33527 3.71803 3.53184
# Velocity P-wave (km/s) = 5.82022 6.64041 6.24380
#
# Compressibility (1/GPa) = 0.02508964
#
# Stress axis : x y z
#
# Youngs Moduli (GPa) = 44.97993 88.52294 117.43410
#
# Poissons Ratio (x) = 0.20695 0.43678
# Poissons Ratio (y) = 0.10516 0.28419
# Poissons Ratio (z) = 0.16730 0.21423
#
# Static dielectric constant tensor:
#      x y z
#    x 3.731790 0.000000 0.033450 
#    y 0.000000 3.743710 0.000000 
#    z 0.033450 0.000000 4.215030 
# 
# 
# High freq. dielectric constant tensor:
#      x y z
#    x 1.801120 0.000000 -0.008330 
#    y 0.000000 1.796290 0.000000 
#    z -0.008330 0.000000 1.848420 
# 
# From -- ./inp_files/14217.got.cif
#   From: 2010.06.25/outbox.cif.g09.slc.cpg/sg11_8_cif.got.tgz:14217.got - 2010.06.27 23:14:04.
