data_PCOD8077479
_publ_section_title
;
Structure prediction by ZEFSAII (Michael W. Deem and Ramdas Pophale) SiO2 
 PCOD8077479
Probable space group: P 21/M
;
_chemical_formula_sum "Si O2"
_cell_formula_units_Z 24
_cell_length_a 14.774763
_cell_length_b 16.772140
_cell_length_c 14.734952
_cell_angle_alpha 90.000000
_cell_angle_beta 159.995733
_cell_angle_gamma 90.000000
_cell_volume 1249.103037
_symmetry_space_group_name_H-M "P 21/M"
_symmetry_group_IT_number 11
_symmetry_cell_setting 'monoclinic'
loop_
_space_group_symop_operation_xyz
x,y,z
-x,1/2+y,-z
-x,-y,-z
x,1/2-y,z
loop_
_atom_site_type_symbol
_atom_site_label
_atom_site_fract_x
_atom_site_fract_y
_atom_site_fract_z
Si Si1 0.888902 0.156272 0.752616
Si Si2 0.455606 0.250000 0.069019
Si Si3 0.077817 0.161430 0.388412
Si Si4 0.016308 0.250000 0.503180
Si Si5 0.738198 0.449848 0.764868
Si Si6 0.387490 0.570161 0.145241
Si Si7 0.563349 0.890003 0.806832
O O1 0.886480 0.250000 0.741638
O O2 0.772363 0.131523 0.740187
O O3 0.709349 0.120237 0.503903
O O4 0.186926 0.123566 0.023965
O O5 0.422718 0.329355 0.096950
O O6 0.732268 0.250000 0.280306
O O7 0.228811 0.250000 0.781698
O O8 0.066045 0.250000 0.331905
O O9 0.050887 0.171271 0.472474
O O10 0.351895 0.121271 0.621995
O O11 0.842814 0.107336 0.131355
O O12 0.500000 0.500000 0.500000
O O13 0.690240 0.426896 0.822926
O O14 0.000000 0.500000 0.000000
O O15 0.431936 0.480219 0.152058
#
# Coordination Sequence:
#
# PCOD8077479 Si02
#       7
#     4   2   4   2   4   4   4
#     4  12  22  41  59  95 137 175 217 270 304 382
#     4  12  22  44  68  99 122 179 206 266 340 412
#     4  10  24  44  69  90 132 167 211 274 337 385
#     4  10  24  46  70  89 134 167 210 270 348 392
#     4  12  23  40  62  93 134 178 214 257 319 364
#     4  12  22  42  68  99 129 177 219 266 321 389
#     4  12  24  39  68  98 133 170 219 265 330 390
#
# _framework density 19.213787
#
# number of rings (size 3 to 8) (size 9 to 14) (size 15 to 20)
#    0.500    0.000    5.000    4.500    0.000    1.333 
#    0.000    5.000    0.000    0.000    0.000    0.000 
#    0.000    0.000    0.000    0.000    0.000    0.000 
#
# Total GULP energy -297657.084253 kJ/mol
# GULP energy per Si atom -12402.378511 kJ/mol
# Density = 1.917006 g / cm^3
# Si number density = 19.213787 Si / 1000 Ang^3
#
#
#
# Elastic Constant Matrix: (Units=GPa)
#
#
# Indices 1 2 3 4 5 6 
#
# 1 1531.9819 734.5686 821.2654 0.0000 219.0175 0.0000
# 2 734.5686 495.7583 423.7394 0.0000 113.0702 0.0000
# 3 821.2654 423.7394 559.7485 0.0000 129.3582 0.0000
# 4 0.0000 0.0000 0.0000 38.7905 0.0000 3.4803
# 5 219.0175 113.0702 129.3582 0.0000 75.5534 0.0000
# 6 0.0000 0.0000 0.0000 3.4803 0.0000 37.8408
#
#
#
# Elastic Compliance Matrix: (Units=1/GPa)
#
#
# Indices 1 2 3 4 5 6 
#
# 1 0.004070 -0.002471 -0.003689 0.000000 -0.001786 0.000000
# 2 -0.002471 0.007383 -0.001764 0.000000 -0.000868 0.000000
# 3 -0.003689 -0.001764 0.009023 0.000000 -0.002115 0.000000
# 4 0.000000 0.000000 0.000000 0.025994 0.000000 -0.002391
# 5 -0.001786 -0.000868 -0.002115 0.000000 0.023332 0.000000
# 6 0.000000 0.000000 0.000000 -0.002391 0.000000 0.026646
#
#
# Mechanical properties :
#
#
# Convention : Reuss Voigt Hill
#
# Bulk Modulus (GPa) = 215.99306 727.40395 471.69851
# Shear Modulus (GPa) = 43.92156 70.96462 57.44309
#
# Velocity S-wave (km/s) = 4.78634 6.08395 5.47373
# Velocity P-wave (km/s) = 11.96683 20.70649 16.91100
#
# Compressibility (1/GPa) = 0.00462978
#
# Stress axis : x y z
#
# Youngs Moduli (GPa) = 245.69423 135.43814 110.82740
#
# Poissons Ratio (x) = 0.33461 0.40882
# Poissons Ratio (y) = 0.60700 0.19551
# Poissons Ratio (z) = 0.90631 0.23892
#
# Static dielectric constant tensor:
#      x y z
#    x 3.711190 0.000000 0.042330 
#    y 0.000000 3.727650 0.000000 
#    z 0.042330 0.000000 3.667100 
# 
# 
# High freq. dielectric constant tensor:
#      x y z
#    x 1.745920 0.000000 0.007080 
#    y 0.000000 1.755430 0.000000 
#    z 0.007080 0.000000 1.772330 
# 
# From -- ./inp_files/52614.got.cif
#   From: 2010.06.25/outbox.cif.g09.slc.cpg/sg11_27_cif.got.tgz:52614.got - 2010.06.27 23:14:04.
