data_PCOD8077867
_publ_section_title
;
Structure prediction by ZEFSAII (Michael W. Deem and Ramdas Pophale) SiO2 
 PCOD8077867
Probable space group: P 21/M
;
_chemical_formula_sum "Si O2"
_cell_formula_units_Z 16
_cell_length_a 9.291407
_cell_length_b 10.261414
_cell_length_c 8.946516
_cell_angle_alpha 90.000000
_cell_angle_beta 53.011476
_cell_angle_gamma 90.000000
_cell_volume 681.328866
_symmetry_space_group_name_H-M "P 21/M"
_symmetry_group_IT_number 11
_symmetry_cell_setting 'monoclinic'
loop_
_space_group_symop_operation_xyz
x,y,z
-x,1/2+y,-z
-x,-y,-z
x,1/2-y,z
loop_
_atom_site_type_symbol
_atom_site_label
_atom_site_fract_x
_atom_site_fract_y
_atom_site_fract_z
Si Si1 0.300669 0.603748 0.048290
Si Si2 0.930532 0.004497 0.313604
Si Si3 0.384249 0.602457 0.662865
Si Si4 0.770243 0.893081 0.689157
O O1 0.333029 0.750000 0.089515
O O2 0.355898 0.496091 0.140420
O O3 0.085883 0.588405 0.147374
O O4 0.410899 0.581954 0.824734
O O5 0.783734 0.923959 0.504210
O O6 0.825649 0.078568 0.247577
O O7 0.027228 0.106414 0.367144
O O8 0.500000 0.500000 0.500000
O O9 0.437147 0.750000 0.585400
O O10 0.683896 0.750000 0.763716
#
# Coordination Sequence:
#
# PCOD8077867 Si02
#       4
#     4   4   4   4
#     4   9  19  35  58  85 113 142 184 231 281 326
#     4   9  19  34  60  82 115 138 184 225 282 321
#     4  11  24  40  55  80 115 154 187 228 276 332
#     4   9  18  32  60  90 111 136 183 233 281 327
#
# _framework density 23.483519999999999
#
# number of rings (size 3 to 8) (size 9 to 14) (size 15 to 20)
#    1.500    1.000    0.000    2.250    0.000    4.000 
#    0.000    1.250    0.000    0.000    0.000    0.000 
#    0.000    0.000    0.000    0.000    0.000    0.000 
#
# Total GULP energy -198271.981864 kJ/mol
# GULP energy per Si atom -12391.998866 kJ/mol
# Density = 2.343007 g / cm^3
# Si number density = 23.483520 Si / 1000 Ang^3
#
#
#
# Elastic Constant Matrix: (Units=GPa)
#
#
# Indices 1 2 3 4 5 6 
#
# 1 36.3682 9.7142 -2.6849 0.0000 14.5602 0.0000
# 2 9.7142 190.7001 76.7100 0.0000 6.8128 0.0000
# 3 -2.6849 76.7100 139.2593 0.0000 -12.5144 0.0000
# 4 0.0000 0.0000 0.0000 36.3798 0.0000 5.7843
# 5 14.5602 6.8128 -12.5144 0.0000 41.8306 0.0000
# 6 0.0000 0.0000 0.0000 5.7843 0.0000 9.7474
#
#
#
# Elastic Compliance Matrix: (Units=1/GPa)
#
#
# Indices 1 2 3 4 5 6 
#
# 1 0.032261 -0.001429 0.000433 0.000000 -0.010867 0.000000
# 2 -0.001429 0.007016 -0.004059 0.000000 -0.001860 0.000000
# 3 0.000433 -0.004059 0.009733 0.000000 0.003422 0.000000
# 4 0.000000 0.000000 0.000000 0.030352 0.000000 -0.018011
# 5 -0.010867 -0.001860 0.003422 0.000000 0.029015 0.000000
# 6 0.000000 0.000000 0.000000 -0.018011 0.000000 0.113280
#
#
# Mechanical properties :
#
#
# Convention : Reuss Voigt Hill
#
# Bulk Modulus (GPa) = 25.70829 59.31178 42.51003
# Shear Modulus (GPa) = 20.43034 36.43076 28.43055
#
# Velocity S-wave (km/s) = 2.95275 3.94297 3.48323
# Velocity P-wave (km/s) = 4.75354 6.78535 5.85820
#
# Compressibility (1/GPa) = 0.03889797
#
# Stress axis : x y z
#
# Youngs Moduli (GPa) = 30.99727 142.53187 102.74524
#
# Poissons Ratio (x) = 0.20370 -0.04446
# Poissons Ratio (y) = 0.04430 0.41708
# Poissons Ratio (z) = -0.01341 0.57859
#
# Static dielectric constant tensor:
#      x y z
#    x 4.267130 0.000000 0.001210 
#    y 0.000000 3.914190 0.000000 
#    z 0.001210 0.000000 3.950590 
# 
# 
# High freq. dielectric constant tensor:
#      x y z
#    x 1.947880 0.000000 -0.013790 
#    y 0.000000 1.913610 0.000000 
#    z -0.013790 0.000000 1.922850 
# 
# From -- ./inp_files/11149.got.cif
#   From: 2010.06.25/outbox.cif.g09.slc.cpg/sg11_6_cif.got.tgz:11149.got - 2010.06.27 23:14:04.
