data_PCOD8077564
_publ_section_title
;
Structure prediction by ZEFSAII (Michael W. Deem and Ramdas Pophale) SiO2 
 PCOD8077564
Probable space group: P 21/M
;
_chemical_formula_sum "Si O2"
_cell_formula_units_Z 24
_cell_length_a 11.652526
_cell_length_b 8.586775
_cell_length_c 22.082711
_cell_angle_alpha 90.000000
_cell_angle_beta 31.446845
_cell_angle_gamma 90.000000
_cell_volume 1152.735009
_symmetry_space_group_name_H-M "P 21/M"
_symmetry_group_IT_number 11
_symmetry_cell_setting 'monoclinic'
loop_
_space_group_symop_operation_xyz
x,y,z
-x,1/2+y,-z
-x,-y,-z
x,1/2-y,z
loop_
_atom_site_type_symbol
_atom_site_label
_atom_site_fract_x
_atom_site_fract_y
_atom_site_fract_z
Si Si1 0.465499 0.433488 0.713193
Si Si2 0.424015 0.933425 0.970410
Si Si3 0.939169 0.568485 0.178425
Si Si4 0.890349 0.066603 0.451289
Si Si5 0.652566 0.068564 0.754075
Si Si6 0.259571 0.067793 0.602555
O O1 0.466654 0.250000 0.700493
O O2 0.239996 0.507082 0.787320
O O3 0.677916 0.501202 0.582217
O O4 0.480491 0.471724 0.777778
O O5 0.410668 0.750000 0.984147
O O6 0.183617 0.002509 0.060052
O O7 0.500000 0.000000 0.000000
O O8 0.593290 0.976023 0.841343
O O9 0.948343 0.750000 0.160271
O O10 0.868290 0.534717 0.278434
O O11 0.916979 0.250000 0.448630
O O12 0.871049 0.025827 0.389465
O O13 0.108159 0.981712 0.378067
O O14 0.651945 0.250000 0.769791
O O15 0.268440 0.250000 0.582854
O O16 0.500000 0.000000 0.500000
#
# Coordination Sequence:
#
# PCOD8077564 Si02
#       6
#     4   4   4   4   4   4
#     4   9  19  37  60  86 118 157 197 246 303 357
#     4  11  23  41  65  88 117 155 199 247 297 356
#     4   9  19  37  60  85 116 155 195 241 296 348
#     4  11  21  37  61  87 120 158 203 251 298 355
#     4  11  23  39  60  86 120 159 200 245 300 360
#     4  11  20  34  58  88 121 154 193 241 300 358
#
# _framework density 20.820049999999998
#
# number of rings (size 3 to 8) (size 9 to 14) (size 15 to 20)
#    0.000    1.667    1.667    3.500    0.000    2.000 
#    0.000    5.000    0.000    0.000    0.000    0.000 
#    0.000    0.000    0.000    0.000    0.000    0.000 
#
# Total GULP energy -297605.790883 kJ/mol
# GULP energy per Si atom -12400.241287 kJ/mol
# Density = 2.077266 g / cm^3
# Si number density = 20.820050 Si / 1000 Ang^3
#
#
#
# Elastic Constant Matrix: (Units=GPa)
#
#
# Indices 1 2 3 4 5 6 
#
# 1 135.6224 26.7128 52.8502 0.0000 -14.8206 0.0000
# 2 26.7128 45.8248 18.1390 0.0000 -0.7965 0.0000
# 3 52.8502 18.1390 111.2972 0.0000 -14.3192 0.0000
# 4 0.0000 0.0000 0.0000 23.0832 0.0000 -1.3405
# 5 -14.8206 -0.7965 -14.3192 0.0000 32.9346 0.0000
# 6 0.0000 0.0000 0.0000 -1.3405 0.0000 28.3651
#
#
#
# Elastic Compliance Matrix: (Units=1/GPa)
#
#
# Indices 1 2 3 4 5 6 
#
# 1 0.009954 -0.004302 -0.003668 0.000000 0.002781 0.000000
# 2 -0.004302 0.025228 -0.002372 0.000000 -0.002357 0.000000
# 3 -0.003668 -0.002372 0.011539 0.000000 0.003309 0.000000
# 4 0.000000 0.000000 0.000000 0.043441 0.000000 0.002053
# 5 0.002781 -0.002357 0.003309 0.000000 0.032996 0.000000
# 6 0.000000 0.000000 0.000000 0.002053 0.000000 0.035352
#
#
# Mechanical properties :
#
#
# Convention : Reuss Voigt Hill
#
# Bulk Modulus (GPa) = 38.40690 54.23870 46.32280
# Shear Modulus (GPa) = 26.61380 29.87942 28.24661
#
# Velocity S-wave (km/s) = 3.57918 3.79242 3.68734
# Velocity P-wave (km/s) = 5.96388 6.72936 6.35815
#
# Compressibility (1/GPa) = 0.02603699
#
# Stress axis : x y z
#
# Youngs Moduli (GPa) = 100.46252 39.63826 86.66324
#
# Poissons Ratio (x) = 0.17054 0.31786
# Poissons Ratio (y) = 0.43222 0.20556
# Poissons Ratio (z) = 0.36847 0.09402
#
# Static dielectric constant tensor:
#      x y z
#    x 3.824020 0.000000 -0.325590 
#    y 0.000000 3.488390 0.000000 
#    z -0.325590 0.000000 3.895790 
# 
# 
# High freq. dielectric constant tensor:
#      x y z
#    x 1.832330 0.000000 -0.009750 
#    y 0.000000 1.786020 0.000000 
#    z -0.009750 0.000000 1.818600 
# 
# From -- ./inp_files/68363.got.cif
#   From: 2010.06.25/outbox.cif.g09.slc.cpg/sg11_35_cif.got.tgz:68363.got - 2010.06.27 23:14:04.
