data_PCOD8077033
_publ_section_title
;
Structure prediction by ZEFSAII (Michael W. Deem and Ramdas Pophale) SiO2 
 PCOD8077033
Probable space group: P 21/M
;
_chemical_formula_sum "Si O2"
_cell_formula_units_Z 28
_cell_length_a 15.245045
_cell_length_b 9.239167
_cell_length_c 12.698402
_cell_angle_alpha 90.000000
_cell_angle_beta 122.777793
_cell_angle_gamma 90.000000
_cell_volume 1503.803749
_symmetry_space_group_name_H-M "P 21/M"
_symmetry_group_IT_number 11
_symmetry_cell_setting 'monoclinic'
loop_
_space_group_symop_operation_xyz
x,y,z
-x,1/2+y,-z
-x,-y,-z
x,1/2-y,z
loop_
_atom_site_type_symbol
_atom_site_label
_atom_site_fract_x
_atom_site_fract_y
_atom_site_fract_z
Si Si1 0.646137 0.082143 0.586465
Si Si2 0.880314 0.409203 0.697238
Si Si3 0.960362 0.420516 0.075792
Si Si4 0.194272 0.419907 0.892083
Si Si5 0.563395 0.919683 0.949364
Si Si6 0.466555 0.079913 0.310917
Si Si7 0.029423 0.406286 0.615681
O O1 0.631007 0.250000 0.602838
O O2 0.761132 0.042245 0.623064
O O3 0.573375 0.037529 0.440263
O O4 0.624568 0.996289 0.680771
O O5 0.894119 0.250000 0.763459
O O6 0.949687 0.541005 0.783613
O O7 0.919945 0.389922 0.604984
O O8 0.948138 0.250000 0.052517
O O9 0.848520 0.487939 0.036696
O O10 0.000000 0.500000 0.000000
O O11 0.175333 0.250000 0.903160
O O12 0.125692 0.470240 0.746926
O O13 0.315080 0.455361 0.952980
O O14 0.540700 0.750000 0.946239
O O15 0.531112 0.972625 0.809996
O O16 0.500000 0.000000 0.000000
O O17 0.443541 0.250000 0.297386
O O18 0.066567 0.250000 0.598898
O O19 0.000000 0.500000 0.500000
#
# Coordination Sequence:
#
# PCOD8077033 Si02
#       7
#     4   4   4   4   4   4   4
#     4   9  18  34  56  80 109 143 182 229 282 335
#     4   9  19  35  52  76 108 141 177 223 274 326
#     4  11  22  35  54  81 110 142 177 219 270 333
#     4   9  20  39  56  77 111 147 181 228 277 323
#     4  10  22  39  59  82 112 149 191 234 280 334
#     4   9  19  35  54  80 111 144 183 231 283 332
#     4   9  18  33  53  75 106 142 179 224 275 325
#
# _framework density 18.619451000000002
#
# number of rings (size 3 to 8) (size 9 to 14) (size 15 to 20)
#    0.000    2.571    0.000    2.143    2.000    5.143 
#    0.000    1.429    0.000    0.000    0.000    0.000 
#    0.000    0.000    0.000    0.000    0.000    0.000 
#
# Total GULP energy -346932.231748 kJ/mol
# GULP energy per Si atom -12390.436848 kJ/mol
# Density = 1.857707 g / cm^3
# Si number density = 18.619451 Si / 1000 Ang^3
#
#
#
# Elastic Constant Matrix: (Units=GPa)
#
#
# Indices 1 2 3 4 5 6 
#
# 1 146.2647 55.2361 72.3680 0.0000 4.0959 0.0000
# 2 55.2361 80.7069 42.7816 0.0000 -9.6167 0.0000
# 3 72.3680 42.7816 107.6604 0.0000 -16.8978 0.0000
# 4 0.0000 0.0000 0.0000 29.1554 0.0000 -5.6041
# 5 4.0959 -9.6167 -16.8978 0.0000 29.2314 0.0000
# 6 0.0000 0.0000 0.0000 -5.6041 0.0000 33.4096
#
#
#
# Elastic Compliance Matrix: (Units=1/GPa)
#
#
# Indices 1 2 3 4 5 6 
#
# 1 0.013137 -0.005837 -0.007810 0.000000 -0.008276 0.000000
# 2 -0.005837 0.018369 -0.002528 0.000000 0.005400 0.000000
# 3 -0.007810 -0.002528 0.017139 0.000000 0.010170 0.000000
# 4 0.000000 0.000000 0.000000 0.035442 0.000000 0.005945
# 5 -0.008276 0.005400 0.010170 0.000000 0.043025 0.000000
# 6 0.000000 0.000000 0.000000 0.005945 0.000000 0.030929
#
#
# Mechanical properties :
#
#
# Convention : Reuss Voigt Hill
#
# Bulk Modulus (GPa) = 61.37036 75.04482 68.20759
# Shear Modulus (GPa) = 25.53313 29.30901 27.42107
#
# Velocity S-wave (km/s) = 3.70714 3.97181 3.84176
# Velocity P-wave (km/s) = 7.16630 7.83745 7.50938
#
# Compressibility (1/GPa) = 0.01629451
#
# Stress axis : x y z
#
# Youngs Moduli (GPa) = 76.11876 54.43904 58.34569
#
# Poissons Ratio (x) = 0.31778 0.45569
# Poissons Ratio (y) = 0.44433 0.14751
# Poissons Ratio (z) = 0.59450 0.13763
#
# Static dielectric constant tensor:
#      x y z
#    x 3.587830 0.000000 0.410500 
#    y 0.000000 3.502950 0.000000 
#    z 0.410500 0.000000 3.888030 
# 
# 
# High freq. dielectric constant tensor:
#      x y z
#    x 1.724560 0.000000 0.002210 
#    y 0.000000 1.715740 0.000000 
#    z 0.002210 0.000000 1.718430 
# 
# From -- ./inp_files/37702.got.cif
#   From: 2010.06.25/outbox.cif.g09.slc.cpg/sg11_19_cif.got.tgz:37702.got - 2010.06.27 23:14:04.
