data_PCOD8077696
_publ_section_title
;
Structure prediction by ZEFSAII (Michael W. Deem and Ramdas Pophale) SiO2 
 PCOD8077696
Probable space group: P 21/M
;
_chemical_formula_sum "Si O2"
_cell_formula_units_Z 28
_cell_length_a 11.707457
_cell_length_b 8.609088
_cell_length_c 14.976928
_cell_angle_alpha 90.000000
_cell_angle_beta 118.818425
_cell_angle_gamma 90.000000
_cell_volume 1322.579465
_symmetry_space_group_name_H-M "P 21/M"
_symmetry_group_IT_number 11
_symmetry_cell_setting 'monoclinic'
loop_
_space_group_symop_operation_xyz
x,y,z
-x,1/2+y,-z
-x,-y,-z
x,1/2-y,z
loop_
_atom_site_type_symbol
_atom_site_label
_atom_site_fract_x
_atom_site_fract_y
_atom_site_fract_z
Si Si1 0.744372 0.576807 0.700469
Si Si2 0.120078 0.432646 0.988867
Si Si3 0.967994 0.425151 0.217494
Si Si4 0.079356 0.066439 0.614871
Si Si5 0.369487 0.931319 0.176536
Si Si6 0.373770 0.932188 0.497983
Si Si7 0.639600 0.066602 0.302795
O O1 0.682733 0.750000 0.684120
O O2 0.658163 0.463966 0.729528
O O3 0.744348 0.513944 0.598938
O O4 0.894953 0.579909 0.784390
O O5 0.102961 0.250000 0.982645
O O6 0.126615 0.492035 0.888862
O O7 0.260301 0.476453 0.081134
O O8 0.000000 0.500000 0.000000
O O9 0.919433 0.250000 0.219738
O O10 0.986472 0.518298 0.316647
O O11 0.078330 0.250000 0.603744
O O12 0.226140 0.004155 0.681571
O O13 0.000000 0.000000 0.500000
O O14 0.359601 0.750000 0.151752
O O15 0.514237 0.992434 0.205532
O O16 0.363827 0.750000 0.482801
O O17 0.367751 0.982404 0.597332
O O18 0.500000 0.000000 0.500000
O O19 0.639007 0.250000 0.286941
#
# Coordination Sequence:
#
# PCOD8077696 Si02
#       7
#     4   4   4   4   4   4   4
#     4  11  22  36  58  89 128 167 211 264 323 388
#     4  12  24  41  66  98 136 176 221 274 332 394
#     4  11  24  43  68  97 131 172 222 275 332 394
#     4  12  26  46  71  99 133 176 227 276 329 392
#     4  12  24  39  63  94 131 171 215 267 329 392
#     4  11  22  34  55  85 123 163 208 260 320 389
#     4  11  24  43  65  92 130 173 220 273 333 395
#
# _framework density 21.170750000000002
#
# number of rings (size 3 to 8) (size 9 to 14) (size 15 to 20)
#    0.000    0.571    2.857    6.429    0.000    5.714 
#    0.000    0.714    0.000    0.000    0.000    0.000 
#    0.000    0.000    0.000    0.000    0.000    0.000 
#
# Total GULP energy -347193.819922 kJ/mol
# GULP energy per Si atom -12399.779283 kJ/mol
# Density = 2.112256 g / cm^3
# Si number density = 21.170750 Si / 1000 Ang^3
#
#
#
# Elastic Constant Matrix: (Units=GPa)
#
#
# Indices 1 2 3 4 5 6 
#
# 1 86.9947 23.5855 23.8520 0.0000 17.3762 0.0000
# 2 23.5855 107.7376 27.0016 0.0000 2.1079 0.0000
# 3 23.8520 27.0016 111.1815 0.0000 10.6028 0.0000
# 4 0.0000 0.0000 0.0000 38.0656 0.0000 2.7033
# 5 17.3762 2.1079 10.6028 0.0000 35.4953 0.0000
# 6 0.0000 0.0000 0.0000 2.7033 0.0000 33.2984
#
#
#
# Elastic Compliance Matrix: (Units=1/GPa)
#
#
# Indices 1 2 3 4 5 6 
#
# 1 0.013877 -0.002468 -0.001795 0.000000 -0.006110 0.000000
# 2 -0.002468 0.010323 -0.002094 0.000000 0.001221 0.000000
# 3 -0.001795 -0.002094 0.010079 0.000000 -0.002008 0.000000
# 4 0.000000 0.000000 0.000000 0.026423 0.000000 -0.002145
# 5 -0.006110 0.001221 -0.002008 0.000000 0.031691 0.000000
# 6 0.000000 0.000000 0.000000 -0.002145 0.000000 0.030206
#
#
# Mechanical properties :
#
#
# Convention : Reuss Voigt Hill
#
# Bulk Modulus (GPa) = 46.37183 50.53245 48.45214
# Shear Modulus (GPa) = 35.08732 36.80351 35.94542
#
# Velocity S-wave (km/s) = 4.07547 4.17395 4.12501
# Velocity P-wave (km/s) = 6.64058 6.86658 6.75452
#
# Compressibility (1/GPa) = 0.02156482
#
# Stress axis : x y z
#
# Youngs Moduli (GPa) = 72.06283 96.87010 99.21272
#
# Poissons Ratio (x) = 0.23912 0.17807
# Poissons Ratio (y) = 0.17789 0.20774
# Poissons Ratio (z) = 0.12934 0.20284
#
# Static dielectric constant tensor:
#      x y z
#    x 3.831640 0.000000 0.098410 
#    y 0.000000 3.998750 0.000000 
#    z 0.098410 0.000000 4.670120 
# 
# 
# High freq. dielectric constant tensor:
#      x y z
#    x 1.819320 0.000000 0.015640 
#    y 0.000000 1.843720 0.000000 
#    z 0.015640 0.000000 1.837500 
# 
# From -- ./inp_files/49463.got.cif
#   From: 2010.06.25/outbox.cif.g09.slc.cpg/sg11_25_cif.got.tgz:49463.got - 2010.06.27 23:14:04.
