data_PCOD8077926
_publ_section_title
;
Structure prediction by ZEFSAII (Michael W. Deem and Ramdas Pophale) SiO2 
 PCOD8077926
Probable space group: P 21/M
;
_chemical_formula_sum "Si O2"
_cell_formula_units_Z 20
_cell_length_a 14.485964
_cell_length_b 9.299845
_cell_length_c 6.556530
_cell_angle_alpha 90.000000
_cell_angle_beta 92.914738
_cell_angle_gamma 90.000000
_cell_volume 882.134807
_symmetry_space_group_name_H-M "P 21/M"
_symmetry_group_IT_number 11
_symmetry_cell_setting 'monoclinic'
loop_
_space_group_symop_operation_xyz
x,y,z
-x,1/2+y,-z
-x,-y,-z
x,1/2-y,z
loop_
_atom_site_type_symbol
_atom_site_label
_atom_site_fract_x
_atom_site_fract_y
_atom_site_fract_z
Si Si1 0.305226 0.088211 0.108549
Si Si2 0.105044 0.086128 0.193218
Si Si3 0.590676 0.420289 0.585127
Si Si4 0.258469 0.085849 0.636507
Si Si5 0.059660 0.415739 0.728740
O O1 0.342905 0.250000 0.143327
O O2 0.215380 0.064750 0.249996
O O3 0.385101 0.975856 0.183306
O O4 0.274860 0.063484 0.877200
O O5 0.076914 0.250000 0.217075
O O6 0.089961 0.034985 0.958734
O O7 0.034442 0.002573 0.338384
O O8 0.500000 0.500000 0.500000
O O9 0.575794 0.250000 0.581279
O O10 0.677226 0.467112 0.458424
O O11 0.285416 0.250000 0.577468
O O12 0.147952 0.058673 0.586478
O O13 0.032549 0.250000 0.722822
#
# Coordination Sequence:
#
# PCOD8077926 Si02
#       5
#     4   4   4   4   4
#     4   9  19  38  62  86 115 151 189 231 280 332
#     4   8  14  26  48  79 113 148 183 221 268 321
#     4  12  26  42  61  84 111 144 185 236 290 342
#     4   9  19  38  62  86 115 151 189 231 280 332
#     4   8  14  26  48  79 113 148 183 221 268 321
#
# _framework density 22.672274999999999
#
# number of rings (size 3 to 8) (size 9 to 14) (size 15 to 20)
#    0.000    2.800    0.000    4.200    0.000    3.200 
#    0.000    5.000    0.000    0.000    0.000    0.000 
#    0.000    0.000    0.000    0.000    0.000    0.000 
#
# Total GULP energy -247905.961354 kJ/mol
# GULP energy per Si atom -12395.298068 kJ/mol
# Density = 2.262067 g / cm^3
# Si number density = 22.672275 Si / 1000 Ang^3
#
#
#
# Elastic Constant Matrix: (Units=GPa)
#
#
# Indices 1 2 3 4 5 6 
#
# 1 107.4251 71.2050 22.4545 0.0000 24.0372 0.0000
# 2 71.2050 135.3594 18.1734 0.0000 20.8663 0.0000
# 3 22.4545 18.1734 19.1977 0.0000 5.9828 0.0000
# 4 0.0000 0.0000 0.0000 29.8900 0.0000 1.9516
# 5 24.0372 20.8663 5.9828 0.0000 37.9647 0.0000
# 6 0.0000 0.0000 0.0000 1.9516 0.0000 46.4816
#
#
#
# Elastic Compliance Matrix: (Units=1/GPa)
#
#
# Indices 1 2 3 4 5 6 
#
# 1 0.017622 -0.006745 -0.012520 0.000000 -0.005477 0.000000
# 2 -0.006745 0.011530 -0.002505 0.000000 -0.001672 0.000000
# 3 -0.012520 -0.002505 0.069624 0.000000 -0.001668 0.000000
# 4 0.000000 0.000000 0.000000 0.033548 0.000000 -0.001409
# 5 -0.005477 -0.001672 -0.001668 0.000000 0.030990 0.000000
# 6 0.000000 0.000000 0.000000 -0.001409 0.000000 0.021573
#
#
# Mechanical properties :
#
#
# Convention : Reuss Voigt Hill
#
# Bulk Modulus (GPa) = 18.10357 53.96091 36.03224
# Shear Modulus (GPa) = 20.25628 32.87722 26.56675
#
# Velocity S-wave (km/s) = 2.99229 3.81216 3.42683
# Velocity P-wave (km/s) = 4.46549 6.57486 5.62003
#
# Compressibility (1/GPa) = 0.05523771
#
# Stress axis : x y z
#
# Youngs Moduli (GPa) = 56.74758 86.73212 14.36288
#
# Poissons Ratio (x) = 0.58498 0.17982
# Poissons Ratio (y) = 0.38274 0.03597
# Poissons Ratio (z) = 0.71046 0.21724
#
# Static dielectric constant tensor:
#      x y z
#    x 4.310830 0.000000 0.043160 
#    y 0.000000 3.792290 0.000000 
#    z 0.043160 0.000000 4.511440 
# 
# 
# High freq. dielectric constant tensor:
#      x y z
#    x 1.897640 0.000000 0.008290 
#    y 0.000000 1.861320 0.000000 
#    z 0.008290 0.000000 1.935810 
# 
# From -- ./inp_files/20269.got.cif
#   From: 2010.06.25/outbox.cif.g09.slc.cpg/sg11_11_cif.got.tgz:20269.got - 2010.06.27 23:14:04.
