data_PCOD8077576
_publ_section_title
;
Structure prediction by ZEFSAII (Michael W. Deem and Ramdas Pophale) SiO2 
 PCOD8077576
Probable space group: P 21/M
;
_chemical_formula_sum "Si O2"
_cell_formula_units_Z 20
_cell_length_a 8.011845
_cell_length_b 23.488948
_cell_length_c 9.124860
_cell_angle_alpha 90.000000
_cell_angle_beta 32.382833
_cell_angle_gamma 90.000000
_cell_volume 919.690356
_symmetry_space_group_name_H-M "P 21/M"
_symmetry_group_IT_number 11
_symmetry_cell_setting 'monoclinic'
loop_
_space_group_symop_operation_xyz
x,y,z
-x,1/2+y,-z
-x,-y,-z
x,1/2-y,z
loop_
_atom_site_type_symbol
_atom_site_label
_atom_site_fract_x
_atom_site_fract_y
_atom_site_fract_z
Si Si1 0.260606 0.812385 0.130327
Si Si2 0.539610 0.682943 0.366981
Si Si3 0.144447 0.148870 0.148999
Si Si4 0.263085 0.458971 0.251332
Si Si5 0.621324 0.865105 0.621408
O O1 0.115812 0.750000 0.241591
O O2 0.981960 0.851654 0.397532
O O3 0.572477 0.815114 0.994113
O O4 0.359748 0.825738 0.890202
O O5 0.618252 0.750000 0.336008
O O6 0.572900 0.643023 0.485424
O O7 0.187113 0.677706 0.567957
O O8 0.789656 0.653227 0.073660
O O9 0.146761 0.085479 0.213622
O O10 0.420389 0.427943 0.276543
O O11 0.000000 0.500000 0.500000
O O12 0.500000 0.500000 0.000000
#
# Coordination Sequence:
#
# PCOD8077576 Si02
#       5
#     4   4   4   4   4
#     4  11  20  37  60  89 122 164 208 250 298 370
#     4  12  23  40  61  95 137 164 187 248 320 382
#     4  11  24  39  62  93 123 163 212 251 305 376
#     4  11  23  45  67  86 117 165 217 271 304 340
#     4  11  24  39  62  93 124 164 211 250 305 376
#
# _framework density 21.746451
#
# number of rings (size 3 to 8) (size 9 to 14) (size 15 to 20)
#    0.000    0.800    0.000   10.800    0.000    0.000 
#    0.000    6.000    0.000    0.000    0.000    0.000 
#    0.000    0.000    0.000    0.000    0.000    0.000 
#
# Total GULP energy -247886.807060 kJ/mol
# GULP energy per Si atom -12394.340353 kJ/mol
# Density = 2.169696 g / cm^3
# Si number density = 21.746451 Si / 1000 Ang^3
#
#
#
# Elastic Constant Matrix: (Units=GPa)
#
#
# Indices 1 2 3 4 5 6 
#
# 1 59.7889 40.9277 -1.3735 0.0000 10.6026 0.0000
# 2 40.9277 144.8156 64.2314 0.0000 15.3488 0.0000
# 3 -1.3735 64.2314 121.6131 0.0000 5.2243 0.0000
# 4 0.0000 0.0000 0.0000 48.1474 0.0000 2.3518
# 5 10.6026 15.3488 5.2243 0.0000 45.8827 0.0000
# 6 0.0000 0.0000 0.0000 2.3518 0.0000 25.9979
#
#
#
# Elastic Compliance Matrix: (Units=1/GPa)
#
#
# Indices 1 2 3 4 5 6 
#
# 1 0.023078 -0.008317 0.004786 0.000000 -0.003096 0.000000
# 2 -0.008317 0.012307 -0.006532 0.000000 -0.001451 0.000000
# 3 0.004786 -0.006532 0.011738 0.000000 -0.000258 0.000000
# 4 0.000000 0.000000 0.000000 0.020862 0.000000 -0.001887
# 5 -0.003096 -0.001451 -0.000258 0.000000 0.023025 0.000000
# 6 0.000000 0.000000 0.000000 -0.001887 0.000000 0.038635
#
#
# Mechanical properties :
#
#
# Convention : Reuss Voigt Hill
#
# Bulk Modulus (GPa) = 37.04025 59.30984 48.17504
# Shear Modulus (GPa) = 31.49259 38.83443 35.16351
#
# Velocity S-wave (km/s) = 3.80961 4.23044 4.02553
# Velocity P-wave (km/s) = 6.03495 7.15505 6.61873
#
# Compressibility (1/GPa) = 0.02699766
#
# Stress axis : x y z
#
# Youngs Moduli (GPa) = 43.33178 81.25657 85.19619
#
# Poissons Ratio (x) = 0.67582 -0.40778
# Poissons Ratio (y) = 0.36039 0.55646
# Poissons Ratio (z) = -0.20740 0.53073
#
# Static dielectric constant tensor:
#      x y z
#    x 3.801920 0.000000 0.123780 
#    y 0.000000 3.890770 0.000000 
#    z 0.123780 0.000000 4.358370 
# 
# 
# High freq. dielectric constant tensor:
#      x y z
#    x 1.844680 0.000000 0.004910 
#    y 0.000000 1.838730 0.000000 
#    z 0.004910 0.000000 1.892100 
# 
# From -- ./inp_files/2292.got.cif
#   From: 2010.06.25/outbox.cif.g09.slc.cpg/sg11_2_cif.got.tgz:2292.got - 2010.06.27 23:14:04.
