data_PCOD8077060
_publ_section_title
;
Structure prediction by ZEFSAII (Michael W. Deem and Ramdas Pophale) SiO2 
 PCOD8077060
Probable space group: P 21/M
;
_chemical_formula_sum "Si O2"
_cell_formula_units_Z 28
_cell_length_a 10.896506
_cell_length_b 8.693154
_cell_length_c 14.957687
_cell_angle_alpha 90.000000
_cell_angle_beta 65.911542
_cell_angle_gamma 90.000000
_cell_volume 1293.481117
_symmetry_space_group_name_H-M "P 21/M"
_symmetry_group_IT_number 11
_symmetry_cell_setting 'monoclinic'
loop_
_space_group_symop_operation_xyz
x,y,z
-x,1/2+y,-z
-x,-y,-z
x,1/2-y,z
loop_
_atom_site_type_symbol
_atom_site_label
_atom_site_fract_x
_atom_site_fract_y
_atom_site_fract_z
Si Si1 0.351434 0.930815 0.548268
Si Si2 0.389003 0.924226 0.854923
Si Si3 0.014809 0.422118 0.089789
Si Si4 0.220068 0.071248 0.757767
Si Si5 0.685715 0.574013 0.748952
Si Si6 0.149209 0.930730 0.454009
Si Si7 0.320510 0.422569 0.050536
O O1 0.366332 0.750000 0.532057
O O2 0.248005 0.995316 0.503109
O O3 0.500000 0.000000 0.500000
O O4 0.291013 0.970240 0.661918
O O5 0.334328 0.750000 0.869762
O O6 0.531657 0.933529 0.761065
O O7 0.287207 0.036542 0.834044
O O8 0.405501 0.976571 0.954124
O O9 0.954522 0.250000 0.105455
O O10 0.935215 0.520599 0.188560
O O11 0.168930 0.418775 0.065084
O O12 0.000000 0.500000 0.000000
O O13 0.232537 0.250000 0.730313
O O14 0.739405 0.750000 0.732116
O O15 0.782316 0.470625 0.660397
O O16 0.682213 0.504627 0.849898
O O17 0.133045 0.750000 0.468859
O O18 0.000000 0.000000 0.500000
O O19 0.381539 0.250000 0.036236
#
# Coordination Sequence:
#
# PCOD8077060 Si02
#       7
#     4   4   4   4   4   4   4
#     4  11  25  46  71 100 132 169 218 275 332 390
#     4  11  22  38  63  94 129 167 209 259 312 375
#     4  11  22  38  60  89 126 165 208 258 314 375
#     4  12  25  40  63  93 128 168 211 260 316 380
#     4  10  23  42  64  92 126 165 209 259 315 375
#     4  11  26  46  69  97 130 170 216 271 328 388
#     4  10  22  39  61  89 126 167 206 255 313 374
#
# _framework density 21.647012
#
# number of rings (size 3 to 8) (size 9 to 14) (size 15 to 20)
#    0.000    1.143    1.429    4.286    2.000    6.857 
#    0.000    0.000    0.000    0.000    0.000    0.000 
#    0.000    0.000    0.000    0.000    0.000    0.000 
#
# Total GULP energy -347231.228755 kJ/mol
# GULP energy per Si atom -12401.115313 kJ/mol
# Density = 2.159774 g / cm^3
# Si number density = 21.647012 Si / 1000 Ang^3
#
#
#
# Elastic Constant Matrix: (Units=GPa)
#
#
# Indices 1 2 3 4 5 6 
#
# 1 84.7014 35.4542 41.1897 0.0000 -2.5062 0.0000
# 2 35.4542 81.6456 25.7834 0.0000 -4.7229 0.0000
# 3 41.1897 25.7834 130.6577 0.0000 -11.8531 0.0000
# 4 0.0000 0.0000 0.0000 41.5834 0.0000 -2.0689
# 5 -2.5062 -4.7229 -11.8531 0.0000 37.4065 0.0000
# 6 0.0000 0.0000 0.0000 -2.0689 0.0000 30.4217
#
#
#
# Elastic Compliance Matrix: (Units=1/GPa)
#
#
# Indices 1 2 3 4 5 6 
#
# 1 0.016170 -0.005800 -0.004037 0.000000 -0.000928 0.000000
# 2 -0.005800 0.015170 -0.001057 0.000000 0.001192 0.000000
# 3 -0.004037 -0.001057 0.009367 0.000000 0.002564 0.000000
# 4 0.000000 0.000000 0.000000 0.024130 0.000000 0.001641
# 5 -0.000928 0.001192 0.002564 0.000000 0.027634 0.000000
# 6 0.000000 0.000000 0.000000 0.001641 0.000000 0.032983
#
#
# Mechanical properties :
#
#
# Convention : Reuss Voigt Hill
#
# Bulk Modulus (GPa) = 52.85925 55.76213 54.31069
# Shear Modulus (GPa) = 32.56301 34.85415 33.70858
#
# Velocity S-wave (km/s) = 3.88270 4.01698 3.95041
# Velocity P-wave (km/s) = 6.67625 6.87971 6.77874
#
# Compressibility (1/GPa) = 0.01891817
#
# Stress axis : x y z
#
# Youngs Moduli (GPa) = 61.84336 65.92154 106.75253
#
# Poissons Ratio (x) = 0.38238 0.43097
# Poissons Ratio (y) = 0.35872 0.11281
# Poissons Ratio (z) = 0.24967 0.06966
#
# Static dielectric constant tensor:
#      x y z
#    x 6.432830 0.000000 -1.316840 
#    y 0.000000 3.694630 0.000000 
#    z -1.316840 0.000000 4.625620 
# 
# 
# High freq. dielectric constant tensor:
#      x y z
#    x 1.864180 0.000000 -0.007620 
#    y 0.000000 1.845670 0.000000 
#    z -0.007620 0.000000 1.857900 
# 
# From -- ./inp_files/49140.got.cif
#   From: 2010.06.25/outbox.cif.g09.slc.cpg/sg11_25_cif.got.tgz:49140.got - 2010.06.27 23:14:04.
