data_PCOD8077002
_publ_section_title
;
Structure prediction by ZEFSAII (Michael W. Deem and Ramdas Pophale) SiO2 
 PCOD8077002
Probable space group: P 21/M
;
_chemical_formula_sum "Si O2"
_cell_formula_units_Z 32
_cell_length_a 11.859658
_cell_length_b 8.622826
_cell_length_c 27.735072
_cell_angle_alpha 90.000000
_cell_angle_beta 32.873929
_cell_angle_gamma 90.000000
_cell_volume 1539.518104
_symmetry_space_group_name_H-M "P 21/M"
_symmetry_group_IT_number 11
_symmetry_cell_setting 'monoclinic'
loop_
_space_group_symop_operation_xyz
x,y,z
-x,1/2+y,-z
-x,-y,-z
x,1/2-y,z
loop_
_atom_site_type_symbol
_atom_site_label
_atom_site_fract_x
_atom_site_fract_y
_atom_site_fract_z
Si Si1 0.033859 0.426520 0.187094
Si Si2 0.678704 0.431417 0.071030
Si Si3 0.063542 0.930619 0.885734
Si Si4 0.309646 0.572147 0.618157
Si Si5 0.920253 0.433819 0.579119
Si Si6 0.468031 0.431878 0.777413
Si Si7 0.226729 0.433036 0.551700
Si Si8 0.574974 0.429879 0.923267
O O1 0.110494 0.250000 0.167629
O O2 0.040631 0.466867 0.128247
O O3 0.802356 0.448932 0.290390
O O4 0.177843 0.543947 0.165538
O O5 0.724239 0.250000 0.054342
O O6 0.567190 0.478196 0.160273
O O7 0.522880 0.475493 0.084829
O O8 0.900545 0.517380 0.985264
O O9 0.115342 0.750000 0.873815
O O10 0.277191 0.026371 0.810982
O O11 0.325305 0.750000 0.596752
O O12 0.175958 0.487154 0.624357
O O13 0.540540 0.503368 0.542744
O O14 0.935586 0.250000 0.570662
O O15 0.683427 0.486330 0.675200
O O16 0.000000 0.500000 0.500000
O O17 0.065537 0.500601 0.570218
O O18 0.474664 0.250000 0.785989
O O19 0.214232 0.250000 0.553371
O O20 0.515606 0.250000 0.939493
O O21 0.500000 0.500000 0.000000
#
# Coordination Sequence:
#
# PCOD8077002 Si02
#       8
#     4   4   4   4   4   4   4   4
#     4  10  22  38  60  91 124 162 209 256 308 368
#     4  12  25  43  67  94 126 166 210 262 319 378
#     4  11  23  41  66  93 126 169 214 264 317 374
#     4   9  19  36  60  90 121 156 201 252 301 365
#     4  10  24  43  65  91 124 164 208 259 314 373
#     4  11  25  44  64  93 128 165 214 266 317 377
#     4   9  19  38  61  87 120 158 199 250 310 364
#     4  12  24  40  62  90 126 166 205 250 307 368
#
# _framework density 20.785723999999998
#
# number of rings (size 3 to 8) (size 9 to 14) (size 15 to 20)
#    0.000    1.500    1.250    3.375    3.500    2.500 
#    0.000    0.000    0.000    0.000    0.000    0.000 
#    0.000    0.000    0.000    0.000    0.000    0.000 
#
# Total GULP energy -396830.578971 kJ/mol
# GULP energy per Si atom -12400.955593 kJ/mol
# Density = 2.073841 g / cm^3
# Si number density = 20.785724 Si / 1000 Ang^3
#
#
#
# Elastic Constant Matrix: (Units=GPa)
#
#
# Indices 1 2 3 4 5 6 
#
# 1 98.7954 22.2682 46.7612 0.0000 -10.0128 0.0000
# 2 22.2682 53.3880 27.1117 0.0000 0.6593 0.0000
# 3 46.7612 27.1117 134.1721 0.0000 -0.8621 0.0000
# 4 0.0000 0.0000 0.0000 30.8520 0.0000 0.7214
# 5 -10.0128 0.6593 -0.8621 0.0000 35.7696 0.0000
# 6 0.0000 0.0000 0.0000 0.7214 0.0000 34.5289
#
#
#
# Elastic Compliance Matrix: (Units=1/GPa)
#
#
# Indices 1 2 3 4 5 6 
#
# 1 0.013105 -0.003570 -0.003823 0.000000 0.003642 0.000000
# 2 -0.003570 0.021854 -0.003181 0.000000 -0.001479 0.000000
# 3 -0.003823 -0.003181 0.009423 0.000000 -0.000784 0.000000
# 4 0.000000 0.000000 0.000000 0.032429 0.000000 -0.000678
# 5 0.003642 -0.001479 -0.000784 0.000000 0.028985 0.000000
# 6 0.000000 0.000000 0.000000 -0.000678 0.000000 0.028975
#
#
# Mechanical properties :
#
#
# Convention : Reuss Voigt Hill
#
# Bulk Modulus (GPa) = 43.03973 53.18198 48.11086
# Shear Modulus (GPa) = 30.55071 32.91106 31.73089
#
# Velocity S-wave (km/s) = 3.83795 3.98345 3.91137
# Velocity P-wave (km/s) = 6.35540 6.84094 6.60264
#
# Compressibility (1/GPa) = 0.02323434
#
# Stress axis : x y z
#
# Youngs Moduli (GPa) = 76.30703 45.75911 106.12208
#
# Poissons Ratio (x) = 0.16336 0.40566
# Poissons Ratio (y) = 0.27241 0.33760
# Poissons Ratio (z) = 0.29169 0.14557
#
# Static dielectric constant tensor:
#      x y z
#    x 3.990310 0.000000 -0.245100 
#    y 0.000000 3.795290 0.000000 
#    z -0.245100 0.000000 4.021880 
# 
# 
# High freq. dielectric constant tensor:
#      x y z
#    x 1.819560 0.000000 -0.003620 
#    y 0.000000 1.806140 0.000000 
#    z -0.003620 0.000000 1.822380 
# 
# From -- ./inp_files/73074.got.cif
#   From: 2010.06.25/outbox.cif.g09.slc.cpg/sg11_37_cif.got.tgz:73074.got - 2010.06.27 23:14:04.
