data_PCOD8077648
_publ_section_title
;
Structure prediction by ZEFSAII (Michael W. Deem and Ramdas Pophale) SiO2 
 PCOD8077648
Probable space group: P 21/M
;
_chemical_formula_sum "Si O2"
_cell_formula_units_Z 24
_cell_length_a 15.070928
_cell_length_b 8.410452
_cell_length_c 14.957029
_cell_angle_alpha 90.000000
_cell_angle_beta 139.938928
_cell_angle_gamma 90.000000
_cell_volume 1220.178171
_symmetry_space_group_name_H-M "P 21/M"
_symmetry_group_IT_number 11
_symmetry_cell_setting 'monoclinic'
loop_
_space_group_symop_operation_xyz
x,y,z
-x,1/2+y,-z
-x,-y,-z
x,1/2-y,z
loop_
_atom_site_type_symbol
_atom_site_label
_atom_site_fract_x
_atom_site_fract_y
_atom_site_fract_z
Si Si1 0.774101 0.435164 0.672399
Si Si2 0.913806 0.938936 0.108405
Si Si3 0.411120 0.067126 0.624457
Si Si4 0.812364 0.936200 0.410264
Si Si5 0.695350 0.934806 0.797460
Si Si6 0.086155 0.435970 0.696388
O O1 0.763204 0.250000 0.639349
O O2 0.693867 0.535838 0.536957
O O3 0.704138 0.465209 0.713789
O O4 0.932103 0.494389 0.798025
O O5 0.905530 0.750000 0.102584
O O6 0.872909 0.008567 0.175202
O O7 0.807233 0.005856 0.953197
O O8 0.457630 0.250000 0.656219
O O9 0.336189 0.028549 0.661116
O O10 0.543857 0.955278 0.721981
O O11 0.848584 0.750000 0.441784
O O12 0.817989 0.999373 0.311471
O O13 0.926419 0.027231 0.555668
O O14 0.722187 0.750000 0.797968
O O15 0.104399 0.250000 0.717912
#
# Coordination Sequence:
#
# PCOD8077648 Si02
#       6
#     4   4   4   4   4   4
#     4  11  21  37  59  82 104 138 182 226 270 316
#     4   9  19  35  57  82 108 139 178 218 267 321
#     4  11  22  37  54  80 112 144 179 219 265 316
#     4   9  18  31  53  82 109 136 172 218 265 309
#     4  11  23  38  54  77 109 146 181 220 267 318
#     4   9  16  32  56  81 107 136 172 217 264 316
#
# _framework density 19.669259
#
# number of rings (size 3 to 8) (size 9 to 14) (size 15 to 20)
#    0.000    2.000    1.667    2.500    0.000    0.667 
#    0.000    5.000    0.000    0.000    0.000    0.000 
#    0.000    0.000    0.000    0.000    0.000    0.000 
#
# Total GULP energy -297571.084388 kJ/mol
# GULP energy per Si atom -12398.795183 kJ/mol
# Density = 1.962449 g / cm^3
# Si number density = 19.669259 Si / 1000 Ang^3
#
#
#
# Elastic Constant Matrix: (Units=GPa)
#
#
# Indices 1 2 3 4 5 6 
#
# 1 127.2903 10.2935 35.5844 0.0000 0.2377 0.0000
# 2 10.2935 20.2155 8.1535 0.0000 -3.0145 0.0000
# 3 35.5844 8.1535 66.4575 0.0000 13.9316 0.0000
# 4 0.0000 0.0000 0.0000 17.4763 0.0000 1.1442
# 5 0.2377 -3.0145 13.9316 0.0000 27.9923 0.0000
# 6 0.0000 0.0000 0.0000 1.1442 0.0000 15.3805
#
#
#
# Elastic Compliance Matrix: (Units=1/GPa)
#
#
# Indices 1 2 3 4 5 6 
#
# 1 0.009522 -0.002373 -0.005289 0.000000 0.002296 0.000000
# 2 -0.002373 0.055161 -0.007532 0.000000 0.009709 0.000000
# 3 -0.005289 -0.007532 0.021173 0.000000 -0.011304 0.000000
# 4 0.000000 0.000000 0.000000 0.057500 0.000000 -0.004278
# 5 0.002296 0.009709 -0.011304 0.000000 0.042376 0.000000
# 6 0.000000 0.000000 0.000000 -0.004278 0.000000 0.065335
#
#
# Mechanical properties :
#
#
# Convention : Reuss Voigt Hill
#
# Bulk Modulus (GPa) = 18.02845 35.78068 26.90457
# Shear Modulus (GPa) = 16.66971 22.83196 19.75084
#
# Velocity S-wave (km/s) = 2.91434 3.41074 3.17227
# Velocity P-wave (km/s) = 4.52882 5.80874 5.20825
#
# Compressibility (1/GPa) = 0.05546789
#
# Stress axis : x y z
#
# Youngs Moduli (GPa) = 105.01825 18.12871 47.23051
#
# Poissons Ratio (x) = 0.04302 0.24979
# Poissons Ratio (y) = 0.24923 0.35575
# Poissons Ratio (z) = 0.55541 0.13655
#
# Static dielectric constant tensor:
#      x y z
#    x 4.002870 0.000000 -0.291890 
#    y 0.000000 3.313650 0.000000 
#    z -0.291890 0.000000 3.659810 
# 
# 
# High freq. dielectric constant tensor:
#      x y z
#    x 1.784280 0.000000 -0.011970 
#    y 0.000000 1.747850 0.000000 
#    z -0.011970 0.000000 1.747680 
# 
# From -- ./inp_files/20407.got.cif
#   From: 2010.06.25/outbox.cif.g09.slc.cpg/sg11_11_cif.got.tgz:20407.got - 2010.06.27 23:14:04.
