data_PCOD8077847
_publ_section_title
;
Structure prediction by ZEFSAII (Michael W. Deem and Ramdas Pophale) SiO2 
 PCOD8077847
Probable space group: P 21/M
;
_chemical_formula_sum "Si O2"
_cell_formula_units_Z 20
_cell_length_a 11.382693
_cell_length_b 8.426923
_cell_length_c 9.839019
_cell_angle_alpha 90.000000
_cell_angle_beta 90.107145
_cell_angle_gamma 90.000000
_cell_volume 943.767653
_symmetry_space_group_name_H-M "P 21/M"
_symmetry_group_IT_number 11
_symmetry_cell_setting 'monoclinic'
loop_
_space_group_symop_operation_xyz
x,y,z
-x,1/2+y,-z
-x,-y,-z
x,1/2-y,z
loop_
_atom_site_type_symbol
_atom_site_label
_atom_site_fract_x
_atom_site_fract_y
_atom_site_fract_z
Si Si1 0.004770 0.435746 0.347648
Si Si2 0.242845 0.933570 0.269895
Si Si3 0.628492 0.933969 0.482220
Si Si4 0.751789 0.066095 0.235077
Si Si5 0.369491 0.435050 0.018153
O O1 0.030215 0.250000 0.354737
O O2 0.106543 0.518855 0.259777
O O3 0.000000 0.500000 0.500000
O O4 0.886318 0.476453 0.266597
O O5 0.258541 0.750000 0.234117
O O6 0.282525 0.968033 0.423635
O O7 0.324864 0.035356 0.170524
O O8 0.633081 0.750000 0.520709
O O9 0.500000 0.000000 0.500000
O O10 0.666667 0.959876 0.327362
O O11 0.726239 0.250000 0.263959
O O12 0.722108 0.024425 0.080049
O O13 0.369576 0.250000 0.985765
O O14 0.500000 0.500000 0.000000
#
# Coordination Sequence:
#
# PCOD8077847 Si02
#       5
#     4   4   4   4   4
#     4  11  23  41  68  99 135 173 218 273 330 390
#     4  12  25  43  67  96 132 174 221 272 328 390
#     4  12  24  40  64  94 129 169 220 272 328 390
#     4  11  24  43  67  97 132 172 218 269 328 391
#     4  12  26  46  69  96 133 175 220 272 332 396
#
# _framework density 21.191658
#
# number of rings (size 3 to 8) (size 9 to 14) (size 15 to 20)
#    0.000    0.400    2.000    7.800    0.000    3.200 
#    0.000    0.000    0.000    0.000    0.000    0.000 
#    0.000    0.000    0.000    0.000    0.000    0.000 
#
# Total GULP energy -248189.749768 kJ/mol
# GULP energy per Si atom -12409.487488 kJ/mol
# Density = 2.114342 g / cm^3
# Si number density = 21.191658 Si / 1000 Ang^3
#
#
#
# Elastic Constant Matrix: (Units=GPa)
#
#
# Indices 1 2 3 4 5 6 
#
# 1 130.4667 56.5403 23.8893 0.0000 -2.1104 0.0000
# 2 56.5403 115.0250 21.3298 0.0000 9.0344 0.0000
# 3 23.8893 21.3298 74.5593 0.0000 3.6376 0.0000
# 4 0.0000 0.0000 0.0000 39.2206 0.0000 -1.5087
# 5 -2.1104 9.0344 3.6376 0.0000 44.4123 0.0000
# 6 0.0000 0.0000 0.0000 -1.5087 0.0000 37.9452
#
#
#
# Elastic Compliance Matrix: (Units=1/GPa)
#
#
# Indices 1 2 3 4 5 6 
#
# 1 0.010098 -0.004726 -0.001962 0.000000 0.001602 0.000000
# 2 -0.004726 0.011516 -0.001662 0.000000 -0.002431 0.000000
# 3 -0.001962 -0.001662 0.014562 0.000000 -0.000948 0.000000
# 4 0.000000 0.000000 0.000000 0.025536 0.000000 0.001015
# 5 0.001602 -0.002431 -0.000948 0.000000 0.023165 0.000000
# 6 0.000000 0.000000 0.000000 0.001015 0.000000 0.026394
#
#
# Mechanical properties :
#
#
# Convention : Reuss Voigt Hill
#
# Bulk Modulus (GPa) = 51.34018 58.17441 54.75730
# Shear Modulus (GPa) = 37.18553 38.86840 38.02696
#
# Velocity S-wave (km/s) = 4.19349 4.28733 4.24067
# Velocity P-wave (km/s) = 6.90842 7.21245 7.06207
#
# Compressibility (1/GPa) = 0.01947792
#
# Stress axis : x y z
#
# Youngs Moduli (GPa) = 99.03111 86.83795 68.67055
#
# Poissons Ratio (x) = 0.41036 0.13471
# Poissons Ratio (y) = 0.46798 0.11411
# Poissons Ratio (z) = 0.19427 0.14430
#
# Static dielectric constant tensor:
#      x y z
#    x 3.963420 0.000000 0.184180 
#    y 0.000000 3.944200 0.000000 
#    z 0.184180 0.000000 4.191860 
# 
# 
# High freq. dielectric constant tensor:
#      x y z
#    x 1.846920 0.000000 0.001680 
#    y 0.000000 1.846320 0.000000 
#    z 0.001680 0.000000 1.830360 
# 
# From -- ./inp_files/16067.got.cif
#   From: 2010.06.25/outbox.cif.g09.slc.cpg/sg11_9_cif.got.tgz:16067.got - 2010.06.27 23:14:04.
