data_PCOD8077991
_publ_section_title
;
Structure prediction by ZEFSAII (Michael W. Deem and Ramdas Pophale) SiO2 
 PCOD8077991
Probable space group: P 21/M
;
_chemical_formula_sum "Si O2"
_cell_formula_units_Z 32
_cell_length_a 12.000000
_cell_length_b 9.000000
_cell_length_c 30.000000
_cell_angle_alpha 90.000000
_cell_angle_beta 30.000000
_cell_angle_gamma 90.000000
_cell_volume 1620.000000
_symmetry_space_group_name_H-M "P 21/M"
_symmetry_group_IT_number 11
_symmetry_cell_setting 'monoclinic'
loop_
_space_group_symop_operation_xyz
x,y,z
-x,1/2+y,-z
-x,-y,-z
x,1/2-y,z
loop_
_atom_site_type_symbol
_atom_site_label
_atom_site_fract_x
_atom_site_fract_y
_atom_site_fract_z
Si Si1 0.034396 0.080001 0.780968
Si Si2 0.101523 0.920624 0.072139
Si Si3 0.545379 0.427220 0.592828
Si Si4 0.025012 0.075702 0.580727
Si Si5 0.610938 0.574756 0.883503
Si Si6 0.374143 0.577325 0.214210
Si Si7 0.688861 0.920826 0.632747
Si Si8 0.708090 0.079778 0.161379
O O1 0.003199 0.250000 0.776480
O O2 0.026518 0.065197 0.836833
O O3 0.281984 0.024340 0.677990
O O4 0.819449 0.990294 0.838627
O O5 0.103212 0.750000 0.055121
O O6 0.360693 0.977684 0.985833
O O7 0.953602 0.016631 0.088738
O O8 0.560558 0.250000 0.583762
O O9 0.637160 0.482073 0.607877
O O10 0.726960 0.503231 0.495799
O O11 0.055380 0.250000 0.559872
O O12 0.860006 0.052023 0.679476
O O13 0.904237 0.994260 0.581319
O O14 0.627992 0.750000 0.882140
O O15 0.649521 0.523744 0.820341
O O16 0.407883 0.750000 0.190824
O O17 0.596437 0.521541 0.162096
O O18 0.747359 0.750000 0.600595
O O19 0.462503 0.927389 0.738921
O O20 0.737729 0.250000 0.134701
#
# Coordination Sequence:
#
# PCOD8077991 Si02
#       8
#     4   4   4   4   4   4   4   4
#     4  10  22  40  61  85 118 154 191 234 286 348
#     4  10  21  39  61  88 120 152 188 234 292 350
#     4  11  21  34  56  84 115 152 189 232 284 340
#     4  10  21  36  56  82 113 151 192 235 283 339
#     4  11  24  40  62  87 113 150 196 245 290 338
#     4  10  22  41  62  82 115 158 196 237 288 344
#     4  10  19  32  52  82 119 153 187 231 282 340
#     4  10  20  34  58  90 120 152 191 239 287 337
#
# _framework density 19.753086
#
# number of rings (size 3 to 8) (size 9 to 14) (size 15 to 20)
#    0.000    1.750    1.250    3.000    0.000    5.500 
#    0.000    0.625    0.000    0.000    0.000    0.000 
#    0.000    0.000    0.000    0.000    0.000    0.000 
#
# Total GULP energy -396561.528102 kJ/mol
# GULP energy per Si atom -12392.547753 kJ/mol
# Density = 1.970813 g / cm^3
# Si number density = 19.753086 Si / 1000 Ang^3
#
#
#
# Elastic Constant Matrix: (Units=GPa)
#
#
# Indices 1 2 3 4 5 6 
#
# 1 61.1561 28.0386 41.4397 0.0000 -25.0710 0.0000
# 2 28.0386 94.1267 52.2338 0.0000 -25.6294 0.0000
# 3 41.4397 52.2338 129.1410 0.0000 -41.3300 0.0000
# 4 0.0000 0.0000 0.0000 39.1624 0.0000 -9.1779
# 5 -25.0710 -25.6294 -41.3300 0.0000 40.0912 0.0000
# 6 0.0000 0.0000 0.0000 -9.1779 0.0000 37.1689
#
#
#
# Elastic Compliance Matrix: (Units=1/GPa)
#
#
# Indices 1 2 3 4 5 6 
#
# 1 0.023869 -0.002508 -0.003553 0.000000 0.009660 0.000000
# 2 -0.002508 0.014541 -0.003885 0.000000 0.003722 0.000000
# 3 -0.003553 -0.003885 0.013355 0.000000 0.009062 0.000000
# 4 0.000000 0.000000 0.000000 0.027103 0.000000 0.006692
# 5 0.009660 0.003722 0.009062 0.000000 0.042706 0.000000
# 6 0.000000 0.000000 0.000000 0.006692 0.000000 0.028557
#
#
# Mechanical properties :
#
#
# Convention : Reuss Voigt Hill
#
# Bulk Modulus (GPa) = 31.37543 58.64975 45.01259
# Shear Modulus (GPa) = 27.67807 34.13195 30.90501
#
# Velocity S-wave (km/s) = 3.74732 4.16135 3.95975
# Velocity P-wave (km/s) = 5.88571 7.26946 6.61387
#
# Compressibility (1/GPa) = 0.03187207
#
# Stress axis : x y z
#
# Youngs Moduli (GPa) = 41.89451 68.77327 74.87565
#
# Poissons Ratio (x) = 0.17249 0.26605
# Poissons Ratio (y) = 0.10507 0.29092
# Poissons Ratio (z) = 0.14886 0.26721
#
# Static dielectric constant tensor:
#      x y z
#    x 3.515380 0.000000 -0.297700 
#    y 0.000000 3.841100 0.000000 
#    z -0.297700 0.000000 4.247310 
# 
# 
# High freq. dielectric constant tensor:
#      x y z
#    x 1.752300 0.000000 -0.024310 
#    y 0.000000 1.784710 0.000000 
#    z -0.024310 0.000000 1.803970 
# 
# From -- ./inp_files/69032.got.cif
#   From: 2010.06.25/outbox.ucp.g09.slc.cvg/sg11_35_cif.got.tgz:69032.got - 2010.06.28 13:43:20.
