data_PCOD8077664
_publ_section_title
;
Structure prediction by ZEFSAII (Michael W. Deem and Ramdas Pophale) SiO2 
 PCOD8077664
Probable space group: P 21/M
;
_chemical_formula_sum "Si O2"
_cell_formula_units_Z 24
_cell_length_a 14.898903
_cell_length_b 16.040291
_cell_length_c 4.969362
_cell_angle_alpha 90.000000
_cell_angle_beta 80.648957
_cell_angle_gamma 90.000000
_cell_volume 1171.810263
_symmetry_space_group_name_H-M "P 21/M"
_symmetry_group_IT_number 11
_symmetry_cell_setting 'monoclinic'
loop_
_space_group_symop_operation_xyz
x,y,z
-x,1/2+y,-z
-x,-y,-z
x,1/2-y,z
loop_
_atom_site_type_symbol
_atom_site_label
_atom_site_fract_x
_atom_site_fract_y
_atom_site_fract_z
Si Si1 0.001148 0.439705 0.256361
Si Si2 0.564492 0.510978 0.218324
Si Si3 0.814608 0.345388 0.389663
Si Si4 0.694763 0.657095 0.327835
Si Si5 0.802240 0.605202 0.808416
Si Si6 0.736435 0.074960 0.936797
O O1 0.916028 0.379880 0.336149
O O2 0.000000 0.500000 0.500000
O O3 0.089672 0.380441 0.250475
O O4 0.000000 0.500000 0.000000
O O5 0.500000 0.500000 0.500000
O O6 0.613080 0.599912 0.250996
O O7 0.500000 0.500000 0.000000
O O8 0.636834 0.438880 0.112798
O O9 0.816563 0.250000 0.474783
O O10 0.744601 0.393062 0.625418
O O11 0.780944 0.355168 0.101774
O O12 0.658597 0.750000 0.422467
O O13 0.747978 0.616208 0.554030
O O14 0.764596 0.668962 0.048205
O O15 0.789376 0.511990 0.927256
#
# Coordination Sequence:
#
# PCOD8077664 Si02
#       6
#     4   4   4   4   4   4
#     4  12  22  39  64  93 128 176 229 267 312 383
#     4  11  23  43  70  95 121 166 219 260 320 409
#     4  12  24  40  61  95 134 172 218 273 320 371
#     4  11  24  41  64  97 134 162 207 279 337 377
#     4  11  21  39  67  91 123 177 219 254 323 399
#     4  11  22  42  66  88 126 170 216 263 324 401
#
# _framework density 20.481133
#
# number of rings (size 3 to 8) (size 9 to 14) (size 15 to 20)
#    0.000    0.667    3.333    7.000    0.000    1.333 
#    0.000    5.000    0.000    0.000    0.000    0.000 
#    0.000    0.000    0.000    0.000    0.000    0.000 
#
# Total GULP energy -297325.549678 kJ/mol
# GULP energy per Si atom -12388.564570 kJ/mol
# Density = 2.043452 g / cm^3
# Si number density = 20.481133 Si / 1000 Ang^3
#
#
#
# Elastic Constant Matrix: (Units=GPa)
#
#
# Indices 1 2 3 4 5 6 
#
# 1 145.5879 48.3541 57.9401 0.0000 -3.1849 0.0000
# 2 48.3541 108.9891 31.1340 0.0000 -6.3604 0.0000
# 3 57.9401 31.1340 145.6377 0.0000 -0.9939 0.0000
# 4 0.0000 0.0000 0.0000 26.2935 0.0000 -2.8929
# 5 -3.1849 -6.3604 -0.9939 0.0000 44.9620 0.0000
# 6 0.0000 0.0000 0.0000 -2.8929 0.0000 17.4653
#
#
#
# Elastic Compliance Matrix: (Units=1/GPa)
#
#
# Indices 1 2 3 4 5 6 
#
# 1 0.009100 -0.003191 -0.002937 0.000000 0.000128 0.000000
# 2 -0.003191 0.010972 -0.001067 0.000000 0.001302 0.000000
# 3 -0.002937 -0.001067 0.008262 0.000000 -0.000176 0.000000
# 4 0.000000 0.000000 0.000000 0.038738 0.000000 0.006417
# 5 0.000128 0.001302 -0.000176 0.000000 0.022430 0.000000
# 6 0.000000 0.000000 0.000000 0.006417 0.000000 0.058319
#
#
# Mechanical properties :
#
#
# Convention : Reuss Voigt Hill
#
# Bulk Modulus (GPa) = 71.72040 75.00791 73.36415
# Shear Modulus (GPa) = 29.96519 35.26327 32.61423
#
# Velocity S-wave (km/s) = 3.82915 4.15389 3.99482
# Velocity P-wave (km/s) = 7.39214 7.72715 7.56150
#
# Compressibility (1/GPa) = 0.01394303
#
# Stress axis : x y z
#
# Youngs Moduli (GPa) = 109.88642 91.14328 121.03737
#
# Poissons Ratio (x) = 0.29082 0.35554
# Poissons Ratio (y) = 0.35063 0.12917
# Poissons Ratio (z) = 0.32278 0.09727
#
# Static dielectric constant tensor:
#      x y z
#    x 3.911780 0.000000 -0.158130 
#    y 0.000000 3.618760 0.000000 
#    z -0.158130 0.000000 3.968970 
# 
# 
# High freq. dielectric constant tensor:
#      x y z
#    x 1.804340 0.000000 -0.001740 
#    y 0.000000 1.786000 0.000000 
#    z -0.001740 0.000000 1.827060 
# 
# From -- ./inp_files/6398.got.cif
#   From: 2010.06.25/outbox.cif.g09.slc.cpg/sg11_4_cif.got.tgz:6398.got - 2010.06.27 23:14:04.
