data_PCOD8077295
_publ_section_title
;
Structure prediction by ZEFSAII (Michael W. Deem and Ramdas Pophale) SiO2 
 PCOD8077295
Probable space group: P 21/M
;
_chemical_formula_sum "Si O2"
_cell_formula_units_Z 18
_cell_length_a 7.468338
_cell_length_b 10.523832
_cell_length_c 11.452576
_cell_angle_alpha 90.000000
_cell_angle_beta 74.402677
_cell_angle_gamma 90.000000
_cell_volume 866.974481
_symmetry_space_group_name_H-M "P 21/M"
_symmetry_group_IT_number 11
_symmetry_cell_setting 'monoclinic'
loop_
_space_group_symop_operation_xyz
x,y,z
-x,1/2+y,-z
-x,-y,-z
x,1/2-y,z
loop_
_atom_site_type_symbol
_atom_site_label
_atom_site_fract_x
_atom_site_fract_y
_atom_site_fract_z
Si Si1 0.736930 0.392057 0.406864
Si Si2 0.441202 0.250000 0.852326
Si Si3 0.088079 0.485653 0.233163
Si Si4 0.929740 0.750000 0.934933
Si Si5 0.575284 0.027836 0.672742
Si Si6 0.174649 0.750000 0.103316
O O1 0.800306 0.250000 0.365086
O O2 0.560445 0.423616 0.357393
O O3 0.684480 0.399047 0.551571
O O4 0.909710 0.483651 0.349327
O O5 0.455718 0.126274 0.769095
O O6 0.602031 0.250000 0.923108
O O7 0.243429 0.250000 0.947591
O O8 0.071896 0.378572 0.138023
O O9 0.274691 0.456848 0.272945
O O10 0.089986 0.625844 0.179176
O O11 0.119915 0.750000 0.976919
#
# Coordination Sequence:
#
# PCOD8077295 Si02
#       6
#     4   2   4   2   4   2
#     4  11  22  40  66  94 127 162 208 261 308 378
#     4  10  22  43  64  88 130 165 209 254 315 372
#     4  11  24  43  64  96 127 164 211 258 314 370
#     4  12  24  39  66  94 124 165 219 260 303 366
#     4  10  23  41  64  93 125 167 204 255 321 374
#     4  10  24  42  64  88 130 172 204 256 318 370
#
# _framework density 20.761855000000001
#
# number of rings (size 3 to 8) (size 9 to 14) (size 15 to 20)
#    0.000    1.333    2.222    2.667    1.556    5.333 
#    2.000    0.000    0.000    0.000    0.000    0.000 
#    0.000    0.000    0.000    0.000    0.000    0.000 
#
# Total GULP energy -223284.709722 kJ/mol
# GULP energy per Si atom -12404.706096 kJ/mol
# Density = 2.071460 g / cm^3
# Si number density = 20.761855 Si / 1000 Ang^3
#
#
#
# Elastic Constant Matrix: (Units=GPa)
#
#
# Indices 1 2 3 4 5 6 
#
# 1 45.6626 7.4259 28.1060 0.0000 4.6582 0.0000
# 2 7.4259 99.8185 25.4372 0.0000 5.9444 0.0000
# 3 28.1060 25.4372 96.6739 0.0000 2.6055 0.0000
# 4 0.0000 0.0000 0.0000 17.2777 0.0000 -8.5687
# 5 4.6582 5.9444 2.6055 0.0000 43.3355 0.0000
# 6 0.0000 0.0000 0.0000 -8.5687 0.0000 21.6523
#
#
#
# Elastic Compliance Matrix: (Units=1/GPa)
#
#
# Indices 1 2 3 4 5 6 
#
# 1 0.026927 0.000129 -0.007797 0.000000 -0.002443 0.000000
# 2 0.000129 0.010813 -0.002847 0.000000 -0.001326 0.000000
# 3 -0.007797 -0.002847 0.013348 0.000000 0.000426 0.000000
# 4 0.000000 0.000000 0.000000 0.072012 0.000000 0.028498
# 5 -0.002443 -0.001326 0.000426 0.000000 0.023495 0.000000
# 6 0.000000 0.000000 0.000000 0.028498 0.000000 0.057462
#
#
# Mechanical properties :
#
#
# Convention : Reuss Voigt Hill
#
# Bulk Modulus (GPa) = 33.26734 40.45481 36.86107
# Shear Modulus (GPa) = 21.26704 28.53216 24.89960
#
# Velocity S-wave (km/s) = 3.20399 3.71112 3.46684
# Velocity P-wave (km/s) = 5.45394 6.15554 5.81533
#
# Compressibility (1/GPa) = 0.03005951
#
# Stress axis : x y z
#
# Youngs Moduli (GPa) = 37.13751 92.48087 74.91542
#
# Poissons Ratio (x) = -0.01194 0.58409
# Poissons Ratio (y) = -0.00480 0.21328
# Poissons Ratio (z) = 0.28955 0.26329
#
# Static dielectric constant tensor:
#      x y z
#    x 3.861580 0.000000 0.120560 
#    y 0.000000 3.649500 0.000000 
#    z 0.120560 0.000000 3.851330 
# 
# 
# High freq. dielectric constant tensor:
#      x y z
#    x 1.824020 0.000000 0.005500 
#    y 0.000000 1.815090 0.000000 
#    z 0.005500 0.000000 1.820160 
# 
# From -- ./inp_files/11888.got.cif
#   From: 2010.06.25/outbox.cif.g09.slc.cpg/sg11_6_cif.got.tgz:11888.got - 2010.06.27 23:14:04.
