data_PCOD8077558
_publ_section_title
;
Structure prediction by ZEFSAII (Michael W. Deem and Ramdas Pophale) SiO2 
 PCOD8077558
Probable space group: P 21/M
;
_chemical_formula_sum "Si O2"
_cell_formula_units_Z 28
_cell_length_a 28.207480
_cell_length_b 8.650751
_cell_length_c 9.899466
_cell_angle_alpha 90.000000
_cell_angle_beta 38.154673
_cell_angle_gamma 90.000000
_cell_volume 1492.341743
_symmetry_space_group_name_H-M "P 21/M"
_symmetry_group_IT_number 11
_symmetry_cell_setting 'monoclinic'
loop_
_space_group_symop_operation_xyz
x,y,z
-x,1/2+y,-z
-x,-y,-z
x,1/2-y,z
loop_
_atom_site_type_symbol
_atom_site_label
_atom_site_fract_x
_atom_site_fract_y
_atom_site_fract_z
Si Si1 0.628801 0.067109 0.372128
Si Si2 0.501485 0.567248 0.845740
Si Si3 0.044338 0.569133 0.778114
Si Si4 0.201006 0.568710 0.023434
Si Si5 0.629324 0.066646 0.061211
Si Si6 0.798919 0.065702 0.678807
Si Si7 0.040743 0.566881 0.279442
O O1 0.615730 0.250000 0.417181
O O2 0.715688 0.015867 0.216894
O O3 0.610980 0.013361 0.256973
O O4 0.577982 0.978174 0.594840
O O5 0.495872 0.750000 0.871368
O O6 0.431211 0.500271 0.911898
O O7 0.500000 0.500000 0.000000
O O8 0.048247 0.750000 0.787359
O O9 0.131993 0.503391 0.571177
O O10 0.994594 0.526972 0.761856
O O11 0.000000 0.500000 0.000000
O O12 0.205163 0.750000 0.035915
O O13 0.184616 0.498259 0.208444
O O14 0.131753 0.525284 0.078381
O O15 0.626858 0.250000 0.066297
O O16 0.714059 0.008763 0.823984
O O17 0.800877 0.250000 0.675229
O O18 0.027553 0.750000 0.295401
O O19 0.000000 0.500000 0.500000
#
# Coordination Sequence:
#
# PCOD8077558 Si02
#       7
#     4   4   4   4   4   4   4
#     4   9  17  34  60  83 103 132 177 225 264 314
#     4  11  22  36  53  78 112 144 175 214 266 320
#     4  11  22  37  55  78 111 148 187 231 275 323
#     4   8  15  30  55  83 105 133 177 221 263 320
#     4   8  16  32  58  83 100 131 181 223 258 313
#     4   8  14  30  55  79 102 134 180 224 258 311
#     4  11  20  34  57  84 111 144 185 226 273 325
#
# _framework density 18.762459
#
# number of rings (size 3 to 8) (size 9 to 14) (size 15 to 20)
#    0.000    2.571    1.429    3.429    0.000    0.000 
#    2.571    2.143    0.000    2.571    0.000    0.000 
#    0.000    0.000    0.000    0.000    0.000    0.000 
#
# Total GULP energy -346911.165692 kJ/mol
# GULP energy per Si atom -12389.684489 kJ/mol
# Density = 1.871975 g / cm^3
# Si number density = 18.762459 Si / 1000 Ang^3
#
#
#
# Elastic Constant Matrix: (Units=GPa)
#
#
# Indices 1 2 3 4 5 6 
#
# 1 92.2002 11.8312 80.6093 0.0000 -6.4237 0.0000
# 2 11.8312 30.9368 27.2393 0.0000 -1.9488 0.0000
# 3 80.6093 27.2393 175.9992 0.0000 -9.1765 0.0000
# 4 0.0000 0.0000 0.0000 30.4499 0.0000 2.2903
# 5 -6.4237 -1.9488 -9.1765 0.0000 32.9790 0.0000
# 6 0.0000 0.0000 0.0000 2.2903 0.0000 25.0288
#
#
#
# Elastic Compliance Matrix: (Units=1/GPa)
#
#
# Indices 1 2 3 4 5 6 
#
# 1 0.018145 0.000462 -0.008317 0.000000 0.001247 0.000000
# 2 0.000462 0.037448 -0.005974 0.000000 0.000641 0.000000
# 3 -0.008317 -0.005974 0.010465 0.000000 0.000939 0.000000
# 4 0.000000 0.000000 0.000000 0.033068 0.000000 -0.003026
# 5 0.001247 0.000641 0.000939 0.000000 0.030864 0.000000
# 6 0.000000 0.000000 0.000000 -0.003026 0.000000 0.040231
#
#
# Mechanical properties :
#
#
# Convention : Reuss Voigt Hill
#
# Bulk Modulus (GPa) = 26.04185 59.83285 42.93735
# Shear Modulus (GPa) = 23.73282 29.65531 26.69406
#
# Velocity S-wave (km/s) = 3.56042 3.97995 3.77601
# Velocity P-wave (km/s) = 5.55085 7.28552 6.47653
#
# Compressibility (1/GPa) = 0.03839973
#
# Stress axis : x y z
#
# Youngs Moduli (GPa) = 55.11122 26.70397 95.55888
#
# Poissons Ratio (x) = -0.01235 0.79478
# Poissons Ratio (y) = -0.02549 0.57088
# Poissons Ratio (z) = 0.45837 0.15953
#
# Static dielectric constant tensor:
#      x y z
#    x 3.657640 0.000000 -0.460000 
#    y 0.000000 3.062680 0.000000 
#    z -0.460000 0.000000 3.953470 
# 
# 
# High freq. dielectric constant tensor:
#      x y z
#    x 1.728810 0.000000 -0.018890 
#    y 0.000000 1.691610 0.000000 
#    z -0.018890 0.000000 1.735860 
# 
# From -- ./inp_files/28434.got.cif
#   From: 2010.06.25/outbox.cif.g09.slc.cpg/sg11_15_cif.got.tgz:28434.got - 2010.06.27 23:14:04.
