data_PCOD8077326
_publ_section_title
;
Structure prediction by ZEFSAII (Michael W. Deem and Ramdas Pophale) SiO2 
 PCOD8077326
Probable space group: P 21/M
;
_chemical_formula_sum "Si O2"
_cell_formula_units_Z 28
_cell_length_a 8.618145
_cell_length_b 18.355336
_cell_length_c 15.532827
_cell_angle_alpha 90.000000
_cell_angle_beta 145.414458
_cell_angle_gamma 90.000000
_cell_volume 1394.750690
_symmetry_space_group_name_H-M "P 21/M"
_symmetry_group_IT_number 11
_symmetry_cell_setting 'monoclinic'
loop_
_space_group_symop_operation_xyz
x,y,z
-x,1/2+y,-z
-x,-y,-z
x,1/2-y,z
loop_
_atom_site_type_symbol
_atom_site_label
_atom_site_fract_x
_atom_site_fract_y
_atom_site_fract_z
Si Si1 0.991553 0.333162 0.586736
Si Si2 0.242011 0.016479 0.996648
Si Si3 0.015773 0.615561 0.993222
Si Si4 0.830953 0.527136 0.238384
Si Si5 0.538793 0.667059 0.329728
Si Si6 0.673943 0.566615 0.544974
Si Si7 0.370227 0.169616 0.319318
O O1 0.031163 0.250000 0.638810
O O2 0.673500 0.351330 0.423882
O O3 0.095604 0.389697 0.705753
O O4 0.165501 0.344037 0.579141
O O5 0.191698 0.024468 0.873667
O O6 0.160017 0.092419 0.003719
O O7 0.053041 0.953455 0.948204
O O8 0.555023 0.996647 0.159994
O O9 0.834904 0.671163 0.855339
O O10 0.300997 0.651355 0.151896
O O11 0.052381 0.467732 0.370621
O O12 0.508091 0.750000 0.348931
O O13 0.513311 0.611706 0.398200
O O14 0.500000 0.500000 0.500000
O O15 0.739900 0.618041 0.655585
O O16 0.375757 0.250000 0.361890
#
# Coordination Sequence:
#
# PCOD8077326 Si02
#       7
#     4   4   4   4   4   4   4
#     4  10  23  41  64  92 128 168 212 260 317 377
#     4  10  23  37  63  94 128 159 210 262 310 368
#     4  11  22  41  64  92 124 168 206 259 307 380
#     4  11  21  41  63  95 126 167 207 263 316 371
#     4  11  25  44  66  94 128 169 212 258 312 381
#     4  12  24  39  66  96 124 161 215 259 317 370
#     4  11  24  42  63  91 129 166 206 261 316 375
#
# _framework density 20.075271999999998
#
# number of rings (size 3 to 8) (size 9 to 14) (size 15 to 20)
#    0.000    1.143    4.286    1.714    4.000    0.571 
#    0.000    0.714    0.000    0.000    0.000    0.000 
#    0.000    0.000    0.000    0.000    0.000    0.000 
#
# Total GULP energy -347222.012895 kJ/mol
# GULP energy per Si atom -12400.786175 kJ/mol
# Density = 2.002958 g / cm^3
# Si number density = 20.075272 Si / 1000 Ang^3
#
#
#
# Elastic Constant Matrix: (Units=GPa)
#
#
# Indices 1 2 3 4 5 6 
#
# 1 74.8051 36.8048 25.6611 0.0000 8.2194 0.0000
# 2 36.8048 112.5717 36.8804 0.0000 -4.5671 0.0000
# 3 25.6611 36.8804 103.2971 0.0000 2.4294 0.0000
# 4 0.0000 0.0000 0.0000 32.9214 0.0000 -4.9254
# 5 8.2194 -4.5671 2.4294 0.0000 30.7329 0.0000
# 6 0.0000 0.0000 0.0000 -4.9254 0.0000 32.0500
#
#
#
# Elastic Compliance Matrix: (Units=1/GPa)
#
#
# Indices 1 2 3 4 5 6 
#
# 1 0.017241 -0.005078 -0.002348 0.000000 -0.005180 0.000000
# 2 -0.005078 0.011654 -0.002978 0.000000 0.003325 0.000000
# 3 -0.002348 -0.002978 0.011344 0.000000 -0.000711 0.000000
# 4 0.000000 0.000000 0.000000 0.031090 0.000000 0.004778
# 5 -0.005180 0.003325 -0.000711 0.000000 0.034474 0.000000
# 6 0.000000 0.000000 0.000000 0.004778 0.000000 0.031936
#
#
# Mechanical properties :
#
#
# Convention : Reuss Voigt Hill
#
# Bulk Modulus (GPa) = 51.46237 54.37407 52.91822
# Shear Modulus (GPa) = 30.29876 31.89601 31.09739
#
# Velocity S-wave (km/s) = 3.88913 3.99033 3.94005
# Velocity P-wave (km/s) = 6.77181 6.95515 6.86410
#
# Compressibility (1/GPa) = 0.01943168
#
# Stress axis : x y z
#
# Youngs Moduli (GPa) = 58.00100 85.80916 88.15240
#
# Poissons Ratio (x) = 0.43571 0.20701
# Poissons Ratio (y) = 0.29451 0.26248
# Poissons Ratio (z) = 0.13620 0.25550
#
# Static dielectric constant tensor:
#      x y z
#    x 3.750040 0.000000 0.314780 
#    y 0.000000 3.871300 0.000000 
#    z 0.314780 0.000000 3.759180 
# 
# 
# High freq. dielectric constant tensor:
#      x y z
#    x 1.784450 0.000000 0.011170 
#    y 0.000000 1.789950 0.000000 
#    z 0.011170 0.000000 1.783740 
# 
# From -- ./inp_files/22780.got.cif
#   From: 2010.06.25/outbox.cif.g09.slc.cpg/sg11_12_cif.got.tgz:22780.got - 2010.06.27 23:14:04.
