data_PCOD8077803
_publ_section_title
;
Structure prediction by ZEFSAII (Michael W. Deem and Ramdas Pophale) SiO2 
 PCOD8077803
Probable space group: P 21/M
;
_chemical_formula_sum "Si O2"
_cell_formula_units_Z 28
_cell_length_a 18.949770
_cell_length_b 8.841068
_cell_length_c 17.357277
_cell_angle_alpha 90.000000
_cell_angle_beta 149.223735
_cell_angle_gamma 90.000000
_cell_volume 1487.971614
_symmetry_space_group_name_H-M "P 21/M"
_symmetry_group_IT_number 11
_symmetry_cell_setting 'monoclinic'
loop_
_space_group_symop_operation_xyz
x,y,z
-x,1/2+y,-z
-x,-y,-z
x,1/2-y,z
loop_
_atom_site_type_symbol
_atom_site_label
_atom_site_fract_x
_atom_site_fract_y
_atom_site_fract_z
Si Si1 0.254081 0.429752 0.561534
Si Si2 0.858369 0.573801 0.846785
Si Si3 0.217524 0.072220 0.063513
Si Si4 0.547916 0.570696 0.831533
Si Si5 0.609397 0.423267 0.047288
Si Si6 0.859269 0.423012 0.391875
Si Si7 0.071833 0.071576 0.249725
O O1 0.261770 0.250000 0.570939
O O2 0.402283 0.494297 0.678211
O O3 0.209694 0.489239 0.602677
O O4 0.145429 0.488310 0.395815
O O5 0.881929 0.750000 0.872278
O O6 0.754704 0.527532 0.819534
O O7 0.826788 0.527352 0.728265
O O8 0.000000 0.500000 0.000000
O O9 0.197599 0.250000 0.034869
O O10 0.350736 0.017545 0.141707
O O11 0.079526 0.998540 0.899764
O O12 0.528490 0.750000 0.817452
O O13 0.614969 0.513777 0.973324
O O14 0.564613 0.250000 0.990601
O O15 0.760268 0.431923 0.225472
O O16 0.500000 0.500000 0.000000
O O17 0.885410 0.250000 0.440861
O O18 0.000000 0.500000 0.500000
O O19 0.051464 0.250000 0.235231
#
# Coordination Sequence:
#
# PCOD8077803 Si02
#       7
#     4   4   4   4   4   4   4
#     4  11  23  39  57  81 113 149 186 228 280 331
#     4   8  14  30  53  78 109 142 178 223 271 322
#     4   9  19  34  56  84 111 143 184 227 273 326
#     4  11  23  38  56  82 113 148 188 229 277 331
#     4  11  23  40  62  84 109 146 188 227 273 328
#     4  11  25  42  61  85 113 145 184 228 276 330
#     4   9  19  34  56  83 111 144 183 227 276 327
#
# _framework density 18.817564000000001
#
# number of rings (size 3 to 8) (size 9 to 14) (size 15 to 20)
#    0.000    2.000    1.429    1.714    2.000    4.000 
#    0.000    0.714    0.000    0.000    0.000    0.000 
#    0.000    0.000    0.000    0.000    0.000    0.000 
#
# Total GULP energy -347012.504530 kJ/mol
# GULP energy per Si atom -12393.303733 kJ/mol
# Density = 1.877473 g / cm^3
# Si number density = 18.817564 Si / 1000 Ang^3
#
#
#
# Elastic Constant Matrix: (Units=GPa)
#
#
# Indices 1 2 3 4 5 6 
#
# 1 120.1960 34.4282 33.3187 0.0000 19.8944 0.0000
# 2 34.4282 67.0422 29.4016 0.0000 8.5732 0.0000
# 3 33.3187 29.4016 80.6228 0.0000 13.5092 0.0000
# 4 0.0000 0.0000 0.0000 29.3855 0.0000 2.4218
# 5 19.8944 8.5732 13.5092 0.0000 28.1943 0.0000
# 6 0.0000 0.0000 0.0000 2.4218 0.0000 25.2267
#
#
#
# Elastic Compliance Matrix: (Units=1/GPa)
#
#
# Indices 1 2 3 4 5 6 
#
# 1 0.010969 -0.003983 -0.002160 0.000000 -0.005494 0.000000
# 2 -0.003983 0.019365 -0.005328 0.000000 -0.000525 0.000000
# 3 -0.002160 -0.005328 0.015997 0.000000 -0.004520 0.000000
# 4 0.000000 0.000000 0.000000 0.034302 0.000000 -0.003293
# 5 -0.005494 -0.000525 -0.004520 0.000000 0.041670 0.000000
# 6 0.000000 0.000000 0.000000 -0.003293 0.000000 0.039957
#
#
# Mechanical properties :
#
#
# Convention : Reuss Voigt Hill
#
# Bulk Modulus (GPa) = 42.75628 51.35087 47.05358
# Shear Modulus (GPa) = 25.90711 27.94213 26.92462
#
# Velocity S-wave (km/s) = 3.71449 3.85762 3.78673
# Velocity P-wave (km/s) = 6.41618 6.86947 6.64669
#
# Compressibility (1/GPa) = 0.02338838
#
# Stress axis : x y z
#
# Youngs Moduli (GPa) = 91.16922 51.63919 62.51338
#
# Poissons Ratio (x) = 0.20568 0.13502
# Poissons Ratio (y) = 0.36312 0.33308
# Poissons Ratio (z) = 0.19692 0.27514
#
# Static dielectric constant tensor:
#      x y z
#    x -0.992410 0.000000 -1.012300 
#    y 0.000000 3.556300 0.000000 
#    z -1.012300 0.000000 3.335230 
# 
# 
# High freq. dielectric constant tensor:
#      x y z
#    x 1.750890 0.000000 -0.007960 
#    y 0.000000 1.737980 0.000000 
#    z -0.007960 0.000000 1.713960 
# 
# From -- ./inp_files/60872.got.cif
#   From: 2010.06.25/outbox.cif.g09.slc.cpg/sg11_31_cif.got.tgz:60872.got - 2010.06.27 23:14:04.
