data_PCOD8077423
_publ_section_title
;
Structure prediction by ZEFSAII (Michael W. Deem and Ramdas Pophale) SiO2 
 PCOD8077423
Probable space group: P 21/M
;
_chemical_formula_sum "Si O2"
_cell_formula_units_Z 32
_cell_length_a 10.280211
_cell_length_b 8.734319
_cell_length_c 19.343995
_cell_angle_alpha 90.000000
_cell_angle_beta 57.101220
_cell_angle_gamma 90.000000
_cell_volume 1458.364005
_symmetry_space_group_name_H-M "P 21/M"
_symmetry_group_IT_number 11
_symmetry_cell_setting 'monoclinic'
loop_
_space_group_symop_operation_xyz
x,y,z
-x,1/2+y,-z
-x,-y,-z
x,1/2-y,z
loop_
_atom_site_type_symbol
_atom_site_label
_atom_site_fract_x
_atom_site_fract_y
_atom_site_fract_z
Si Si1 0.251121 0.081390 0.493218
Si Si2 0.804997 0.072955 0.624139
Si Si3 0.950798 0.424205 0.355087
Si Si4 0.474278 0.070025 0.214606
Si Si5 0.278466 0.425074 0.760751
Si Si6 0.956056 0.423594 0.806046
Si Si7 0.583711 0.421270 0.410254
Si Si8 0.397150 0.571448 0.088852
O O1 0.176344 0.250000 0.524859
O O2 0.423171 0.101178 0.414050
O O3 0.159606 0.979843 0.464009
O O4 0.228227 0.982259 0.574752
O O5 0.758798 0.250000 0.640235
O O6 0.668610 0.973917 0.696241
O O7 0.960712 0.041797 0.621136
O O8 0.981437 0.250000 0.367156
O O9 0.001585 0.450007 0.262994
O O10 0.481422 0.250000 0.202158
O O11 0.635457 0.017377 0.203488
O O12 0.447018 0.996602 0.147732
O O13 0.333905 0.250000 0.749633
O O14 0.309471 0.482391 0.673345
O O15 0.090228 0.438802 0.826094
O O16 0.959415 0.250000 0.774711
O O17 0.782219 0.462132 0.880768
O O18 0.500000 0.500000 0.500000
O O19 0.657781 0.250000 0.401785
O O20 0.429579 0.750000 0.083200
O O21 0.500000 0.500000 0.000000
#
# Coordination Sequence:
#
# PCOD8077423 Si02
#       8
#     4   4   4   4   4   4   4   4
#     4  11  23  38  54  79 120 166 218 276 331 381
#     4  12  23  38  60  86 121 166 217 272 329 387
#     4  12  24  37  58  88 125 169 220 274 330 386
#     4  12  24  42  68 101 135 173 219 268 329 400
#     4  11  23  41  66  95 130 176 224 272 329 391
#     4  10  23  43  67  96 132 173 218 266 325 392
#     4  11  23  37  55  80 118 169 224 279 330 384
#     4  11  24  46  76 107 138 171 211 265 326 397
#
# _framework density 21.942395000000001
#
# number of rings (size 3 to 8) (size 9 to 14) (size 15 to 20)
#    0.000    0.750    2.500    6.000    0.000    6.000 
#    0.000    0.625    0.000    0.000    0.000    0.000 
#    0.000    0.000    0.000    0.000    0.000    0.000 
#
# Total GULP energy -396608.586388 kJ/mol
# GULP energy per Si atom -12394.018325 kJ/mol
# Density = 2.189245 g / cm^3
# Si number density = 21.942395 Si / 1000 Ang^3
#
#
#
# Elastic Constant Matrix: (Units=GPa)
#
#
# Indices 1 2 3 4 5 6 
#
# 1 113.3228 47.6373 52.2401 0.0000 -14.9215 0.0000
# 2 47.6373 158.6624 48.3442 0.0000 -6.1073 0.0000
# 3 52.2401 48.3442 100.4372 0.0000 -13.5243 0.0000
# 4 0.0000 0.0000 0.0000 34.9160 0.0000 5.3275
# 5 -14.9215 -6.1073 -13.5243 0.0000 30.9918 0.0000
# 6 0.0000 0.0000 0.0000 5.3275 0.0000 31.8647
#
#
#
# Elastic Compliance Matrix: (Units=1/GPa)
#
#
# Indices 1 2 3 4 5 6 
#
# 1 0.012462 -0.002080 -0.005023 0.000000 0.003398 0.000000
# 2 -0.002080 0.007734 -0.002731 0.000000 -0.000669 0.000000
# 3 -0.005023 -0.002731 0.014327 0.000000 0.003296 0.000000
# 4 0.000000 0.000000 0.000000 0.029390 0.000000 -0.004914
# 5 0.003398 -0.000669 0.003296 0.000000 0.035209 0.000000
# 6 0.000000 0.000000 0.000000 -0.004914 0.000000 0.032204
#
#
# Mechanical properties :
#
#
# Convention : Reuss Voigt Hill
#
# Bulk Modulus (GPa) = 67.31712 74.31840 70.81776
# Shear Modulus (GPa) = 32.06273 34.50121 33.28197
#
# Velocity S-wave (km/s) = 3.82674 3.96959 3.89882
# Velocity P-wave (km/s) = 7.09020 7.41307 7.25343
#
# Compressibility (1/GPa) = 0.01485506
#
# Stress axis : x y z
#
# Youngs Moduli (GPa) = 80.24584 129.30732 69.79807
#
# Poissons Ratio (x) = 0.26900 0.35058
# Poissons Ratio (y) = 0.16694 0.19058
# Poissons Ratio (z) = 0.40306 0.35308
#
# Static dielectric constant tensor:
#      x y z
#    x 5.489580 0.000000 -0.448790 
#    y 0.000000 4.068550 0.000000 
#    z -0.448790 0.000000 3.776660 
# 
# 
# High freq. dielectric constant tensor:
#      x y z
#    x 1.900540 0.000000 -0.015890 
#    y 0.000000 1.878810 0.000000 
#    z -0.015890 0.000000 1.828680 
# 
# From -- ./inp_files/64355.got.cif
#   From: 2010.06.25/outbox.cif.g09.slc.cpg/sg11_33_cif.got.tgz:64355.got - 2010.06.27 23:14:04.
