data_PCOD8077725
_publ_section_title
;
Structure prediction by ZEFSAII (Michael W. Deem and Ramdas Pophale) SiO2 
 PCOD8077725
Probable space group: P 21/M
;
_chemical_formula_sum "Si O2"
_cell_formula_units_Z 28
_cell_length_a 18.901577
_cell_length_b 8.823192
_cell_length_c 15.280862
_cell_angle_alpha 90.000000
_cell_angle_beta 37.422011
_cell_angle_gamma 90.000000
_cell_volume 1548.628571
_symmetry_space_group_name_H-M "P 21/M"
_symmetry_group_IT_number 11
_symmetry_cell_setting 'monoclinic'
loop_
_space_group_symop_operation_xyz
x,y,z
-x,1/2+y,-z
-x,-y,-z
x,1/2-y,z
loop_
_atom_site_type_symbol
_atom_site_label
_atom_site_fract_x
_atom_site_fract_y
_atom_site_fract_z
Si Si1 0.374566 0.929083 0.611835
Si Si2 0.616342 0.572379 0.071649
Si Si3 0.653169 0.425115 0.672292
Si Si4 0.992662 0.427416 0.911989
Si Si5 0.377058 0.574964 0.106412
Si Si6 0.757402 0.574640 0.410822
Si Si7 0.761297 0.930096 0.096508
O O1 0.382224 0.750000 0.615458
O O2 0.500000 0.000000 0.500000
O O3 0.328589 0.970250 0.561100
O O4 0.286276 0.999155 0.767838
O O5 0.629043 0.750000 0.048250
O O6 0.481214 0.524021 0.209806
O O7 0.681818 0.515095 0.094027
O O8 0.680224 0.498987 0.923877
O O9 0.667269 0.250000 0.631378
O O10 0.694136 0.449587 0.733156
O O11 0.736768 0.529554 0.531865
O O12 0.966946 0.250000 0.947668
O O13 0.109758 0.459316 0.743618
O O14 0.891206 0.507113 0.955470
O O15 0.000000 0.500000 0.000000
O O16 0.396167 0.750000 0.068663
O O17 0.500000 0.500000 0.000000
O O18 0.726681 0.750000 0.425278
O O19 0.762555 0.750000 0.104735
#
# Coordination Sequence:
#
# PCOD8077725 Si02
#       7
#     4   4   4   4   4   4   4
#     4  12  24  37  55  78 109 144 177 218 271 325
#     4   9  19  34  53  80 112 143 175 218 269 324
#     4   9  18  33  53  80 112 144 177 216 271 325
#     4  11  23  39  58  78 104 142 188 232 274 320
#     4   9  17  30  51  78 109 143 177 216 261 321
#     4  11  23  37  55  79 107 140 183 228 269 320
#     4  11  22  37  57  81 110 142 182 227 271 324
#
# _framework density 18.080513
#
# number of rings (size 3 to 8) (size 9 to 14) (size 15 to 20)
#    0.000    1.714    1.429    4.714    0.000    6.857 
#    0.000    0.000    0.000    0.857    0.000    0.000 
#    0.000    0.000    0.000    0.000    0.000    0.000 
#
# Total GULP energy -347214.161471 kJ/mol
# GULP energy per Si atom -12400.505767 kJ/mol
# Density = 1.803936 g / cm^3
# Si number density = 18.080513 Si / 1000 Ang^3
#
#
#
# Elastic Constant Matrix: (Units=GPa)
#
#
# Indices 1 2 3 4 5 6 
#
# 1 52.1375 28.8664 42.4270 0.0000 12.7468 0.0000
# 2 28.8664 85.4286 47.2290 0.0000 3.5316 0.0000
# 3 42.4270 47.2290 102.5645 0.0000 9.8566 0.0000
# 4 0.0000 0.0000 0.0000 32.5545 0.0000 3.1700
# 5 12.7468 3.5316 9.8566 0.0000 31.3269 0.0000
# 6 0.0000 0.0000 0.0000 3.1700 0.0000 32.3044
#
#
#
# Elastic Compliance Matrix: (Units=1/GPa)
#
#
# Indices 1 2 3 4 5 6 
#
# 1 0.032616 -0.004928 -0.010312 0.000000 -0.009471 0.000000
# 2 -0.004928 0.016456 -0.005727 0.000000 0.001952 0.000000
# 3 -0.010312 -0.005727 0.016692 0.000000 -0.000410 0.000000
# 4 0.000000 0.000000 0.000000 0.031014 0.000000 -0.003043
# 5 -0.009471 0.001952 -0.000410 0.000000 0.035684 0.000000
# 6 0.000000 0.000000 0.000000 -0.003043 0.000000 0.031254
#
#
# Mechanical properties :
#
#
# Convention : Reuss Voigt Hill
#
# Bulk Modulus (GPa) = 41.96447 53.01950 47.49198
# Shear Modulus (GPa) = 23.40877 27.34436 25.37657
#
# Velocity S-wave (km/s) = 3.60209 3.89313 3.75044
# Velocity P-wave (km/s) = 6.36869 7.04247 6.71404
#
# Compressibility (1/GPa) = 0.02382969
#
# Stress axis : x y z
#
# Youngs Moduli (GPa) = 30.65986 60.76706 59.90774
#
# Poissons Ratio (x) = 0.29947 0.61780
# Poissons Ratio (y) = 0.15110 0.34308
# Poissons Ratio (z) = 0.31618 0.34800
#
# Static dielectric constant tensor:
#      x y z
#    x 3.569260 0.000000 0.226060 
#    y 0.000000 3.512110 0.000000 
#    z 0.226060 0.000000 3.470290 
# 
# 
# High freq. dielectric constant tensor:
#      x y z
#    x 1.691850 0.000000 0.018280 
#    y 0.000000 1.712520 0.000000 
#    z 0.018280 0.000000 1.689810 
# 
# From -- ./inp_files/53229.got.cif
#   From: 2010.06.25/outbox.cif.g09.slc.cpg/sg11_27_cif.got.tgz:53229.got - 2010.06.27 23:14:04.
