data_PCOD8077893
_publ_section_title
;
Structure prediction by ZEFSAII (Michael W. Deem and Ramdas Pophale) SiO2 
 PCOD8077893
Probable space group: P 21/M
;
_chemical_formula_sum "Si O2"
_cell_formula_units_Z 32
_cell_length_a 7.854061
_cell_length_b 27.815921
_cell_length_c 11.440272
_cell_angle_alpha 90.000000
_cell_angle_beta 143.796625
_cell_angle_gamma 90.000000
_cell_volume 1476.238835
_symmetry_space_group_name_H-M "P 21/M"
_symmetry_group_IT_number 11
_symmetry_cell_setting 'monoclinic'
loop_
_space_group_symop_operation_xyz
x,y,z
-x,1/2+y,-z
-x,-y,-z
x,1/2-y,z
loop_
_atom_site_type_symbol
_atom_site_label
_atom_site_fract_x
_atom_site_fract_y
_atom_site_fract_z
Si Si1 0.300298 0.864455 0.515735
Si Si2 0.291895 0.954810 0.366173
Si Si3 0.631759 0.978770 0.957358
Si Si4 0.328059 0.647489 0.990592
Si Si5 0.163509 0.305330 0.141883
Si Si6 0.439024 0.067215 0.712027
Si Si7 0.829575 0.695295 0.129384
Si Si8 0.171543 0.901139 0.679228
O O1 0.310530 0.921223 0.490767
O O2 0.605097 0.838746 0.665610
O O3 0.192706 0.860333 0.590560
O O4 0.081522 0.838968 0.309032
O O5 0.395386 0.921055 0.316269
O O6 0.970367 0.972604 0.162403
O O7 0.500000 0.000000 0.500000
O O8 0.478739 0.928289 0.846033
O O9 0.500000 0.000000 0.000000
O O10 0.562978 0.015322 0.815192
O O11 0.123499 0.622427 0.780156
O O12 0.148066 0.678423 0.983767
O O13 0.505678 0.607094 0.158940
O O14 0.538543 0.682468 0.036379
O O15 0.214737 0.250000 0.204693
O O16 0.200540 0.312839 0.024853
O O17 0.097411 0.063852 0.496721
O O18 0.910454 0.750000 0.203454
#
# Coordination Sequence:
#
# PCOD8077893 Si02
#       8
#     4   4   4   4   4   4   4   4
#     4  12  24  45  72  99 142 184 234 289 362 420
#     4  12  27  44  69 106 143 192 239 300 352 425
#     4  12  24  43  67  96 141 186 242 285 348 413
#     4  12  24  44  72 104 139 182 235 290 359 423
#     4  11  26  45  72 104 137 183 233 292 358 430
#     4  12  25  43  67  98 144 185 238 293 349 419
#     4  11  24  48  73 102 140 182 233 295 361 428
#     4  12  24  43  69 102 137 190 231 293 349 420
#
# _framework density 21.67671
#
# number of rings (size 3 to 8) (size 9 to 14) (size 15 to 20)
#    0.000    0.250    3.750    6.000    3.500    0.000 
#    0.000    0.000    0.000    0.000    0.000    0.000 
#    0.000    0.000    0.000    0.000    0.000    0.000 
#
# Total GULP energy -396935.909728 kJ/mol
# GULP energy per Si atom -12404.247179 kJ/mol
# Density = 2.162737 g / cm^3
# Si number density = 21.676710 Si / 1000 Ang^3
#
#
#
# Elastic Constant Matrix: (Units=GPa)
#
#
# Indices 1 2 3 4 5 6 
#
# 1 120.3061 30.1225 37.6755 0.0000 10.0839 0.0000
# 2 30.1225 108.4590 49.8713 0.0000 6.5972 0.0000
# 3 37.6755 49.8713 124.2624 0.0000 20.7085 0.0000
# 4 0.0000 0.0000 0.0000 191.5861 0.0000 -46.7452
# 5 10.0839 6.5972 20.7085 0.0000 42.0775 0.0000
# 6 0.0000 0.0000 0.0000 -46.7452 0.0000 50.1026
#
#
#
# Elastic Compliance Matrix: (Units=1/GPa)
#
#
# Indices 1 2 3 4 5 6 
#
# 1 0.009443 -0.001621 -0.002045 0.000000 -0.001002 0.000000
# 2 -0.001621 0.011595 -0.004274 0.000000 0.000674 0.000000
# 3 -0.002045 -0.004274 0.011100 0.000000 -0.004303 0.000000
# 4 0.000000 0.000000 0.000000 0.006758 0.000000 0.006305
# 5 -0.001002 0.000674 -0.004303 0.000000 0.026018 0.000000
# 6 0.000000 0.000000 0.000000 0.006305 0.000000 0.025842
#
#
# Mechanical properties :
#
#
# Convention : Reuss Voigt Hill
#
# Bulk Modulus (GPa) = 61.51564 65.37402 63.44483
# Shear Modulus (GPa) = 44.62116 72.44379 58.53248
#
# Velocity S-wave (km/s) = 4.54197 5.78728 5.20203
# Velocity P-wave (km/s) = 7.47973 8.65338 8.08787
#
# Compressibility (1/GPa) = 0.01625603
#
# Stress axis : x y z
#
# Youngs Moduli (GPa) = 105.90383 86.24669 90.08964
#
# Poissons Ratio (x) = 0.13981 0.18426
# Poissons Ratio (y) = 0.17168 0.38506
# Poissons Ratio (z) = 0.21661 0.36864
#
# Static dielectric constant tensor:
#      x y z
#    x 4.054630 0.000000 -0.363410 
#    y 0.000000 14.072470 0.000000 
#    z -0.363410 0.000000 1.527240 
# 
# 
# High freq. dielectric constant tensor:
#      x y z
#    x 1.866940 0.000000 -0.006340 
#    y 0.000000 1.846940 0.000000 
#    z -0.006340 0.000000 1.863670 
# 
# From -- ./inp_files/33227.got.cif
#   From: 2010.06.25/outbox.cif.g09.slc.cpg/sg11_17_cif.got.tgz:33227.got - 2010.06.27 23:14:04.
