data_PCOD8077894
_publ_section_title
;
Structure prediction by ZEFSAII (Michael W. Deem and Ramdas Pophale) SiO2 
 PCOD8077894
Probable space group: P 21/M
;
_chemical_formula_sum "Si O2"
_cell_formula_units_Z 18
_cell_length_a 10.943720
_cell_length_b 18.620989
_cell_length_c 7.927570
_cell_angle_alpha 90.000000
_cell_angle_beta 153.398084
_cell_angle_gamma 90.000000
_cell_volume 723.404510
_symmetry_space_group_name_H-M "P 21/M"
_symmetry_group_IT_number 11
_symmetry_cell_setting 'monoclinic'
loop_
_space_group_symop_operation_xyz
x,y,z
-x,1/2+y,-z
-x,-y,-z
x,1/2-y,z
loop_
_atom_site_type_symbol
_atom_site_label
_atom_site_fract_x
_atom_site_fract_y
_atom_site_fract_z
Si Si1 0.757827 0.104822 0.539286
Si Si2 0.924467 0.750000 0.535334
Si Si3 0.088792 0.750000 0.377559
Si Si4 0.308747 0.250000 0.405641
Si Si5 0.206425 0.019749 0.900426
Si Si6 0.715677 0.131545 0.863368
O O1 0.838038 0.123313 0.828964
O O2 0.731030 0.177247 0.391195
O O3 0.020745 0.058769 0.809300
O O4 0.463158 0.066981 0.154904
O O5 0.868434 0.750000 0.263242
O O6 0.685722 0.750000 0.380968
O O7 0.088225 0.676829 0.773253
O O8 0.970925 0.750000 0.042187
O O9 0.440129 0.176280 0.504590
O O10 0.000000 0.000000 0.500000
O O11 0.343528 0.947209 0.138413
#
# Coordination Sequence:
#
# PCOD8077894 Si02
#       6
#     4   2   2   2   4   4
#     4  12  26  49  79 112 153 210 249 323 387 458
#     4  11  25  47  78 109 155 202 256 321 376 460
#     4  12  25  52  77 117 150 203 265 315 389 459
#     4  11  24  51  77 112 161 203 257 324 387 455
#     4  12  28  49  77 115 157 202 261 319 386 460
#     4  11  25  48  74 114 152 205 257 316 388 461
#
# _framework density 24.882342999999999
#
# number of rings (size 3 to 8) (size 9 to 14) (size 15 to 20)
#    0.000    0.444    2.222    5.333    3.111    0.889 
#   28.000    1.111    0.000    0.000    0.000    0.000 
#    0.000    0.000    0.000    0.000    0.000    0.000 
#
# Total GULP energy -223047.395882 kJ/mol
# GULP energy per Si atom -12391.521993 kJ/mol
# Density = 2.482571 g / cm^3
# Si number density = 24.882343 Si / 1000 Ang^3
#
#
#
# Elastic Constant Matrix: (Units=GPa)
#
#
# Indices 1 2 3 4 5 6 
#
# 1 143.7784 83.3179 30.4060 0.0000 -0.4595 0.0000
# 2 83.3179 209.5270 53.7665 0.0000 19.9810 0.0000
# 3 30.4060 53.7665 73.2821 0.0000 16.0525 0.0000
# 4 0.0000 0.0000 0.0000 -25.9453 0.0000 14.8018
# 5 -0.4595 19.9810 16.0525 0.0000 50.1740 0.0000
# 6 0.0000 0.0000 0.0000 14.8018 0.0000 39.4011
#
#
#
# Elastic Compliance Matrix: (Units=1/GPa)
#
#
# Indices 1 2 3 4 5 6 
#
# 1 0.009338 -0.003448 -0.001790 0.000000 0.002031 0.000000
# 2 -0.003448 0.007203 -0.003461 0.000000 -0.001793 0.000000
# 3 -0.001790 -0.003461 0.017883 0.000000 -0.004359 0.000000
# 4 0.000000 0.000000 0.000000 -0.031740 0.000000 0.011924
# 5 0.002031 -0.001793 -0.004359 0.000000 0.022058 0.000000
# 6 0.000000 0.000000 0.000000 0.011924 0.000000 0.020901
#
#
# Mechanical properties :
#
#
# Convention : Reuss Voigt Hill
#
# Bulk Modulus (GPa) = 58.73418 84.61869 71.67644
# Shear Modulus (GPa) = 72.76354 29.99909 51.38131
#
# Velocity S-wave (km/s) = 5.41355 3.47600 4.54912
# Velocity P-wave (km/s) = 7.92031 7.08459 7.51408
#
# Compressibility (1/GPa) = 0.01702586
#
# Stress axis : x y z
#
# Youngs Moduli (GPa) = 107.08897 138.83521 55.91854
#
# Poissons Ratio (x) = 0.47865 0.10009
# Poissons Ratio (y) = 0.36920 0.19356
# Poissons Ratio (z) = 0.19168 0.48058
#
# Static dielectric constant tensor:
#      x y z
#    x 4.678120 0.000000 0.002540 
#    y 0.000000 4.169050 0.000000 
#    z 0.002540 0.000000 4.179550 
# 
# 
# High freq. dielectric constant tensor:
#      x y z
#    x 2.006180 0.000000 -0.001920 
#    y 0.000000 2.021380 0.000000 
#    z -0.001920 0.000000 1.968490 
# 
# From -- ./inp_files/1861.got.cif
#   From: 2010.06.25/outbox.cif.g09.slc.cpg/sg11_1_cif.got.tgz:1861.got - 2010.06.27 23:14:04.
