data_PCOD8077080
_publ_section_title
;
Structure prediction by ZEFSAII (Michael W. Deem and Ramdas Pophale) SiO2 
 PCOD8077080
Probable space group: P 21/M
;
_chemical_formula_sum "Si O2"
_cell_formula_units_Z 32
_cell_length_a 25.027198
_cell_length_b 8.782760
_cell_length_c 15.253384
_cell_angle_alpha 90.000000
_cell_angle_beta 27.666894
_cell_angle_gamma 90.000000
_cell_volume 1556.813353
_symmetry_space_group_name_H-M "P 21/M"
_symmetry_group_IT_number 11
_symmetry_cell_setting 'monoclinic'
loop_
_space_group_symop_operation_xyz
x,y,z
-x,1/2+y,-z
-x,-y,-z
x,1/2-y,z
loop_
_atom_site_type_symbol
_atom_site_label
_atom_site_fract_x
_atom_site_fract_y
_atom_site_fract_z
Si Si1 0.095569 0.071269 0.299187
Si Si2 0.659369 0.929686 0.984720
Si Si3 0.022248 0.071622 0.873845
Si Si4 0.864054 0.930657 0.955183
Si Si5 0.614680 0.574817 0.368967
Si Si6 0.386015 0.923412 0.130136
Si Si7 0.430442 0.073726 0.368317
Si Si8 0.256271 0.577933 0.493321
O O1 0.082564 0.250000 0.326933
O O2 0.220466 0.017678 0.149017
O O3 0.082379 0.021162 0.216585
O O4 0.000000 0.000000 0.500000
O O5 0.639383 0.750000 0.021938
O O6 0.660482 0.978682 0.882454
O O7 0.561401 0.016332 0.181776
O O8 0.003560 0.250000 0.907478
O O9 0.152326 0.036876 0.658192
O O10 0.936072 0.006506 0.927253
O O11 0.000000 0.000000 0.000000
O O12 0.868902 0.750000 0.961614
O O13 0.731197 0.987620 0.154123
O O14 0.500000 0.500000 0.500000
O O15 0.600504 0.750000 0.366775
O O16 0.628442 0.546657 0.452556
O O17 0.412964 0.750000 0.061949
O O18 0.287266 0.926226 0.346330
O O19 0.500000 0.000000 0.000000
O O20 0.426430 0.250000 0.346956
O O21 0.365550 0.974594 0.390372
O O22 0.222285 0.750000 0.570442
#
# Coordination Sequence:
#
# PCOD8077080 Si02
#       8
#     4   4   4   4   4   4   4   4
#     4  10  24  43  65  91 124 167 216 267 321 380
#     4  11  23  40  62  90 126 168 211 260 319 379
#     4  12  26  44  68  97 130 170 215 266 320 384
#     4  10  22  44  67  92 128 169 213 265 322 378
#     4  10  22  39  63  92 123 158 201 253 312 374
#     4  11  23  39  62  93 128 167 211 262 318 380
#     4  11  22  37  61  94 126 161 204 256 313 375
#     4  11  24  41  63  92 126 165 209 257 317 381
#
# _framework density 20.554808999999999
#
# number of rings (size 3 to 8) (size 9 to 14) (size 15 to 20)
#    0.000    1.250    1.250    4.125    1.750    6.500 
#    0.000    0.000    0.000    0.000    0.000    0.000 
#    0.000    0.000    0.000    0.000    0.000    0.000 
#
# Total GULP energy -396924.475261 kJ/mol
# GULP energy per Si atom -12403.889852 kJ/mol
# Density = 2.050803 g / cm^3
# Si number density = 20.554809 Si / 1000 Ang^3
#
#
#
# Elastic Constant Matrix: (Units=GPa)
#
#
# Indices 1 2 3 4 5 6 
#
# 1 127.6937 47.3647 56.2704 0.0000 -2.4970 0.0000
# 2 47.3647 70.9751 40.6309 0.0000 4.1587 0.0000
# 3 56.2704 40.6309 143.7954 0.0000 3.8221 0.0000
# 4 0.0000 0.0000 0.0000 37.9010 0.0000 -2.5145
# 5 -2.4970 4.1587 3.8221 0.0000 34.4684 0.0000
# 6 0.0000 0.0000 0.0000 -2.5145 0.0000 35.0121
#
#
#
# Elastic Compliance Matrix: (Units=1/GPa)
#
#
# Indices 1 2 3 4 5 6 
#
# 1 0.011350 -0.006099 -0.002768 0.000000 0.001865 0.000000
# 2 -0.006099 0.020164 -0.003244 0.000000 -0.002515 0.000000
# 3 -0.002768 -0.003244 0.008975 0.000000 -0.000804 0.000000
# 4 0.000000 0.000000 0.000000 0.026511 0.000000 0.001904
# 5 0.001865 -0.002515 -0.000804 0.000000 0.029540 0.000000
# 6 0.000000 0.000000 0.000000 0.001904 0.000000 0.028698
#
#
# Mechanical properties :
#
#
# Convention : Reuss Voigt Hill
#
# Bulk Modulus (GPa) = 61.47131 70.11069 65.79100
# Shear Modulus (GPa) = 32.28271 34.68951 33.48611
#
# Velocity S-wave (km/s) = 3.96734 4.11257 4.04061
# Velocity P-wave (km/s) = 7.13844 7.53221 7.33797
#
# Compressibility (1/GPa) = 0.01626775
#
# Stress axis : x y z
#
# Youngs Moduli (GPa) = 88.10931 49.59324 111.41614
#
# Poissons Ratio (x) = 0.30247 0.30835
# Poissons Ratio (y) = 0.53738 0.36144
# Poissons Ratio (z) = 0.24385 0.16088
#
# Static dielectric constant tensor:
#      x y z
#    x 3.777130 0.000000 0.138570 
#    y 0.000000 3.773890 0.000000 
#    z 0.138570 0.000000 3.878330 
# 
# 
# High freq. dielectric constant tensor:
#      x y z
#    x 1.814700 0.000000 0.005720 
#    y 0.000000 1.805130 0.000000 
#    z 0.005720 0.000000 1.818210 
# 
# From -- ./inp_files/55634.got.cif
#   From: 2010.06.25/outbox.cif.g09.slc.cpg/sg11_28_cif.got.tgz:55634.got - 2010.06.27 23:14:04.
