data_PCOD8077836
_publ_section_title
;
Structure prediction by ZEFSAII (Michael W. Deem and Ramdas Pophale) SiO2 
 PCOD8077836
Probable space group: P 21/M
;
_chemical_formula_sum "Si O2"
_cell_formula_units_Z 24
_cell_length_a 24.252504
_cell_length_b 8.770064
_cell_length_c 18.181894
_cell_angle_alpha 90.000000
_cell_angle_beta 17.828154
_cell_angle_gamma 90.000000
_cell_volume 1183.999044
_symmetry_space_group_name_H-M "P 21/M"
_symmetry_group_IT_number 11
_symmetry_cell_setting 'monoclinic'
loop_
_space_group_symop_operation_xyz
x,y,z
-x,1/2+y,-z
-x,-y,-z
x,1/2-y,z
loop_
_atom_site_type_symbol
_atom_site_label
_atom_site_fract_x
_atom_site_fract_y
_atom_site_fract_z
Si Si1 0.335591 0.073325 0.459471
Si Si2 0.057418 0.925835 0.095176
Si Si3 0.967539 0.070367 0.706721
Si Si4 0.174618 0.074822 0.811790
Si Si5 0.316891 0.931514 0.201931
Si Si6 0.684776 0.570031 0.954381
O O1 0.378045 0.250000 0.386288
O O2 0.145880 0.021513 0.665505
O O3 0.336302 0.049481 0.547671
O O4 0.483418 0.965026 0.236056
O O5 0.074001 0.750000 0.055859
O O6 0.103343 0.962473 0.121063
O O7 0.206010 0.006561 0.853630
O O8 0.990653 0.250000 0.662832
O O9 0.158248 0.987313 0.456420
O O10 0.823836 0.999799 0.834779
O O11 0.133440 0.250000 0.874080
O O12 0.000000 0.000000 0.000000
O O13 0.329012 0.750000 0.186123
O O14 0.275002 0.992625 0.174235
O O15 0.500000 0.000000 0.000000
O O16 0.713672 0.750000 0.910975
#
# Coordination Sequence:
#
# PCOD8077836 Si02
#       6
#     4   4   4   4   4   4
#     4   9  18  35  57  84 115 150 192 241 290 340
#     4   9  19  35  58  85 114 148 190 238 289 340
#     4  11  23  41  62  86 119 157 192 235 288 343
#     4   9  17  30  53  82 114 148 188 237 287 337
#     4  12  25  43  66  91 117 148 189 237 285 341
#     4  12  25  40  59  86 118 155 195 238 287 343
#
# _framework density 20.270287
#
# number of rings (size 3 to 8) (size 9 to 14) (size 15 to 20)
#    0.000    1.667    0.000    6.500    0.000    6.000 
#    0.000    0.833    0.000    0.000    0.000    0.000 
#    0.000    0.000    0.000    0.000    0.000    0.000 
#
# Total GULP energy -297580.970444 kJ/mol
# GULP energy per Si atom -12399.207102 kJ/mol
# Density = 2.022415 g / cm^3
# Si number density = 20.270287 Si / 1000 Ang^3
#
#
#
# Elastic Constant Matrix: (Units=GPa)
#
#
# Indices 1 2 3 4 5 6 
#
# 1 119.9057 41.9892 8.7199 0.0000 7.9797 0.0000
# 2 41.9892 125.3322 15.6577 0.0000 10.7424 0.0000
# 3 8.7199 15.6577 20.5357 0.0000 8.6305 0.0000
# 4 0.0000 0.0000 0.0000 36.8919 0.0000 4.5189
# 5 7.9797 10.7424 8.6305 0.0000 31.5989 0.0000
# 6 0.0000 0.0000 0.0000 4.5189 0.0000 36.7777
#
#
#
# Elastic Compliance Matrix: (Units=1/GPa)
#
#
# Indices 1 2 3 4 5 6 
#
# 1 0.009536 -0.002934 -0.001377 0.000000 -0.001035 0.000000
# 2 -0.002934 0.009770 -0.005783 0.000000 -0.001001 0.000000
# 3 -0.001377 -0.005783 0.059553 0.000000 -0.013952 0.000000
# 4 0.000000 0.000000 0.000000 0.027520 0.000000 -0.003381
# 5 -0.001035 -0.001001 -0.013952 0.000000 0.036059 0.000000
# 6 0.000000 0.000000 0.000000 -0.003381 0.000000 0.027606
#
#
# Mechanical properties :
#
#
# Convention : Reuss Voigt Hill
#
# Bulk Modulus (GPa) = 17.04412 44.27858 30.66135
# Shear Modulus (GPa) = 23.83330 34.34747 29.09038
#
# Velocity S-wave (km/s) = 3.43268 4.12086 3.79241
# Velocity P-wave (km/s) = 4.91301 6.67334 5.85966
#
# Compressibility (1/GPa) = 0.05867125
#
# Stress axis : x y z
#
# Youngs Moduli (GPa) = 104.86131 102.35364 16.79169
#
# Poissons Ratio (x) = 0.30032 0.02313
# Poissons Ratio (y) = 0.30768 0.09710
# Poissons Ratio (z) = 0.14443 0.59188
#
# Static dielectric constant tensor:
#      x y z
#    x 3.958700 0.000000 0.424790 
#    y 0.000000 3.610810 0.000000 
#    z 0.424790 0.000000 3.806170 
# 
# 
# High freq. dielectric constant tensor:
#      x y z
#    x 1.799870 0.000000 0.023440 
#    y 0.000000 1.798930 0.000000 
#    z 0.023440 0.000000 1.782750 
# 
# From -- ./inp_files/28935.got.cif
#   From: 2010.06.25/outbox.cif.g09.slc.cpg/sg11_15_cif.got.tgz:28935.got - 2010.06.27 23:14:04.
