data_PCOD8077211
_publ_section_title
;
Structure prediction by ZEFSAII (Michael W. Deem and Ramdas Pophale) SiO2 
 PCOD8077211
Probable space group: P 21/M
;
_chemical_formula_sum "Si O2"
_cell_formula_units_Z 28
_cell_length_a 12.465994
_cell_length_b 9.036114
_cell_length_c 14.394174
_cell_angle_alpha 90.000000
_cell_angle_beta 59.980308
_cell_angle_gamma 90.000000
_cell_volume 1403.911669
_symmetry_space_group_name_H-M "P 21/M"
_symmetry_group_IT_number 11
_symmetry_cell_setting 'monoclinic'
loop_
_space_group_symop_operation_xyz
x,y,z
-x,1/2+y,-z
-x,-y,-z
x,1/2-y,z
loop_
_atom_site_type_symbol
_atom_site_label
_atom_site_fract_x
_atom_site_fract_y
_atom_site_fract_z
Si Si1 0.950962 0.577115 0.798521
Si Si2 0.465743 0.082738 0.922506
Si Si3 0.776609 0.420880 0.021556
Si Si4 0.208650 0.580989 0.775192
Si Si5 0.901747 0.924357 0.608799
Si Si6 0.456852 0.075443 0.611966
Si Si7 0.653055 0.416588 0.680621
O O1 0.922928 0.750000 0.823876
O O2 0.864222 0.488936 0.905991
O O3 0.923711 0.524609 0.705485
O O4 0.093331 0.540038 0.759626
O O5 0.423733 0.250000 0.962752
O O6 0.588445 0.080718 0.808082
O O7 0.500000 0.000000 0.000000
O O8 0.355320 0.000749 0.918061
O O9 0.756325 0.250000 0.005407
O O10 0.834059 0.441622 0.099383
O O11 0.251090 0.750000 0.740348
O O12 0.320516 0.475045 0.699898
O O13 0.915992 0.750000 0.593307
O O14 0.766856 0.971603 0.632396
O O15 0.000000 0.000000 0.500000
O O16 0.453617 0.250000 0.600300
O O17 0.555179 0.027588 0.647150
O O18 0.500000 0.000000 0.500000
O O19 0.699504 0.250000 0.637538
#
# Coordination Sequence:
#
# PCOD8077211 Si02
#       7
#     4   4   4   4   4   4   4
#     4  10  23  42  63  89 125 168 208 254 312 367
#     4  11  22  38  61  90 125 165 205 252 307 366
#     4  11  22  37  61  94 127 162 206 255 306 368
#     4  10  22  41  64  93 128 165 207 255 308 371
#     4  11  25  43  65  91 122 162 209 258 309 366
#     4  11  24  42  65  94 125 163 207 258 314 370
#     4  10  23  43  64  88 124 163 203 252 308 366
#
# _framework density 19.944275000000001
#
# number of rings (size 3 to 8) (size 9 to 14) (size 15 to 20)
#    0.000    1.429    1.429    3.000    2.000    6.857 
#    0.000    0.000    0.000    0.000    0.000    0.000 
#    0.000    0.000    0.000    0.000    0.000    0.000 
#
# Total GULP energy -347334.212928 kJ/mol
# GULP energy per Si atom -12404.793319 kJ/mol
# Density = 1.989888 g / cm^3
# Si number density = 19.944275 Si / 1000 Ang^3
#
#
#
# Elastic Constant Matrix: (Units=GPa)
#
#
# Indices 1 2 3 4 5 6 
#
# 1 106.1886 47.1585 43.1756 0.0000 -11.8046 0.0000
# 2 47.1585 98.4350 57.4921 0.0000 -7.8106 0.0000
# 3 43.1756 57.4921 124.0139 0.0000 -4.2019 0.0000
# 4 0.0000 0.0000 0.0000 38.9894 0.0000 -4.3967
# 5 -11.8046 -7.8106 -4.2019 0.0000 28.3796 0.0000
# 6 0.0000 0.0000 0.0000 -4.3967 0.0000 36.2000
#
#
#
# Elastic Compliance Matrix: (Units=1/GPa)
#
#
# Indices 1 2 3 4 5 6 
#
# 1 0.012736 -0.004511 -0.002216 0.000000 0.003728 0.000000
# 2 -0.004511 0.015769 -0.005685 0.000000 0.001622 0.000000
# 3 -0.002216 -0.005685 0.011444 0.000000 -0.000792 0.000000
# 4 0.000000 0.000000 0.000000 0.026004 0.000000 0.003158
# 5 0.003728 0.001622 -0.000792 0.000000 0.037116 0.000000
# 6 0.000000 0.000000 0.000000 0.003158 0.000000 0.028008
#
#
# Mechanical properties :
#
#
# Convention : Reuss Voigt Hill
#
# Bulk Modulus (GPa) = 66.11987 69.36556 67.74272
# Shear Modulus (GPa) = 31.06652 32.76791 31.91722
#
# Velocity S-wave (km/s) = 3.95101 4.05776 4.00474
# Velocity P-wave (km/s) = 7.35107 7.53718 7.44471
#
# Compressibility (1/GPa) = 0.01512405
#
# Stress axis : x y z
#
# Youngs Moduli (GPa) = 78.51553 63.41388 87.38255
#
# Poissons Ratio (x) = 0.28609 0.19367
# Poissons Ratio (y) = 0.35422 0.49677
# Poissons Ratio (z) = 0.17402 0.36051
#
# Static dielectric constant tensor:
#      x y z
#    x 3.638470 0.000000 0.089890 
#    y 0.000000 3.768920 0.000000 
#    z 0.089890 0.000000 3.653630 
# 
# 
# High freq. dielectric constant tensor:
#      x y z
#    x 1.790060 0.000000 0.005120 
#    y 0.000000 1.783770 0.000000 
#    z 0.005120 0.000000 1.786560 
# 
# From -- ./inp_files/49158.got.cif
#   From: 2010.06.25/outbox.cif.g09.slc.cpg/sg11_25_cif.got.tgz:49158.got - 2010.06.27 23:14:04.
