data_PCOD8077716
_publ_section_title
;
Structure prediction by ZEFSAII (Michael W. Deem and Ramdas Pophale) SiO2 
 PCOD8077716
Probable space group: P 21/M
;
_chemical_formula_sum "Si O2"
_cell_formula_units_Z 32
_cell_length_a 26.544950
_cell_length_b 8.465746
_cell_length_c 21.074128
_cell_angle_alpha 90.000000
_cell_angle_beta 160.575407
_cell_angle_gamma 90.000000
_cell_volume 1574.978224
_symmetry_space_group_name_H-M "P 21/M"
_symmetry_group_IT_number 11
_symmetry_cell_setting 'monoclinic'
loop_
_space_group_symop_operation_xyz
x,y,z
-x,1/2+y,-z
-x,-y,-z
x,1/2-y,z
loop_
_atom_site_type_symbol
_atom_site_label
_atom_site_fract_x
_atom_site_fract_y
_atom_site_fract_z
Si Si1 0.054587 0.936651 0.998058
Si Si2 0.239676 0.568522 0.967868
Si Si3 0.369080 0.064517 0.388173
Si Si4 0.089731 0.564409 0.401841
Si Si5 0.879050 0.564570 0.431863
Si Si6 0.458451 0.934037 0.626804
Si Si7 0.202742 0.064880 0.405221
Si Si8 0.797578 0.929473 0.202839
O O1 0.075700 0.750000 0.026004
O O2 0.937037 0.988606 0.804591
O O3 0.212794 0.018709 0.168321
O O4 0.000000 0.000000 0.000000
O O5 0.201184 0.750000 0.933485
O O6 0.379634 0.520598 0.178140
O O7 0.285962 0.538291 0.948652
O O8 0.089974 0.470758 0.808364
O O9 0.383698 0.250000 0.413766
O O10 0.500000 0.000000 0.500000
O O11 0.372117 0.986324 0.460928
O O12 0.116098 0.750000 0.429144
O O13 0.180907 0.491804 0.570756
O O14 0.166118 0.481517 0.433010
O O15 0.924443 0.750000 0.487557
O O16 0.758192 0.534273 0.230586
O O17 0.023164 0.454330 0.590242
O O18 0.490943 0.750000 0.664073
O O19 0.354790 0.976749 0.563782
O O20 0.232438 0.250000 0.434503
O O21 0.755877 0.750000 0.136203
#
# Coordination Sequence:
#
# PCOD8077716 Si02
#       8
#     4   4   4   4   4   4   4   4
#     4  11  23  41  66  91 119 153 195 243 288 346
#     4  11  22  37  58  85 120 157 196 242 295 350
#     4  12  26  44  65  91 123 156 194 241 294 347
#     4  11  22  36  57  87 120 155 198 245 292 343
#     4   9  16  28  49  78 114 151 190 239 291 342
#     4  12  25  43  64  87 118 155 197 241 291 352
#     4  11  24  42  63  87 118 156 196 239 292 350
#     4   9  16  28  49  79 113 150 192 238 289 344
#
# _framework density 20.317741000000002
#
# number of rings (size 3 to 8) (size 9 to 14) (size 15 to 20)
#    0.000    1.250    1.250    7.500    1.750    3.000 
#    0.000    0.000    0.000    0.750    0.000    0.000 
#    0.000    0.000    0.000    0.000    0.000    0.000 
#
# Total GULP energy -396781.762280 kJ/mol
# GULP energy per Si atom -12399.430071 kJ/mol
# Density = 2.027150 g / cm^3
# Si number density = 20.317741 Si / 1000 Ang^3
#
#
#
# Elastic Constant Matrix: (Units=GPa)
#
#
# Indices 1 2 3 4 5 6 
#
# 1 102.7722 9.8980 5.5429 0.0000 -3.5659 0.0000
# 2 9.8980 70.5476 12.0191 0.0000 -4.9271 0.0000
# 3 5.5429 12.0191 29.5355 0.0000 8.1643 0.0000
# 4 0.0000 0.0000 0.0000 30.0529 0.0000 -2.2643
# 5 -3.5659 -4.9271 8.1643 0.0000 28.7660 0.0000
# 6 0.0000 0.0000 0.0000 -2.2643 0.0000 35.8057
#
#
#
# Elastic Compliance Matrix: (Units=1/GPa)
#
#
# Indices 1 2 3 4 5 6 
#
# 1 0.009983 -0.000958 -0.001932 0.000000 0.001622 0.000000
# 2 -0.000958 0.015942 -0.007628 0.000000 0.004777 0.000000
# 3 -0.001932 -0.007628 0.040966 0.000000 -0.013173 0.000000
# 4 0.000000 0.000000 0.000000 0.033434 0.000000 0.002114
# 5 0.001622 0.004777 -0.013173 0.000000 0.039521 0.000000
# 6 0.000000 0.000000 0.000000 0.002114 0.000000 0.028062
#
#
# Mechanical properties :
#
#
# Convention : Reuss Voigt Hill
#
# Bulk Modulus (GPa) = 21.80811 28.64170 25.22491
# Shear Modulus (GPa) = 24.48222 30.61793 27.55007
#
# Velocity S-wave (km/s) = 3.47503 3.88616 3.68633
# Velocity P-wave (km/s) = 5.18247 5.85353 5.52819
#
# Compressibility (1/GPa) = 0.04585450
#
# Stress axis : x y z
#
# Youngs Moduli (GPa) = 100.17025 62.72543 24.41075
#
# Poissons Ratio (x) = 0.06011 0.04716
# Poissons Ratio (y) = 0.09599 0.18621
# Poissons Ratio (z) = 0.19351 0.47848
#
# Static dielectric constant tensor:
#      x y z
#    x 3.966360 0.000000 -0.437440 
#    y 0.000000 3.785170 0.000000 
#    z -0.437440 0.000000 3.839710 
# 
# 
# High freq. dielectric constant tensor:
#      x y z
#    x 1.796360 0.000000 -0.025080 
#    y 0.000000 1.809030 0.000000 
#    z -0.025080 0.000000 1.771500 
# 
# From -- ./inp_files/67235.got.cif
#   From: 2010.06.25/outbox.cif.g09.slc.cpg/sg11_34_cif.got.tgz:67235.got - 2010.06.27 23:14:04.
