data_PCOD8077254
_publ_section_title
;
Structure prediction by ZEFSAII (Michael W. Deem and Ramdas Pophale) SiO2 
 PCOD8077254
Probable space group: P 21/M
;
_chemical_formula_sum "Si O2"
_cell_formula_units_Z 24
_cell_length_a 13.605609
_cell_length_b 10.443294
_cell_length_c 13.187496
_cell_angle_alpha 90.000000
_cell_angle_beta 44.197640
_cell_angle_gamma 90.000000
_cell_volume 1306.276384
_symmetry_space_group_name_H-M "P 21/M"
_symmetry_group_IT_number 11
_symmetry_cell_setting 'monoclinic'
loop_
_space_group_symop_operation_xyz
x,y,z
-x,1/2+y,-z
-x,-y,-z
x,1/2-y,z
loop_
_atom_site_type_symbol
_atom_site_label
_atom_site_fract_x
_atom_site_fract_y
_atom_site_fract_z
Si Si1 0.961788 0.607628 0.396171
Si Si2 0.595318 0.750000 0.172131
Si Si3 0.823318 0.606696 0.099956
Si Si4 0.063220 0.750000 0.665622
Si Si5 0.704626 0.250000 0.672457
Si Si6 0.777505 0.511964 0.699105
Si Si7 0.732342 0.750000 0.855872
Si Si8 0.063962 0.996831 0.789846
O O1 0.002694 0.750000 0.402333
O O2 0.817719 0.563562 0.557466
O O3 0.945066 0.608535 0.287134
O O4 0.082221 0.508052 0.337955
O O5 0.663536 0.623271 0.175431
O O6 0.427154 0.750000 0.308159
O O7 0.633047 0.750000 0.026080
O O8 0.892629 0.750000 0.056921
O O9 0.820995 0.537688 0.210960
O O10 0.912696 0.521760 0.955371
O O11 0.147775 0.750000 0.497143
O O12 0.112478 0.870550 0.695035
O O13 0.896603 0.750000 0.766692
O O14 0.693144 0.377989 0.750607
O O15 0.691904 0.623120 0.820749
#
# Coordination Sequence:
#
# PCOD8077254 Si02
#       8
#     4   2   4   2   2   4   2   4
#     4  11  19  30  52  88 119 140 178 250 293 331
#     4  10  22  42  58  77 118 159 192 230 296 340
#     4   9  19  36  55  83 105 151 190 229 286 344
#     4  12  18  34  58  86 109 154 175 240 292 325
#     4  12  24  38  57  85 120 152 200 236 274 354
#     4  11  21  33  55  85 115 154 193 227 288 347
#     4  12  20  40  61  80 121 155 189 238 294 347
#     4  11  18  31  59  84 114 136 194 237 286 336
#
# _framework density 18.372834999999998
#
# number of rings (size 3 to 8) (size 9 to 14) (size 15 to 20)
#    0.500    0.667    7.500    1.500    0.000    0.667 
#    0.000    0.833    0.000    1.000    0.000    0.000 
#    0.000    0.000    0.000    0.000    0.000    0.000 
#
# Total GULP energy -297484.808635 kJ/mol
# GULP energy per Si atom -12395.200360 kJ/mol
# Density = 1.833102 g / cm^3
# Si number density = 18.372835 Si / 1000 Ang^3
#
#
#
# Elastic Constant Matrix: (Units=GPa)
#
#
# Indices 1 2 3 4 5 6 
#
# 1 64.7995 15.3700 25.3947 0.0000 15.2884 0.0000
# 2 15.3700 103.0871 11.6895 0.0000 14.2645 0.0000
# 3 25.3947 11.6895 46.5643 0.0000 18.3155 0.0000
# 4 0.0000 0.0000 0.0000 21.6758 0.0000 13.3151
# 5 15.2884 14.2645 18.3155 0.0000 31.1689 0.0000
# 6 0.0000 0.0000 0.0000 13.3151 0.0000 30.9549
#
#
#
# Elastic Compliance Matrix: (Units=1/GPa)
#
#
# Indices 1 2 3 4 5 6 
#
# 1 0.020288 -0.001445 -0.009166 0.000000 -0.003904 0.000000
# 2 -0.001445 0.010492 -0.000307 0.000000 -0.003913 0.000000
# 3 -0.009166 -0.000307 0.032162 0.000000 -0.014262 0.000000
# 4 0.000000 0.000000 0.000000 0.062702 0.000000 -0.026971
# 5 -0.003904 -0.003913 -0.014262 0.000000 0.044170 0.000000
# 6 0.000000 0.000000 0.000000 -0.026971 0.000000 0.043907
#
#
# Mechanical properties :
#
#
# Convention : Reuss Voigt Hill
#
# Bulk Modulus (GPa) = 24.32771 35.48436 29.90603
# Shear Modulus (GPa) = 20.05942 27.55968 23.80955
#
# Velocity S-wave (km/s) = 3.30782 3.87722 3.60378
# Velocity P-wave (km/s) = 5.27814 6.27687 5.79905
#
# Compressibility (1/GPa) = 0.04110539
#
# Stress axis : x y z
#
# Youngs Moduli (GPa) = 49.28946 95.30871 31.09290
#
# Poissons Ratio (x) = 0.13775 0.28501
# Poissons Ratio (y) = 0.07124 0.00954
# Poissons Ratio (z) = 0.45180 0.02923
#
# Static dielectric constant tensor:
#      x y z
#    x 3.164260 0.000000 0.335320 
#    y 0.000000 3.537890 0.000000 
#    z 0.335320 0.000000 3.133410 
# 
# 
# High freq. dielectric constant tensor:
#      x y z
#    x 1.684640 0.000000 0.036510 
#    y 0.000000 1.722820 0.000000 
#    z 0.036510 0.000000 1.687650 
# 
# From -- ./inp_files/34707.got.cif
#   From: 2010.06.25/outbox.cif.g09.slc.cpg/sg11_18_cif.got.tgz:34707.got - 2010.06.27 23:14:04.
