data_PCOD8077889
_publ_section_title
;
Structure prediction by ZEFSAII (Michael W. Deem and Ramdas Pophale) SiO2 
 PCOD8077889
Probable space group: P 21/M
;
_chemical_formula_sum "Si O2"
_cell_formula_units_Z 20
_cell_length_a 11.946676
_cell_length_b 8.350593
_cell_length_c 9.535152
_cell_angle_alpha 90.000000
_cell_angle_beta 76.513961
_cell_angle_gamma 90.000000
_cell_volume 925.015332
_symmetry_space_group_name_H-M "P 21/M"
_symmetry_group_IT_number 11
_symmetry_cell_setting 'monoclinic'
loop_
_space_group_symop_operation_xyz
x,y,z
-x,1/2+y,-z
-x,-y,-z
x,1/2-y,z
loop_
_atom_site_type_symbol
_atom_site_label
_atom_site_fract_x
_atom_site_fract_y
_atom_site_fract_z
Si Si1 0.159800 0.066176 0.102952
Si Si2 0.472351 0.560703 0.660127
Si Si3 0.211350 0.563386 0.793000
Si Si4 0.030638 0.435154 0.643842
Si Si5 0.600969 0.063730 0.874841
O O1 0.124690 0.250000 0.135170
O O2 0.073642 0.958387 0.217828
O O3 0.286933 0.036945 0.122439
O O4 0.151538 0.026342 0.940519
O O5 0.500000 0.500000 0.500000
O O6 0.489196 0.750000 0.669574
O O7 0.343589 0.508845 0.740696
O O8 0.565270 0.467165 0.726037
O O9 0.204012 0.750000 0.826028
O O10 0.144497 0.522636 0.669257
O O11 0.059755 0.250000 0.621184
O O12 0.000000 0.500000 0.500000
O O13 0.624818 0.250000 0.897156
O O14 0.500000 0.000000 0.000000
#
# Coordination Sequence:
#
# PCOD8077889 Si02
#       5
#     4   4   4   4   4
#     4  12  25  44  71 100 133 176 224 273 330 394
#     4  11  25  43  67  98 138 179 221 272 330 392
#     4  11  24  45  70  98 134 176 224 274 329 394
#     4  12  27  47  70  98 134 174 221 276 335 395
#     4  12  24  42  68 100 137 175 221 272 328 392
#
# _framework density 21.621261000000001
#
# number of rings (size 3 to 8) (size 9 to 14) (size 15 to 20)
#    0.000    0.400    2.000    7.200    2.800    2.400 
#    0.000    0.000    0.000    0.000    0.000    0.000 
#    0.000    0.000    0.000    0.000    0.000    0.000 
#
# Total GULP energy -248154.173770 kJ/mol
# GULP energy per Si atom -12407.708688 kJ/mol
# Density = 2.157205 g / cm^3
# Si number density = 21.621261 Si / 1000 Ang^3
#
#
#
# Elastic Constant Matrix: (Units=GPa)
#
#
# Indices 1 2 3 4 5 6 
#
# 1 88.1528 13.1405 18.4113 0.0000 19.3739 0.0000
# 2 13.1405 75.8457 20.8933 0.0000 -1.9923 0.0000
# 3 18.4113 20.8933 122.7978 0.0000 18.3553 0.0000
# 4 0.0000 0.0000 0.0000 41.6745 0.0000 2.7523
# 5 19.3739 -1.9923 18.3553 0.0000 44.8789 0.0000
# 6 0.0000 0.0000 0.0000 2.7523 0.0000 36.2076
#
#
#
# Elastic Compliance Matrix: (Units=1/GPa)
#
#
# Indices 1 2 3 4 5 6 
#
# 1 0.013018 -0.002184 -0.000773 0.000000 -0.005401 0.000000
# 2 -0.002184 0.014319 -0.002498 0.000000 0.002600 0.000000
# 3 -0.000773 -0.002498 0.009214 0.000000 -0.003546 0.000000
# 4 0.000000 0.000000 0.000000 0.024117 0.000000 -0.001833
# 5 -0.005401 0.002600 -0.003546 0.000000 0.026179 0.000000
# 6 0.000000 0.000000 0.000000 -0.001833 0.000000 0.027758
#
#
# Mechanical properties :
#
#
# Convention : Reuss Voigt Hill
#
# Bulk Modulus (GPa) = 38.99832 43.52071 41.25951
# Shear Modulus (GPa) = 37.29612 40.17559 38.73585
#
# Velocity S-wave (km/s) = 4.15779 4.31531 4.23728
# Velocity P-wave (km/s) = 6.41294 6.70832 6.56229
#
# Compressibility (1/GPa) = 0.02564213
#
# Stress axis : x y z
#
# Youngs Moduli (GPa) = 76.81728 69.83535 108.52686
#
# Poissons Ratio (x) = 0.15254 0.08388
# Poissons Ratio (y) = 0.16780 0.27105
# Poissons Ratio (z) = 0.05937 0.17441
#
# Static dielectric constant tensor:
#      x y z
#    x 4.638080 0.000000 0.235730 
#    y 0.000000 5.656380 0.000000 
#    z 0.235730 0.000000 3.950870 
# 
# 
# High freq. dielectric constant tensor:
#      x y z
#    x 1.863650 0.000000 0.009640 
#    y 0.000000 1.860650 0.000000 
#    z 0.009640 0.000000 1.861040 
# 
# From -- ./inp_files/15932.got.cif
#   From: 2010.06.25/outbox.cif.g09.slc.cpg/sg11_8_cif.got.tgz:15932.got - 2010.06.27 23:14:04.
