data_PCOD8077761
_publ_section_title
;
Structure prediction by ZEFSAII (Michael W. Deem and Ramdas Pophale) SiO2 
 PCOD8077761
Probable space group: P 21/M
;
_chemical_formula_sum "Si O2"
_cell_formula_units_Z 28
_cell_length_a 9.434024
_cell_length_b 14.146647
_cell_length_c 11.768081
_cell_angle_alpha 90.000000
_cell_angle_beta 66.359993
_cell_angle_gamma 90.000000
_cell_volume 1438.768589
_symmetry_space_group_name_H-M "P 21/M"
_symmetry_group_IT_number 11
_symmetry_cell_setting 'monoclinic'
loop_
_space_group_symop_operation_xyz
x,y,z
-x,1/2+y,-z
-x,-y,-z
x,1/2-y,z
loop_
_atom_site_type_symbol
_atom_site_label
_atom_site_fract_x
_atom_site_fract_y
_atom_site_fract_z
Si Si1 0.097940 0.508943 0.355510
Si Si2 0.454082 0.508969 0.644404
Si Si3 0.558915 0.895492 0.999958
Si Si4 0.899138 0.499946 0.201193
Si Si5 0.349154 0.145309 0.271418
Si Si6 0.621072 0.145314 0.728678
Si Si7 0.109240 0.136853 0.000020
O O1 0.191900 0.412736 0.302943
O O2 0.212496 0.597089 0.330944
O O3 0.000000 0.500000 0.500000
O O4 0.985310 0.529422 0.287888
O O5 0.500000 0.500000 0.500000
O O6 0.273917 0.529587 0.712638
O O7 0.544564 0.597053 0.668507
O O8 0.495681 0.412738 0.696760
O O9 0.437757 0.845335 0.122600
O O10 0.728247 0.894491 0.999929
O O11 0.560420 0.845395 0.877277
O O12 0.500000 0.000000 0.000000
O O13 0.905684 0.592711 0.120329
O O14 0.973850 0.407224 0.120376
O O15 0.306500 0.250000 0.328117
O O16 0.635325 0.250000 0.671922
O O17 0.092504 0.250000 0.999964
#
# Coordination Sequence:
#
# PCOD8077761 Si02
#       7
#     4   4   4   4   4   4   4
#     4  11  24  43  63  89 127 169 213 260 311 370
#     4  11  24  43  63  89 127 169 213 260 311 370
#     4  12  19  40  67  95 126 162 206 264 324 380
#     4  11  22  40  64  92 128 165 206 256 322 383
#     4  11  23  41  67  94 122 164 214 261 314 376
#     4  11  23  41  67  94 122 164 214 261 314 376
#     4  11  23  38  62  95 129 163 201 261 327 379
#
# _framework density 19.461086999999999
#
# number of rings (size 3 to 8) (size 9 to 14) (size 15 to 20)
#    0.000    0.857    5.714    3.000    0.000    3.429 
#    0.000    2.857    0.000    0.000    0.000    0.000 
#    0.000    0.000    0.000    0.000    0.000    0.000 
#
# Total GULP energy -347272.384744 kJ/mol
# GULP energy per Si atom -12402.585169 kJ/mol
# Density = 1.941679 g / cm^3
# Si number density = 19.461087 Si / 1000 Ang^3
#
#
#
# Elastic Constant Matrix: (Units=GPa)
#
#
# Indices 1 2 3 4 5 6 
#
# 1 132.5771 53.0568 52.7778 0.0000 -2.7683 0.0000
# 2 53.0568 167.9910 34.0630 0.0000 -1.1702 0.0000
# 3 52.7778 34.0630 146.9313 0.0000 6.8371 0.0000
# 4 0.0000 0.0000 0.0000 -9.1753 0.0000 -0.9198
# 5 -2.7683 -1.1702 6.8371 0.0000 11.3438 0.0000
# 6 0.0000 0.0000 0.0000 -0.9198 0.0000 5.8865
#
#
#
# Elastic Compliance Matrix: (Units=1/GPa)
#
#
# Indices 1 2 3 4 5 6 
#
# 1 0.009867 -0.002446 -0.003166 0.000000 0.004064 0.000000
# 2 -0.002446 0.006880 -0.000742 0.000000 0.000560 0.000000
# 3 -0.003166 -0.000742 0.008390 0.000000 -0.005906 0.000000
# 4 0.000000 0.000000 0.000000 -0.107307 0.000000 -0.016768
# 5 0.004064 0.000560 -0.005906 0.000000 0.092763 0.000000
# 6 0.000000 0.000000 0.000000 -0.016768 0.000000 0.167260
#
#
# Mechanical properties :
#
#
# Convention : Reuss Voigt Hill
#
# Bulk Modulus (GPa) = 80.46655 80.81051 80.63853
# Shear Modulus (GPa) = 25.68002 22.11779 23.89890
#
# Velocity S-wave (km/s) = 3.63651 3.37488 3.50814
# Velocity P-wave (km/s) = 7.68567 7.53662 7.61151
#
# Compressibility (1/GPa) = 0.01242752
#
# Stress axis : x y z
#
# Youngs Moduli (GPa) = 101.34816 145.35624 119.18709
#
# Poissons Ratio (x) = 0.35554 0.37738
# Poissons Ratio (y) = 0.24790 0.08848
# Poissons Ratio (z) = 0.32090 0.10791
#
# Static dielectric constant tensor:
#      x y z
#    x 3.639600 0.000000 0.007580 
#    y 0.000000 3.521700 0.000000 
#    z 0.007580 0.000000 3.727600 
# 
# 
# High freq. dielectric constant tensor:
#      x y z
#    x 1.764960 0.000000 0.000340 
#    y 0.000000 1.756060 0.000000 
#    z 0.000340 0.000000 1.769510 
# 
# From -- ./inp_files/24923.got.cif
#   From: 2010.06.25/outbox.cif.g09.slc.cpg/sg11_13_cif.got.tgz:24923.got - 2010.06.27 23:14:04.
