data_PCOD8077988
_publ_section_title
;
Structure prediction by ZEFSAII (Michael W. Deem and Ramdas Pophale) SiO2 
 PCOD8077988
Probable space group: P 21/M
;
_chemical_formula_sum "Si O2"
_cell_formula_units_Z 32
_cell_length_a 27.000000
_cell_length_b 9.000000
_cell_length_c 21.000000
_cell_angle_alpha 90.000000
_cell_angle_beta 20.000000
_cell_angle_gamma 90.000000
_cell_volume 1745.328791
_symmetry_space_group_name_H-M "P 21/M"
_symmetry_group_IT_number 11
_symmetry_cell_setting 'monoclinic'
loop_
_space_group_symop_operation_xyz
x,y,z
-x,1/2+y,-z
-x,-y,-z
x,1/2-y,z
loop_
_atom_site_type_symbol
_atom_site_label
_atom_site_fract_x
_atom_site_fract_y
_atom_site_fract_z
Si Si1 0.910642 0.578186 0.661456
Si Si2 0.411951 0.917506 0.813625
Si Si3 0.883006 0.422877 0.905386
Si Si4 0.096799 0.925025 0.558416
Si Si5 0.273125 0.419138 0.802494
Si Si6 0.418462 0.075073 0.932569
Si Si7 0.593631 0.928301 0.830627
Si Si8 0.458294 0.081982 0.470084
O O1 0.918913 0.750000 0.636963
O O2 0.000000 0.500000 0.500000
O O3 0.978284 0.540150 0.647774
O O4 0.745752 0.523550 0.855991
O O5 0.403065 0.750000 0.852274
O O6 0.544323 0.930690 0.603365
O O7 0.451534 0.035984 0.819690
O O8 0.258696 0.958441 0.965734
O O9 0.921245 0.250000 0.859844
O O10 0.024310 0.511379 0.710144
O O11 0.850220 0.476764 0.017464
O O12 0.130031 0.750000 0.525341
O O13 0.242965 0.011461 0.363803
O O14 0.232788 0.250000 0.868176
O O15 0.431228 0.457337 0.639100
O O16 0.298129 0.441996 0.695561
O O17 0.442720 0.250000 0.915219
O O18 0.524363 0.978456 0.847963
O O19 0.593597 0.750000 0.837183
O O20 0.500000 0.000000 0.000000
O O21 0.513972 0.250000 0.420154
#
# Coordination Sequence:
#
# PCOD8077988 Si02
#       8
#     4   4   4   4   4   4   4   4
#     4  10  22  36  55  81 108 135 173 217 268 324
#     4   9  17  30  49  75 108 145 182 224 271 322
#     4  10  19  31  49  76 110 146 183 226 273 324
#     4  11  22  39  59  83 110 144 183 226 275 327
#     4   9  15  24  41  66 101 143 182 223 268 319
#     4  11  22  38  57  82 110 143 182 226 274 327
#     4  12  26  44  62  83 109 144 183 226 276 329
#     4   8  15  26  40  65 102 142 182 221 269 322
#
# _framework density 18.334654
#
# number of rings (size 3 to 8) (size 9 to 14) (size 15 to 20)
#    0.000    2.000    1.250    4.125    0.000    6.500 
#    0.000    0.000    0.000    0.000    0.000    0.875 
#    0.000    0.000    0.000    0.000    0.000    0.000 
#
# Total GULP energy -396631.910036 kJ/mol
# GULP energy per Si atom -12394.747189 kJ/mol
# Density = 1.829292 g / cm^3
# Si number density = 18.334654 Si / 1000 Ang^3
#
#
#
# Elastic Constant Matrix: (Units=GPa)
#
#
# Indices 1 2 3 4 5 6 
#
# 1 41.7951 30.1856 22.9366 0.0000 14.6064 0.0000
# 2 30.1856 100.4901 43.6211 0.0000 8.2306 0.0000
# 3 22.9366 43.6211 86.5141 0.0000 26.4240 0.0000
# 4 0.0000 0.0000 0.0000 34.4281 0.0000 5.1636
# 5 14.6064 8.2306 26.4240 0.0000 35.5199 0.0000
# 6 0.0000 0.0000 0.0000 5.1636 0.0000 27.8404
#
#
#
# Elastic Compliance Matrix: (Units=1/GPa)
#
#
# Indices 1 2 3 4 5 6 
#
# 1 0.035167 -0.009083 -0.001255 0.000000 -0.011423 0.000000
# 2 -0.009083 0.015241 -0.006908 0.000000 0.005343 0.000000
# 3 -0.001255 -0.006908 0.019059 0.000000 -0.012061 0.000000
# 4 0.000000 0.000000 0.000000 0.029877 0.000000 -0.005541
# 5 -0.011423 0.005343 -0.012061 0.000000 0.040585 0.000000
# 6 0.000000 0.000000 0.000000 -0.005541 0.000000 0.036947
#
#
# Mechanical properties :
#
#
# Convention : Reuss Voigt Hill
#
# Bulk Modulus (GPa) = 28.59255 46.92065 37.75660
# Shear Modulus (GPa) = 22.41885 28.36142 25.39014
#
# Velocity S-wave (km/s) = 3.50059 3.93730 3.72535
# Velocity P-wave (km/s) = 5.65398 6.80563 6.25636
#
# Compressibility (1/GPa) = 0.03497414
#
# Stress axis : x y z
#
# Youngs Moduli (GPa) = 28.43556 65.61281 52.46994
#
# Poissons Ratio (x) = 0.59599 0.06582
# Poissons Ratio (y) = 0.25829 0.36248
# Poissons Ratio (z) = 0.03567 0.45327
#
# Static dielectric constant tensor:
#      x y z
#    x 3.344020 0.000000 0.369660 
#    y 0.000000 3.605160 0.000000 
#    z 0.369660 0.000000 3.573490 
# 
# 
# High freq. dielectric constant tensor:
#      x y z
#    x 1.679640 0.000000 0.037330 
#    y 0.000000 1.726370 0.000000 
#    z 0.037330 0.000000 1.709510 
# 
# From -- ./inp_files/66977.got.cif
#   From: 2010.06.25/outbox.ucp.g09.slc.cvg/sg11_34_cif.got.tgz:66977.got - 2010.06.28 13:43:20.
