data_PCOD8077924
_publ_section_title
;
Structure prediction by ZEFSAII (Michael W. Deem and Ramdas Pophale) SiO2 
 PCOD8077924
Probable space group: P 21/M
;
_chemical_formula_sum "Si O2"
_cell_formula_units_Z 16
_cell_length_a 10.228706
_cell_length_b 14.145787
_cell_length_c 11.326224
_cell_angle_alpha 90.000000
_cell_angle_beta 25.998358
_cell_angle_gamma 90.000000
_cell_volume 718.372004
_symmetry_space_group_name_H-M "P 21/M"
_symmetry_group_IT_number 11
_symmetry_cell_setting 'monoclinic'
loop_
_space_group_symop_operation_xyz
x,y,z
-x,1/2+y,-z
-x,-y,-z
x,1/2-y,z
loop_
_atom_site_type_symbol
_atom_site_label
_atom_site_fract_x
_atom_site_fract_y
_atom_site_fract_z
Si Si1 0.777240 0.435676 0.252905
Si Si2 0.135615 0.750000 0.183984
Si Si3 0.455081 0.750000 0.686705
Si Si4 0.590148 0.399499 0.876188
Si Si5 0.062057 0.854835 0.631092
O O1 0.500000 0.500000 0.500000
O O2 0.688609 0.341600 0.255806
O O3 0.923543 0.410068 0.258379
O O4 0.000000 0.500000 0.000000
O O5 0.177582 0.844009 0.228663
O O6 0.812566 0.750000 0.384146
O O7 0.386104 0.750000 0.880727
O O8 0.752708 0.412457 0.617934
O O9 0.500000 0.500000 0.000000
O O10 0.285139 0.341110 0.116830
O O11 0.204723 0.750000 0.525038
#
# Coordination Sequence:
#
# PCOD8077924 Si02
#       5
#     4   2   2   4   4
#     4  12  28  48  75 107 143 191 243 298 362 427
#     4  12  26  46  72 104 152 184 232 295 365 424
#     4  12  28  48  72 106 150 188 234 301 363 432
#     4  12  27  45  74 105 142 189 238 294 357 429
#     4  12  24  50  73 100 142 189 245 297 350 426
#
# _framework density 22.272583999999998
#
# number of rings (size 3 to 8) (size 9 to 14) (size 15 to 20)
#    0.000    0.000    3.750    5.250   10.500    0.000 
#    0.000    0.000    0.000    0.000    0.000    0.000 
#    0.000    0.000    0.000    0.000    0.000    0.000 
#
# Total GULP energy -198486.552988 kJ/mol
# GULP energy per Si atom -12405.409562 kJ/mol
# Density = 2.222189 g / cm^3
# Si number density = 22.272584 Si / 1000 Ang^3
#
#
#
# Elastic Constant Matrix: (Units=GPa)
#
#
# Indices 1 2 3 4 5 6 
#
# 1 114.5641 73.7087 56.6366 0.0000 15.3381 0.0000
# 2 73.7087 173.3900 53.5365 0.0000 6.7785 0.0000
# 3 56.6366 53.5365 159.0619 0.0000 10.5708 0.0000
# 4 0.0000 0.0000 0.0000 39.8407 0.0000 -2.0721
# 5 15.3381 6.7785 10.5708 0.0000 50.1251 0.0000
# 6 0.0000 0.0000 0.0000 -2.0721 0.0000 4.8305
#
#
#
# Elastic Compliance Matrix: (Units=1/GPa)
#
#
# Indices 1 2 3 4 5 6 
#
# 1 0.013704 -0.004760 -0.003085 0.000000 -0.002899 0.000000
# 2 -0.004760 0.008098 -0.001070 0.000000 0.000587 0.000000
# 3 -0.003085 -0.001070 0.007782 0.000000 -0.000553 0.000000
# 4 0.000000 0.000000 0.000000 0.025673 0.000000 0.011013
# 5 -0.002899 0.000587 -0.000553 0.000000 0.020874 0.000000
# 6 0.000000 0.000000 0.000000 0.011013 0.000000 0.211744
#
#
# Mechanical properties :
#
#
# Convention : Reuss Voigt Hill
#
# Bulk Modulus (GPa) = 85.06769 90.53107 87.79938
# Shear Modulus (GPa) = 16.14864 36.50153 26.32509
#
# Velocity S-wave (km/s) = 2.69559 4.05267 3.44168
# Velocity P-wave (km/s) = 6.92568 7.91416 7.43636
#
# Compressibility (1/GPa) = 0.01175534
#
# Stress axis : x y z
#
# Youngs Moduli (GPa) = 72.96900 123.48439 128.50013
#
# Poissons Ratio (x) = 0.58778 0.39641
# Poissons Ratio (y) = 0.34733 0.13747
# Poissons Ratio (z) = 0.22510 0.13211
#
# Static dielectric constant tensor:
#      x y z
#    x 3.755560 0.000000 -0.061250 
#    y 0.000000 4.060620 0.000000 
#    z -0.061250 0.000000 4.109650 
# 
# 
# High freq. dielectric constant tensor:
#      x y z
#    x 1.884850 0.000000 0.004500 
#    y 0.000000 1.894870 0.000000 
#    z 0.004500 0.000000 1.895670 
# 
# From -- ./inp_files/35644.got.cif
#   From: 2010.06.25/outbox.cif.g09.slc.cpg/sg11_18_cif.got.tgz:35644.got - 2010.06.27 23:14:04.
