data_PCOD8077526
_publ_section_title
;
Structure prediction by ZEFSAII (Michael W. Deem and Ramdas Pophale) SiO2 
 PCOD8077526
Probable space group: P 21/M
;
_chemical_formula_sum "Si O2"
_cell_formula_units_Z 32
_cell_length_a 17.720875
_cell_length_b 14.376105
_cell_length_c 11.681505
_cell_angle_alpha 90.000000
_cell_angle_beta 148.541445
_cell_angle_gamma 90.000000
_cell_volume 1553.092206
_symmetry_space_group_name_H-M "P 21/M"
_symmetry_group_IT_number 11
_symmetry_cell_setting 'monoclinic'
loop_
_space_group_symop_operation_xyz
x,y,z
-x,1/2+y,-z
-x,-y,-z
x,1/2-y,z
loop_
_atom_site_type_symbol
_atom_site_label
_atom_site_fract_x
_atom_site_fract_y
_atom_site_fract_z
Si Si1 0.195918 0.476343 0.973824
Si Si2 0.563401 0.976253 0.884447
Si Si3 0.777195 0.582016 0.354253
Si Si4 0.924725 0.353516 0.325395
Si Si5 0.643714 0.856698 0.403505
Si Si6 0.170780 0.008051 0.205963
Si Si7 0.094906 0.895861 0.442492
Si Si8 0.702482 0.148556 0.484678
O O1 0.148382 0.573713 0.854367
O O2 0.078433 0.394877 0.799006
O O3 0.348215 0.446819 0.114777
O O4 0.219133 0.485896 0.137905
O O5 0.436558 0.903491 0.745761
O O6 0.502086 0.081018 0.786899
O O7 0.664950 0.968896 0.125812
O O8 0.702946 0.648985 0.350263
O O9 0.853551 0.499692 0.524020
O O10 0.900931 0.636046 0.444158
O O11 0.884434 0.250000 0.231616
O O12 0.865398 0.368386 0.376765
O O13 0.611325 0.750000 0.400638
O O14 0.763525 0.902998 0.642024
O O15 0.235282 0.910945 0.331261
O O16 0.000000 0.000000 0.000000
O O17 0.178397 0.831965 0.460403
O O18 0.657784 0.250000 0.473754
#
# Coordination Sequence:
#
# PCOD8077526 Si02
#       8
#     4   4   4   4   4   4   4   4
#     4  11  22  41  69  88 123 175 208 257 320 378
#     4  11  23  43  63  92 133 169 206 253 329 381
#     4  11  19  40  64  89 127 174 202 256 324 377
#     4  11  22  35  62 101 130 158 213 270 315 375
#     4  11  25  41  63  95 129 165 218 267 311 379
#     4  11  22  44  69  89 122 169 214 261 320 366
#     4  11  19  42  65  91 127 163 208 263 318 370
#     4  11  25  41  63  95 129 165 212 262 312 380
#
# _framework density 20.604057999999998
#
# number of rings (size 3 to 8) (size 9 to 14) (size 15 to 20)
#    0.000    1.000    6.250    2.625    0.000    4.500 
#    0.000    1.875    0.000    0.000    0.000    0.000 
#    0.000    0.000    0.000    0.000    0.000    0.000 
#
# Total GULP energy -396722.657687 kJ/mol
# GULP energy per Si atom -12397.583053 kJ/mol
# Density = 2.055716 g / cm^3
# Si number density = 20.604058 Si / 1000 Ang^3
#
#
#
# Elastic Constant Matrix: (Units=GPa)
#
#
# Indices 1 2 3 4 5 6 
#
# 1 128.3353 18.4811 41.6198 0.0000 -4.0791 0.0000
# 2 18.4811 125.0945 29.2873 0.0000 -0.1473 0.0000
# 3 41.6198 29.2873 82.0757 0.0000 -3.8512 0.0000
# 4 0.0000 0.0000 0.0000 10.5070 0.0000 -1.3308
# 5 -4.0791 -0.1473 -3.8512 0.0000 40.9635 0.0000
# 6 0.0000 0.0000 0.0000 -1.3308 0.0000 19.0491
#
#
#
# Elastic Compliance Matrix: (Units=1/GPa)
#
#
# Indices 1 2 3 4 5 6 
#
# 1 0.009346 -0.000301 -0.004608 0.000000 0.000496 0.000000
# 2 -0.000301 0.008735 -0.002977 0.000000 -0.000278 0.000000
# 3 -0.004608 -0.002977 0.015630 0.000000 0.001000 0.000000
# 4 0.000000 0.000000 0.000000 0.096024 0.000000 0.006708
# 5 0.000496 -0.000278 0.001000 0.000000 0.024554 0.000000
# 6 0.000000 0.000000 0.000000 0.006708 0.000000 0.052965
#
#
# Mechanical properties :
#
#
# Convention : Reuss Voigt Hill
#
# Bulk Modulus (GPa) = 55.75013 57.14244 56.44628
# Shear Modulus (GPa) = 21.83336 30.51173 26.17255
#
# Velocity S-wave (km/s) = 3.25878 3.85237 3.56794
# Velocity P-wave (km/s) = 6.42465 6.89793 6.66549
#
# Compressibility (1/GPa) = 0.01793718
#
# Stress axis : x y z
#
# Youngs Moduli (GPa) = 107.00039 114.47958 63.97931
#
# Poissons Ratio (x) = 0.03448 0.29484
# Poissons Ratio (y) = 0.03223 0.19049
# Poissons Ratio (z) = 0.49310 0.34084
#
# Static dielectric constant tensor:
#      x y z
#    x 3.953130 0.000000 0.381360 
#    y 0.000000 3.596210 0.000000 
#    z 0.381360 0.000000 4.239440 
# 
# 
# High freq. dielectric constant tensor:
#      x y z
#    x 1.813110 0.000000 0.009520 
#    y 0.000000 1.794290 0.000000 
#    z 0.009520 0.000000 1.801140 
# 
# From -- ./inp_files/41693.got.cif
#   From: 2010.06.25/outbox.cif.g09.slc.cpg/sg11_21_cif.got.tgz:41693.got - 2010.06.27 23:14:04.
