data_PCOD8077707
_publ_section_title
;
Structure prediction by ZEFSAII (Michael W. Deem and Ramdas Pophale) SiO2 
 PCOD8077707
Probable space group: P 21/M
;
_chemical_formula_sum "Si O2"
_cell_formula_units_Z 28
_cell_length_a 21.599846
_cell_length_b 8.651678
_cell_length_c 14.822331
_cell_angle_alpha 90.000000
_cell_angle_beta 149.344832
_cell_angle_gamma 90.000000
_cell_volume 1412.299912
_symmetry_space_group_name_H-M "P 21/M"
_symmetry_group_IT_number 11
_symmetry_cell_setting 'monoclinic'
loop_
_space_group_symop_operation_xyz
x,y,z
-x,1/2+y,-z
-x,-y,-z
x,1/2-y,z
loop_
_atom_site_type_symbol
_atom_site_label
_atom_site_fract_x
_atom_site_fract_y
_atom_site_fract_z
Si Si1 0.111945 0.430321 0.939975
Si Si2 0.210190 0.926599 0.241925
Si Si3 0.863198 0.932125 0.668669
Si Si4 0.299787 0.929993 0.044578
Si Si5 0.511662 0.427419 0.417154
Si Si6 0.620091 0.069502 0.050334
Si Si7 0.652485 0.567638 0.275608
O O1 0.082458 0.250000 0.903568
O O2 0.987679 0.525218 0.774760
O O3 0.185115 0.474190 0.121627
O O4 0.193431 0.470593 0.955604
O O5 0.172671 0.750000 0.174976
O O6 0.350864 0.940861 0.444666
O O7 0.132220 0.989142 0.227542
O O8 0.852580 0.750000 0.668571
O O9 0.751295 0.999215 0.469622
O O10 0.277099 0.750000 0.035941
O O11 0.430791 0.975030 0.247396
O O12 0.301823 0.966839 0.940719
O O13 0.500000 0.500000 0.500000
O O14 0.467458 0.250000 0.364625
O O15 0.614709 0.250000 0.063939
O O16 0.685813 0.987513 0.216532
O O17 0.481697 0.006846 0.865579
O O18 0.660007 0.750000 0.287583
#
# Coordination Sequence:
#
# PCOD8077707 Si02
#       7
#     4   4   4   4   4   4   4
#     4  12  25  40  58  81 114 155 198 241 288 343
#     4  11  23  39  59  85 116 153 195 239 288 341
#     4  11  23  40  61  84 114 152 195 241 289 341
#     4  11  22  38  59  85 119 155 194 237 290 347
#     4  11  22  35  56  84 117 153 190 234 284 337
#     4   9  19  36  61  90 118 148 182 231 289 344
#     4   9  19  37  61  89 117 147 184 232 287 342
#
# _framework density 19.825817000000001
#
# number of rings (size 3 to 8) (size 9 to 14) (size 15 to 20)
#    0.000    1.429    1.429    4.286    0.000    5.143 
#    0.000    3.571    0.000    0.000    0.000    0.000 
#    0.000    0.000    0.000    0.000    0.000    0.000 
#
# Total GULP energy -347344.773474 kJ/mol
# GULP energy per Si atom -12405.170481 kJ/mol
# Density = 1.978069 g / cm^3
# Si number density = 19.825817 Si / 1000 Ang^3
#
#
#
# Elastic Constant Matrix: (Units=GPa)
#
#
# Indices 1 2 3 4 5 6 
#
# 1 106.9167 27.7816 35.2954 0.0000 -3.4796 0.0000
# 2 27.7816 54.5397 12.9760 0.0000 -3.5505 0.0000
# 3 35.2954 12.9760 63.3746 0.0000 1.1149 0.0000
# 4 0.0000 0.0000 0.0000 30.5570 0.0000 -0.1983
# 5 -3.4796 -3.5505 1.1149 0.0000 27.3551 0.0000
# 6 0.0000 0.0000 0.0000 -0.1983 0.0000 32.7098
#
#
#
# Elastic Compliance Matrix: (Units=1/GPa)
#
#
# Indices 1 2 3 4 5 6 
#
# 1 0.012680 -0.004935 -0.006073 0.000000 0.001220 0.000000
# 2 -0.004935 0.021391 -0.001670 0.000000 0.002217 0.000000
# 3 -0.006073 -0.001670 0.019535 0.000000 -0.001785 0.000000
# 4 0.000000 0.000000 0.000000 0.032727 0.000000 0.000198
# 5 0.001220 0.002217 -0.001785 0.000000 0.037072 0.000000
# 6 0.000000 0.000000 0.000000 0.000198 0.000000 0.030573
#
#
# Mechanical properties :
#
#
# Convention : Reuss Voigt Hill
#
# Bulk Modulus (GPa) = 35.39918 41.88190 38.64054
# Shear Modulus (GPa) = 26.49012 28.04292 27.26652
#
# Velocity S-wave (km/s) = 3.65929 3.76502 3.71253
# Velocity P-wave (km/s) = 5.97894 6.33019 6.15707
#
# Compressibility (1/GPa) = 0.02824925
#
# Stress axis : x y z
#
# Youngs Moduli (GPa) = 78.86563 46.74949 51.19060
#
# Poissons Ratio (x) = 0.23069 0.31088
# Poissons Ratio (y) = 0.38917 0.08551
# Poissons Ratio (z) = 0.47894 0.07809
#
# Static dielectric constant tensor:
#      x y z
#    x 3.543280 0.000000 0.076030 
#    y 0.000000 4.272220 0.000000 
#    z 0.076030 0.000000 3.650100 
# 
# 
# High freq. dielectric constant tensor:
#      x y z
#    x 1.777070 0.000000 0.002430 
#    y 0.000000 1.777330 0.000000 
#    z 0.002430 0.000000 1.764320 
# 
# From -- ./inp_files/49177.got.cif
#   From: 2010.06.25/outbox.cif.g09.slc.cpg/sg11_25_cif.got.tgz:49177.got - 2010.06.27 23:14:04.
