data_PCOD8077171
_publ_section_title
;
Structure prediction by ZEFSAII (Michael W. Deem and Ramdas Pophale) SiO2 
 PCOD8077171
Probable space group: P 21/M
;
_chemical_formula_sum "Si O2"
_cell_formula_units_Z 32
_cell_length_a 31.192450
_cell_length_b 8.824773
_cell_length_c 11.904753
_cell_angle_alpha 90.000000
_cell_angle_beta 30.209153
_cell_angle_gamma 90.000000
_cell_volume 1648.837320
_symmetry_space_group_name_H-M "P 21/M"
_symmetry_group_IT_number 11
_symmetry_cell_setting 'monoclinic'
loop_
_space_group_symop_operation_xyz
x,y,z
-x,1/2+y,-z
-x,-y,-z
x,1/2-y,z
loop_
_atom_site_type_symbol
_atom_site_label
_atom_site_fract_x
_atom_site_fract_y
_atom_site_fract_z
Si Si1 0.409244 0.073034 0.180819
Si Si2 0.903893 0.928304 0.102867
Si Si3 0.628351 0.422704 0.962427
Si Si4 0.285403 0.928579 0.844551
Si Si5 0.235814 0.070208 0.184733
Si Si6 0.253685 0.073510 0.689616
Si Si7 0.923741 0.571253 0.311029
Si Si8 0.462917 0.077064 0.474567
O O1 0.422436 0.250000 0.129756
O O2 0.346653 0.042309 0.426856
O O3 0.363632 0.003238 0.175281
O O4 0.500000 0.000000 0.000000
O O5 0.914597 0.750000 0.073801
O O6 0.818452 0.980687 0.234003
O O7 0.897782 0.985390 0.245250
O O8 0.986170 0.000552 0.856126
O O9 0.660078 0.250000 0.880634
O O10 0.683692 0.508060 0.929762
O O11 0.530127 0.428453 0.221644
O O12 0.283591 0.750000 0.866021
O O13 0.239427 0.975264 0.833502
O O14 0.381754 0.985144 0.617671
O O15 0.235830 0.005775 0.059360
O O16 0.242457 0.250000 0.167178
O O17 0.148737 0.014444 0.439756
O O18 0.243684 0.250000 0.742453
O O19 0.932566 0.750000 0.294515
O O20 0.437168 0.250000 0.560905
O O21 0.500000 0.000000 0.500000
#
# Coordination Sequence:
#
# PCOD8077171 Si02
#       8
#     4   4   4   4   4   4   4   4
#     4  11  23  39  59  84 117 154 194 239 287 342
#     4   9  18  36  62  89 116 148 186 231 286 346
#     4  11  23  37  57  86 117 148 192 242 290 344
#     4  12  25  39  57  84 116 152 198 246 292 346
#     4  11  22  38  60  84 115 153 191 236 290 345
#     4  10  22  41  61  82 114 157 200 237 285 348
#     4   9  19  36  60  91 120 146 182 231 289 348
#     4  11  22  37  57  81 113 153 195 240 287 339
#
# _framework density 19.407616000000001
#
# number of rings (size 3 to 8) (size 9 to 14) (size 15 to 20)
#    0.000    1.500    1.250    4.125    0.000    9.000 
#    0.000    3.125    0.000    0.000    0.000    0.000 
#    0.000    0.000    0.000    0.000    0.000    0.000 
#
# Total GULP energy -396953.740757 kJ/mol
# GULP energy per Si atom -12404.804399 kJ/mol
# Density = 1.936344 g / cm^3
# Si number density = 19.407616 Si / 1000 Ang^3
#
#
#
# Elastic Constant Matrix: (Units=GPa)
#
#
# Indices 1 2 3 4 5 6 
#
# 1 99.2841 41.2871 47.4495 0.0000 2.4830 0.0000
# 2 41.2871 97.5238 47.6925 0.0000 5.6065 0.0000
# 3 47.4495 47.6925 129.1606 0.0000 -1.6884 0.0000
# 4 0.0000 0.0000 0.0000 31.3052 0.0000 -1.3812
# 5 2.4830 5.6065 -1.6884 0.0000 34.6089 0.0000
# 6 0.0000 0.0000 0.0000 -1.3812 0.0000 33.2135
#
#
#
# Elastic Compliance Matrix: (Units=1/GPa)
#
#
# Indices 1 2 3 4 5 6 
#
# 1 0.013380 -0.003941 -0.003467 0.000000 -0.000491 0.000000
# 2 -0.003941 0.013853 -0.003695 0.000000 -0.002142 0.000000
# 3 -0.003467 -0.003695 0.010398 0.000000 0.001355 0.000000
# 4 0.000000 0.000000 0.000000 0.032002 0.000000 0.001331
# 5 -0.000491 -0.002142 0.001355 0.000000 0.029343 0.000000
# 6 0.000000 0.000000 0.000000 0.001331 0.000000 0.030164
#
#
# Mechanical properties :
#
#
# Convention : Reuss Voigt Hill
#
# Bulk Modulus (GPa) = 64.83032 66.53630 65.68331
# Shear Modulus (GPa) = 31.95170 32.46147 32.20658
#
# Velocity S-wave (km/s) = 4.06192 4.09420 4.07809
# Velocity P-wave (km/s) = 7.44823 7.53047 7.48946
#
# Compressibility (1/GPa) = 0.01542488
#
# Stress axis : x y z
#
# Youngs Moduli (GPa) = 74.73859 72.18888 96.17235
#
# Poissons Ratio (x) = 0.28449 0.33339
# Poissons Ratio (y) = 0.29454 0.35538
# Poissons Ratio (z) = 0.25909 0.26676
#
# Static dielectric constant tensor:
#      x y z
#    x 0.001400 0.000000 -1.076230 
#    y 0.000000 3.633520 0.000000 
#    z -1.076230 0.000000 3.366490 
# 
# 
# High freq. dielectric constant tensor:
#      x y z
#    x 1.754390 0.000000 0.004260 
#    y 0.000000 1.760600 0.000000 
#    z 0.004260 0.000000 1.757400 
# 
# From -- ./inp_files/45125.got.cif
#   From: 2010.06.25/outbox.cif.g09.slc.cpg/sg11_23_cif.got.tgz:45125.got - 2010.06.27 23:14:04.
