data_PCOD8077003
_publ_section_title
;
Structure prediction by ZEFSAII (Michael W. Deem and Ramdas Pophale) SiO2 
 PCOD8077003
Probable space group: P 21/M
;
_chemical_formula_sum "Si O2"
_cell_formula_units_Z 26
_cell_length_a 11.252409
_cell_length_b 22.523632
_cell_length_c 7.978345
_cell_angle_alpha 90.000000
_cell_angle_beta 35.258590
_cell_angle_gamma 90.000000
_cell_volume 1167.277033
_symmetry_space_group_name_H-M "P 21/M"
_symmetry_group_IT_number 11
_symmetry_cell_setting 'monoclinic'
loop_
_space_group_symop_operation_xyz
x,y,z
-x,1/2+y,-z
-x,-y,-z
x,1/2-y,z
loop_
_atom_site_type_symbol
_atom_site_label
_atom_site_fract_x
_atom_site_fract_y
_atom_site_fract_z
Si Si1 0.627241 0.750000 0.227883
Si Si2 0.407068 0.035798 0.450350
Si Si3 0.014361 0.334651 0.175569
Si Si4 0.300283 0.750000 0.312221
Si Si5 0.591176 0.750000 0.661808
Si Si6 0.835245 0.066105 0.843611
Si Si7 0.123540 0.355315 0.707855
Si Si8 0.904485 0.461933 0.382280
O O1 0.455518 0.750000 0.286650
O O2 0.536256 0.750000 0.524446
O O3 0.761789 0.809000 0.033589
O O4 0.241300 0.088821 0.662748
O O5 0.500000 0.000000 0.500000
O O6 0.313040 0.983964 0.441338
O O7 0.592829 0.071349 0.147998
O O8 0.840256 0.308093 0.497495
O O9 0.997864 0.404859 0.188438
O O10 0.995098 0.319371 0.998838
O O11 0.395099 0.750000 0.015496
O O12 0.718662 0.809413 0.560571
O O13 0.879843 0.053169 0.602243
O O14 0.960426 0.124764 0.754406
O O15 0.922536 0.011453 0.852831
#
# Coordination Sequence:
#
# PCOD8077003 Si02
#       8
#     2   4   4   2   2   4   4   4
#     4   9  23  45  64  92 132 165 219 269 328 388
#     4  11  22  38  65  98 129 173 221 264 331 398
#     4  10  22  42  61  94 126 165 213 268 319 398
#     4  11  25  43  66  94 126 173 221 267 342 382
#     4  10  24  44  66  98 128 168 226 280 314 404
#     4  10  22  39  61  92 127 171 208 264 330 384
#     4  10  23  43  65  94 133 168 221 269 330 394
#     4  10  22  38  60  93 132 164 212 270 316 397
#
# _framework density 22.274062000000001
#
# number of rings (size 3 to 8) (size 9 to 14) (size 15 to 20)
#    0.000    1.846    0.000    2.769    4.308    8.615 
#    0.000    2.308    0.000    0.000    0.000    0.000 
#    0.000    0.000    0.000    0.000    0.000    0.000 
#
# Total GULP energy -322102.540650 kJ/mol
# GULP energy per Si atom -12388.559256 kJ/mol
# Density = 2.222336 g / cm^3
# Si number density = 22.274062 Si / 1000 Ang^3
#
#
#
# Elastic Constant Matrix: (Units=GPa)
#
#
# Indices 1 2 3 4 5 6 
#
# 1 82.5280 11.7929 26.0433 0.0000 -9.2496 0.0000
# 2 11.7929 83.2212 21.9126 0.0000 2.4560 0.0000
# 3 26.0433 21.9126 131.5011 0.0000 12.4222 0.0000
# 4 0.0000 0.0000 0.0000 11.9095 0.0000 21.1314
# 5 -9.2496 2.4560 12.4222 0.0000 23.9854 0.0000
# 6 0.0000 0.0000 0.0000 21.1314 0.0000 8.7122
#
#
#
# Elastic Compliance Matrix: (Units=1/GPa)
#
#
# Indices 1 2 3 4 5 6 
#
# 1 0.014160 -0.001362 -0.003266 0.000000 0.007291 0.000000
# 2 -0.001362 0.012700 -0.001760 0.000000 -0.000914 0.000000
# 3 -0.003266 -0.001760 0.009091 0.000000 -0.005788 0.000000
# 4 0.000000 0.000000 0.000000 -0.025417 0.000000 0.061648
# 5 0.007291 -0.000914 -0.005788 0.000000 0.047595 0.000000
# 6 0.000000 0.000000 0.000000 0.061648 0.000000 -0.034744
#
#
# Mechanical properties :
#
#
# Convention : Reuss Voigt Hill
#
# Bulk Modulus (GPa) = 43.15077 46.30531 44.72804
# Shear Modulus (GPa) = 113.93279 24.75486 69.34382
#
# Velocity S-wave (km/s) = 7.15971 3.33735 5.58567
# Velocity P-wave (km/s) = 9.36821 5.97365 7.85646
#
# Compressibility (1/GPa) = 0.02317456
#
# Stress axis : x y z
#
# Youngs Moduli (GPa) = 70.62367 78.74294 109.99429
#
# Poissons Ratio (x) = 0.10722 0.35925
# Poissons Ratio (y) = 0.09617 0.19361
# Poissons Ratio (z) = 0.23067 0.13860
#
# Static dielectric constant tensor:
#      x y z
#    x 3.884310 0.000000 -0.110420 
#    y 0.000000 3.473880 0.000000 
#    z -0.110420 0.000000 4.464110 
# 
# 
# High freq. dielectric constant tensor:
#      x y z
#    x 1.867370 0.000000 0.005770 
#    y 0.000000 1.885220 0.000000 
#    z 0.005770 0.000000 1.882370 
# 
# From -- ./inp_files/19693.got.cif
#   From: 2010.06.25/outbox.cif.g09.slc.cpg/sg11_10_cif.got.tgz:19693.got - 2010.06.27 23:14:04.
