data_PCOD8077157
_publ_section_title
;
Structure prediction by ZEFSAII (Michael W. Deem and Ramdas Pophale) SiO2 
 PCOD8077157
Probable space group: P 21/M
;
_chemical_formula_sum "Si O2"
_cell_formula_units_Z 24
_cell_length_a 11.409450
_cell_length_b 12.730477
_cell_length_c 10.591312
_cell_angle_alpha 90.000000
_cell_angle_beta 128.657010
_cell_angle_gamma 90.000000
_cell_volume 1201.307508
_symmetry_space_group_name_H-M "P 21/M"
_symmetry_group_IT_number 11
_symmetry_cell_setting 'monoclinic'
loop_
_space_group_symop_operation_xyz
x,y,z
-x,1/2+y,-z
-x,-y,-z
x,1/2-y,z
loop_
_atom_site_type_symbol
_atom_site_label
_atom_site_fract_x
_atom_site_fract_y
_atom_site_fract_z
Si Si1 0.974589 0.625856 0.620061
Si Si2 0.632586 0.129724 0.632007
Si Si3 0.757460 0.996364 0.300609
Si Si4 0.512825 0.950387 0.709737
Si Si5 0.955535 0.028752 0.829446
Si Si6 0.751100 0.869809 0.055053
O O1 0.975401 0.750000 0.635309
O O2 0.834709 0.590796 0.440682
O O3 0.957749 0.577062 0.748065
O O4 0.127784 0.589535 0.656062
O O5 0.647847 0.250000 0.684401
O O6 0.531929 0.121101 0.439157
O O7 0.793990 0.081030 0.711872
O O8 0.551805 0.068581 0.691856
O O9 0.694849 0.940938 0.132996
O O10 0.619048 0.049779 0.277377
O O11 0.660306 0.898973 0.868469
O O12 0.072665 0.111677 0.850540
O O13 0.000000 0.000000 0.000000
O O14 0.724525 0.750000 0.073996
#
# Coordination Sequence:
#
# PCOD8077157 Si02
#       6
#     4   4   4   4   4   4
#     4  10  22  40  66  93 123 167 209 257 315 367
#     4  11  24  42  66  91 127 171 206 254 318 370
#     4  10  22  42  62  91 129 159 209 262 301 379
#     4  11  23  44  61  94 130 159 210 258 307 377
#     4  11  22  44  62  93 127 159 213 261 299 374
#     4  11  23  39  65  93 123 164 205 256 315 364
#
# _framework density 19.978231000000001
#
# number of rings (size 3 to 8) (size 9 to 14) (size 15 to 20)
#    0.000    1.333    3.333    2.000    0.000    4.000 
#    0.000    0.000    0.000    0.000    0.000    0.000 
#    0.000    0.000    0.000    0.000    0.000    0.000 
#
# Total GULP energy -297746.496094 kJ/mol
# GULP energy per Si atom -12406.104004 kJ/mol
# Density = 1.993276 g / cm^3
# Si number density = 19.978231 Si / 1000 Ang^3
#
#
#
# Elastic Constant Matrix: (Units=GPa)
#
#
# Indices 1 2 3 4 5 6 
#
# 1 71.1119 11.5526 7.6340 0.0000 2.2822 0.0000
# 2 11.5526 115.6867 19.9819 0.0000 4.4677 0.0000
# 3 7.6340 19.9819 102.9125 0.0000 1.4013 0.0000
# 4 0.0000 0.0000 0.0000 14.5685 0.0000 -0.9948
# 5 2.2822 4.4677 1.4013 0.0000 29.3048 0.0000
# 6 0.0000 0.0000 0.0000 -0.9948 0.0000 17.1445
#
#
#
# Elastic Compliance Matrix: (Units=1/GPa)
#
#
# Indices 1 2 3 4 5 6 
#
# 1 0.014383 -0.001262 -0.000810 0.000000 -0.000889 0.000000
# 2 -0.001262 0.009103 -0.001657 0.000000 -0.001210 0.000000
# 3 -0.000810 -0.001657 0.010101 0.000000 -0.000167 0.000000
# 4 0.000000 0.000000 0.000000 0.068914 0.000000 0.003999
# 5 -0.000889 -0.001210 -0.000167 0.000000 0.034386 0.000000
# 6 0.000000 0.000000 0.000000 0.003999 0.000000 0.058560
#
#
# Mechanical properties :
#
#
# Convention : Reuss Voigt Hill
#
# Bulk Modulus (GPa) = 38.27224 40.89423 39.58323
# Shear Modulus (GPa) = 23.62785 28.90642 26.26713
#
# Velocity S-wave (km/s) = 3.44274 3.80793 3.62993
# Velocity P-wave (km/s) = 5.91624 6.31250 6.11758
#
# Compressibility (1/GPa) = 0.02612860
#
# Stress axis : x y z
#
# Youngs Moduli (GPa) = 69.52735 109.85292 98.99868
#
# Poissons Ratio (x) = 0.13864 0.08016
# Poissons Ratio (y) = 0.08775 0.16408
# Poissons Ratio (z) = 0.05630 0.18207
#
# Static dielectric constant tensor:
#      x y z
#    x 3.712050 0.000000 -0.004450 
#    y 0.000000 3.426750 0.000000 
#    z -0.004450 0.000000 3.890860 
# 
# 
# High freq. dielectric constant tensor:
#      x y z
#    x 1.786720 0.000000 -0.000610 
#    y 0.000000 1.769330 0.000000 
#    z -0.000610 0.000000 1.795930 
# 
# From -- ./inp_files/21996.got.cif
#   From: 2010.06.25/outbox.cif.g09.slc.cpg/sg11_11_cif.got.tgz:21996.got - 2010.06.27 23:14:04.
