data_PCOD8077458
_publ_section_title
;
Structure prediction by ZEFSAII (Michael W. Deem and Ramdas Pophale) SiO2 
 PCOD8077458
Probable space group: P 21/M
;
_chemical_formula_sum "Si O2"
_cell_formula_units_Z 24
_cell_length_a 10.042588
_cell_length_b 23.646847
_cell_length_c 5.142156
_cell_angle_alpha 90.000000
_cell_angle_beta 71.047914
_cell_angle_gamma 90.000000
_cell_volume 1154.939100
_symmetry_space_group_name_H-M "P 21/M"
_symmetry_group_IT_number 11
_symmetry_cell_setting 'monoclinic'
loop_
_space_group_symop_operation_xyz
x,y,z
-x,1/2+y,-z
-x,-y,-z
x,1/2-y,z
loop_
_atom_site_type_symbol
_atom_site_label
_atom_site_fract_x
_atom_site_fract_y
_atom_site_fract_z
Si Si1 0.512608 0.750000 0.937160
Si Si2 0.691783 0.584120 0.682488
Si Si3 0.130537 0.912684 0.849521
Si Si4 0.829022 0.632437 0.106811
Si Si5 0.604621 0.368799 0.091139
Si Si6 0.701809 0.750000 0.311529
Si Si7 0.235233 0.541057 0.276822
O O1 0.412206 0.804246 0.982667
O O2 0.633826 0.750000 0.641326
O O3 0.578136 0.750000 0.180861
O O4 0.790954 0.591344 0.369532
O O5 0.539043 0.606959 0.694710
O O6 0.684645 0.518177 0.755475
O O7 0.741485 0.619280 0.902247
O O8 0.269159 0.872389 0.777461
O O9 0.132825 0.948337 0.584017
O O10 0.864925 0.042178 0.915296
O O11 0.993509 0.873720 0.941982
O O12 0.801189 0.696070 0.215205
O O13 0.647168 0.409063 0.819249
#
# Coordination Sequence:
#
# PCOD8077458 Si02
#       7
#     2   4   4   4   4   2   4
#     4  12  24  43  73  92 126 170 225 276 317 393
#     4  12  24  41  71  95 135 175 223 265 320 388
#     4  10  25  42  64  98 135 167 217 262 336 386
#     4  12  25  43  67  99 129 177 219 273 326 384
#     4  10  25  43  66 100 126 175 218 270 325 384
#     4  12  24  45  65  98 128 164 225 278 319 387
#     4  10  24  42  66  99 137 170 217 268 326 391
#
# _framework density 20.780315999999999
#
# number of rings (size 3 to 8) (size 9 to 14) (size 15 to 20)
#    1.000    0.000    3.333    2.500    4.667    5.333 
#    0.000    0.833    0.000    0.000    0.000    0.000 
#    0.000    0.000    0.000    0.000    0.000    0.000 
#
# Total GULP energy -297580.931872 kJ/mol
# GULP energy per Si atom -12399.205495 kJ/mol
# Density = 2.073302 g / cm^3
# Si number density = 20.780316 Si / 1000 Ang^3
#
#
#
# Elastic Constant Matrix: (Units=GPa)
#
#
# Indices 1 2 3 4 5 6 
#
# 1 87.6476 30.0743 37.3501 0.0000 -16.0348 0.0000
# 2 30.0743 118.4110 28.5002 0.0000 -17.4822 0.0000
# 3 37.3501 28.5002 108.9705 0.0000 7.4979 0.0000
# 4 0.0000 0.0000 0.0000 26.4515 0.0000 -4.3446
# 5 -16.0348 -17.4822 7.4979 0.0000 28.2291 0.0000
# 6 0.0000 0.0000 0.0000 -4.3446 0.0000 18.8928
#
#
#
# Elastic Compliance Matrix: (Units=1/GPa)
#
#
# Indices 1 2 3 4 5 6 
#
# 1 0.016177 -0.001206 -0.005919 0.000000 0.010014 0.000000
# 2 -0.001206 0.010366 -0.002742 0.000000 0.006463 0.000000
# 3 -0.005919 -0.002742 0.012499 0.000000 -0.008380 0.000000
# 4 0.000000 0.000000 0.000000 0.039289 0.000000 0.009035
# 5 0.010014 0.006463 -0.008380 0.000000 0.047341 0.000000
# 6 0.000000 0.000000 0.000000 0.009035 0.000000 0.055008
#
#
# Mechanical properties :
#
#
# Convention : Reuss Voigt Hill
#
# Bulk Modulus (GPa) = 51.78991 56.31982 54.05486
# Shear Modulus (GPa) = 24.17209 29.32164 26.74687
#
# Velocity S-wave (km/s) = 3.41430 3.76044 3.59154
# Velocity P-wave (km/s) = 6.36553 6.78350 6.57784
#
# Compressibility (1/GPa) = 0.01930878
#
# Stress axis : x y z
#
# Youngs Moduli (GPa) = 61.81521 96.47226 80.00455
#
# Poissons Ratio (x) = 0.11631 0.47351
# Poissons Ratio (y) = 0.07453 0.21941
# Poissons Ratio (z) = 0.36586 0.26457
#
# Static dielectric constant tensor:
#      x y z
#    x 3.591760 0.000000 0.063070 
#    y 0.000000 3.745240 0.000000 
#    z 0.063070 0.000000 3.768970 
# 
# 
# High freq. dielectric constant tensor:
#      x y z
#    x 1.806510 0.000000 0.001420 
#    y 0.000000 1.814090 0.000000 
#    z 0.001420 0.000000 1.821330 
# 
# From -- ./inp_files/2684.got.cif
#   From: 2010.06.25/outbox.cif.g09.slc.cpg/sg11_2_cif.got.tgz:2684.got - 2010.06.27 23:14:04.
