data_PCOD8077076
_publ_section_title
;
Structure prediction by ZEFSAII (Michael W. Deem and Ramdas Pophale) SiO2 
 PCOD8077076
Probable space group: P 21/M
;
_chemical_formula_sum "Si O2"
_cell_formula_units_Z 32
_cell_length_a 11.659389
_cell_length_b 27.459445
_cell_length_c 8.637435
_cell_angle_alpha 90.000000
_cell_angle_beta 146.452059
_cell_angle_gamma 90.000000
_cell_volume 1528.235751
_symmetry_space_group_name_H-M "P 21/M"
_symmetry_group_IT_number 11
_symmetry_cell_setting 'monoclinic'
loop_
_space_group_symop_operation_xyz
x,y,z
-x,1/2+y,-z
-x,-y,-z
x,1/2-y,z
loop_
_atom_site_type_symbol
_atom_site_label
_atom_site_fract_x
_atom_site_fract_y
_atom_site_fract_z
Si Si1 0.989885 0.194979 0.746524
Si Si2 0.515226 0.559375 0.679190
Si Si3 0.572504 0.804794 0.403239
Si Si4 0.264787 0.127223 0.864769
Si Si5 0.262897 0.852443 0.266868
Si Si6 0.212733 0.024526 0.296584
Si Si7 0.901122 0.881030 0.655563
Si Si8 0.402124 0.803002 0.889426
O O1 0.077489 0.250000 0.867020
O O2 0.167320 0.156804 0.899203
O O3 0.883910 0.178727 0.786562
O O4 0.834249 0.193760 0.427392
O O5 0.355031 0.602023 0.460418
O O6 0.673509 0.549061 0.719446
O O7 0.370979 0.513189 0.556078
O O8 0.658164 0.574581 0.986730
O O9 0.660567 0.750000 0.519605
O O10 0.453456 0.818995 0.425821
O O11 0.763104 0.840316 0.584559
O O12 0.405650 0.808912 0.077849
O O13 0.111858 0.121813 0.545818
O O14 0.470505 0.155350 0.049378
O O15 0.135835 0.872140 0.975211
O O16 0.169099 0.065146 0.375502
O O17 0.000000 0.000000 0.000000
O O18 0.496514 0.750000 0.949748
#
# Coordination Sequence:
#
# PCOD8077076 Si02
#       8
#     4   4   4   4   4   4   4   4
#     4  11  23  37  61  94 133 176 215 257 314 380
#     4  11  24  41  68  93 125 164 211 266 326 383
#     4  10  22  39  62  93 131 167 211 261 311 376
#     4  11  23  41  62  94 129 168 212 264 318 381
#     4  12  22  40  63  95 126 168 214 260 315 374
#     4  11  23  45  71  95 123 165 212 271 331 382
#     4  11  24  42  68  94 129 169 213 265 320 382
#     4   9  19  38  60  86 125 172 209 254 314 374
#
# _framework density 20.939177999999998
#
# number of rings (size 3 to 8) (size 9 to 14) (size 15 to 20)
#    0.000    1.250    3.750    2.250    0.000    2.000 
#    0.000    0.625    0.000    0.000    0.000    0.000 
#    0.000    0.000    0.000    0.000    0.000    0.000 
#
# Total GULP energy -396792.731739 kJ/mol
# GULP energy per Si atom -12399.772867 kJ/mol
# Density = 2.089152 g / cm^3
# Si number density = 20.939178 Si / 1000 Ang^3
#
#
#
# Elastic Constant Matrix: (Units=GPa)
#
#
# Indices 1 2 3 4 5 6 
#
# 1 76.7321 30.6720 6.8465 0.0000 -6.0631 0.0000
# 2 30.6720 114.1544 19.5182 0.0000 -8.2663 0.0000
# 3 6.8465 19.5182 80.6277 0.0000 -14.2590 0.0000
# 4 0.0000 0.0000 0.0000 28.6131 0.0000 -5.1305
# 5 -6.0631 -8.2663 -14.2590 0.0000 18.0890 0.0000
# 6 0.0000 0.0000 0.0000 -5.1305 0.0000 31.9709
#
#
#
# Elastic Compliance Matrix: (Units=1/GPa)
#
#
# Indices 1 2 3 4 5 6 
#
# 1 0.014787 -0.003769 0.000266 0.000000 0.003444 0.000000
# 2 -0.003769 0.010225 -0.001804 0.000000 0.001987 0.000000
# 3 0.000266 -0.001804 0.014742 0.000000 0.010885 0.000000
# 4 0.000000 0.000000 0.000000 0.035984 0.000000 0.005775
# 5 0.003444 0.001987 0.010885 0.000000 0.065925 0.000000
# 6 0.000000 0.000000 0.000000 0.005775 0.000000 0.032205
#
#
# Mechanical properties :
#
#
# Convention : Reuss Voigt Hill
#
# Bulk Modulus (GPa) = 34.31720 42.84308 38.58014
# Shear Modulus (GPa) = 25.74704 30.03311 27.89007
#
# Velocity S-wave (km/s) = 3.51038 3.79133 3.65356
# Velocity P-wave (km/s) = 5.73193 6.29847 6.02186
#
# Compressibility (1/GPa) = 0.02913991
#
# Stress axis : x y z
#
# Youngs Moduli (GPa) = 67.62501 97.79800 67.83415
#
# Poissons Ratio (x) = 0.36863 -0.01803
# Poissons Ratio (y) = 0.25490 0.12235
# Poissons Ratio (z) = -0.01797 0.17640
#
# Static dielectric constant tensor:
#      x y z
#    x 3.606710 0.000000 -0.087940 
#    y 0.000000 4.081370 0.000000 
#    z -0.087940 0.000000 3.893680 
# 
# 
# High freq. dielectric constant tensor:
#      x y z
#    x 1.810520 0.000000 -0.001880 
#    y 0.000000 1.827050 0.000000 
#    z -0.001880 0.000000 1.828370 
# 
# From -- ./inp_files/19897.got.cif
#   From: 2010.06.25/outbox.cif.g09.slc.cpg/sg11_10_cif.got.tgz:19897.got - 2010.06.27 23:14:04.
