data_PCOD8077164
_publ_section_title
;
Structure prediction by ZEFSAII (Michael W. Deem and Ramdas Pophale) SiO2 
 PCOD8077164
Probable space group: P 21/M
;
_chemical_formula_sum "Si O2"
_cell_formula_units_Z 24
_cell_length_a 11.507542
_cell_length_b 18.430317
_cell_length_c 5.436062
_cell_angle_alpha 90.000000
_cell_angle_beta 68.010598
_cell_angle_gamma 90.000000
_cell_volume 1069.050160
_symmetry_space_group_name_H-M "P 21/M"
_symmetry_group_IT_number 11
_symmetry_cell_setting 'monoclinic'
loop_
_space_group_symop_operation_xyz
x,y,z
-x,1/2+y,-z
-x,-y,-z
x,1/2-y,z
loop_
_atom_site_type_symbol
_atom_site_label
_atom_site_fract_x
_atom_site_fract_y
_atom_site_fract_z
Si Si1 0.692277 0.165686 0.870821
Si Si2 0.169800 0.169175 0.482726
Si Si3 0.776711 0.089063 0.303313
Si Si4 0.963683 0.937782 0.713904
Si Si5 0.735121 0.937462 0.210604
Si Si6 0.413458 0.330657 0.961442
O O1 0.726990 0.250000 0.840245
O O2 0.747674 0.131058 0.578404
O O3 0.543216 0.152632 0.993574
O O4 0.744519 0.132894 0.082562
O O5 0.134790 0.250000 0.596514
O O6 0.057777 0.140296 0.399690
O O7 0.177167 0.117149 0.709073
O O8 0.304511 0.167293 0.246812
O O9 0.925858 0.071984 0.174123
O O10 0.698805 0.012518 0.376042
O O11 0.828039 0.962916 0.920231
O O12 0.000000 0.000000 0.500000
O O13 0.611673 0.893597 0.220470
O O14 0.417667 0.250000 0.833003
#
# Coordination Sequence:
#
# PCOD8077164 Si02
#       6
#     4   4   4   4   4   4
#     4  11  27  48  68  97 139 186 231 277 341 415
#     4  10  22  40  68  99 129 172 230 284 336 398
#     4  12  26  43  71 102 137 183 224 279 348 415
#     4  11  23  44  66  96 137 180 221 280 347 410
#     4  11  23  40  71  99 131 171 231 288 342 398
#     4   9  22  44  67  94 135 181 225 283 340 396
#
# _framework density 22.449836000000001
#
# number of rings (size 3 to 8) (size 9 to 14) (size 15 to 20)
#    0.000    1.333    1.667    2.500    7.000    3.333 
#    0.000    0.000    0.000    0.000    0.000    0.000 
#    0.000    0.000    0.000    0.000    0.000    0.000 
#
# Total GULP energy -297515.272885 kJ/mol
# GULP energy per Si atom -12396.469704 kJ/mol
# Density = 2.239874 g / cm^3
# Si number density = 22.449836 Si / 1000 Ang^3
#
#
#
# Elastic Constant Matrix: (Units=GPa)
#
#
# Indices 1 2 3 4 5 6 
#
# 1 129.6961 54.8123 30.1098 0.0000 21.1967 0.0000
# 2 54.8123 168.3511 47.5091 0.0000 22.3209 0.0000
# 3 30.1098 47.5091 78.7035 0.0000 24.4380 0.0000
# 4 0.0000 0.0000 0.0000 37.8071 0.0000 12.8054
# 5 21.1967 22.3209 24.4380 0.0000 35.5962 0.0000
# 6 0.0000 0.0000 0.0000 12.8054 0.0000 41.9294
#
#
#
# Elastic Compliance Matrix: (Units=1/GPa)
#
#
# Indices 1 2 3 4 5 6 
#
# 1 0.009520 -0.002313 -0.001190 0.000000 -0.003402 0.000000
# 2 -0.002313 0.007828 -0.003487 0.000000 -0.001137 0.000000
# 3 -0.001190 -0.003487 0.018260 0.000000 -0.009641 0.000000
# 4 0.000000 0.000000 0.000000 0.029502 0.000000 -0.009010
# 5 -0.003402 -0.001137 -0.009641 0.000000 0.037450 0.000000
# 6 0.000000 0.000000 0.000000 -0.009010 0.000000 0.026601
#
#
# Mechanical properties :
#
#
# Convention : Reuss Voigt Hill
#
# Bulk Modulus (GPa) = 46.23659 71.29036 58.76348
# Shear Modulus (GPa) = 33.25579 39.35450 36.30514
#
# Velocity S-wave (km/s) = 3.85299 4.19142 4.02576
# Velocity P-wave (km/s) = 6.35879 7.43293 6.91674
#
# Compressibility (1/GPa) = 0.02162789
#
# Stress axis : x y z
#
# Youngs Moduli (GPa) = 105.04282 127.74854 54.76542
#
# Poissons Ratio (x) = 0.29545 0.06515
# Poissons Ratio (y) = 0.24294 0.19099
# Poissons Ratio (z) = 0.12496 0.44551
#
# Static dielectric constant tensor:
#      x y z
#    x 4.209100 0.000000 0.076360 
#    y 0.000000 4.512250 0.000000 
#    z 0.076360 0.000000 3.874260 
# 
# 
# High freq. dielectric constant tensor:
#      x y z
#    x 1.887230 0.000000 0.010210 
#    y 0.000000 1.904370 0.000000 
#    z 0.010210 0.000000 1.871480 
# 
# From -- ./inp_files/4584.got.cif
#   From: 2010.06.25/outbox.cif.g09.slc.cpg/sg11_3_cif.got.tgz:4584.got - 2010.06.27 23:14:04.
