data_PCOD8077473
_publ_section_title
;
Structure prediction by ZEFSAII (Michael W. Deem and Ramdas Pophale) SiO2 
 PCOD8077473
Probable space group: P 21/M
;
_chemical_formula_sum "Si O2"
_cell_formula_units_Z 28
_cell_length_a 15.697252
_cell_length_b 8.950796
_cell_length_c 15.218355
_cell_angle_alpha 90.000000
_cell_angle_beta 38.315164
_cell_angle_gamma 90.000000
_cell_volume 1325.669854
_symmetry_space_group_name_H-M "P 21/M"
_symmetry_group_IT_number 11
_symmetry_cell_setting 'monoclinic'
loop_
_space_group_symop_operation_xyz
x,y,z
-x,1/2+y,-z
-x,-y,-z
x,1/2-y,z
loop_
_atom_site_type_symbol
_atom_site_label
_atom_site_fract_x
_atom_site_fract_y
_atom_site_fract_z
Si Si1 0.572407 0.071798 0.527156
Si Si2 0.079558 0.421215 0.515362
Si Si3 0.355900 0.927439 0.820584
Si Si4 0.919517 0.574191 0.988350
Si Si5 0.331480 0.081209 0.199032
Si Si6 0.367751 0.924440 0.007254
Si Si7 0.880695 0.424240 0.332058
O O1 0.559350 0.250000 0.529990
O O2 0.732744 0.024201 0.411175
O O3 0.500000 0.000000 0.500000
O O4 0.492941 0.009210 0.676431
O O5 0.029355 0.250000 0.562913
O O6 0.238554 0.432831 0.359857
O O7 0.071210 0.495405 0.617506
O O8 0.000000 0.500000 0.500000
O O9 0.371993 0.750000 0.793227
O O10 0.322167 0.972131 0.947963
O O11 0.225052 0.993320 0.878399
O O12 0.901593 0.750000 0.016103
O O13 0.998192 0.537845 0.834168
O O14 0.000000 0.500000 0.000000
O O15 0.346113 0.250000 0.156086
O O16 0.271603 0.995365 0.161234
O O17 0.477881 0.012390 0.106698
O O18 0.361015 0.750000 0.024317
O O19 0.871904 0.250000 0.360501
#
# Coordination Sequence:
#
# PCOD8077473 Si02
#       7
#     4   4   4   4   4   4   4
#     4  11  23  41  67  97 128 166 211 265 329 389
#     4  11  24  40  61  88 123 167 214 261 312 374
#     4  11  23  39  61  91 126 161 208 258 308 378
#     4  11  24  43  66  93 127 166 211 264 325 385
#     4   9  19  36  56  81 115 153 195 246 300 352
#     4   9  19  35  57  84 114 151 195 245 299 357
#     4  10  24  44  65  93 130 169 214 268 322 383
#
# _framework density 21.121397999999999
#
# number of rings (size 3 to 8) (size 9 to 14) (size 15 to 20)
#    0.000    1.714    0.000    3.429    2.000    6.857 
#    0.000    2.857    0.000    0.000    0.000    0.000 
#    0.000    0.000    0.000    0.000    0.000    0.000 
#
# Total GULP energy -347044.153548 kJ/mol
# GULP energy per Si atom -12394.434055 kJ/mol
# Density = 2.107332 g / cm^3
# Si number density = 21.121398 Si / 1000 Ang^3
#
#
#
# Elastic Constant Matrix: (Units=GPa)
#
#
# Indices 1 2 3 4 5 6 
#
# 1 93.1482 42.6794 5.9840 0.0000 10.4048 0.0000
# 2 42.6794 74.9814 29.6467 0.0000 11.3053 0.0000
# 3 5.9840 29.6467 64.4176 0.0000 7.3409 0.0000
# 4 0.0000 0.0000 0.0000 35.7573 0.0000 7.3016
# 5 10.4048 11.3053 7.3409 0.0000 37.9707 0.0000
# 6 0.0000 0.0000 0.0000 7.3016 0.0000 37.5185
#
#
#
# Elastic Compliance Matrix: (Units=1/GPa)
#
#
# Indices 1 2 3 4 5 6 
#
# 1 0.015145 -0.009611 0.003234 0.000000 -0.001914 0.000000
# 2 -0.009611 0.022865 -0.009361 0.000000 -0.002364 0.000000
# 3 0.003234 -0.009361 0.019750 0.000000 -0.001918 0.000000
# 4 0.000000 0.000000 0.000000 0.029124 0.000000 -0.005668
# 5 -0.001914 -0.002364 -0.001918 0.000000 0.027935 0.000000
# 6 0.000000 0.000000 0.000000 -0.005668 0.000000 0.027757
#
#
# Mechanical properties :
#
#
# Convention : Reuss Voigt Hill
#
# Bulk Modulus (GPa) = 38.04411 43.24083 40.64247
# Shear Modulus (GPa) = 27.35058 32.53178 29.94118
#
# Velocity S-wave (km/s) = 3.60241 3.92883 3.76916
# Velocity P-wave (km/s) = 5.94595 6.41077 6.18273
#
# Compressibility (1/GPa) = 0.02628528
#
# Stress axis : x y z
#
# Youngs Moduli (GPa) = 66.02756 43.73541 50.63338
#
# Poissons Ratio (x) = 0.42034 -0.16377
# Poissons Ratio (y) = 0.63459 0.47397
# Poissons Ratio (z) = -0.21356 0.40940
#
# Static dielectric constant tensor:
#      x y z
#    x 4.557050 0.000000 -1.608530 
#    y 0.000000 3.829780 0.000000 
#    z -1.608530 0.000000 8.154170 
# 
# 
# High freq. dielectric constant tensor:
#      x y z
#    x 1.836030 0.000000 0.004030 
#    y 0.000000 1.826970 0.000000 
#    z 0.004030 0.000000 1.839920 
# 
# From -- ./inp_files/51906.got.cif
#   From: 2010.06.25/outbox.cif.g09.slc.cpg/sg11_26_cif.got.tgz:51906.got - 2010.06.27 23:14:04.
