data_PCOD8077832
_publ_section_title
;
Structure prediction by ZEFSAII (Michael W. Deem and Ramdas Pophale) SiO2 
 PCOD8077832
Probable space group: P 21/M
;
_chemical_formula_sum "Si O2"
_cell_formula_units_Z 24
_cell_length_a 9.176459
_cell_length_b 18.641956
_cell_length_c 9.449134
_cell_angle_alpha 90.000000
_cell_angle_beta 46.609397
_cell_angle_gamma 90.000000
_cell_volume 1174.643865
_symmetry_space_group_name_H-M "P 21/M"
_symmetry_group_IT_number 11
_symmetry_cell_setting 'monoclinic'
loop_
_space_group_symop_operation_xyz
x,y,z
-x,1/2+y,-z
-x,-y,-z
x,1/2-y,z
loop_
_atom_site_type_symbol
_atom_site_label
_atom_site_fract_x
_atom_site_fract_y
_atom_site_fract_z
Si Si1 0.445389 0.830117 0.856312
Si Si2 0.093418 0.332110 0.413996
Si Si3 0.220067 0.927308 0.224172
Si Si4 0.327436 0.587250 0.683357
Si Si5 0.099827 0.429543 0.145758
Si Si6 0.514479 0.947149 0.279202
O O1 0.389177 0.750000 0.944336
O O2 0.682082 0.838538 0.679471
O O3 0.341915 0.842699 0.772441
O O4 0.373196 0.886998 0.019784
O O5 0.020435 0.250000 0.455619
O O6 0.072234 0.364079 0.271439
O O7 0.958454 0.374434 0.615958
O O8 0.338959 0.954592 0.281562
O O9 0.128584 0.996010 0.208266
O O10 0.444392 0.526179 0.691330
O O11 0.434303 0.602255 0.461384
O O12 0.097282 0.563964 0.818858
O O13 0.287718 0.411522 0.919405
#
# Coordination Sequence:
#
# PCOD8077832 Si02
#       6
#     4   4   4   4   4   4
#     4  11  25  45  65  90 132 174 213 266 326 385
#     4  11  25  42  64  95 129 170 217 263 318 383
#     4  12  23  42  70  97 125 169 224 265 315 379
#     4  11  25  40  62 100 133 163 209 267 329 381
#     4  12  23  40  70  99 126 168 215 272 314 379
#     4  11  23  40  65  97 127 164 208 266 319 376
#
# _framework density 20.431725
#
# number of rings (size 3 to 8) (size 9 to 14) (size 15 to 20)
#    0.000    0.667    5.000    3.000    4.667    0.667 
#    0.000    0.833    0.000    0.000    0.000    0.000 
#    0.000    0.000    0.000    0.000    0.000    0.000 
#
# Total GULP energy -297740.412690 kJ/mol
# GULP energy per Si atom -12405.850529 kJ/mol
# Density = 2.038522 g / cm^3
# Si number density = 20.431725 Si / 1000 Ang^3
#
#
#
# Elastic Constant Matrix: (Units=GPa)
#
#
# Indices 1 2 3 4 5 6 
#
# 1 138.1072 59.5635 36.2999 0.0000 2.6893 0.0000
# 2 59.5635 89.7360 26.1701 0.0000 -6.0340 0.0000
# 3 36.2999 26.1701 111.0842 0.0000 -5.8240 0.0000
# 4 0.0000 0.0000 0.0000 13.8726 0.0000 -2.8674
# 5 2.6893 -6.0340 -5.8240 0.0000 31.1276 0.0000
# 6 0.0000 0.0000 0.0000 -2.8674 0.0000 21.6940
#
#
#
# Elastic Compliance Matrix: (Units=1/GPa)
#
#
# Indices 1 2 3 4 5 6 
#
# 1 0.010718 -0.006688 -0.002064 0.000000 -0.002609 0.000000
# 2 -0.006688 0.016241 -0.001460 0.000000 0.003453 0.000000
# 3 -0.002064 -0.001460 0.010114 0.000000 0.001788 0.000000
# 4 0.000000 0.000000 0.000000 0.074109 0.000000 0.009795
# 5 -0.002609 0.003453 0.001788 0.000000 0.033355 0.000000
# 6 0.000000 0.000000 0.000000 0.009795 0.000000 0.047390
#
#
# Mechanical properties :
#
#
# Convention : Reuss Voigt Hill
#
# Bulk Modulus (GPa) = 60.05727 64.77715 62.41721
# Shear Modulus (GPa) = 22.94620 27.79845 25.37233
#
# Velocity S-wave (km/s) = 3.35486 3.69257 3.52776
# Velocity P-wave (km/s) = 6.66818 7.06775 6.87087
#
# Compressibility (1/GPa) = 0.01665077
#
# Stress axis : x y z
#
# Youngs Moduli (GPa) = 93.29729 61.57276 98.87147
#
# Poissons Ratio (x) = 0.41180 0.20404
# Poissons Ratio (y) = 0.62398 0.14431
# Poissons Ratio (z) = 0.19254 0.08987
#
# Static dielectric constant tensor:
#      x y z
#    x 3.817930 0.000000 0.047530 
#    y 0.000000 3.684470 0.000000 
#    z 0.047530 0.000000 4.056000 
# 
# 
# High freq. dielectric constant tensor:
#      x y z
#    x 1.809790 0.000000 -0.001830 
#    y 0.000000 1.783490 0.000000 
#    z -0.001830 0.000000 1.814870 
# 
# From -- ./inp_files/14230.got.cif
#   From: 2010.06.25/outbox.cif.g09.slc.cpg/sg11_8_cif.got.tgz:14230.got - 2010.06.27 23:14:04.
