data_PCOD8077694
_publ_section_title
;
Structure prediction by ZEFSAII (Michael W. Deem and Ramdas Pophale) SiO2 
 PCOD8077694
Probable space group: P 21/M
;
_chemical_formula_sum "Si O2"
_cell_formula_units_Z 32
_cell_length_a 27.088561
_cell_length_b 9.105699
_cell_length_c 21.899895
_cell_angle_alpha 90.000000
_cell_angle_beta 161.383955
_cell_angle_gamma 90.000000
_cell_volume 1724.398975
_symmetry_space_group_name_H-M "P 21/M"
_symmetry_group_IT_number 11
_symmetry_cell_setting 'monoclinic'
loop_
_space_group_symop_operation_xyz
x,y,z
-x,1/2+y,-z
-x,-y,-z
x,1/2-y,z
loop_
_atom_site_type_symbol
_atom_site_label
_atom_site_fract_x
_atom_site_fract_y
_atom_site_fract_z
Si Si1 0.642713 0.919223 0.637390
Si Si2 0.178386 0.579600 0.061121
Si Si3 0.136725 0.577266 0.624253
Si Si4 0.450386 0.921158 0.059830
Si Si5 0.529709 0.417073 0.680915
Si Si6 0.780459 0.917996 0.397633
Si Si7 0.553583 0.423417 0.298053
Si Si8 0.138112 0.420044 0.371135
O O1 0.638228 0.750000 0.651323
O O2 0.623389 0.936074 0.541439
O O3 0.500000 0.000000 0.500000
O O4 0.798211 0.992451 0.847320
O O5 0.172253 0.750000 0.070474
O O6 0.316873 0.544544 0.177132
O O7 0.020881 0.526253 0.845097
O O8 0.107780 0.750000 0.591043
O O9 0.139998 0.522228 0.558616
O O10 0.000000 0.500000 0.500000
O O11 0.298899 0.534013 0.845124
O O12 0.453748 0.750000 0.081316
O O13 0.600347 0.960824 0.195048
O O14 0.450951 0.012590 0.122824
O O15 0.537708 0.250000 0.714896
O O16 0.524579 0.529630 0.730397
O O17 0.796072 0.750000 0.393960
O O18 0.871794 0.943928 0.567765
O O19 0.556318 0.250000 0.295809
O O20 0.727096 0.484091 0.500116
O O21 0.173693 0.250000 0.398486
#
# Coordination Sequence:
#
# PCOD8077694 Si02
#       8
#     4   4   4   4   4   4   4   4
#     4   9  17  30  50  75 103 136 174 215 260 311
#     4   9  18  33  55  79 102 135 177 217 259 310
#     4  11  23  37  55  81 111 140 171 212 260 306
#     4   9  20  39  59  76 101 141 178 208 255 317
#     4   9  18  33  52  75 105 140 174 210 260 318
#     4   9  18  35  58  80 103 136 177 215 254 307
#     4  11  22  34  53  81 107 134 174 221 260 299
#     4   9  19  37  57  77 106 142 174 208 260 320
#
# _framework density 18.557189999999999
#
# number of rings (size 3 to 8) (size 9 to 14) (size 15 to 20)
#    0.000    2.500    0.000    3.750    0.000    7.000 
#    0.000    3.125    0.000    0.000    0.000    0.000 
#    0.000    0.000    0.000    0.000    0.000    0.000 
#
# Total GULP energy -396790.682146 kJ/mol
# GULP energy per Si atom -12399.708817 kJ/mol
# Density = 1.851495 g / cm^3
# Si number density = 18.557190 Si / 1000 Ang^3
#
#
#
# Elastic Constant Matrix: (Units=GPa)
#
#
# Indices 1 2 3 4 5 6 
#
# 1 41.3551 19.2419 -13.0603 0.0000 -1.0207 0.0000
# 2 19.2419 71.3299 9.8701 0.0000 -3.5924 0.0000
# 3 -13.0603 9.8701 61.0165 0.0000 -3.6790 0.0000
# 4 0.0000 0.0000 0.0000 29.5794 0.0000 -3.8723
# 5 -1.0207 -3.5924 -3.6790 0.0000 17.4035 0.0000
# 6 0.0000 0.0000 0.0000 -3.8723 0.0000 34.5686
#
#
#
# Elastic Compliance Matrix: (Units=1/GPa)
#
#
# Indices 1 2 3 4 5 6 
#
# 1 0.031276 -0.009507 0.008331 0.000000 0.001633 0.000000
# 2 -0.009507 0.017339 -0.004718 0.000000 0.002024 0.000000
# 3 0.008331 -0.004718 0.019150 0.000000 0.003563 0.000000
# 4 0.000000 0.000000 0.000000 0.034310 0.000000 0.003843
# 5 0.001633 0.002024 0.003563 0.000000 0.058727 0.000000
# 6 0.000000 0.000000 0.000000 0.003843 0.000000 0.029359
#
#
# Mechanical properties :
#
#
# Convention : Reuss Voigt Hill
#
# Bulk Modulus (GPa) = 17.86478 22.86721 20.36600
# Shear Modulus (GPa) = 22.66469 26.82029 24.74249
#
# Velocity S-wave (km/s) = 3.49856 3.80581 3.65541
# Velocity P-wave (km/s) = 5.09585 5.62686 5.36792
#
# Compressibility (1/GPa) = 0.05597606
#
# Stress axis : x y z
#
# Youngs Moduli (GPa) = 31.97369 57.67409 52.21883
#
# Poissons Ratio (x) = 0.54833 -0.43503
# Poissons Ratio (y) = 0.30399 0.24635
# Poissons Ratio (z) = -0.26637 0.27209
#
# Static dielectric constant tensor:
#      x y z
#    x 3.358490 0.000000 -0.340460 
#    y 0.000000 3.428680 0.000000 
#    z -0.340460 0.000000 3.846400 
# 
# 
# High freq. dielectric constant tensor:
#      x y z
#    x 1.707910 0.000000 -0.015880 
#    y 0.000000 1.718100 0.000000 
#    z -0.015880 0.000000 1.722090 
# 
# From -- ./inp_files/67229.got.cif
#   From: 2010.06.25/outbox.cif.g09.slc.cpg/sg11_34_cif.got.tgz:67229.got - 2010.06.27 23:14:04.
