data_PCOD8077877
_publ_section_title
;
Structure prediction by ZEFSAII (Michael W. Deem and Ramdas Pophale) SiO2 
 PCOD8077877
Probable space group: P 21/M
;
_chemical_formula_sum "Si O2"
_cell_formula_units_Z 16
_cell_length_a 9.125324
_cell_length_b 16.156369
_cell_length_c 10.455261
_cell_angle_alpha 90.000000
_cell_angle_beta 26.650732
_cell_angle_gamma 90.000000
_cell_volume 691.414382
_symmetry_space_group_name_H-M "P 21/M"
_symmetry_group_IT_number 11
_symmetry_cell_setting 'monoclinic'
loop_
_space_group_symop_operation_xyz
x,y,z
-x,1/2+y,-z
-x,-y,-z
x,1/2-y,z
loop_
_atom_site_type_symbol
_atom_site_label
_atom_site_fract_x
_atom_site_fract_y
_atom_site_fract_z
Si Si1 0.711596 0.342004 0.772017
Si Si2 0.961560 0.450912 0.900055
Si Si3 0.915708 0.558374 0.685922
Si Si4 0.640159 0.843738 0.563263
O O1 0.558564 0.250000 0.891141
O O2 0.824641 0.366396 0.539086
O O3 0.033383 0.345925 0.607598
O O4 0.454205 0.407225 0.031058
O O5 0.976673 0.516815 0.773803
O O6 0.267786 0.387870 0.643298
O O7 0.634320 0.396441 0.150798
O O8 0.000000 0.500000 0.000000
O O9 0.000000 0.500000 0.500000
O O10 0.516072 0.750000 0.638094
#
# Coordination Sequence:
#
# PCOD8077877 Si02
#       4
#     4   4   4   4
#     4  11  24  42  68 103 135 172 225 286 340 393
#     4  12  26  45  66 100 137 181 225 272 332 408
#     4  12  24  42  67 100 134 173 222 279 340 391
#     4  11  24  44  70 100 132 176 228 279 335 401
#
# _framework density 23.140971
#
# number of rings (size 3 to 8) (size 9 to 14) (size 15 to 20)
#    0.000    0.500    2.500    6.000    0.000    4.000 
#    0.000    7.500    0.000    0.000    0.000    0.000 
#    0.000    0.000    0.000    0.000    0.000    0.000 
#
# Total GULP energy -198307.055274 kJ/mol
# GULP energy per Si atom -12394.190955 kJ/mol
# Density = 2.308830 g / cm^3
# Si number density = 23.140971 Si / 1000 Ang^3
#
#
#
# Elastic Constant Matrix: (Units=GPa)
#
#
# Indices 1 2 3 4 5 6 
#
# 1 77.2948 58.6867 41.9158 0.0000 30.6268 0.0000
# 2 58.6867 152.6156 61.6415 0.0000 22.8114 0.0000
# 3 41.9158 61.6415 164.0163 0.0000 19.5145 0.0000
# 4 0.0000 0.0000 0.0000 52.0767 0.0000 -7.5839
# 5 30.6268 22.8114 19.5145 0.0000 42.0089 0.0000
# 6 0.0000 0.0000 0.0000 -7.5839 0.0000 13.0662
#
#
#
# Elastic Compliance Matrix: (Units=1/GPa)
#
#
# Indices 1 2 3 4 5 6 
#
# 1 0.024255 -0.006473 -0.002202 0.000000 -0.013145 0.000000
# 2 -0.006473 0.009830 -0.002082 0.000000 0.000348 0.000000
# 3 -0.002202 -0.002082 0.007533 0.000000 -0.000764 0.000000
# 4 0.000000 0.000000 0.000000 0.020975 0.000000 0.012175
# 5 -0.013145 0.000348 -0.000764 0.000000 0.033554 0.000000
# 6 0.000000 0.000000 0.000000 0.012175 0.000000 0.083599
#
#
# Mechanical properties :
#
#
# Convention : Reuss Voigt Hill
#
# Bulk Modulus (GPa) = 49.73844 79.82386 64.78115
# Shear Modulus (GPa) = 24.04302 36.87587 30.45944
#
# Velocity S-wave (km/s) = 3.22682 3.99624 3.63196
# Velocity P-wave (km/s) = 5.95176 7.47414 6.75597
#
# Compressibility (1/GPa) = 0.02010517
#
# Stress axis : x y z
#
# Youngs Moduli (GPa) = 41.22929 101.72740 132.75164
#
# Poissons Ratio (x) = 0.65845 0.29230
# Poissons Ratio (y) = 0.26686 0.27635
# Poissons Ratio (z) = 0.09078 0.21177
#
# Static dielectric constant tensor:
#      x y z
#    x 3.603760 0.000000 0.247350 
#    y 0.000000 5.431680 0.000000 
#    z 0.247350 0.000000 5.144070 
# 
# 
# High freq. dielectric constant tensor:
#      x y z
#    x 1.853310 0.000000 0.006920 
#    y 0.000000 1.939120 0.000000 
#    z 0.006920 0.000000 1.956500 
# 
# From -- ./inp_files/13388.got.cif
#   From: 2010.06.25/outbox.cif.g09.slc.cpg/sg11_7_cif.got.tgz:13388.got - 2010.06.27 23:14:04.
