data_PCOD8077235
_publ_section_title
;
Structure prediction by ZEFSAII (Michael W. Deem and Ramdas Pophale) SiO2 
 PCOD8077235
Probable space group: P 21/M
;
_chemical_formula_sum "Si O2"
_cell_formula_units_Z 28
_cell_length_a 14.805918
_cell_length_b 15.549656
_cell_length_c 7.206300
_cell_angle_alpha 90.000000
_cell_angle_beta 53.166669
_cell_angle_gamma 90.000000
_cell_volume 1327.902505
_symmetry_space_group_name_H-M "P 21/M"
_symmetry_group_IT_number 11
_symmetry_cell_setting 'monoclinic'
loop_
_space_group_symop_operation_xyz
x,y,z
-x,1/2+y,-z
-x,-y,-z
x,1/2-y,z
loop_
_atom_site_type_symbol
_atom_site_label
_atom_site_fract_x
_atom_site_fract_y
_atom_site_fract_z
Si Si1 0.129659 0.652134 0.551257
Si Si2 0.714721 0.852936 0.442671
Si Si3 0.711880 0.351585 0.316940
Si Si4 0.929138 0.572533 0.982601
Si Si5 0.388273 0.050343 0.083130
Si Si6 0.194175 0.953482 0.132170
Si Si7 0.461138 0.149187 0.650227
O O1 0.149450 0.750000 0.464882
O O2 0.233056 0.620352 0.554757
O O3 0.120548 0.593314 0.380386
O O4 0.013648 0.646479 0.809417
O O5 0.713976 0.750000 0.473601
O O6 0.678700 0.903127 0.670257
O O7 0.626559 0.884085 0.395041
O O8 0.839017 0.884452 0.231882
O O9 0.713088 0.250000 0.296050
O O10 0.585535 0.390645 0.462005
O O11 0.785581 0.387910 0.059708
O O12 0.871242 0.535310 0.868450
O O13 0.000000 0.500000 0.000000
O O14 0.311611 0.980321 0.077413
O O15 0.418950 0.126335 0.905395
O O16 0.500000 0.000000 0.000000
O O17 0.471610 0.250000 0.623735
#
# Coordination Sequence:
#
# PCOD8077235 Si02
#       7
#     4   4   4   4   4   4   4
#     4  11  24  43  65  95 130 173 220 268 331 397
#     4  11  25  46  67  96 135 180 224 272 335 402
#     4  10  22  41  66  95 132 173 216 268 328 396
#     4  12  24  45  68  94 133 171 227 277 328 383
#     4  12  25  39  68 101 134 168 218 270 333 394
#     4  12  24  41  66  96 131 166 218 271 332 383
#     4  10  22  42  65  93 132 174 218 270 330 397
#
# _framework density 21.085887
#
# number of rings (size 3 to 8) (size 9 to 14) (size 15 to 20)
#    0.000    0.857    2.857    4.286    2.000    1.143 
#    0.000    7.143    0.000    0.000    0.000    0.000 
#    0.000    0.000    0.000    0.000    0.000    0.000 
#
# Total GULP energy -347293.336353 kJ/mol
# GULP energy per Si atom -12403.333441 kJ/mol
# Density = 2.103789 g / cm^3
# Si number density = 21.085887 Si / 1000 Ang^3
#
#
#
# Elastic Constant Matrix: (Units=GPa)
#
#
# Indices 1 2 3 4 5 6 
#
# 1 85.6709 29.0828 12.6580 0.0000 -1.2105 0.0000
# 2 29.0828 51.5820 32.7526 0.0000 5.2989 0.0000
# 3 12.6580 32.7526 98.3402 0.0000 -3.1604 0.0000
# 4 0.0000 0.0000 0.0000 41.5013 0.0000 0.1422
# 5 -1.2105 5.2989 -3.1604 0.0000 38.3483 0.0000
# 6 0.0000 0.0000 0.0000 0.1422 0.0000 35.4845
#
#
#
# Elastic Compliance Matrix: (Units=1/GPa)
#
#
# Indices 1 2 3 4 5 6 
#
# 1 0.014652 -0.009246 0.001253 0.000000 0.001843 0.000000
# 2 -0.009246 0.031075 -0.009332 0.000000 -0.005355 0.000000
# 3 0.001253 -0.009332 0.013193 0.000000 0.002416 0.000000
# 4 0.000000 0.000000 0.000000 0.024096 0.000000 -0.000097
# 5 0.001843 -0.005355 0.002416 0.000000 0.027074 0.000000
# 6 0.000000 0.000000 0.000000 -0.000097 0.000000 0.028182
#
#
# Mechanical properties :
#
#
# Convention : Reuss Voigt Hill
#
# Bulk Modulus (GPa) = 41.20227 42.73111 41.96669
# Shear Modulus (GPa) = 27.62251 33.80681 30.71466
#
# Velocity S-wave (km/s) = 3.62332 4.00846 3.82074
# Velocity P-wave (km/s) = 6.08993 6.46010 6.27774
#
# Compressibility (1/GPa) = 0.02427051
#
# Stress axis : x y z
#
# Youngs Moduli (GPa) = 68.24887 32.18036 75.79711
#
# Poissons Ratio (x) = 0.29754 -0.09495
# Poissons Ratio (y) = 0.63102 0.70731
# Poissons Ratio (z) = -0.08549 0.30029
#
# Static dielectric constant tensor:
#      x y z
#    x 4.288850 0.000000 -0.005730 
#    y 0.000000 3.728930 0.000000 
#    z -0.005730 0.000000 3.859830 
# 
# 
# High freq. dielectric constant tensor:
#      x y z
#    x 1.839640 0.000000 -0.001560 
#    y 0.000000 1.828580 0.000000 
#    z -0.001560 0.000000 1.835250 
# 
# From -- ./inp_files/6784.got.cif
#   From: 2010.06.25/outbox.cif.g09.slc.cpg/sg11_4_cif.got.tgz:6784.got - 2010.06.27 23:14:04.
