data_PCOD8077852
_publ_section_title
;
Structure prediction by ZEFSAII (Michael W. Deem and Ramdas Pophale) SiO2 
 PCOD8077852
Probable space group: P 21/M
;
_chemical_formula_sum "Si O2"
_cell_formula_units_Z 32
_cell_length_a 19.882079
_cell_length_b 14.705291
_cell_length_c 13.182679
_cell_angle_alpha 90.000000
_cell_angle_beta 156.811677
_cell_angle_gamma 90.000000
_cell_volume 1517.625843
_symmetry_space_group_name_H-M "P 21/M"
_symmetry_group_IT_number 11
_symmetry_cell_setting 'monoclinic'
loop_
_space_group_symop_operation_xyz
x,y,z
-x,1/2+y,-z
-x,-y,-z
x,1/2-y,z
loop_
_atom_site_type_symbol
_atom_site_label
_atom_site_fract_x
_atom_site_fract_y
_atom_site_fract_z
Si Si1 0.273394 0.011128 0.416302
Si Si2 0.727439 0.600217 0.250394
Si Si3 0.907892 0.352078 0.193859
Si Si4 0.554846 0.852578 0.208447
Si Si5 0.118835 0.353654 0.834853
Si Si6 0.073048 0.002309 0.940598
Si Si7 0.463354 0.351231 0.205083
Si Si8 0.188697 0.906034 0.725542
O O1 0.391066 0.095914 0.613019
O O2 0.110342 0.007738 0.262614
O O3 0.377074 0.917632 0.565430
O O4 0.218105 0.025349 0.223545
O O5 0.624154 0.586444 0.211711
O O6 0.788814 0.506656 0.285766
O O7 0.892372 0.659274 0.505580
O O8 0.603904 0.653355 0.003259
O O9 0.831737 0.250000 0.075134
O O10 0.817695 0.405993 0.160982
O O11 0.877825 0.409311 0.049452
O O12 0.629078 0.750000 0.310255
O O13 0.350568 0.846422 0.916642
O O14 0.121166 0.250000 0.875159
O O15 0.057285 0.414484 0.842071
O O16 0.986115 0.362876 0.558033
O O17 0.307367 0.383741 0.060318
O O18 0.525134 0.250000 0.320736
#
# Coordination Sequence:
#
# PCOD8077852 Si02
#       8
#     4   4   4   4   4   4   4   4
#     4  11  26  46  65  91 128 172 225 270 320 379
#     4  12  22  39  66  95 133 172 208 263 331 394
#     4  12  23  41  67  99 133 169 214 266 326 391
#     4  12  25  41  64  99 135 170 215 268 327 390
#     4  11  23  42  66  97 132 167 212 266 328 393
#     4  11  26  45  67  92 123 176 225 269 320 380
#     4  11  24  42  66  97 131 167 210 266 328 390
#     4  12  23  41  66 100 135 169 209 265 330 395
#
# _framework density 21.085566
#
# number of rings (size 3 to 8) (size 9 to 14) (size 15 to 20)
#    0.000    0.500    5.000    3.750    1.750    2.000 
#    0.000    2.500    0.000    0.000    0.000    0.000 
#    0.000    0.000    0.000    0.000    0.000    0.000 
#
# Total GULP energy -396892.961132 kJ/mol
# GULP energy per Si atom -12402.905035 kJ/mol
# Density = 2.103757 g / cm^3
# Si number density = 21.085566 Si / 1000 Ang^3
#
#
#
# Elastic Constant Matrix: (Units=GPa)
#
#
# Indices 1 2 3 4 5 6 
#
# 1 112.5632 43.3071 27.5988 0.0000 -7.1882 0.0000
# 2 43.3071 131.4829 31.1920 0.0000 -6.9667 0.0000
# 3 27.5988 31.1920 42.8613 0.0000 -6.1563 0.0000
# 4 0.0000 0.0000 0.0000 13.8216 0.0000 12.1380
# 5 -7.1882 -6.9667 -6.1563 0.0000 30.6947 0.0000
# 6 0.0000 0.0000 0.0000 12.1380 0.0000 21.8978
#
#
#
# Elastic Compliance Matrix: (Units=1/GPa)
#
#
# Indices 1 2 3 4 5 6 
#
# 1 0.011162 -0.002360 -0.005325 0.000000 0.001010 0.000000
# 2 -0.002360 0.009709 -0.005467 0.000000 0.000555 0.000000
# 3 -0.005325 -0.005467 0.031282 0.000000 0.003786 0.000000
# 4 0.000000 0.000000 0.000000 0.140973 0.000000 -0.078142
# 5 0.001010 0.000555 0.003786 0.000000 0.033701 0.000000
# 6 0.000000 0.000000 0.000000 -0.078142 0.000000 0.088981
#
#
# Mechanical properties :
#
#
# Convention : Reuss Voigt Hill
#
# Bulk Modulus (GPa) = 38.68393 54.56702 46.62548
# Shear Modulus (GPa) = 14.25612 25.60346 19.92979
#
# Velocity S-wave (km/s) = 2.60303 3.48841 3.07772
# Velocity P-wave (km/s) = 5.23644 6.49310 5.89834
#
# Compressibility (1/GPa) = 0.02585052
#
# Stress axis : x y z
#
# Youngs Moduli (GPa) = 89.59091 102.99725 31.96733
#
# Poissons Ratio (x) = 0.24304 0.17022
# Poissons Ratio (y) = 0.21140 0.17475
# Poissons Ratio (z) = 0.47706 0.56304
#
# Static dielectric constant tensor:
#      x y z
#    x 3.918210 0.000000 0.035580 
#    y 0.000000 3.788660 0.000000 
#    z 0.035580 0.000000 3.828620 
# 
# 
# High freq. dielectric constant tensor:
#      x y z
#    x 1.834220 0.000000 0.010420 
#    y 0.000000 1.833350 0.000000 
#    z 0.010420 0.000000 1.813000 
# 
# From -- ./inp_files/41717.got.cif
#   From: 2010.06.25/outbox.cif.g09.slc.cpg/sg11_21_cif.got.tgz:41717.got - 2010.06.27 23:14:04.
