data_PCOD8077160
_publ_section_title
;
Structure prediction by ZEFSAII (Michael W. Deem and Ramdas Pophale) SiO2 
 PCOD8077160
Probable space group: P 21/M
;
_chemical_formula_sum "Si O2"
_cell_formula_units_Z 28
_cell_length_a 8.649783
_cell_length_b 14.152417
_cell_length_c 12.041536
_cell_angle_alpha 90.000000
_cell_angle_beta 116.284767
_cell_angle_gamma 90.000000
_cell_volume 1321.656160
_symmetry_space_group_name_H-M "P 21/M"
_symmetry_group_IT_number 11
_symmetry_cell_setting 'monoclinic'
loop_
_space_group_symop_operation_xyz
x,y,z
-x,1/2+y,-z
-x,-y,-z
x,1/2-y,z
loop_
_atom_site_type_symbol
_atom_site_label
_atom_site_fract_x
_atom_site_fract_y
_atom_site_fract_z
Si Si1 0.182586 0.640112 0.198036
Si Si2 0.205092 0.146478 0.945747
Si Si3 0.413804 0.479937 0.171734
Si Si4 0.300767 0.146842 0.498176
Si Si5 0.746019 0.916417 0.279756
Si Si6 0.129369 0.540662 0.412249
Si Si7 0.564989 0.142297 0.400428
O O1 0.242012 0.750000 0.215514
O O2 0.314412 0.576231 0.170436
O O3 0.168577 0.604121 0.318636
O O4 0.993363 0.629228 0.082792
O O5 0.264222 0.250000 0.005857
O O6 0.221945 0.147568 0.817386
O O7 0.322620 0.066783 0.037388
O O8 0.610990 0.502664 0.200895
O O9 0.421551 0.405029 0.275010
O O10 0.222031 0.250000 0.445211
O O11 0.333742 0.139626 0.640897
O O12 0.488378 0.136308 0.500865
O O13 0.172361 0.069184 0.406673
O O14 0.929311 0.955960 0.383496
O O15 0.256681 0.582553 0.548317
O O16 0.600163 0.250000 0.374815
#
# Coordination Sequence:
#
# PCOD8077160 Si02
#       7
#     4   4   4   4   4   4   4
#     4  10  22  40  67  92 119 160 210 257 304 363
#     4  10  23  43  64  90 120 164 209 251 308 365
#     4  12  22  41  63  92 127 158 203 259 307 362
#     4  11  22  38  61  92 123 160 205 255 303 360
#     4  11  24  39  63  88 126 165 210 251 299 363
#     4  11  21  42  58  91 128 163 201 252 307 371
#     4  11  23  38  62  92 123 161 202 252 316 368
#
# _framework density 21.18554
#
# number of rings (size 3 to 8) (size 9 to 14) (size 15 to 20)
#    0.000    1.143    2.857    3.857    0.000    4.000 
#    0.000    0.714    0.000    0.000    0.000    0.000 
#    0.000    0.000    0.000    0.000    0.000    0.000 
#
# Total GULP energy -347173.581959 kJ/mol
# GULP energy per Si atom -12399.056499 kJ/mol
# Density = 2.113732 g / cm^3
# Si number density = 21.185540 Si / 1000 Ang^3
#
#
#
# Elastic Constant Matrix: (Units=GPa)
#
#
# Indices 1 2 3 4 5 6 
#
# 1 98.5399 52.3063 37.7751 0.0000 12.9142 0.0000
# 2 52.3063 166.1493 45.6633 0.0000 18.3230 0.0000
# 3 37.7751 45.6633 85.1451 0.0000 13.0458 0.0000
# 4 0.0000 0.0000 0.0000 31.7636 0.0000 3.8893
# 5 12.9142 18.3230 13.0458 0.0000 29.6181 0.0000
# 6 0.0000 0.0000 0.0000 3.8893 0.0000 15.5259
#
#
#
# Elastic Compliance Matrix: (Units=1/GPa)
#
#
# Indices 1 2 3 4 5 6 
#
# 1 0.013559 -0.002882 -0.004115 0.000000 -0.002317 0.000000
# 2 -0.002882 0.007911 -0.002581 0.000000 -0.002501 0.000000
# 3 -0.004115 -0.002581 0.015480 0.000000 -0.003427 0.000000
# 4 0.000000 0.000000 0.000000 0.032479 0.000000 -0.008136
# 5 -0.002317 -0.002501 -0.003427 0.000000 0.037830 0.000000
# 6 0.000000 0.000000 0.000000 -0.008136 0.000000 0.066446
#
#
# Mechanical properties :
#
#
# Convention : Reuss Voigt Hill
#
# Bulk Modulus (GPa) = 56.19944 69.03596 62.61770
# Shear Modulus (GPa) = 25.15188 29.65416 27.40302
#
# Velocity S-wave (km/s) = 3.44934 3.74536 3.60040
# Velocity P-wave (km/s) = 6.51527 7.16664 6.84871
#
# Compressibility (1/GPa) = 0.01779377
#
# Stress axis : x y z
#
# Youngs Moduli (GPa) = 73.75102 126.40411 64.60145
#
# Poissons Ratio (x) = 0.36433 0.26583
# Poissons Ratio (y) = 0.21257 0.16673
# Poissons Ratio (z) = 0.30348 0.32623
#
# Static dielectric constant tensor:
#      x y z
#    x 3.899730 0.000000 0.123280 
#    y 0.000000 3.847420 0.000000 
#    z 0.123280 0.000000 3.632590 
# 
# 
# High freq. dielectric constant tensor:
#      x y z
#    x 1.831670 0.000000 0.007770 
#    y 0.000000 1.837780 0.000000 
#    z 0.007770 0.000000 1.817650 
# 
# From -- ./inp_files/31737.got.cif
#   From: 2010.06.25/outbox.cif.g09.slc.cpg/sg11_16_cif.got.tgz:31737.got - 2010.06.27 23:14:04.
