data_PCOD8077181
_publ_section_title
;
Structure prediction by ZEFSAII (Michael W. Deem and Ramdas Pophale) SiO2 
 PCOD8077181
Probable space group: P 21/M
;
_chemical_formula_sum "Si O2"
_cell_formula_units_Z 18
_cell_length_a 8.345434
_cell_length_b 9.822813
_cell_length_c 19.617036
_cell_angle_alpha 90.000000
_cell_angle_beta 147.240697
_cell_angle_gamma 90.000000
_cell_volume 870.170934
_symmetry_space_group_name_H-M "P 21/M"
_symmetry_group_IT_number 11
_symmetry_cell_setting 'monoclinic'
loop_
_space_group_symop_operation_xyz
x,y,z
-x,1/2+y,-z
-x,-y,-z
x,1/2-y,z
loop_
_atom_site_type_symbol
_atom_site_label
_atom_site_fract_x
_atom_site_fract_y
_atom_site_fract_z
Si Si1 0.876038 0.512774 0.320262
Si Si2 0.820024 0.012894 0.146407
Si Si3 0.661869 0.250000 0.531950
Si Si4 0.201595 0.750000 0.272901
Si Si5 0.349415 0.250000 0.686318
Si Si6 0.833739 0.250000 0.396776
Si Si7 0.227709 0.250000 0.258568
O O1 0.789240 0.452504 0.215674
O O2 0.618926 0.613825 0.256436
O O3 0.917508 0.385556 0.385314
O O4 0.167218 0.608674 0.422583
O O5 0.014658 0.121140 0.174427
O O6 0.981575 0.873078 0.195534
O O7 0.500000 0.000000 0.000000
O O8 0.581634 0.250000 0.583735
O O9 0.359320 0.250000 0.382160
O O10 0.388863 0.750000 0.272582
O O11 0.026274 0.250000 0.534397
O O12 0.486918 0.250000 0.294439
#
# Coordination Sequence:
#
# PCOD8077181 Si02
#       7
#     4   4   2   2   2   2   2
#     4  10  22  41  62  91 132 162 200 254 316 367
#     4  11  25  45  64  87 124 172 219 255 293 362
#     4   9  22  39  60  98 124 167 200 255 312 378
#     4  10  23  39  67  91 127 165 208 255 313 366
#     4  11  22  39  61  94 134 157 196 253 332 377
#     4  12  23  37  63 101 132 157 195 256 324 381
#     4  12  24  40  65  94 125 158 215 255 313 368
#
# _framework density 20.685592
#
# number of rings (size 3 to 8) (size 9 to 14) (size 15 to 20)
#    0.000    1.333    2.222    4.000    6.222    1.778 
#    0.000    6.667    0.000    0.000    0.000    0.000 
#    0.000    0.000    0.000    0.000    0.000    0.000 
#
# Total GULP energy -223161.715490 kJ/mol
# GULP energy per Si atom -12397.873083 kJ/mol
# Density = 2.063851 g / cm^3
# Si number density = 20.685592 Si / 1000 Ang^3
#
#
#
# Elastic Constant Matrix: (Units=GPa)
#
#
# Indices 1 2 3 4 5 6 
#
# 1 100.2989 20.4758 12.6420 0.0000 3.7170 0.0000
# 2 20.4758 127.9925 12.2613 0.0000 0.9874 0.0000
# 3 12.6420 12.2613 92.8410 0.0000 11.1396 0.0000
# 4 0.0000 0.0000 0.0000 5.3222 0.0000 2.6593
# 5 3.7170 0.9874 11.1396 0.0000 23.5951 0.0000
# 6 0.0000 0.0000 0.0000 2.6593 0.0000 27.5799
#
#
#
# Elastic Compliance Matrix: (Units=1/GPa)
#
#
# Indices 1 2 3 4 5 6 
#
# 1 0.010466 -0.001562 -0.001091 0.000000 -0.001068 0.000000
# 2 -0.001562 0.008147 -0.000903 0.000000 0.000331 0.000000
# 3 -0.001091 -0.000903 0.011675 0.000000 -0.005302 0.000000
# 4 0.000000 0.000000 0.000000 0.197404 0.000000 -0.019034
# 5 -0.001068 0.000331 -0.005302 0.000000 0.045039 0.000000
# 6 0.000000 0.000000 0.000000 -0.019034 0.000000 0.038094
#
#
# Mechanical properties :
#
#
# Convention : Reuss Voigt Hill
#
# Bulk Modulus (GPa) = 43.14588 45.76562 44.45575
# Shear Modulus (GPa) = 15.35337 29.68300 22.51819
#
# Velocity S-wave (km/s) = 2.72734 3.79220 3.30296
# Velocity P-wave (km/s) = 5.55167 6.43014 6.00699
#
# Compressibility (1/GPa) = 0.02317718
#
# Stress axis : x y z
#
# Youngs Moduli (GPa) = 95.54688 122.74865 85.65239
#
# Poissons Ratio (x) = 0.19168 0.09342
# Poissons Ratio (y) = 0.14921 0.07735
# Poissons Ratio (z) = 0.10421 0.11085
#
# Static dielectric constant tensor:
#      x y z
#    x 4.092490 0.000000 -0.167510 
#    y 0.000000 3.970490 0.000000 
#    z -0.167510 0.000000 3.490920 
# 
# 
# High freq. dielectric constant tensor:
#      x y z
#    x 1.826140 0.000000 -0.002830 
#    y 0.000000 1.831410 0.000000 
#    z -0.002830 0.000000 1.775110 
# 
# From -- ./inp_files/15737.got.cif
#   From: 2010.06.25/outbox.cif.g09.slc.cpg/sg11_8_cif.got.tgz:15737.got - 2010.06.27 23:14:04.
