data_PCOD8077662
_publ_section_title
;
Structure prediction by ZEFSAII (Michael W. Deem and Ramdas Pophale) SiO2 
 PCOD8077662
Probable space group: P 21/M
;
_chemical_formula_sum "Si O2"
_cell_formula_units_Z 24
_cell_length_a 8.448052
_cell_length_b 28.377653
_cell_length_c 9.221235
_cell_angle_alpha 90.000000
_cell_angle_beta 32.225474
_cell_angle_gamma 90.000000
_cell_volume 1178.840364
_symmetry_space_group_name_H-M "P 21/M"
_symmetry_group_IT_number 11
_symmetry_cell_setting 'monoclinic'
loop_
_space_group_symop_operation_xyz
x,y,z
-x,1/2+y,-z
-x,-y,-z
x,1/2-y,z
loop_
_atom_site_type_symbol
_atom_site_label
_atom_site_fract_x
_atom_site_fract_y
_atom_site_fract_z
Si Si1 0.752140 0.533767 0.250342
Si Si2 0.986183 0.250000 0.556680
Si Si3 0.670323 0.618859 0.110432
Si Si4 0.141639 0.655083 0.959413
Si Si5 0.775068 0.888906 0.467646
Si Si6 0.015559 0.853757 0.571413
Si Si7 0.362564 0.750000 0.880601
O O1 0.500000 0.500000 0.500000
O O2 0.664537 0.566073 0.180125
O O3 0.852262 0.564724 0.312111
O O4 0.000000 0.500000 0.000000
O O5 0.987652 0.297665 0.457907
O O6 0.288474 0.250000 0.408300
O O7 0.724872 0.250000 0.880267
O O8 0.336578 0.636845 0.391680
O O9 0.925199 0.648282 0.992633
O O10 0.755550 0.627162 0.877931
O O11 0.418670 0.618274 0.747634
O O12 0.260941 0.707091 0.862080
O O13 0.941211 0.653494 0.258308
O O14 0.935694 0.887965 0.498305
#
# Coordination Sequence:
#
# PCOD8077662 Si02
#       7
#     4   2   4   4   4   4   2
#     4  11  23  45  70  93 122 167 219 271 327 395
#     4  12  24  38  64  94 136 174 220 246 308 382
#     4  11  25  41  64  95 133 163 210 272 339 366
#     4  11  21  39  62  91 124 171 218 262 301 374
#     4  11  22  41  66  93 125 174 213 256 325 387
#     4  12  23  42  62  97 136 174 205 263 322 380
#     4  12  20  38  62  94 120 168 236 256 284 378
#
# _framework density 20.358989999999999
#
# number of rings (size 3 to 8) (size 9 to 14) (size 15 to 20)
#    0.000    0.667    3.333    7.000    0.000    1.333 
#    0.000    5.000    0.000    0.000    0.000    0.000 
#    0.000    0.000    0.000    0.000    0.000    0.000 
#
# Total GULP energy -297339.137696 kJ/mol
# GULP energy per Si atom -12389.130737 kJ/mol
# Density = 2.031265 g / cm^3
# Si number density = 20.358990 Si / 1000 Ang^3
#
#
#
# Elastic Constant Matrix: (Units=GPa)
#
#
# Indices 1 2 3 4 5 6 
#
# 1 95.7833 45.2629 20.9892 0.0000 -10.3093 0.0000
# 2 45.2629 140.1102 34.7733 0.0000 -0.7754 0.0000
# 3 20.9892 34.7733 104.6812 0.0000 -4.5231 0.0000
# 4 0.0000 0.0000 0.0000 51.4135 0.0000 31.4688
# 5 -10.3093 -0.7754 -4.5231 0.0000 46.5226 0.0000
# 6 0.0000 0.0000 0.0000 31.4688 0.0000 119.8820
#
#
#
# Elastic Compliance Matrix: (Units=1/GPa)
#
#
# Indices 1 2 3 4 5 6 
#
# 1 0.012792 -0.003825 -0.001179 0.000000 0.002656 0.000000
# 2 -0.003825 0.008923 -0.002237 0.000000 -0.000916 0.000000
# 3 -0.001179 -0.002237 0.010564 0.000000 0.000728 0.000000
# 4 0.000000 0.000000 0.000000 0.023173 0.000000 -0.006083
# 5 0.002656 -0.000916 0.000728 0.000000 0.022139 0.000000
# 6 0.000000 0.000000 0.000000 -0.006083 0.000000 0.009938
#
#
# Mechanical properties :
#
#
# Convention : Reuss Voigt Hill
#
# Bulk Modulus (GPa) = 56.19136 60.29174 58.24155
# Shear Modulus (GPa) = 46.32012 59.53358 52.92685
#
# Velocity S-wave (km/s) = 4.77505 5.41345 5.10424
# Velocity P-wave (km/s) = 7.61982 8.29171 7.96285
#
# Compressibility (1/GPa) = 0.01779633
#
# Stress axis : x y z
#
# Youngs Moduli (GPa) = 78.17273 112.07000 94.66307
#
# Poissons Ratio (x) = 0.42868 0.11165
# Poissons Ratio (y) = 0.29902 0.21173
# Poissons Ratio (z) = 0.09220 0.25067
#
# Static dielectric constant tensor:
#      x y z
#    x 3.639270 0.000000 0.017100 
#    y 0.000000 3.562870 0.000000 
#    z 0.017100 0.000000 4.027990 
# 
# 
# High freq. dielectric constant tensor:
#      x y z
#    x 1.792310 0.000000 -0.003970 
#    y 0.000000 1.791210 0.000000 
#    z -0.003970 0.000000 1.825180 
# 
# From -- ./inp_files/15391.got.cif
#   From: 2010.06.25/outbox.cif.g09.slc.cpg/sg11_8_cif.got.tgz:15391.got - 2010.06.27 23:14:04.
