data_PCOD8077241
_publ_section_title
;
Structure prediction by ZEFSAII (Michael W. Deem and Ramdas Pophale) SiO2 
 PCOD8077241
Probable space group: P 21/M
;
_chemical_formula_sum "Si O2"
_cell_formula_units_Z 32
_cell_length_a 5.366057
_cell_length_b 28.373606
_cell_length_c 8.901029
_cell_angle_alpha 90.000000
_cell_angle_beta 97.971843
_cell_angle_gamma 90.000000
_cell_volume 1342.124327
_symmetry_space_group_name_H-M "P 21/M"
_symmetry_group_IT_number 11
_symmetry_cell_setting 'monoclinic'
loop_
_space_group_symop_operation_xyz
x,y,z
-x,1/2+y,-z
-x,-y,-z
x,1/2-y,z
loop_
_atom_site_type_symbol
_atom_site_label
_atom_site_fract_x
_atom_site_fract_y
_atom_site_fract_z
Si Si1 0.089236 0.356002 0.119235
Si Si2 0.229099 0.977451 0.108250
Si Si3 0.270938 0.305264 0.678848
Si Si4 0.190956 0.693617 0.155996
Si Si5 0.233581 0.973002 0.450419
Si Si6 0.238283 0.883445 0.646479
Si Si7 0.544437 0.927203 0.921101
Si Si8 0.416400 0.304541 0.367003
O O1 0.205684 0.396673 0.016466
O O2 0.279460 0.315780 0.197457
O O3 0.000397 0.382697 0.263371
O O4 0.866922 0.329429 0.011761
O O5 0.163275 0.965125 0.271708
O O6 0.435655 0.018630 0.128067
O O7 0.339166 0.929617 0.038824
O O8 0.000000 0.000000 0.000000
O O9 0.281132 0.250000 0.699438
O O10 0.534394 0.324992 0.769875
O O11 0.248809 0.318899 0.500145
O O12 0.026795 0.324532 0.746956
O O13 0.185836 0.750000 0.140717
O O14 0.218293 0.920237 0.510968
O O15 0.500000 0.000000 0.500000
O O16 0.000000 0.000000 0.500000
O O17 0.470759 0.899478 0.767001
O O18 0.316289 0.831653 0.594013
O O19 0.489276 0.250000 0.378528
#
# Coordination Sequence:
#
# PCOD8077241 Si02
#       8
#     4   4   4   4   4   4   4   4
#     4  11  24  41  67  98 140 180 238 293 348 423
#     4  11  23  43  73 101 134 183 231 287 359 423
#     4   9  21  42  65  95 133 177 232 291 353 415
#     4  10  22  41  67  95 132 180 228 285 349 414
#     4  12  26  47  76 105 147 191 235 296 366 434
#     4  11  25  45  68 102 143 187 239 297 357 435
#     4  10  22  42  65  96 138 174 230 286 349 415
#     4  10  24  44  69  99 140 189 239 299 361 427
#
# _framework density 23.8428
#
# number of rings (size 3 to 8) (size 9 to 14) (size 15 to 20)
#    0.000    1.500    1.250    2.625    8.750    2.000 
#    2.250    0.000    0.000    0.000    0.000    0.000 
#    0.000    0.000    0.000    0.000    0.000    0.000 
#
# Total GULP energy -396569.703853 kJ/mol
# GULP energy per Si atom -12392.803245 kJ/mol
# Density = 2.378853 g / cm^3
# Si number density = 23.842800 Si / 1000 Ang^3
#
#
#
# Elastic Constant Matrix: (Units=GPa)
#
#
# Indices 1 2 3 4 5 6 
#
# 1 103.9583 3.1759 18.6355 0.0000 -16.9482 0.0000
# 2 3.1759 71.6338 18.5114 0.0000 -11.0419 0.0000
# 3 18.6355 18.5114 120.2669 0.0000 -13.6588 0.0000
# 4 0.0000 0.0000 0.0000 32.3634 0.0000 -11.8540
# 5 -16.9482 -11.0419 -13.6588 0.0000 36.9184 0.0000
# 6 0.0000 0.0000 0.0000 -11.8540 0.0000 22.8676
#
#
#
# Elastic Compliance Matrix: (Units=1/GPa)
#
#
# Indices 1 2 3 4 5 6 
#
# 1 0.010563 0.000546 -0.001202 0.000000 0.004568 0.000000
# 2 0.000546 0.015060 -0.001944 0.000000 0.004036 0.000000
# 3 -0.001202 -0.001944 0.009052 0.000000 0.002216 0.000000
# 4 0.000000 0.000000 0.000000 0.038141 0.000000 0.019771
# 5 0.004568 0.004036 0.002216 0.000000 0.031210 0.000000
# 6 0.000000 0.000000 0.000000 0.019771 0.000000 0.053979
#
#
# Mechanical properties :
#
#
# Convention : Reuss Voigt Hill
#
# Bulk Modulus (GPa) = 33.92714 41.83384 37.88049
# Shear Modulus (GPa) = 28.89669 35.46564 32.18117
#
# Velocity S-wave (km/s) = 3.48511 3.86097 3.67784
# Velocity P-wave (km/s) = 5.51861 6.12045 5.82730
#
# Compressibility (1/GPa) = 0.02947493
#
# Stress axis : x y z
#
# Youngs Moduli (GPa) = 94.67276 66.40009 110.47280
#
# Poissons Ratio (x) = -0.03628 0.13279
# Poissons Ratio (y) = -0.05173 0.21480
# Poissons Ratio (z) = 0.11380 0.12911
#
# Static dielectric constant tensor:
#      x y z
#    x 4.767990 0.000000 -0.595130 
#    y 0.000000 -17.556740 0.000000 
#    z -0.595130 0.000000 5.374730 
# 
# 
# High freq. dielectric constant tensor:
#      x y z
#    x 1.949010 0.000000 -0.004470 
#    y 0.000000 1.942080 0.000000 
#    z -0.004470 0.000000 1.945210 
# 
# From -- ./inp_files/10851.got.cif
#   From: 2010.06.25/outbox.cif.g09.slc.cpg/sg11_6_cif.got.tgz:10851.got - 2010.06.27 23:14:04.
