data_PCOD8077898
_publ_section_title
;
Structure prediction by ZEFSAII (Michael W. Deem and Ramdas Pophale) SiO2 
 PCOD8077898
Probable space group: P 21/M
;
_chemical_formula_sum "Si O2"
_cell_formula_units_Z 12
_cell_length_a 4.872269
_cell_length_b 16.141899
_cell_length_c 7.769426
_cell_angle_alpha 90.000000
_cell_angle_beta 122.756963
_cell_angle_gamma 90.000000
_cell_volume 513.874429
_symmetry_space_group_name_H-M "P 21/M"
_symmetry_group_IT_number 11
_symmetry_cell_setting 'monoclinic'
loop_
_space_group_symop_operation_xyz
x,y,z
-x,1/2+y,-z
-x,-y,-z
x,1/2-y,z
loop_
_atom_site_type_symbol
_atom_site_label
_atom_site_fract_x
_atom_site_fract_y
_atom_site_fract_z
Si Si1 0.740799 0.092167 0.738951
Si Si2 0.181283 0.943072 0.867522
Si Si3 0.964212 0.655805 0.491440
O O1 0.351609 0.097665 0.607170
O O2 0.885934 0.155768 0.649011
O O3 0.865522 0.112388 0.975488
O O4 0.858205 0.999312 0.731868
O O5 0.218476 0.882012 0.716958
O O6 0.500000 0.000000 0.000000
O O7 0.877904 0.750000 0.510879
#
# Coordination Sequence:
#
# PCOD8077898 Si02
#       3
#     4   4   4
#     4  11  25  46  71 100 134 183 233 282 336 414
#     4  11  25  45  76 101 134 183 240 281 333 413
#     4  12  27  44  67 102 144 180 224 288 353 403
#
# _framework density 23.352007
#
# number of rings (size 3 to 8) (size 9 to 14) (size 15 to 20)
#    0.000    0.667    3.333    3.000    9.333    2.667 
#    0.000    0.000    0.000    0.000    0.000    0.000 
#    0.000    0.000    0.000    0.000    0.000    0.000 
#
# Total GULP energy -148774.282149 kJ/mol
# GULP energy per Si atom -12397.856846 kJ/mol
# Density = 2.329886 g / cm^3
# Si number density = 23.352007 Si / 1000 Ang^3
#
#
#
# Elastic Constant Matrix: (Units=GPa)
#
#
# Indices 1 2 3 4 5 6 
#
# 1 122.3312 18.9610 58.7477 0.0000 -18.5276 0.0000
# 2 18.9610 76.6090 84.5008 0.0000 -21.7693 0.0000
# 3 58.7477 84.5008 136.5697 0.0000 -23.1701 0.0000
# 4 0.0000 0.0000 0.0000 14.3047 0.0000 -3.9905
# 5 -18.5276 -21.7693 -23.1701 0.0000 37.7698 0.0000
# 6 0.0000 0.0000 0.0000 -3.9905 0.0000 30.6063
#
#
#
# Elastic Compliance Matrix: (Units=1/GPa)
#
#
# Indices 1 2 3 4 5 6 
#
# 1 0.012734 0.010813 -0.011218 0.000000 0.005596 0.000000
# 2 0.010813 0.053249 -0.035150 0.000000 0.014432 0.000000
# 3 -0.011218 -0.035150 0.032956 0.000000 -0.005545 0.000000
# 4 0.000000 0.000000 0.000000 0.072546 0.000000 0.009459
# 5 0.005596 0.014432 -0.005545 0.000000 0.034138 0.000000
# 6 0.000000 0.000000 0.000000 0.009459 0.000000 0.033906
#
#
# Mechanical properties :
#
#
# Convention : Reuss Voigt Hill
#
# Bulk Modulus (GPa) = 35.93596 73.32543 54.63070
# Shear Modulus (GPa) = 15.62917 28.08951 21.85934
#
# Velocity S-wave (km/s) = 2.58986 3.47201 3.06286
# Velocity P-wave (km/s) = 4.93613 6.89502 5.99611
#
# Compressibility (1/GPa) = 0.02782728
#
# Stress axis : x y z
#
# Youngs Moduli (GPa) = 78.53243 18.77972 30.34384
#
# Poissons Ratio (x) = -0.20306 0.34040
# Poissons Ratio (y) = -0.84913 1.06658
# Poissons Ratio (z) = 0.88099 0.66010
#
# Static dielectric constant tensor:
#      x y z
#    x 4.410450 0.000000 -0.425090 
#    y 0.000000 3.742280 0.000000 
#    z -0.425090 0.000000 4.475080 
# 
# 
# High freq. dielectric constant tensor:
#      x y z
#    x 1.934110 0.000000 -0.016750 
#    y 0.000000 1.886000 0.000000 
#    z -0.016750 0.000000 1.939380 
# 
# From -- ./inp_files/247.got.cif
#   From: 2010.06.25/outbox.cif.g09.slc.cpg/sg11_1_cif.got.tgz:247.got - 2010.06.27 23:14:04.
