data_PCOD8077367
_publ_section_title
;
Structure prediction by ZEFSAII (Michael W. Deem and Ramdas Pophale) SiO2 
 PCOD8077367
Probable space group: P 21/M
;
_chemical_formula_sum "Si O2"
_cell_formula_units_Z 20
_cell_length_a 5.082703
_cell_length_b 17.387620
_cell_length_c 10.810576
_cell_angle_alpha 90.000000
_cell_angle_beta 76.875270
_cell_angle_gamma 90.000000
_cell_volume 930.439812
_symmetry_space_group_name_H-M "P 21/M"
_symmetry_group_IT_number 11
_symmetry_cell_setting 'monoclinic'
loop_
_space_group_symop_operation_xyz
x,y,z
-x,1/2+y,-z
-x,-y,-z
x,1/2-y,z
loop_
_atom_site_type_symbol
_atom_site_label
_atom_site_fract_x
_atom_site_fract_y
_atom_site_fract_z
Si Si1 0.475085 0.337027 0.773591
Si Si2 0.123361 0.933982 0.385918
Si Si3 0.368679 0.532193 0.643629
Si Si4 0.668498 0.663647 0.499557
Si Si5 0.289272 0.478838 0.919053
O O1 0.505784 0.250000 0.820621
O O2 0.764938 0.381958 0.739740
O O3 0.366947 0.338052 0.645056
O O4 0.286801 0.387360 0.884462
O O5 0.958222 0.876988 0.495111
O O6 0.382774 0.973802 0.430789
O O7 0.929855 0.002898 0.363103
O O8 0.427343 0.619810 0.596823
O O9 0.377666 0.528721 0.790730
O O10 0.674727 0.750000 0.549958
O O11 0.500000 0.500000 0.000000
O O12 0.000000 0.500000 0.000000
#
# Coordination Sequence:
#
# PCOD8077367 Si02
#       5
#     4   4   4   4   4
#     4  10  23  41  66  96 124 157 207 268 314 361
#     4  11  20  39  61  93 122 158 200 245 314 377
#     4  11  24  39  65  90 126 161 206 256 310 369
#     4  11  23  39  62  98 129 159 199 257 327 376
#     4  11  23  42  63  88 117 165 215 247 292 364
#
# _framework density 21.49521
#
# number of rings (size 3 to 8) (size 9 to 14) (size 15 to 20)
#    0.000    1.200    4.000    4.200    2.800    0.000 
#    0.000    2.000    0.000    0.000    0.000    0.000 
#    0.000    0.000    0.000    0.000    0.000    0.000 
#
# Total GULP energy -247870.910852 kJ/mol
# GULP energy per Si atom -12393.545543 kJ/mol
# Density = 2.144629 g / cm^3
# Si number density = 21.495210 Si / 1000 Ang^3
#
#
#
# Elastic Constant Matrix: (Units=GPa)
#
#
# Indices 1 2 3 4 5 6 
#
# 1 148.2612 67.4564 49.4841 0.0000 -7.6825 0.0000
# 2 67.4564 208.7884 75.8970 0.0000 -20.1043 0.0000
# 3 49.4841 75.8970 95.8103 0.0000 -8.7336 0.0000
# 4 0.0000 0.0000 0.0000 38.4751 0.0000 -7.3830
# 5 -7.6825 -20.1043 -8.7336 0.0000 42.1198 0.0000
# 6 0.0000 0.0000 0.0000 -7.3830 0.0000 27.1728
#
#
#
# Elastic Compliance Matrix: (Units=1/GPa)
#
#
# Indices 1 2 3 4 5 6 
#
# 1 0.008524 -0.001608 -0.003116 0.000000 0.000141 0.000000
# 2 -0.001608 0.007226 -0.004695 0.000000 0.002182 0.000000
# 3 -0.003116 -0.004695 0.015808 0.000000 0.000469 0.000000
# 4 0.000000 0.000000 0.000000 0.027421 0.000000 0.007450
# 5 0.000141 0.002182 0.000469 0.000000 0.024906 0.000000
# 6 0.000000 0.000000 0.000000 0.007450 0.000000 0.038826
#
#
# Mechanical properties :
#
#
# Convention : Reuss Voigt Hill
#
# Bulk Modulus (GPa) = 78.60924 93.17054 85.88989
# Shear Modulus (GPa) = 34.29668 38.88836 36.59252
#
# Velocity S-wave (km/s) = 3.99877 4.25804 4.13044
# Velocity P-wave (km/s) = 7.61381 8.22274 7.92413
#
# Compressibility (1/GPa) = 0.01272115
#
# Stress axis : x y z
#
# Youngs Moduli (GPa) = 117.32176 138.39697 63.25823
#
# Poissons Ratio (x) = 0.22248 0.19711
# Poissons Ratio (y) = 0.18860 0.29697
# Poissons Ratio (z) = 0.36557 0.64972
#
# Static dielectric constant tensor:
#      x y z
#    x 4.123230 0.000000 -0.208390 
#    y 0.000000 4.326630 0.000000 
#    z -0.208390 0.000000 4.051640 
# 
# 
# High freq. dielectric constant tensor:
#      x y z
#    x 1.864810 0.000000 -0.009660 
#    y 0.000000 1.842700 0.000000 
#    z -0.009660 0.000000 1.817830 
# 
# From -- ./inp_files/4174.got.cif
#   From: 2010.06.25/outbox.cif.g09.slc.cpg/sg11_3_cif.got.tgz:4174.got - 2010.06.27 23:14:04.
