data_PCOD8077883
_publ_section_title
;
Structure prediction by ZEFSAII (Michael W. Deem and Ramdas Pophale) SiO2 
 PCOD8077883
Probable space group: P 21/M
;
_chemical_formula_sum "Si O2"
_cell_formula_units_Z 18
_cell_length_a 13.899441
_cell_length_b 10.542189
_cell_length_c 11.106973
_cell_angle_alpha 90.000000
_cell_angle_beta 31.663440
_cell_angle_gamma 90.000000
_cell_volume 854.326984
_symmetry_space_group_name_H-M "P 21/M"
_symmetry_group_IT_number 11
_symmetry_cell_setting 'monoclinic'
loop_
_space_group_symop_operation_xyz
x,y,z
-x,1/2+y,-z
-x,-y,-z
x,1/2-y,z
loop_
_atom_site_type_symbol
_atom_site_label
_atom_site_fract_x
_atom_site_fract_y
_atom_site_fract_z
Si Si1 0.421388 0.750000 0.926983
Si Si2 0.667279 0.030288 0.158045
Si Si3 0.689108 0.108665 0.400124
Si Si4 0.110513 0.750000 0.457339
Si Si5 0.935528 0.012076 0.332440
Si Si6 0.828240 0.750000 0.566008
O O1 0.417403 0.626273 0.848249
O O2 0.608691 0.750000 0.804044
O O3 0.253304 0.750000 0.196497
O O4 0.718871 0.102223 0.225768
O O5 0.519675 0.922227 0.342645
O O6 0.848820 0.963457 0.913931
O O7 0.732092 0.250000 0.398242
O O8 0.830662 0.015750 0.316481
O O9 0.143691 0.622325 0.497747
O O10 0.905463 0.750000 0.619821
O O11 0.905978 0.873317 0.416959
#
# Coordination Sequence:
#
# PCOD8077883 Si02
#       6
#     2   4   4   2   4   2
#     4  12  24  45  70  96 139 180 221 281 340 399
#     4  11  24  44  70 100 142 176 215 284 343 403
#     4  11  24  43  70 107 134 177 226 277 340 411
#     4  12  28  45  69  99 134 179 239 280 331 395
#     4  12  25  47  70 100 136 179 228 283 335 402
#     4  12  26  44  69  97 133 183 230 271 343 398
#
# _framework density 21.069216000000001
#
# number of rings (size 3 to 8) (size 9 to 14) (size 15 to 20)
#    0.000    0.444    6.667    1.333    1.556    2.667 
#    0.000    0.000    0.000    0.000    0.000    0.000 
#    0.000    0.000    0.000    0.000    0.000    0.000 
#
# Total GULP energy -223308.029409 kJ/mol
# GULP energy per Si atom -12406.001634 kJ/mol
# Density = 2.102126 g / cm^3
# Si number density = 21.069216 Si / 1000 Ang^3
#
#
#
# Elastic Constant Matrix: (Units=GPa)
#
#
# Indices 1 2 3 4 5 6 
#
# 1 110.5068 20.6945 23.4481 0.0000 -9.1099 0.0000
# 2 20.6945 113.9905 19.7249 0.0000 13.9278 0.0000
# 3 23.4481 19.7249 72.7689 0.0000 1.1795 0.0000
# 4 0.0000 0.0000 0.0000 20.2591 0.0000 -2.4172
# 5 -9.1099 13.9278 1.1795 0.0000 37.4656 0.0000
# 6 0.0000 0.0000 0.0000 -2.4172 0.0000 38.7512
#
#
#
# Elastic Compliance Matrix: (Units=1/GPa)
#
#
# Indices 1 2 3 4 5 6 
#
# 1 0.010257 -0.001759 -0.002881 0.000000 0.003239 0.000000
# 2 -0.001759 0.009945 -0.002063 0.000000 -0.004060 0.000000
# 3 -0.002881 -0.002063 0.015236 0.000000 -0.000413 0.000000
# 4 0.000000 0.000000 0.000000 0.049731 0.000000 0.003102
# 5 0.003239 -0.004060 -0.000413 0.000000 0.029001 0.000000
# 6 0.000000 0.000000 0.000000 0.003102 0.000000 0.025999
#
#
# Mechanical properties :
#
#
# Convention : Reuss Voigt Hill
#
# Bulk Modulus (GPa) = 45.38806 47.22234 46.30520
# Shear Modulus (GPa) = 31.07149 34.85510 32.96329
#
# Velocity S-wave (km/s) = 3.84439 4.07174 3.95970
# Velocity P-wave (km/s) = 6.42611 6.67585 6.55217
#
# Compressibility (1/GPa) = 0.02203223
#
# Stress axis : x y z
#
# Youngs Moduli (GPa) = 97.49511 100.55197 65.63288
#
# Poissons Ratio (x) = 0.17691 0.18907
# Poissons Ratio (y) = 0.17153 0.13540
# Poissons Ratio (z) = 0.28085 0.20744
#
# Static dielectric constant tensor:
#      x y z
#    x 4.023090 0.000000 -0.065400 
#    y 0.000000 3.683630 0.000000 
#    z -0.065400 0.000000 3.720670 
# 
# 
# High freq. dielectric constant tensor:
#      x y z
#    x 1.843770 0.000000 -0.005010 
#    y 0.000000 1.827600 0.000000 
#    z -0.005010 0.000000 1.825420 
# 
# From -- ./inp_files/16757.got.cif
#   From: 2010.06.25/outbox.cif.g09.slc.cpg/sg11_9_cif.got.tgz:16757.got - 2010.06.27 23:14:04.
