data_PCOD8077052
_publ_section_title
;
Structure prediction by ZEFSAII (Michael W. Deem and Ramdas Pophale) SiO2 
 PCOD8077052
Probable space group: P 21/M
;
_chemical_formula_sum "Si O2"
_cell_formula_units_Z 20
_cell_length_a 12.219774
_cell_length_b 13.460648
_cell_length_c 5.401275
_cell_angle_alpha 90.000000
_cell_angle_beta 90.519510
_cell_angle_gamma 90.000000
_cell_volume 888.398012
_symmetry_space_group_name_H-M "P 21/M"
_symmetry_group_IT_number 11
_symmetry_cell_setting 'monoclinic'
loop_
_space_group_symop_operation_xyz
x,y,z
-x,1/2+y,-z
-x,-y,-z
x,1/2-y,z
loop_
_atom_site_type_symbol
_atom_site_label
_atom_site_fract_x
_atom_site_fract_y
_atom_site_fract_z
Si Si1 0.027363 0.362681 0.429643
Si Si2 0.892674 0.362947 0.934763
Si Si3 0.407187 0.526044 0.687747
Si Si4 0.410289 0.365242 0.075776
Si Si5 0.764674 0.512130 0.661726
O O1 0.069041 0.250000 0.399635
O O2 0.128234 0.437260 0.449422
O O3 0.962175 0.375210 0.683388
O O4 0.958290 0.392438 0.183266
O O5 0.849443 0.250000 0.957041
O O6 0.792121 0.440448 0.897417
O O7 0.500000 0.500000 0.500000
O O8 0.461212 0.613253 0.855702
O O9 0.294219 0.557757 0.548128
O O10 0.379842 0.425183 0.831198
O O11 0.394028 0.250000 0.025076
O O12 0.322364 0.401759 0.276903
#
# Coordination Sequence:
#
# PCOD8077052 Si02
#       5
#     4   4   4   4   4
#     4  10  22  39  60  93 131 175 215 261 316 374
#     4  10  23  40  60  91 135 175 215 260 315 375
#     4   9  22  41  60  90 123 157 204 255 323 382
#     4  10  22  41  64  92 124 158 205 264 320 382
#     4  11  22  37  65  93 121 164 214 261 316 376
#
# _framework density 22.512433999999999
#
# number of rings (size 3 to 8) (size 9 to 14) (size 15 to 20)
#    0.000    2.000    0.000    1.800    5.600    4.800 
#    0.000    8.000    0.000    0.000    0.000    0.000 
#    0.000    0.000    0.000    0.000    0.000    0.000 
#
# Total GULP energy -247844.862940 kJ/mol
# GULP energy per Si atom -12392.243147 kJ/mol
# Density = 2.246119 g / cm^3
# Si number density = 22.512434 Si / 1000 Ang^3
#
#
#
# Elastic Constant Matrix: (Units=GPa)
#
#
# Indices 1 2 3 4 5 6 
#
# 1 70.5181 38.0270 21.2492 0.0000 36.4991 0.0000
# 2 38.0270 92.0785 -2.1490 0.0000 4.1718 0.0000
# 3 21.2492 -2.1490 97.3059 0.0000 14.0553 0.0000
# 4 0.0000 0.0000 0.0000 26.8354 0.0000 -3.0688
# 5 36.4991 4.1718 14.0553 0.0000 31.1012 0.0000
# 6 0.0000 0.0000 0.0000 -3.0688 0.0000 28.4411
#
#
#
# Elastic Compliance Matrix: (Units=1/GPa)
#
#
# Indices 1 2 3 4 5 6 
#
# 1 0.065510 -0.023913 -0.004485 0.000000 -0.071645 0.000000
# 2 -0.023913 0.019677 0.002123 0.000000 0.024465 0.000000
# 3 -0.004485 0.002123 0.011323 0.000000 -0.000138 0.000000
# 4 0.000000 0.000000 0.000000 0.037730 0.000000 0.004071
# 5 -0.071645 0.024465 -0.000138 0.000000 0.113013 0.000000
# 6 0.000000 0.000000 0.000000 0.004071 0.000000 0.035600
#
#
# Mechanical properties :
#
#
# Convention : Reuss Voigt Hill
#
# Bulk Modulus (GPa) = 22.74839 41.57300 32.16069
# Shear Modulus (GPa) = 14.28341 30.79389 22.53865
#
# Velocity S-wave (km/s) = 2.52160 3.70247 3.16755
# Velocity P-wave (km/s) = 4.31331 6.06502 5.26257
#
# Compressibility (1/GPa) = 0.04395916
#
# Stress axis : x y z
#
# Youngs Moduli (GPa) = 15.26492 50.82030 88.31435
#
# Poissons Ratio (x) = 1.21527 0.39610
# Poissons Ratio (y) = 0.36503 -0.18748
# Poissons Ratio (z) = 0.06847 -0.10788
#
# Static dielectric constant tensor:
#      x y z
#    x 4.282640 0.000000 0.546850 
#    y 0.000000 4.069660 0.000000 
#    z 0.546850 0.000000 4.226510 
# 
# 
# High freq. dielectric constant tensor:
#      x y z
#    x 1.883760 0.000000 0.007280 
#    y 0.000000 1.877690 0.000000 
#    z 0.007280 0.000000 1.902510 
# 
# From -- ./inp_files/4232.got.cif
#   From: 2010.06.25/outbox.cif.g09.slc.cpg/sg11_3_cif.got.tgz:4232.got - 2010.06.27 23:14:04.
