data_PCOD8077321
_publ_section_title
;
Structure prediction by ZEFSAII (Michael W. Deem and Ramdas Pophale) SiO2 
 PCOD8077321
Probable space group: P 21/M
;
_chemical_formula_sum "Si O2"
_cell_formula_units_Z 20
_cell_length_a 5.297380
_cell_length_b 26.381936
_cell_length_c 8.882310
_cell_angle_alpha 90.000000
_cell_angle_beta 133.729698
_cell_angle_gamma 90.000000
_cell_volume 897.009515
_symmetry_space_group_name_H-M "P 21/M"
_symmetry_group_IT_number 11
_symmetry_cell_setting 'monoclinic'
loop_
_space_group_symop_operation_xyz
x,y,z
-x,1/2+y,-z
-x,-y,-z
x,1/2-y,z
loop_
_atom_site_type_symbol
_atom_site_label
_atom_site_fract_x
_atom_site_fract_y
_atom_site_fract_z
Si Si1 0.147151 0.193562 0.993762
Si Si2 0.787901 0.572814 0.474484
Si Si3 0.503387 0.015168 0.175638
Si Si4 0.847141 0.600744 0.820501
Si Si5 0.519524 0.652667 0.157954
O O1 0.260153 0.250000 0.092146
O O2 0.263757 0.186111 0.869855
O O3 0.725376 0.187966 0.836117
O O4 0.329908 0.150276 0.173126
O O5 0.514414 0.533324 0.289696
O O6 0.650790 0.589167 0.583052
O O7 0.798726 0.622545 0.374154
O O8 0.169781 0.550227 0.647430
O O9 0.169751 0.050238 0.080438
O O10 0.500000 0.000000 0.000000
O O11 0.260386 0.612570 0.965477
#
# Coordination Sequence:
#
# PCOD8077321 Si02
#       5
#     4   4   4   4   4
#     4  10  22  45  71  95 129 173 223 284 345 394
#     4  11  23  39  65  99 137 181 223 273 329 407
#     4  11  24  40  64 100 142 185 220 274 333 407
#     4  10  23  40  66  96 135 174 222 278 331 399
#     4  10  24  42  71  95 135 172 222 275 337 398
#
# _framework density 22.296308
#
# number of rings (size 3 to 8) (size 9 to 14) (size 15 to 20)
#    1.200    0.400    0.000    4.800    2.800    4.800 
#    0.000    2.000    0.000    0.000    0.000    0.000 
#    0.000    0.000    0.000    0.000    0.000    0.000 
#
# Total GULP energy -247842.058229 kJ/mol
# GULP energy per Si atom -12392.102911 kJ/mol
# Density = 2.224556 g / cm^3
# Si number density = 22.296308 Si / 1000 Ang^3
#
#
#
# Elastic Constant Matrix: (Units=GPa)
#
#
# Indices 1 2 3 4 5 6 
#
# 1 119.3862 30.5899 35.4103 0.0000 -27.7053 0.0000
# 2 30.5899 115.7352 46.5041 0.0000 -34.4427 0.0000
# 3 35.4103 46.5041 104.0454 0.0000 -28.9916 0.0000
# 4 0.0000 0.0000 0.0000 23.1472 0.0000 -2.8558
# 5 -27.7053 -34.4427 -28.9916 0.0000 34.0875 0.0000
# 6 0.0000 0.0000 0.0000 -2.8558 0.0000 27.7620
#
#
#
# Elastic Compliance Matrix: (Units=1/GPa)
#
#
# Indices 1 2 3 4 5 6 
#
# 1 0.010515 -0.000004 -0.001568 0.000000 0.007209 0.000000
# 2 -0.000004 0.012953 -0.002807 0.000000 0.010697 0.000000
# 3 -0.001568 -0.002807 0.013439 0.000000 0.007319 0.000000
# 4 0.000000 0.000000 0.000000 0.043757 0.000000 0.004501
# 5 0.007209 0.010697 0.007319 0.000000 0.052228 0.000000
# 6 0.000000 0.000000 0.000000 0.004501 0.000000 0.036484
#
#
# Mechanical properties :
#
#
# Convention : Reuss Voigt Hill
#
# Bulk Modulus (GPa) = 35.52650 62.68616 49.10633
# Shear Modulus (GPa) = 26.66410 32.11015 29.38713
#
# Velocity S-wave (km/s) = 3.46193 3.79906 3.63440
# Velocity P-wave (km/s) = 5.65228 6.88621 6.29953
#
# Compressibility (1/GPa) = 0.02814800
#
# Stress axis : x y z
#
# Youngs Moduli (GPa) = 95.10022 77.20263 74.41005
#
# Poissons Ratio (x) = 0.00029 0.11670
# Poissons Ratio (y) = 0.00036 0.20891
# Poissons Ratio (z) = 0.14915 0.21675
#
# Static dielectric constant tensor:
#      x y z
#    x 3.865970 0.000000 -0.169920 
#    y 0.000000 4.035130 0.000000 
#    z -0.169920 0.000000 3.768560 
# 
# 
# High freq. dielectric constant tensor:
#      x y z
#    x 1.876870 0.000000 -0.013130 
#    y 0.000000 1.880220 0.000000 
#    z -0.013130 0.000000 1.853830 
# 
# From -- ./inp_files/10628.got.cif
#   From: 2010.06.25/outbox.cif.g09.slc.cpg/sg11_6_cif.got.tgz:10628.got - 2010.06.27 23:14:04.
