data_PCOD8077508
_publ_section_title
;
Structure prediction by ZEFSAII (Michael W. Deem and Ramdas Pophale) SiO2 
 PCOD8077508
Probable space group: P 21/M
;
_chemical_formula_sum "Si O2"
_cell_formula_units_Z 28
_cell_length_a 6.528569
_cell_length_b 19.020450
_cell_length_c 11.752625
_cell_angle_alpha 90.000000
_cell_angle_beta 120.533417
_cell_angle_gamma 90.000000
_cell_volume 1257.027420
_symmetry_space_group_name_H-M "P 21/M"
_symmetry_group_IT_number 11
_symmetry_cell_setting 'monoclinic'
loop_
_space_group_symop_operation_xyz
x,y,z
-x,1/2+y,-z
-x,-y,-z
x,1/2-y,z
loop_
_atom_site_type_symbol
_atom_site_label
_atom_site_fract_x
_atom_site_fract_y
_atom_site_fract_z
Si Si1 0.086096 0.330181 0.354566
Si Si2 0.517415 0.069166 0.429021
Si Si3 0.114615 0.572798 0.062407
Si Si4 0.586529 0.000124 0.214042
Si Si5 0.798590 0.627788 0.165649
Si Si6 0.925269 0.327084 0.555586
Si Si7 0.329319 0.626426 0.912891
O O1 0.180469 0.250000 0.365430
O O2 0.266781 0.387734 0.350236
O O3 0.064391 0.351271 0.480994
O O4 0.815962 0.332805 0.225990
O O5 0.623980 0.045946 0.337305
O O6 0.714427 0.121315 0.535086
O O7 0.500000 0.000000 0.500000
O O8 0.375675 0.554095 0.180016
O O9 0.985246 0.621108 0.116586
O O10 0.124175 0.615713 0.948093
O O11 0.000000 0.500000 0.000000
O O12 0.550008 0.054874 0.100515
O O13 0.794457 0.948196 0.230172
O O14 0.891509 0.680705 0.287816
O O15 0.556096 0.660725 0.041930
O O16 0.815732 0.250000 0.501103
#
# Coordination Sequence:
#
# PCOD8077508 Si02
#       7
#     4   4   4   4   4   4   4
#     4  11  26  47  69  94 135 181 223 277 336 401
#     4  12  25  41  70 103 131 171 227 283 335 395
#     4  11  18  34  59  95 139 170 206 271 336 381
#     4  11  21  35  62 100 132 166 218 279 324 389
#     4  11  23  39  65 100 137 177 215 274 338 395
#     4  11  26  47  67  93 135 180 221 270 333 405
#     4  11  22  38  64  99 130 171 221 269 331 393
#
# _framework density 22.274774000000001
#
# number of rings (size 3 to 8) (size 9 to 14) (size 15 to 20)
#    0.000    0.857    4.286    3.857    2.000    2.857 
#    0.000    0.714    0.000    0.000    0.000    0.000 
#    0.000    0.000    0.000    0.000    0.000    0.000 
#
# Total GULP energy -346925.295152 kJ/mol
# GULP energy per Si atom -12390.189113 kJ/mol
# Density = 2.222408 g / cm^3
# Si number density = 22.274774 Si / 1000 Ang^3
#
#
#
# Elastic Constant Matrix: (Units=GPa)
#
#
# Indices 1 2 3 4 5 6 
#
# 1 101.6319 30.7614 45.4411 0.0000 -14.4066 0.0000
# 2 30.7614 85.0733 19.4100 0.0000 -1.7370 0.0000
# 3 45.4411 19.4100 124.3910 0.0000 -4.9042 0.0000
# 4 0.0000 0.0000 0.0000 21.5142 0.0000 0.6621
# 5 -14.4066 -1.7370 -4.9042 0.0000 41.6537 0.0000
# 6 0.0000 0.0000 0.0000 0.6621 0.0000 26.7372
#
#
#
# Elastic Compliance Matrix: (Units=1/GPa)
#
#
# Indices 1 2 3 4 5 6 
#
# 1 0.013417 -0.003824 -0.004147 0.000000 0.003993 0.000000
# 2 -0.003824 0.013282 -0.000709 0.000000 -0.000852 0.000000
# 3 -0.004147 -0.000709 0.009652 0.000000 -0.000328 0.000000
# 4 0.000000 0.000000 0.000000 0.046516 0.000000 -0.001152
# 5 0.003993 -0.000852 -0.000328 0.000000 0.025314 0.000000
# 6 0.000000 0.000000 0.000000 -0.001152 0.000000 0.037430
#
#
# Mechanical properties :
#
#
# Convention : Reuss Voigt Hill
#
# Bulk Modulus (GPa) = 52.65881 55.81347 54.23614
# Shear Modulus (GPa) = 29.53312 32.34659 30.93985
#
# Velocity S-wave (km/s) = 3.64518 3.81486 3.73098
# Velocity P-wave (km/s) = 6.43493 6.67199 6.55453
#
# Compressibility (1/GPa) = 0.01899018
#
# Stress axis : x y z
#
# Youngs Moduli (GPa) = 74.53192 75.29230 103.60581
#
# Poissons Ratio (x) = 0.28789 0.42969
# Poissons Ratio (y) = 0.28499 0.07348
# Poissons Ratio (z) = 0.30911 0.05340
#
# Static dielectric constant tensor:
#      x y z
#    x 3.931420 0.000000 -0.139740 
#    y 0.000000 3.762530 0.000000 
#    z -0.139740 0.000000 4.049650 
# 
# 
# High freq. dielectric constant tensor:
#      x y z
#    x 1.878160 0.000000 -0.010790 
#    y 0.000000 1.857510 0.000000 
#    z -0.010790 0.000000 1.885290 
# 
# From -- ./inp_files/30016.got.cif
#   From: 2010.06.25/outbox.cif.g09.slc.cpg/sg11_16_cif.got.tgz:30016.got - 2010.06.27 23:14:04.
