data_PCOD8077376
_publ_section_title
;
Structure prediction by ZEFSAII (Michael W. Deem and Ramdas Pophale) SiO2 
 PCOD8077376
Probable space group: P 21/M
;
_chemical_formula_sum "Si O2"
_cell_formula_units_Z 28
_cell_length_a 9.333532
_cell_length_b 8.866007
_cell_length_c 26.923772
_cell_angle_alpha 90.000000
_cell_angle_beta 141.991791
_cell_angle_gamma 90.000000
_cell_volume 1371.928897
_symmetry_space_group_name_H-M "P 21/M"
_symmetry_group_IT_number 11
_symmetry_cell_setting 'monoclinic'
loop_
_space_group_symop_operation_xyz
x,y,z
-x,1/2+y,-z
-x,-y,-z
x,1/2-y,z
loop_
_atom_site_type_symbol
_atom_site_label
_atom_site_fract_x
_atom_site_fract_y
_atom_site_fract_z
Si Si1 0.308041 0.425801 0.982929
Si Si2 0.524198 0.573862 0.861850
Si Si3 0.742999 0.076444 0.558115
Si Si4 0.794636 0.571942 0.473428
Si Si5 0.181163 0.424125 0.152794
Si Si6 0.343293 0.075837 0.304213
Si Si7 0.032691 0.077216 0.736212
O O1 0.319955 0.250000 0.975267
O O2 0.051978 0.483565 0.900336
O O3 0.500000 0.500000 0.000000
O O4 0.349599 0.462663 0.052039
O O5 0.465270 0.750000 0.840077
O O6 0.686725 0.518655 0.860617
O O7 0.290228 0.479540 0.796847
O O8 0.709256 0.250000 0.533635
O O9 0.898924 0.058682 0.648556
O O10 0.500000 0.000000 0.500000
O O11 0.857972 0.982702 0.545577
O O12 0.800880 0.750000 0.471985
O O13 0.544244 0.519349 0.385420
O O14 0.000000 0.500000 0.500000
O O15 0.110524 0.250000 0.127481
O O16 0.349445 0.447322 0.246374
O O17 0.378392 0.250000 0.327835
O O18 0.092928 0.021129 0.255854
O O19 0.038699 0.250000 0.755718
#
# Coordination Sequence:
#
# PCOD8077376 Si02
#       7
#     4   4   4   4   4   4   4
#     4  11  23  40  65  94 125 164 206 251 304 366
#     4  10  23  42  63  91 126 164 205 253 310 369
#     4  11  23  41  64  93 125 165 213 262 317 373
#     4  12  26  43  64  91 126 166 211 264 319 378
#     4  10  23  42  64  92 125 161 204 254 310 369
#     4  11  23  41  64  91 123 163 209 258 314 375
#     4  11  24  40  62  93 125 162 209 258 310 370
#
# _framework density 20.409220000000001
#
# number of rings (size 3 to 8) (size 9 to 14) (size 15 to 20)
#    0.000    1.143    1.429    4.286    2.000    8.000 
#    0.000    0.000    0.000    0.000    0.000    0.000 
#    0.000    0.000    0.000    0.000    0.000    0.000 
#
# Total GULP energy -347296.664563 kJ/mol
# GULP energy per Si atom -12403.452306 kJ/mol
# Density = 2.036277 g / cm^3
# Si number density = 20.409220 Si / 1000 Ang^3
#
#
#
# Elastic Constant Matrix: (Units=GPa)
#
#
# Indices 1 2 3 4 5 6 
#
# 1 137.5022 47.8531 23.8582 0.0000 -9.7449 0.0000
# 2 47.8531 128.2436 43.2351 0.0000 -5.0787 0.0000
# 3 23.8582 43.2351 68.9674 0.0000 0.2489 0.0000
# 4 0.0000 0.0000 0.0000 36.7906 0.0000 5.6131
# 5 -9.7449 -5.0787 0.2489 0.0000 34.5113 0.0000
# 6 0.0000 0.0000 0.0000 5.6131 0.0000 37.7624
#
#
#
# Elastic Compliance Matrix: (Units=1/GPa)
#
#
# Indices 1 2 3 4 5 6 
#
# 1 0.008575 -0.002684 -0.001291 0.000000 0.002036 0.000000
# 2 -0.002684 0.010805 -0.005849 0.000000 0.000875 0.000000
# 3 -0.001291 -0.005849 0.018618 0.000000 -0.001360 0.000000
# 4 0.000000 0.000000 0.000000 0.027812 0.000000 -0.004134
# 5 0.002036 0.000875 -0.001360 0.000000 0.029689 0.000000
# 6 0.000000 0.000000 0.000000 -0.004134 0.000000 0.027096
#
#
# Mechanical properties :
#
#
# Convention : Reuss Voigt Hill
#
# Bulk Modulus (GPa) = 54.49364 62.73401 58.61383
# Shear Modulus (GPa) = 33.70202 36.46398 35.08300
#
# Velocity S-wave (km/s) = 4.06804 4.23145 4.15055
# Velocity P-wave (km/s) = 6.98740 7.39449 7.19382
#
# Compressibility (1/GPa) = 0.01835076
#
# Stress axis : x y z
#
# Youngs Moduli (GPa) = 116.61928 92.54580 53.71238
#
# Poissons Ratio (x) = 0.24837 0.06936
# Poissons Ratio (y) = 0.31297 0.31414
# Poissons Ratio (z) = 0.15059 0.54127
#
# Static dielectric constant tensor:
#      x y z
#    x 3.946410 0.000000 -0.082530 
#    y 0.000000 3.817290 0.000000 
#    z -0.082530 0.000000 3.531350 
# 
# 
# High freq. dielectric constant tensor:
#      x y z
#    x 1.814630 0.000000 -0.007430 
#    y 0.000000 1.806580 0.000000 
#    z -0.007430 0.000000 1.805570 
# 
# From -- ./inp_files/70914.got.cif
#   From: 2010.06.25/outbox.cif.g09.slc.cpg/sg11_36_cif.got.tgz:70914.got - 2010.06.27 23:14:04.
