data_PCOD8077706
_publ_section_title
;
Structure prediction by ZEFSAII (Michael W. Deem and Ramdas Pophale) SiO2 
 PCOD8077706
Probable space group: P 21/M
;
_chemical_formula_sum "Si O2"
_cell_formula_units_Z 32
_cell_length_a 12.298546
_cell_length_b 19.036059
_cell_length_c 20.084084
_cell_angle_alpha 90.000000
_cell_angle_beta 22.277173
_cell_angle_gamma 90.000000
_cell_volume 1782.470407
_symmetry_space_group_name_H-M "P 21/M"
_symmetry_group_IT_number 11
_symmetry_cell_setting 'monoclinic'
loop_
_space_group_symop_operation_xyz
x,y,z
-x,1/2+y,-z
-x,-y,-z
x,1/2-y,z
loop_
_atom_site_type_symbol
_atom_site_label
_atom_site_fract_x
_atom_site_fract_y
_atom_site_fract_z
Si Si1 0.724370 0.024466 0.465796
Si Si2 0.669178 0.327745 0.558110
Si Si3 0.210361 0.830866 0.357915
Si Si4 0.981555 0.675100 0.041763
Si Si5 0.150743 0.042046 0.472043
Si Si6 0.113456 0.965876 0.771576
Si Si7 0.210117 0.533561 0.934659
Si Si8 0.142243 0.170054 0.040374
O O1 0.741589 0.108849 0.466910
O O2 0.881706 0.007626 0.307086
O O3 0.903612 0.986843 0.422729
O O4 0.402303 0.992126 0.645334
O O5 0.789360 0.250000 0.467685
O O6 0.783872 0.346613 0.566576
O O7 0.330398 0.322248 0.750606
O O8 0.131640 0.750000 0.389145
O O9 0.959668 0.877686 0.466815
O O10 0.518355 0.848570 0.150007
O O11 0.135030 0.750000 0.967526
O O12 0.160790 0.615591 0.976428
O O13 0.967236 0.659281 0.972052
O O14 0.478110 0.026590 0.270995
O O15 0.000000 0.000000 0.500000
O O16 0.059288 0.881529 0.801781
O O17 0.837106 0.996534 0.967284
O O18 0.000000 0.500000 0.000000
O O19 0.093463 0.250000 0.092602
#
# Coordination Sequence:
#
# PCOD8077706 Si02
#       8
#     4   4   4   4   4   4   4   4
#     4  11  22  36  53  86 118 150 187 237 286 332
#     4   9  16  32  56  80 109 145 184 227 277 333
#     4   9  19  35  58  85 112 143 187 240 286 332
#     4   9  16  28  52  80 104 135 183 230 268 319
#     4  12  22  35  60  85 112 145 190 233 283 337
#     4  11  22  35  55  83 121 149 185 238 284 331
#     4  12  20  35  57  80 111 149 190 228 275 333
#     4   9  17  33  55  81 109 147 191 232 282 338
#
# _framework density 17.952611999999998
#
# number of rings (size 3 to 8) (size 9 to 14) (size 15 to 20)
#    0.000    1.750    5.000    2.250    0.000    1.000 
#    0.000    3.125    0.000    1.500    0.000    0.000 
#    0.000    0.000    0.000    0.000    0.000    0.000 
#
# Total GULP energy -396528.468222 kJ/mol
# GULP energy per Si atom -12391.514632 kJ/mol
# Density = 1.791175 g / cm^3
# Si number density = 17.952612 Si / 1000 Ang^3
#
#
#
# Elastic Constant Matrix: (Units=GPa)
#
#
# Indices 1 2 3 4 5 6 
#
# 1 89.8422 47.6929 31.4944 0.0000 5.2401 0.0000
# 2 47.6929 122.9153 47.8071 0.0000 -2.9797 0.0000
# 3 31.4944 47.8071 53.7180 0.0000 2.4282 0.0000
# 4 0.0000 0.0000 0.0000 34.0574 0.0000 -1.6378
# 5 5.2401 -2.9797 2.4282 0.0000 23.0445 0.0000
# 6 0.0000 0.0000 0.0000 -1.6378 0.0000 30.7140
#
#
#
# Elastic Compliance Matrix: (Units=1/GPa)
#
#
# Indices 1 2 3 4 5 6 
#
# 1 0.015284 -0.003959 -0.005282 0.000000 -0.003431 0.000000
# 2 -0.003959 0.013649 -0.009994 0.000000 0.003718 0.000000
# 3 -0.005282 -0.009994 0.030758 0.000000 -0.003332 0.000000
# 4 0.000000 0.000000 0.000000 0.029438 0.000000 0.001570
# 5 -0.003431 0.003718 -0.003332 0.000000 0.045006 0.000000
# 6 0.000000 0.000000 0.000000 0.001570 0.000000 0.032642
#
#
# Mechanical properties :
#
#
# Convention : Reuss Voigt Hill
#
# Bulk Modulus (GPa) = 47.12579 57.82937 52.47758
# Shear Modulus (GPa) = 23.54913 26.86193 25.20553
#
# Velocity S-wave (km/s) = 3.62572 3.87236 3.75107
# Velocity P-wave (km/s) = 6.62079 7.23019 6.93219
#
# Compressibility (1/GPa) = 0.02121980
#
# Stress axis : x y z
#
# Youngs Moduli (GPa) = 65.42709 73.26454 32.51198
#
# Poissons Ratio (x) = 0.29006 0.17174
# Poissons Ratio (y) = 0.25903 0.32493
# Poissons Ratio (z) = 0.34562 0.73222
#
# Static dielectric constant tensor:
#      x y z
#    x 3.034810 0.000000 0.102110 
#    y 0.000000 3.721540 0.000000 
#    z 0.102110 0.000000 3.092870 
# 
# 
# High freq. dielectric constant tensor:
#      x y z
#    x 1.664920 0.000000 0.005740 
#    y 0.000000 1.716930 0.000000 
#    z 0.005740 0.000000 1.670540 
# 
# From -- ./inp_files/48251.got.cif
#   From: 2010.06.25/outbox.cif.g09.slc.cpg/sg11_25_cif.got.tgz:48251.got - 2010.06.27 23:14:04.
