data_PCOD8077106
_publ_section_title
;
Structure prediction by ZEFSAII (Michael W. Deem and Ramdas Pophale) SiO2 
 PCOD8077106
Probable space group: P 21/M
;
_chemical_formula_sum "Si O2"
_cell_formula_units_Z 32
_cell_length_a 11.961194
_cell_length_b 8.823280
_cell_length_c 31.316834
_cell_angle_alpha 90.000000
_cell_angle_beta 29.925127
_cell_angle_gamma 90.000000
_cell_volume 1648.799998
_symmetry_space_group_name_H-M "P 21/M"
_symmetry_group_IT_number 11
_symmetry_cell_setting 'monoclinic'
loop_
_space_group_symop_operation_xyz
x,y,z
-x,1/2+y,-z
-x,-y,-z
x,1/2-y,z
loop_
_atom_site_type_symbol
_atom_site_label
_atom_site_fract_x
_atom_site_fract_y
_atom_site_fract_z
Si Si1 0.193738 0.929060 0.407108
Si Si2 0.342181 0.925432 0.738054
Si Si3 0.137599 0.571062 0.893313
Si Si4 0.845416 0.424272 0.289172
Si Si5 0.533591 0.076533 0.534050
Si Si6 0.949533 0.576752 0.630590
Si Si7 0.314098 0.073799 0.915922
Si Si8 0.186181 0.573501 0.236340
O O1 0.171118 0.750000 0.417218
O O2 0.434534 0.979119 0.345435
O O3 0.179007 0.982120 0.362862
O O4 0.000000 0.000000 0.500000
O O5 0.411817 0.750000 0.720545
O O6 0.216663 0.991026 0.821370
O O7 0.164367 0.944195 0.758554
O O8 0.146536 0.750000 0.890244
O O9 0.307931 0.511060 0.872694
O O10 0.884239 0.514177 0.987388
O O11 0.872105 0.250000 0.294081
O O12 0.611750 0.486229 0.383931
O O13 0.055411 0.516573 0.237975
O O14 0.452521 0.250000 0.557961
O O15 0.787403 0.065645 0.465785
O O16 0.500000 0.000000 0.500000
O O17 0.866568 0.750000 0.655980
O O18 0.900197 0.512551 0.693516
O O19 0.281529 0.250000 0.916886
O O20 0.552220 0.039956 0.858928
O O21 0.140066 0.750000 0.258639
#
# Coordination Sequence:
#
# PCOD8077106 Si02
#       8
#     4   4   4   4   4   4   4   4
#     4  12  25  40  59  84 116 151 189 235 283 336
#     4  10  22  40  61  83 112 153 195 235 284 340
#     4   9  18  36  61  86 113 147 185 229 282 341
#     4  11  23  38  56  80 112 150 194 239 284 340
#     4  11  22  36  56  80 109 146 189 234 281 334
#     4  11  23  38  58  84 114 148 189 235 286 341
#     4   9  19  35  57  87 117 144 181 231 286 340
#     4  11  22  36  56  83 115 149 187 235 287 338
#
# _framework density 19.408052999999999
#
# number of rings (size 3 to 8) (size 9 to 14) (size 15 to 20)
#    0.000    1.500    1.250    4.125    0.000    8.000 
#    0.000    0.625    0.000    0.000    0.000    0.000 
#    0.000    0.000    0.000    0.000    0.000    0.000 
#
# Total GULP energy -396930.158928 kJ/mol
# GULP energy per Si atom -12404.067466 kJ/mol
# Density = 1.936388 g / cm^3
# Si number density = 19.408053 Si / 1000 Ang^3
#
#
#
# Elastic Constant Matrix: (Units=GPa)
#
#
# Indices 1 2 3 4 5 6 
#
# 1 107.9965 38.5579 49.7288 0.0000 -2.2760 0.0000
# 2 38.5579 91.2544 38.8373 0.0000 -2.2364 0.0000
# 3 49.7288 38.8373 107.7986 0.0000 0.9644 0.0000
# 4 0.0000 0.0000 0.0000 23.2330 0.0000 -3.2218
# 5 -2.2760 -2.2364 0.9644 0.0000 33.3731 0.0000
# 6 0.0000 0.0000 0.0000 -3.2218 0.0000 33.6350
#
#
#
# Elastic Compliance Matrix: (Units=1/GPa)
#
#
# Indices 1 2 3 4 5 6 
#
# 1 0.012592 -0.003338 -0.004613 0.000000 0.000768 0.000000
# 2 -0.003338 0.013862 -0.003461 0.000000 0.000801 0.000000
# 3 -0.004613 -0.003461 0.012660 0.000000 -0.000912 0.000000
# 4 0.000000 0.000000 0.000000 0.043622 0.000000 0.004178
# 5 0.000768 0.000801 -0.000912 0.000000 0.030097 0.000000
# 6 0.000000 0.000000 0.000000 0.004178 0.000000 0.030131
#
#
# Mechanical properties :
#
#
# Convention : Reuss Voigt Hill
#
# Bulk Modulus (GPa) = 61.39396 62.36639 61.88017
# Shear Modulus (GPa) = 29.20277 30.04326 29.62302
#
# Velocity S-wave (km/s) = 3.88322 3.93871 3.91106
# Velocity P-wave (km/s) = 7.19776 7.27245 7.23520
#
# Compressibility (1/GPa) = 0.01628825
#
# Stress axis : x y z
#
# Youngs Moduli (GPa) = 79.41744 72.14161 78.99114
#
# Poissons Ratio (x) = 0.24083 0.36437
# Poissons Ratio (y) = 0.26512 0.27340
# Poissons Ratio (z) = 0.36634 0.24969
#
# Static dielectric constant tensor:
#      x y z
#    x 3.549730 0.000000 -0.058100 
#    y 0.000000 3.290830 0.000000 
#    z -0.058100 0.000000 3.756120 
# 
# 
# High freq. dielectric constant tensor:
#      x y z
#    x 1.757930 0.000000 -0.004410 
#    y 0.000000 1.761090 0.000000 
#    z -0.004410 0.000000 1.753080 
# 
# From -- ./inp_files/73051.got.cif
#   From: 2010.06.25/outbox.cif.g09.slc.cpg/sg11_37_cif.got.tgz:73051.got - 2010.06.27 23:14:04.
