data_PCOD8077223
_publ_section_title
;
Structure prediction by ZEFSAII (Michael W. Deem and Ramdas Pophale) SiO2 
 PCOD8077223
Probable space group: P 21/M
;
_chemical_formula_sum "Si O2"
_cell_formula_units_Z 20
_cell_length_a 24.655020
_cell_length_b 8.807217
_cell_length_c 9.573660
_cell_angle_alpha 90.000000
_cell_angle_beta 152.005468
_cell_angle_gamma 90.000000
_cell_volume 975.783316
_symmetry_space_group_name_H-M "P 21/M"
_symmetry_group_IT_number 11
_symmetry_cell_setting 'monoclinic'
loop_
_space_group_symop_operation_xyz
x,y,z
-x,1/2+y,-z
-x,-y,-z
x,1/2-y,z
loop_
_atom_site_type_symbol
_atom_site_label
_atom_site_fract_x
_atom_site_fract_y
_atom_site_fract_z
Si Si1 0.468695 0.070653 0.283111
Si Si2 0.019817 0.926603 0.395122
Si Si3 0.837596 0.925996 0.755522
Si Si4 0.225662 0.926877 0.667688
Si Si5 0.414419 0.425721 0.697323
O O1 0.471901 0.250000 0.299264
O O2 0.500000 0.000000 0.500000
O O3 0.569374 0.012142 0.411115
O O4 0.343014 0.021391 0.943614
O O5 0.995478 0.750000 0.358954
O O6 0.149015 0.958050 0.631758
O O7 0.000000 0.000000 0.500000
O O8 0.930855 0.991122 0.077287
O O9 0.861115 0.750000 0.773478
O O10 0.714678 0.950348 0.546845
O O11 0.845778 0.021342 0.631261
O O12 0.255890 0.750000 0.723141
O O13 0.446009 0.250000 0.751168
O O14 0.500000 0.500000 0.000000
#
# Coordination Sequence:
#
# PCOD8077223 Si02
#       5
#     4   4   4   4   4
#     4  12  26  43  64  92 129 169 210 259 317 375
#     4  10  24  43  63  93 126 161 209 261 315 373
#     4  10  22  41  65  92 125 166 208 254 311 373
#     4  11  23  41  65  94 126 162 212 261 310 376
#     4  11  22  39  64  96 130 164 207 254 310 374
#
# _framework density 20.496352999999999
#
# number of rings (size 3 to 8) (size 9 to 14) (size 15 to 20)
#    0.000    1.200    2.000    3.600    2.800    3.200 
#    0.000    0.000    0.000    0.000    0.000    0.000 
#    0.000    0.000    0.000    0.000    0.000    0.000 
#
# Total GULP energy -248083.774217 kJ/mol
# GULP energy per Si atom -12404.188711 kJ/mol
# Density = 2.044970 g / cm^3
# Si number density = 20.496353 Si / 1000 Ang^3
#
#
#
# Elastic Constant Matrix: (Units=GPa)
#
#
# Indices 1 2 3 4 5 6 
#
# 1 127.1317 55.7763 18.8809 0.0000 -21.9892 0.0000
# 2 55.7763 123.3045 25.6911 0.0000 -4.5960 0.0000
# 3 18.8809 25.6911 68.3783 0.0000 -13.2058 0.0000
# 4 0.0000 0.0000 0.0000 34.1059 0.0000 -7.7117
# 5 -21.9892 -4.5960 -13.2058 0.0000 37.2413 0.0000
# 6 0.0000 0.0000 0.0000 -7.7117 0.0000 39.6474
#
#
#
# Elastic Compliance Matrix: (Units=1/GPa)
#
#
# Indices 1 2 3 4 5 6 
#
# 1 0.010965 -0.004716 -0.000127 0.000000 0.005847 0.000000
# 2 -0.004716 0.010827 -0.003269 0.000000 -0.002607 0.000000
# 3 -0.000127 -0.003269 0.016957 0.000000 0.005535 0.000000
# 4 0.000000 0.000000 0.000000 0.030669 0.000000 0.005965
# 5 0.005847 -0.002607 0.005535 0.000000 0.031945 0.000000
# 6 0.000000 0.000000 0.000000 0.005965 0.000000 0.026383
#
#
# Mechanical properties :
#
#
# Convention : Reuss Voigt Hill
#
# Bulk Modulus (GPa) = 44.39429 57.72347 51.05888
# Shear Modulus (GPa) = 33.00815 36.76336 34.88575
#
# Velocity S-wave (km/s) = 4.01738 4.23975 4.13006
# Velocity P-wave (km/s) = 6.57463 7.22435 6.90713
#
# Compressibility (1/GPa) = 0.02252542
#
# Stress axis : x y z
#
# Youngs Moduli (GPa) = 91.19987 92.36084 58.97351
#
# Poissons Ratio (x) = 0.43554 0.00747
# Poissons Ratio (y) = 0.43006 0.19281
# Poissons Ratio (z) = 0.01155 0.30197
#
# Static dielectric constant tensor:
#      x y z
#    x 3.810110 0.000000 -0.111730 
#    y 0.000000 3.864950 0.000000 
#    z -0.111730 0.000000 3.770870 
# 
# 
# High freq. dielectric constant tensor:
#      x y z
#    x 1.819980 0.000000 0.000880 
#    y 0.000000 1.803880 0.000000 
#    z 0.000880 0.000000 1.806960 
# 
# From -- ./inp_files/15904.got.cif
#   From: 2010.06.25/outbox.cif.g09.slc.cpg/sg11_8_cif.got.tgz:15904.got - 2010.06.27 23:14:04.
