data_PCOD8077830
_publ_section_title
;
Structure prediction by ZEFSAII (Michael W. Deem and Ramdas Pophale) SiO2 
 PCOD8077830
Probable space group: P 21/M
;
_chemical_formula_sum "Si O2"
_cell_formula_units_Z 20
_cell_length_a 21.650181
_cell_length_b 8.685207
_cell_length_c 13.549550
_cell_angle_alpha 90.000000
_cell_angle_beta 21.138422
_cell_angle_gamma 90.000000
_cell_volume 918.796272
_symmetry_space_group_name_H-M "P 21/M"
_symmetry_group_IT_number 11
_symmetry_cell_setting 'monoclinic'
loop_
_space_group_symop_operation_xyz
x,y,z
-x,1/2+y,-z
-x,-y,-z
x,1/2-y,z
loop_
_atom_site_type_symbol
_atom_site_label
_atom_site_fract_x
_atom_site_fract_y
_atom_site_fract_z
Si Si1 0.732063 0.424313 0.691172
Si Si2 0.411420 0.429807 0.280598
Si Si3 0.689029 0.432283 0.212098
Si Si4 0.835826 0.934115 0.187843
Si Si5 0.925058 0.574944 0.709034
O O1 0.675284 0.250000 0.750752
O O2 0.715724 0.525414 0.618242
O O3 0.926776 0.432015 0.431101
O O4 0.604312 0.489081 0.968277
O O5 0.411260 0.250000 0.291989
O O6 0.333163 0.492034 0.499771
O O7 0.500000 0.500000 0.500000
O O8 0.679897 0.250000 0.232483
O O9 0.813141 0.498209 0.112336
O O10 0.765868 0.480364 0.990841
O O11 0.852641 0.750000 0.155673
O O12 0.000000 0.000000 0.000000
O O13 0.868768 0.750000 0.771216
O O14 0.000000 0.500000 0.500000
#
# Coordination Sequence:
#
# PCOD8077830 Si02
#       5
#     4   4   4   4   4
#     4   9  19  36  58  87 123 160 206 261 316 376
#     4   9  19  35  58  88 121 161 204 258 319 379
#     4  12  27  47  69  97 135 177 226 283 343 409
#     4  11  23  40  65  95 132 174 223 275 334 401
#     4  11  24  42  66  95 128 171 220 270 328 395
#
# _framework density 21.767612
#
# number of rings (size 3 to 8) (size 9 to 14) (size 15 to 20)
#    0.000    1.600    0.000    4.200    2.800    6.400 
#    0.000    0.000    0.000    0.000    0.000    0.000 
#    0.000    0.000    0.000    0.000    0.000    0.000 
#
# Total GULP energy -247944.714939 kJ/mol
# GULP energy per Si atom -12397.235747 kJ/mol
# Density = 2.171807 g / cm^3
# Si number density = 21.767612 Si / 1000 Ang^3
#
#
#
# Elastic Constant Matrix: (Units=GPa)
#
#
# Indices 1 2 3 4 5 6 
#
# 1 69.9438 30.1682 44.7367 0.0000 15.9089 0.0000
# 2 30.1682 98.6050 57.4458 0.0000 7.0753 0.0000
# 3 44.7367 57.4458 127.1811 0.0000 22.0022 0.0000
# 4 0.0000 0.0000 0.0000 34.7366 0.0000 1.7310
# 5 15.9089 7.0753 22.0022 0.0000 43.7078 0.0000
# 6 0.0000 0.0000 0.0000 1.7310 0.0000 37.3575
#
#
#
# Elastic Compliance Matrix: (Units=1/GPa)
#
#
# Indices 1 2 3 4 5 6 
#
# 1 0.019608 -0.002855 -0.004878 0.000000 -0.004219 0.000000
# 2 -0.002855 0.014218 -0.005695 0.000000 0.001605 0.000000
# 3 -0.004878 -0.005695 0.012799 0.000000 -0.003746 0.000000
# 4 0.000000 0.000000 0.000000 0.028855 0.000000 -0.001337
# 5 -0.004219 0.001605 -0.003746 0.000000 0.026041 0.000000
# 6 0.000000 0.000000 0.000000 -0.001337 0.000000 0.026830
#
#
# Mechanical properties :
#
#
# Convention : Reuss Voigt Hill
#
# Bulk Modulus (GPa) = 50.58372 62.27014 56.42693
# Shear Modulus (GPa) = 30.90301 34.05231 32.47766
#
# Velocity S-wave (km/s) = 3.77195 3.95949 3.86685
# Velocity P-wave (km/s) = 6.50067 7.04076 6.77609
#
# Compressibility (1/GPa) = 0.01976921
#
# Stress axis : x y z
#
# Youngs Moduli (GPa) = 50.99928 70.33454 78.12993
#
# Poissons Ratio (x) = 0.20077 0.38112
# Poissons Ratio (y) = 0.14558 0.44498
# Poissons Ratio (z) = 0.24877 0.40059
#
# Static dielectric constant tensor:
#      x y z
#    x 3.821730 0.000000 0.102960 
#    y 0.000000 3.978860 0.000000 
#    z 0.102960 0.000000 4.462900 
# 
# 
# High freq. dielectric constant tensor:
#      x y z
#    x 1.847950 0.000000 0.013080 
#    y 0.000000 1.851530 0.000000 
#    z 0.013080 0.000000 1.878240 
# 
# From -- ./inp_files/55347.got.cif
#   From: 2010.06.25/outbox.cif.g09.slc.cpg/sg11_28_cif.got.tgz:55347.got - 2010.06.27 23:14:04.
