data_PCOD8077454
_publ_section_title
;
Structure prediction by ZEFSAII (Michael W. Deem and Ramdas Pophale) SiO2 
 PCOD8077454
Probable space group: P 21/M
;
_chemical_formula_sum "Si O2"
_cell_formula_units_Z 28
_cell_length_a 9.326093
_cell_length_b 14.806163
_cell_length_c 11.737405
_cell_angle_alpha 90.000000
_cell_angle_beta 56.609289
_cell_angle_gamma 90.000000
_cell_volume 1353.219092
_symmetry_space_group_name_H-M "P 21/M"
_symmetry_group_IT_number 11
_symmetry_cell_setting 'monoclinic'
loop_
_space_group_symop_operation_xyz
x,y,z
-x,1/2+y,-z
-x,-y,-z
x,1/2-y,z
loop_
_atom_site_type_symbol
_atom_site_label
_atom_site_fract_x
_atom_site_fract_y
_atom_site_fract_z
Si Si1 0.920646 0.651113 0.531390
Si Si2 0.256083 0.099567 0.174735
Si Si3 0.733575 0.082006 0.700895
Si Si4 0.177759 0.011087 0.986379
Si Si5 0.563359 0.960746 0.319679
Si Si6 0.358575 0.653293 0.029480
Si Si7 0.416263 0.357890 0.465926
O O1 0.989114 0.750000 0.468962
O O2 0.876126 0.652177 0.685506
O O3 0.749465 0.627053 0.538601
O O4 0.070339 0.583058 0.428703
O O5 0.436270 0.147932 0.074351
O O6 0.309267 0.008780 0.214092
O O7 0.157818 0.081937 0.098704
O O8 0.618446 0.082688 0.637738
O O9 0.688074 0.156624 0.815260
O O10 0.310044 0.052246 0.839961
O O11 0.249658 0.918056 0.005651
O O12 0.000000 0.000000 0.000000
O O13 0.632050 0.893834 0.387883
O O14 0.556142 0.068182 0.358244
O O15 0.303564 0.750000 0.003116
O O16 0.473361 0.250000 0.439004
#
# Coordination Sequence:
#
# PCOD8077454 Si02
#       7
#     4   4   4   4   4   4   4
#     4  11  23  39  63  96 126 164 216 275 320 377
#     4  11  21  41  67  91 126 168 218 261 322 391
#     4  11  21  39  63  94 125 163 215 261 326 394
#     4  11  24  42  64  93 129 172 216 261 330 402
#     4  11  22  42  66  91 129 178 211 264 334 389
#     4  11  22  41  67  95 127 169 220 274 323 389
#     4  10  24  41  64  95 129 168 217 268 328 390
#
# _framework density 20.691402
#
# number of rings (size 3 to 8) (size 9 to 14) (size 15 to 20)
#    0.000    1.143    4.286    2.143    4.000    4.000 
#    0.000    1.429    0.000    0.000    0.000    0.000 
#    0.000    0.000    0.000    0.000    0.000    0.000 
#
# Total GULP energy -346969.514790 kJ/mol
# GULP energy per Si atom -12391.768385 kJ/mol
# Density = 2.064431 g / cm^3
# Si number density = 20.691402 Si / 1000 Ang^3
#
#
#
# Elastic Constant Matrix: (Units=GPa)
#
#
# Indices 1 2 3 4 5 6 
#
# 1 95.0257 36.2285 42.3135 0.0000 16.2859 0.0000
# 2 36.2285 76.3422 30.5871 0.0000 4.7252 0.0000
# 3 42.3135 30.5871 138.0263 0.0000 8.6222 0.0000
# 4 0.0000 0.0000 0.0000 29.4531 0.0000 15.8082
# 5 16.2859 4.7252 8.6222 0.0000 38.1292 0.0000
# 6 0.0000 0.0000 0.0000 15.8082 0.0000 22.7411
#
#
#
# Elastic Compliance Matrix: (Units=1/GPa)
#
#
# Indices 1 2 3 4 5 6 
#
# 1 0.014819 -0.005519 -0.003010 0.000000 -0.004965 0.000000
# 2 -0.005519 0.016474 -0.002007 0.000000 0.000770 0.000000
# 3 -0.003010 -0.002007 0.008639 0.000000 -0.000419 0.000000
# 4 0.000000 0.000000 0.000000 0.054159 0.000000 -0.037648
# 5 -0.004965 0.000770 -0.000419 0.000000 0.028347 0.000000
# 6 0.000000 0.000000 0.000000 -0.037648 0.000000 0.070144
#
#
# Mechanical properties :
#
#
# Convention : Reuss Voigt Hill
#
# Bulk Modulus (GPa) = 53.02125 58.62805 55.82465
# Shear Modulus (GPa) = 22.73352 31.41568 27.07460
#
# Velocity S-wave (km/s) = 3.31825 3.90076 3.62124
# Velocity P-wave (km/s) = 6.35307 6.97739 6.67253
#
# Compressibility (1/GPa) = 0.01886036
#
# Stress axis : x y z
#
# Youngs Moduli (GPa) = 67.48241 60.69990 115.75998
#
# Poissons Ratio (x) = 0.33501 0.34839
# Poissons Ratio (y) = 0.37244 0.23232
# Poissons Ratio (z) = 0.20310 0.12182
#
# Static dielectric constant tensor:
#      x y z
#    x 3.971650 0.000000 0.146300 
#    y 0.000000 4.154200 0.000000 
#    z 0.146300 0.000000 4.072260 
# 
# 
# High freq. dielectric constant tensor:
#      x y z
#    x 1.794400 0.000000 0.012150 
#    y 0.000000 1.809930 0.000000 
#    z 0.012150 0.000000 1.824300 
# 
# From -- ./inp_files/31797.got.cif
#   From: 2010.06.25/outbox.cif.g09.slc.cpg/sg11_16_cif.got.tgz:31797.got - 2010.06.27 23:14:04.
