data_PCOD8077675
_publ_section_title
;
Structure prediction by ZEFSAII (Michael W. Deem and Ramdas Pophale) SiO2 
 PCOD8077675
Probable space group: P 21/M
;
_chemical_formula_sum "Si O2"
_cell_formula_units_Z 32
_cell_length_a 11.817859
_cell_length_b 16.951229
_cell_length_c 15.235532
_cell_angle_alpha 90.000000
_cell_angle_beta 30.089889
_cell_angle_gamma 90.000000
_cell_volume 1530.190905
_symmetry_space_group_name_H-M "P 21/M"
_symmetry_group_IT_number 11
_symmetry_cell_setting 'monoclinic'
loop_
_space_group_symop_operation_xyz
x,y,z
-x,1/2+y,-z
-x,-y,-z
x,1/2-y,z
loop_
_atom_site_type_symbol
_atom_site_label
_atom_site_fract_x
_atom_site_fract_y
_atom_site_fract_z
Si Si1 0.741422 0.842247 0.837120
Si Si2 0.812878 0.417109 0.176513
Si Si3 0.005322 0.986418 0.598600
Si Si4 0.514413 0.339095 0.508813
Si Si5 0.002177 0.840584 0.122967
Si Si6 0.289327 0.578738 0.071385
Si Si7 0.744688 0.577527 0.010528
Si Si8 0.530925 0.451770 0.646882
O O1 0.773584 0.750000 0.791618
O O2 0.941702 0.895271 0.661933
O O3 0.511803 0.876046 0.951129
O O4 0.744216 0.851362 0.940956
O O5 0.640070 0.352755 0.331957
O O6 0.672164 0.495639 0.253609
O O7 0.922331 0.389722 0.012346
O O8 0.005168 0.436259 0.118834
O O9 0.257392 0.003732 0.464229
O O10 0.841055 0.049333 0.754680
O O11 0.000000 0.000000 0.500000
O O12 0.551274 0.250000 0.513723
O O13 0.624322 0.393994 0.509248
O O14 0.251776 0.361018 0.678510
O O15 0.030179 0.750000 0.078278
O O16 0.148859 0.858882 0.109719
O O17 0.344441 0.502628 0.975129
O O18 0.569421 0.599552 0.205099
#
# Coordination Sequence:
#
# PCOD8077675 Si02
#       8
#     4   4   4   4   4   4   4   4
#     4  11  25  44  67  94 130 175 224 277 344 402
#     4  12  23  41  67  96 133 176 224 272 334 397
#     4  11  24  42  68  97 130 170 222 279 336 394
#     4  11  24  39  58  95 136 170 215 269 332 399
#     4  11  23  40  64  95 136 178 218 276 340 400
#     4  11  21  43  66  93 126 169 225 275 327 407
#     4  11  22  40  69  94 127 172 222 274 331 396
#     4  12  22  40  65  97 127 170 216 274 325 397
#
# _framework density 20.912424000000001
#
# number of rings (size 3 to 8) (size 9 to 14) (size 15 to 20)
#    0.000    0.750    2.500    7.500    0.000    3.000 
#    0.000    2.500    0.000    0.000    0.000    0.000 
#    0.000    0.000    0.000    0.000    0.000    0.000 
#
# Total GULP energy -396871.474963 kJ/mol
# GULP energy per Si atom -12402.233593 kJ/mol
# Density = 2.086483 g / cm^3
# Si number density = 20.912424 Si / 1000 Ang^3
#
#
#
# Elastic Constant Matrix: (Units=GPa)
#
#
# Indices 1 2 3 4 5 6 
#
# 1 126.8931 33.8143 32.7128 0.0000 -2.9166 0.0000
# 2 33.8143 90.2897 27.6970 0.0000 -0.0614 0.0000
# 3 32.7128 27.6970 100.1426 0.0000 7.3064 0.0000
# 4 0.0000 0.0000 0.0000 26.7928 0.0000 -1.8147
# 5 -2.9166 -0.0614 7.3064 0.0000 33.2095 0.0000
# 6 0.0000 0.0000 0.0000 -1.8147 0.0000 28.4306
#
#
#
# Elastic Compliance Matrix: (Units=1/GPa)
#
#
# Indices 1 2 3 4 5 6 
#
# 1 0.009250 -0.002739 -0.002361 0.000000 0.001327 0.000000
# 2 -0.002739 0.012933 -0.002710 0.000000 0.000380 0.000000
# 3 -0.002361 -0.002710 0.011710 0.000000 -0.002789 0.000000
# 4 0.000000 0.000000 0.000000 0.037485 0.000000 0.002393
# 5 0.001327 0.000380 -0.002789 0.000000 0.030843 0.000000
# 6 0.000000 0.000000 0.000000 0.002393 0.000000 0.035326
#
#
# Mechanical properties :
#
#
# Convention : Reuss Voigt Hill
#
# Bulk Modulus (GPa) = 54.72536 56.19703 55.46120
# Shear Modulus (GPa) = 31.39587 32.56001 31.97794
#
# Velocity S-wave (km/s) = 3.87887 3.95013 3.91466
# Velocity P-wave (km/s) = 6.80342 6.90909 6.85646
#
# Compressibility (1/GPa) = 0.01827306
#
# Stress axis : x y z
#
# Youngs Moduli (GPa) = 108.11250 77.32300 85.39808
#
# Poissons Ratio (x) = 0.21179 0.20160
# Poissons Ratio (y) = 0.29612 0.23142
# Poissons Ratio (z) = 0.25523 0.20953
#
# Static dielectric constant tensor:
#      x y z
#    x 3.971060 0.000000 0.038080 
#    y 0.000000 3.799110 0.000000 
#    z 0.038080 0.000000 4.061560 
# 
# 
# High freq. dielectric constant tensor:
#      x y z
#    x 1.834090 0.000000 -0.002720 
#    y 0.000000 1.803430 0.000000 
#    z -0.002720 0.000000 1.831850 
# 
# From -- ./inp_files/50650.got.cif
#   From: 2010.06.25/outbox.cif.g09.slc.cpg/sg11_26_cif.got.tgz:50650.got - 2010.06.27 23:14:04.
