data_PCOD8077595
_publ_section_title
;
Structure prediction by ZEFSAII (Michael W. Deem and Ramdas Pophale) SiO2 
 PCOD8077595
Probable space group: P 21/M
;
_chemical_formula_sum "Si O2"
_cell_formula_units_Z 32
_cell_length_a 17.945280
_cell_length_b 9.177419
_cell_length_c 25.974370
_cell_angle_alpha 90.000000
_cell_angle_beta 154.669953
_cell_angle_gamma 90.000000
_cell_volume 1830.159785
_symmetry_space_group_name_H-M "P 21/M"
_symmetry_group_IT_number 11
_symmetry_cell_setting 'monoclinic'
loop_
_space_group_symop_operation_xyz
x,y,z
-x,1/2+y,-z
-x,-y,-z
x,1/2-y,z
loop_
_atom_site_type_symbol
_atom_site_label
_atom_site_fract_x
_atom_site_fract_y
_atom_site_fract_z
Si Si1 0.196537 0.923395 0.512471
Si Si2 0.590793 0.082336 0.602681
Si Si3 0.293609 0.577565 0.016947
Si Si4 0.477941 0.421251 0.933266
Si Si5 0.097205 0.078390 0.235243
Si Si6 0.247148 0.083956 0.440716
Si Si7 0.393497 0.423108 0.718263
Si Si8 0.835334 0.578620 0.330935
O O1 0.212044 0.750000 0.521935
O O2 0.026840 0.981365 0.437611
O O3 0.183485 0.977386 0.445740
O O4 0.362285 0.994694 0.644774
O O5 0.621290 0.250000 0.606837
O O6 0.458089 0.069343 0.567857
O O7 0.500000 0.000000 0.500000
O O8 0.777439 0.004298 0.727488
O O9 0.292529 0.750000 0.013248
O O10 0.376719 0.519577 0.015763
O O11 0.415019 0.530819 0.141050
O O12 0.096542 0.519442 0.898352
O O13 0.496831 0.250000 0.953460
O O14 0.288823 0.464590 0.793814
O O15 0.500000 0.500000 0.000000
O O16 0.115850 0.250000 0.237416
O O17 0.150240 0.039348 0.327108
O O18 0.197787 0.250000 0.424001
O O19 0.382799 0.250000 0.703145
O O20 0.246044 0.480666 0.666479
O O21 0.841027 0.750000 0.339831
#
# Coordination Sequence:
#
# PCOD8077595 Si02
#       8
#     4   4   4   4   4   4   4   4
#     4  11  21  31  47  71  99 126 159 207 248 278
#     4   9  17  31  50  72  99 129 159 193 236 287
#     4   8  16  31  51  71  93 127 163 196 237 290
#     4   9  17  30  46  65  95 130 161 193 235 283
#     4   9  17  31  52  76 100 125 159 197 236 291
#     4   9  19  32  47  71 101 128 156 189 233 291
#     4   9  17  34  54  67  89 129 170 201 238 286
#     4   8  17  32  47  66  93 127 163 199 241 285
#
# _framework density 17.484812000000002
#
# number of rings (size 3 to 8) (size 9 to 14) (size 15 to 20)
#    0.000    3.000    0.000    3.375    1.750    2.500 
#    0.000    5.000    0.000    0.750    0.000    0.000 
#    0.000    0.000    0.000    0.000    0.000    0.000 
#
# Total GULP energy -396559.705523 kJ/mol
# GULP energy per Si atom -12392.490798 kJ/mol
# Density = 1.744502 g / cm^3
# Si number density = 17.484812 Si / 1000 Ang^3
#
#
#
# Elastic Constant Matrix: (Units=GPa)
#
#
# Indices 1 2 3 4 5 6 
#
# 1 42.4473 23.5857 35.8206 0.0000 4.7904 0.0000
# 2 23.5857 53.7136 31.6604 0.0000 2.7100 0.0000
# 3 35.8206 31.6604 112.3238 0.0000 15.5696 0.0000
# 4 0.0000 0.0000 0.0000 22.2818 0.0000 -1.0698
# 5 4.7904 2.7100 15.5696 0.0000 27.1407 0.0000
# 6 0.0000 0.0000 0.0000 -1.0698 0.0000 29.7200
#
#
#
# Elastic Compliance Matrix: (Units=1/GPa)
#
#
# Indices 1 2 3 4 5 6 
#
# 1 0.037096 -0.011190 -0.008608 0.000000 -0.000492 0.000000
# 2 -0.011190 0.025759 -0.003921 0.000000 0.001652 0.000000
# 3 -0.008608 -0.003921 0.013567 0.000000 -0.005872 0.000000
# 4 0.000000 0.000000 0.000000 0.044957 0.000000 0.001618
# 5 -0.000492 0.001652 -0.005872 0.000000 0.040136 0.000000
# 6 0.000000 0.000000 0.000000 0.001618 0.000000 0.033706
#
#
# Mechanical properties :
#
#
# Convention : Reuss Voigt Hill
#
# Bulk Modulus (GPa) = 34.50216 43.40203 38.95209
# Shear Modulus (GPa) = 19.81615 23.65636 21.73625
#
# Velocity S-wave (km/s) = 3.37016 3.68226 3.52966
# Velocity P-wave (km/s) = 5.90927 6.55403 6.23998
#
# Compressibility (1/GPa) = 0.02898370
#
# Stress axis : x y z
#
# Youngs Moduli (GPa) = 26.95713 38.82181 73.70843
#
# Poissons Ratio (x) = 0.43443 0.63445
# Poissons Ratio (y) = 0.30166 0.28900
# Poissons Ratio (z) = 0.23204 0.15222
#
# Static dielectric constant tensor:
#      x y z
#    x 3.643730 0.000000 0.888190 
#    y 0.000000 3.066550 0.000000 
#    z 0.888190 0.000000 4.357750 
# 
# 
# High freq. dielectric constant tensor:
#      x y z
#    x 1.656480 0.000000 0.009370 
#    y 0.000000 1.653940 0.000000 
#    z 0.009370 0.000000 1.676200 
# 
# From -- ./inp_files/73639.got.cif
#   From: 2010.06.25/outbox.cif.g09.slc.cpg/sg11_37_cif.got.tgz:73639.got - 2010.06.27 23:14:04.
