data_PCOD8077329
_publ_section_title
;
Structure prediction by ZEFSAII (Michael W. Deem and Ramdas Pophale) SiO2 
 PCOD8077329
Probable space group: P 21/M
;
_chemical_formula_sum "Si O2"
_cell_formula_units_Z 32
_cell_length_a 14.728820
_cell_length_b 22.513864
_cell_length_c 8.967666
_cell_angle_alpha 90.000000
_cell_angle_beta 147.837002
_cell_angle_gamma 90.000000
_cell_volume 1582.989758
_symmetry_space_group_name_H-M "P 21/M"
_symmetry_group_IT_number 11
_symmetry_cell_setting 'monoclinic'
loop_
_space_group_symop_operation_xyz
x,y,z
-x,1/2+y,-z
-x,-y,-z
x,1/2-y,z
loop_
_atom_site_type_symbol
_atom_site_label
_atom_site_fract_x
_atom_site_fract_y
_atom_site_fract_z
Si Si1 0.069158 0.583405 0.395716
Si Si2 0.678098 0.515365 0.167249
Si Si3 0.552446 0.500026 0.405198
Si Si4 0.717104 0.376117 0.559515
Si Si5 0.387949 0.316565 0.192014
Si Si6 0.131839 0.366725 0.618678
Si Si7 0.985044 0.680160 0.854772
Si Si8 0.238477 0.107785 0.237315
O O1 0.163389 0.520913 0.548269
O O2 0.194669 0.628590 0.481424
O O3 0.020693 0.606433 0.492533
O O4 0.904648 0.574458 0.061194
O O5 0.734245 0.583872 0.253642
O O6 0.500000 0.500000 0.000000
O O7 0.631400 0.499407 0.932230
O O8 0.500000 0.500000 0.500000
O O9 0.667472 0.444188 0.519928
O O10 0.663487 0.559010 0.526330
O O11 0.554250 0.333938 0.329582
O O12 0.841588 0.353791 0.863001
O O13 0.403178 0.250000 0.273851
O O14 0.369674 0.360065 0.307776
O O15 0.228687 0.320104 0.858723
O O16 0.052558 0.331999 0.370168
O O17 0.005824 0.750000 0.911338
O O18 0.834612 0.656500 0.751452
#
# Coordination Sequence:
#
# PCOD8077329 Si02
#       8
#     4   4   4   4   4   4   4   4
#     4  10  23  39  60  90 124 163 201 247 313 374
#     4  12  22  39  60  90 129 161 198 254 316 375
#     4  12  22  38  63  97 126 156 202 260 317 370
#     4  11  23  41  62  92 126 163 204 251 312 371
#     4  11  21  42  65  86 118 165 210 248 300 370
#     4  11  23  40  61  91 120 164 209 255 307 365
#     4  11  25  42  61  90 124 162 207 257 303 359
#     4  10  23  40  64  91 123 159 204 252 314 370
#
# _framework density 20.214912999999999
#
# number of rings (size 3 to 8) (size 9 to 14) (size 15 to 20)
#    0.000    1.000    3.750    3.000    3.500    1.000 
#    0.000    1.875    0.000    0.000    0.000    0.000 
#    0.000    0.000    0.000    0.000    0.000    0.000 
#
# Total GULP energy -396790.659300 kJ/mol
# GULP energy per Si atom -12399.708103 kJ/mol
# Density = 2.016890 g / cm^3
# Si number density = 20.214913 Si / 1000 Ang^3
#
#
#
# Elastic Constant Matrix: (Units=GPa)
#
#
# Indices 1 2 3 4 5 6 
#
# 1 96.2926 18.5259 11.7946 0.0000 5.3854 0.0000
# 2 18.5259 122.0898 38.4632 0.0000 6.8552 0.0000
# 3 11.7946 38.4632 64.8787 0.0000 -2.0343 0.0000
# 4 0.0000 0.0000 0.0000 25.7983 0.0000 -4.3421
# 5 5.3854 6.8552 -2.0343 0.0000 36.2951 0.0000
# 6 0.0000 0.0000 0.0000 -4.3421 0.0000 21.3467
#
#
#
# Elastic Compliance Matrix: (Units=1/GPa)
#
#
# Indices 1 2 3 4 5 6 
#
# 1 0.010851 -0.001141 -0.001342 0.000000 -0.001470 0.000000
# 2 -0.001141 0.010377 -0.006011 0.000000 -0.002128 0.000000
# 3 -0.001342 -0.006011 0.019297 0.000000 0.002416 0.000000
# 4 0.000000 0.000000 0.000000 0.040136 0.000000 0.008164
# 5 -0.001470 -0.002128 0.002416 0.000000 0.028307 0.000000
# 6 0.000000 0.000000 0.000000 0.008164 0.000000 0.048506
#
#
# Mechanical properties :
#
#
# Convention : Reuss Voigt Hill
#
# Bulk Modulus (GPa) = 42.48844 46.75872 44.62358
# Shear Modulus (GPa) = 27.42584 30.98652 29.20618
#
# Velocity S-wave (km/s) = 3.68735 3.91942 3.80515
# Velocity P-wave (km/s) = 6.26041 6.60783 6.43647
#
# Compressibility (1/GPa) = 0.02353581
#
# Stress axis : x y z
#
# Youngs Moduli (GPa) = 92.15591 96.36594 51.82171
#
# Poissons Ratio (x) = 0.10997 0.06956
# Poissons Ratio (y) = 0.10517 0.31152
# Poissons Ratio (z) = 0.12369 0.57928
#
# Static dielectric constant tensor:
#      x y z
#    x 4.270360 0.000000 -1.432350 
#    y 0.000000 4.021920 0.000000 
#    z -1.432350 0.000000 11.724980 
# 
# 
# High freq. dielectric constant tensor:
#      x y z
#    x 1.803430 0.000000 0.001600 
#    y 0.000000 1.780220 0.000000 
#    z 0.001600 0.000000 1.791690 
# 
# From -- ./inp_files/23349.got.cif
#   From: 2010.06.25/outbox.cif.g09.slc.cpg/sg11_12_cif.got.tgz:23349.got - 2010.06.27 23:14:04.
