data_PCOD8077896
_publ_section_title
;
Structure prediction by ZEFSAII (Michael W. Deem and Ramdas Pophale) SiO2 
 PCOD8077896
Probable space group: P 21/M
;
_chemical_formula_sum "Si O2"
_cell_formula_units_Z 18
_cell_length_a 17.715200
_cell_length_b 9.670384
_cell_length_c 8.645094
_cell_angle_alpha 90.000000
_cell_angle_beta 148.426354
_cell_angle_gamma 90.000000
_cell_volume 775.450772
_symmetry_space_group_name_H-M "P 21/M"
_symmetry_group_IT_number 11
_symmetry_cell_setting 'monoclinic'
loop_
_space_group_symop_operation_xyz
x,y,z
-x,1/2+y,-z
-x,-y,-z
x,1/2-y,z
loop_
_atom_site_type_symbol
_atom_site_label
_atom_site_fract_x
_atom_site_fract_y
_atom_site_fract_z
Si Si1 0.500415 0.750000 0.312130
Si Si2 0.070545 0.750000 0.401921
Si Si3 0.594988 0.250000 0.523425
Si Si4 0.862862 0.552260 0.557819
Si Si5 0.919454 0.250000 0.213772
Si Si6 0.179233 0.250000 0.245568
Si Si7 0.559541 0.526540 0.935416
O O1 0.511901 0.750000 0.516743
O O2 0.653457 0.750000 0.496634
O O3 0.411920 0.883753 0.104536
O O4 0.139416 0.614127 0.442924
O O5 0.091828 0.750000 0.621782
O O6 0.901978 0.750000 0.060502
O O7 0.560146 0.385355 0.363328
O O8 0.761179 0.250000 0.863611
O O9 0.866149 0.612816 0.737484
O O10 0.996682 0.612133 0.693621
O O11 0.713908 0.603100 0.216784
O O12 0.500000 0.500000 0.000000
#
# Coordination Sequence:
#
# PCOD8077896 Si02
#       7
#     2   2   2   4   2   2   4
#     4  12  26  45  72 107 154 185 250 291 373 419
#     4  12  26  43  76 103 150 192 238 302 367 421
#     4  12  28  47  75 109 148 191 237 303 362 436
#     4  11  25  48  72 106 145 188 244 297 362 432
#     4  11  27  48  72 109 147 190 245 291 367 431
#     4  11  25  43  71 108 143 194 242 299 353 431
#     4  12  25  47  76 107 146 189 241 299 361 432
#
# _framework density 23.212305000000001
#
# number of rings (size 3 to 8) (size 9 to 14) (size 15 to 20)
#    0.000    0.444    2.222    6.000    6.222    3.556 
#    0.000    0.000    0.000    0.000    0.000    0.000 
#    0.000    0.000    0.000    0.000    0.000    0.000 
#
# Total GULP energy -223266.743045 kJ/mol
# GULP energy per Si atom -12403.707947 kJ/mol
# Density = 2.315947 g / cm^3
# Si number density = 23.212305 Si / 1000 Ang^3
#
#
#
# Elastic Constant Matrix: (Units=GPa)
#
#
# Indices 1 2 3 4 5 6 
#
# 1 132.5889 49.1070 46.2811 0.0000 -12.3062 0.0000
# 2 49.1070 166.8332 46.4380 0.0000 -9.9848 0.0000
# 3 46.2811 46.4380 174.9627 0.0000 -7.8462 0.0000
# 4 0.0000 0.0000 0.0000 42.5864 0.0000 0.3042
# 5 -12.3062 -9.9848 -7.8462 0.0000 43.6805 0.0000
# 6 0.0000 0.0000 0.0000 0.3042 0.0000 30.8427
#
#
#
# Elastic Compliance Matrix: (Units=1/GPa)
#
#
# Indices 1 2 3 4 5 6 
#
# 1 0.009095 -0.002077 -0.001775 0.000000 0.001769 0.000000
# 2 -0.002077 0.007007 -0.001275 0.000000 0.000788 0.000000
# 3 -0.001775 -0.001275 0.006541 0.000000 0.000383 0.000000
# 4 0.000000 0.000000 0.000000 0.023483 0.000000 -0.000232
# 5 0.001769 0.000788 0.000383 0.000000 0.023641 0.000000
# 6 0.000000 0.000000 0.000000 -0.000232 0.000000 0.032425
#
#
# Mechanical properties :
#
#
# Convention : Reuss Voigt Hill
#
# Bulk Modulus (GPa) = 80.72086 84.22634 82.47360
# Shear Modulus (GPa) = 42.89013 45.59249 44.24131
#
# Velocity S-wave (km/s) = 4.30319 4.43668 4.37045
# Velocity P-wave (km/s) = 7.71625 7.91262 7.81505
#
# Compressibility (1/GPa) = 0.01238837
#
# Stress axis : x y z
#
# Youngs Moduli (GPa) = 109.94747 142.70440 152.88839
#
# Poissons Ratio (x) = 0.29642 0.27141
# Poissons Ratio (y) = 0.22838 0.19495
# Poissons Ratio (z) = 0.19518 0.18197
#
# Static dielectric constant tensor:
#      x y z
#    x 4.006230 0.000000 -0.090830 
#    y 0.000000 4.310180 0.000000 
#    z -0.090830 0.000000 4.516650 
# 
# 
# High freq. dielectric constant tensor:
#      x y z
#    x 1.911980 0.000000 -0.001520 
#    y 0.000000 1.927740 0.000000 
#    z -0.001520 0.000000 1.938200 
# 
# From -- ./inp_files/24689.got.cif
#   From: 2010.06.25/outbox.cif.g09.slc.cpg/sg11_13_cif.got.tgz:24689.got - 2010.06.27 23:14:04.
