data_PCOD8077023
_publ_section_title
;
Structure prediction by ZEFSAII (Michael W. Deem and Ramdas Pophale) SiO2 
 PCOD8077023
Probable space group: P 21/M
;
_chemical_formula_sum "Si O2"
_cell_formula_units_Z 28
_cell_length_a 31.094215
_cell_length_b 8.856701
_cell_length_c 10.339738
_cell_angle_alpha 90.000000
_cell_angle_beta 32.440173
_cell_angle_gamma 90.000000
_cell_volume 1527.442940
_symmetry_space_group_name_H-M "P 21/M"
_symmetry_group_IT_number 11
_symmetry_cell_setting 'monoclinic'
loop_
_space_group_symop_operation_xyz
x,y,z
-x,1/2+y,-z
-x,-y,-z
x,1/2-y,z
loop_
_atom_site_type_symbol
_atom_site_label
_atom_site_fract_x
_atom_site_fract_y
_atom_site_fract_z
Si Si1 0.322449 0.073489 0.183193
Si Si2 0.345149 0.070569 0.656650
Si Si3 0.093260 0.072312 0.130115
Si Si4 0.259069 0.070891 0.616257
Si Si5 0.754815 0.425517 0.861168
Si Si6 0.500660 0.926505 0.358194
Si Si7 0.082716 0.924641 0.427688
O O1 0.302514 0.250000 0.218779
O O2 0.300609 0.010455 0.380764
O O3 0.267902 0.981741 0.222474
O O4 0.415427 0.040530 0.923838
O O5 0.351489 0.250000 0.645323
O O6 0.305736 0.010185 0.624068
O O7 0.433548 0.000631 0.438395
O O8 0.293690 0.018117 0.909388
O O9 0.099746 0.250000 0.120991
O O10 0.005704 0.021898 0.297914
O O11 0.107542 0.014852 0.238126
O O12 0.166418 0.012316 0.855420
O O13 0.262856 0.250000 0.607934
O O14 0.733208 0.250000 0.932074
O O15 0.850337 0.454282 0.633474
O O16 0.483904 0.750000 0.416668
O O17 0.500000 0.000000 0.500000
O O18 0.078827 0.750000 0.398081
#
# Coordination Sequence:
#
# PCOD8077023 Si02
#       7
#     4   4   4   4   4   4   4
#     4  10  22  39  57  77 106 145 184 222 267 323
#     4  11  21  35  58  83 107 139 181 226 270 321
#     4   9  16  31  54  78 107 142 177 217 265 316
#     4   9  19  36  57  81 108 142 183 222 266 321
#     4  11  21  34  53  81 112 142 180 223 269 320
#     4  11  22  36  56  81 110 141 182 227 270 318
#     4   9  18  30  50  81 111 138 175 223 267 311
#
# _framework density 18.331291
#
# number of rings (size 3 to 8) (size 9 to 14) (size 15 to 20)
#    0.000    2.000    2.857    1.286    0.000    1.714 
#    0.000    2.857    0.000    0.000    0.000    0.000 
#    0.000    0.000    0.000    0.000    0.000    0.000 
#
# Total GULP energy -347149.732034 kJ/mol
# GULP energy per Si atom -12398.204715 kJ/mol
# Density = 1.828957 g / cm^3
# Si number density = 18.331291 Si / 1000 Ang^3
#
#
#
# Elastic Constant Matrix: (Units=GPa)
#
#
# Indices 1 2 3 4 5 6 
#
# 1 130.4814 34.5455 77.4213 0.0000 -10.3499 0.0000
# 2 34.5455 49.9644 36.5532 0.0000 -8.0228 0.0000
# 3 77.4213 36.5532 147.0988 0.0000 -5.4146 0.0000
# 4 0.0000 0.0000 0.0000 17.9772 0.0000 -3.8439
# 5 -10.3499 -8.0228 -5.4146 0.0000 34.6427 0.0000
# 6 0.0000 0.0000 0.0000 -3.8439 0.0000 25.8701
#
#
#
# Elastic Compliance Matrix: (Units=1/GPa)
#
#
# Indices 1 2 3 4 5 6 
#
# 1 0.012012 -0.004203 -0.005211 0.000000 0.001801 0.000000
# 2 -0.004203 0.026732 -0.004273 0.000000 0.004267 0.000000
# 3 -0.005211 -0.004273 0.010570 0.000000 -0.000895 0.000000
# 4 0.000000 0.000000 0.000000 0.057451 0.000000 0.008536
# 5 0.001801 0.004267 -0.000895 0.000000 0.030252 0.000000
# 6 0.000000 0.000000 0.000000 0.008536 0.000000 0.039923
#
#
# Mechanical properties :
#
#
# Convention : Reuss Voigt Hill
#
# Bulk Modulus (GPa) = 45.58361 69.39828 57.49095
# Shear Modulus (GPa) = 23.62629 27.63299 25.62964
#
# Velocity S-wave (km/s) = 3.59395 3.88677 3.74322
# Velocity P-wave (km/s) = 6.49173 7.62119 7.07902
#
# Compressibility (1/GPa) = 0.02193771
#
# Stress axis : x y z
#
# Youngs Moduli (GPa) = 83.25221 37.40846 94.60818
#
# Poissons Ratio (x) = 0.15724 0.49302
# Poissons Ratio (y) = 0.34994 0.40429
# Poissons Ratio (z) = 0.43385 0.15986
#
# Static dielectric constant tensor:
#      x y z
#    x 3.570430 0.000000 -0.279470 
#    y 0.000000 3.300250 0.000000 
#    z -0.279470 0.000000 3.775470 
# 
# 
# High freq. dielectric constant tensor:
#      x y z
#    x 1.709810 0.000000 -0.021780 
#    y 0.000000 1.701230 0.000000 
#    z -0.021780 0.000000 1.712090 
# 
# From -- ./inp_files/28384.got.cif
#   From: 2010.06.25/outbox.cif.g09.slc.cpg/sg11_15_cif.got.tgz:28384.got - 2010.06.27 23:14:04.
