data_PCOD8077285
_publ_section_title
;
Structure prediction by ZEFSAII (Michael W. Deem and Ramdas Pophale) SiO2 
 PCOD8077285
Probable space group: P 21/M
;
_chemical_formula_sum "Si O2"
_cell_formula_units_Z 28
_cell_length_a 5.117228
_cell_length_b 17.986624
_cell_length_c 14.708977
_cell_angle_alpha 90.000000
_cell_angle_beta 117.478945
_cell_angle_gamma 90.000000
_cell_volume 1201.099147
_symmetry_space_group_name_H-M "P 21/M"
_symmetry_group_IT_number 11
_symmetry_cell_setting 'monoclinic'
loop_
_space_group_symop_operation_xyz
x,y,z
-x,1/2+y,-z
-x,-y,-z
x,1/2-y,z
loop_
_atom_site_type_symbol
_atom_site_label
_atom_site_fract_x
_atom_site_fract_y
_atom_site_fract_z
Si Si1 0.659236 0.596490 0.827784
Si Si2 0.555777 0.335586 0.867084
Si Si3 0.213090 0.955908 0.427441
Si Si4 0.114927 0.662763 0.264741
Si Si5 0.847388 0.092558 0.384717
Si Si6 0.882722 0.250000 0.328796
Si Si7 0.790607 0.750000 0.799174
Si Si8 0.710914 0.065908 0.058875
O O1 0.494447 0.590699 0.703924
O O2 0.824668 0.676088 0.864869
O O3 0.404714 0.593483 0.862208
O O4 0.941027 0.540464 0.879324
O O5 0.560133 0.250000 0.892379
O O6 0.756566 0.354964 0.813304
O O7 0.225693 0.360474 0.790154
O O8 0.682457 0.374072 0.975816
O O9 0.271514 0.892526 0.361362
O O10 0.105545 0.913569 0.500213
O O11 0.500000 0.000000 0.500000
O O12 0.987334 0.019984 0.358002
O O13 0.163486 0.750000 0.298924
O O14 0.008486 0.171765 0.388174
O O15 0.536675 0.250000 0.296401
O O16 0.951081 0.250000 0.233295
O O17 0.500000 0.000000 0.000000
#
# Coordination Sequence:
#
# PCOD8077285 Si02
#       8
#     4   4   4   4   4   2   2   4
#     4  11  25  44  72  98 148 180 227 285 353 422
#     4  10  24  47  73 100 139 183 242 296 342 409
#     4  11  27  44  73 108 140 188 240 294 364 416
#     4  10  24  48  75 101 137 191 238 296 353 414
#     4  10  26  46  68 108 142 191 230 292 358 430
#     4  10  22  44  68  98 141 179 233 277 346 428
#     4  10  22  42  68 102 125 187 229 269 348 420
#     4  12  27  43  69 110 137 187 232 287 360 420
#
# _framework density 23.311983000000001
#
# number of rings (size 3 to 8) (size 9 to 14) (size 15 to 20)
#    0.000    1.429    0.000    3.000   15.000    0.000 
#    1.286    0.000    0.000    0.000    0.000    0.000 
#    0.000    0.000    0.000    0.000    0.000    0.000 
#
# Total GULP energy -347040.282185 kJ/mol
# GULP energy per Si atom -12394.295792 kJ/mol
# Density = 2.325892 g / cm^3
# Si number density = 23.311983 Si / 1000 Ang^3
#
#
#
# Elastic Constant Matrix: (Units=GPa)
#
#
# Indices 1 2 3 4 5 6 
#
# 1 87.5408 43.4562 25.3540 0.0000 1.7686 0.0000
# 2 43.4562 103.7631 55.2911 0.0000 1.1452 0.0000
# 3 25.3540 55.2911 87.6512 0.0000 5.5530 0.0000
# 4 0.0000 0.0000 0.0000 38.4258 0.0000 6.3791
# 5 1.7686 1.1452 5.5530 0.0000 37.0291 0.0000
# 6 0.0000 0.0000 0.0000 6.3791 0.0000 21.0285
#
#
#
# Elastic Compliance Matrix: (Units=1/GPa)
#
#
# Indices 1 2 3 4 5 6 
#
# 1 0.014446 -0.005774 -0.000509 0.000000 -0.000435 0.000000
# 2 -0.005774 0.016857 -0.009034 0.000000 0.001109 0.000000
# 3 -0.000509 -0.009034 0.017401 0.000000 -0.002306 0.000000
# 4 0.000000 0.000000 0.000000 0.027404 0.000000 -0.008313
# 5 -0.000435 0.001109 -0.002306 0.000000 0.027338 0.000000
# 6 0.000000 0.000000 0.000000 -0.008313 0.000000 0.050076
#
#
# Mechanical properties :
#
#
# Convention : Reuss Voigt Hill
#
# Bulk Modulus (GPa) = 55.33864 58.57308 56.95586
# Shear Modulus (GPa) = 26.29120 29.62026 27.95573
#
# Velocity S-wave (km/s) = 3.36191 3.56842 3.46670
# Velocity P-wave (km/s) = 6.23376 6.49295 6.36468
#
# Compressibility (1/GPa) = 0.01807056
#
# Stress axis : x y z
#
# Youngs Moduli (GPa) = 69.22505 59.32299 57.46957
#
# Poissons Ratio (x) = 0.34253 0.02923
# Poissons Ratio (y) = 0.39971 0.51915
# Poissons Ratio (z) = 0.03521 0.53590
#
# Static dielectric constant tensor:
#      x y z
#    x 4.343140 0.000000 0.078470 
#    y 0.000000 4.757280 0.000000 
#    z 0.078470 0.000000 4.049180 
# 
# 
# High freq. dielectric constant tensor:
#      x y z
#    x 1.929980 0.000000 -0.000240 
#    y 0.000000 1.936280 0.000000 
#    z -0.000240 0.000000 1.911570 
# 
# From -- ./inp_files/46101.got.cif
#   From: 2010.06.25/outbox.cif.g09.slc.cpg/sg11_24_cif.got.tgz:46101.got - 2010.06.27 23:14:04.
