data_PCOD8077620
_publ_section_title
;
Structure prediction by ZEFSAII (Michael W. Deem and Ramdas Pophale) SiO2 
 PCOD8077620
Probable space group: P 21/M
;
_chemical_formula_sum "Si O2"
_cell_formula_units_Z 32
_cell_length_a 26.323420
_cell_length_b 9.099633
_cell_length_c 21.107329
_cell_angle_alpha 90.000000
_cell_angle_beta 158.428696
_cell_angle_gamma 90.000000
_cell_volume 1858.850572
_symmetry_space_group_name_H-M "P 21/M"
_symmetry_group_IT_number 11
_symmetry_cell_setting 'monoclinic'
loop_
_space_group_symop_operation_xyz
x,y,z
-x,1/2+y,-z
-x,-y,-z
x,1/2-y,z
loop_
_atom_site_type_symbol
_atom_site_label
_atom_site_fract_x
_atom_site_fract_y
_atom_site_fract_z
Si Si1 0.897441 0.084117 0.466528
Si Si2 0.203182 0.415850 0.764660
Si Si3 0.403773 0.577953 0.439231
Si Si4 0.886161 0.923226 0.910275
Si Si5 0.103643 0.081036 0.932626
Si Si6 0.395651 0.082303 0.216509
Si Si7 0.997610 0.915811 0.696586
Si Si8 0.696923 0.415673 0.005635
O O1 0.844217 0.250000 0.413267
O O2 0.050525 0.082110 0.616085
O O3 0.794383 0.000272 0.299429
O O4 0.894194 0.004569 0.530901
O O5 0.254104 0.250000 0.812622
O O6 0.308651 0.494772 0.935202
O O7 0.500000 0.500000 0.500000
O O8 0.389175 0.750000 0.404916
O O9 0.257819 0.499224 0.272241
O O10 0.468906 0.557983 0.584345
O O11 0.875611 0.750000 0.883535
O O12 0.929159 0.951629 0.032594
O O13 0.000000 0.000000 0.000000
O O14 0.078464 0.250000 0.885937
O O15 0.262695 0.036837 0.104240
O O16 0.999407 0.986664 0.768541
O O17 0.380986 0.250000 0.177256
O O18 0.407388 0.985120 0.166702
O O19 0.943156 0.750000 0.638742
O O20 0.150014 0.922130 0.844728
O O21 0.650050 0.250000 0.965233
#
# Coordination Sequence:
#
# PCOD8077620 Si02
#       8
#     4   4   4   4   4   4   4   4
#     4   9  15  22  32  47  70 104 144 185 227 273
#     4   9  15  22  32  46  70 106 144 184 227 274
#     4  11  21  35  55  78 102 131 166 209 254 302
#     4  11  23  39  55  76 102 133 168 208 256 309
#     4   9  17  31  47  64  90 121 155 195 242 292
#     4   9  17  30  46  66  91 120 155 196 242 289
#     4   9  16  24  36  56  79 106 146 190 232 278
#     4   9  16  24  35  55  80 109 146 188 232 279
#
# _framework density 17.214939000000001
#
# number of rings (size 3 to 8) (size 9 to 14) (size 15 to 20)
#    0.000    2.500    1.250    2.250    0.000    8.000 
#    0.000    0.000    0.000    0.000    0.000    0.000 
#    0.000    0.000    0.000    1.125    0.000   15.250 
#
# Total GULP energy -396780.494034 kJ/mol
# GULP energy per Si atom -12399.390439 kJ/mol
# Density = 1.717576 g / cm^3
# Si number density = 17.214939 Si / 1000 Ang^3
#
#
#
# Elastic Constant Matrix: (Units=GPa)
#
#
# Indices 1 2 3 4 5 6 
#
# 1 77.2315 66.2975 59.6919 0.0000 -25.6036 0.0000
# 2 66.2975 160.9840 66.2787 0.0000 -30.3921 0.0000
# 3 59.6919 66.2787 73.8133 0.0000 -23.7357 0.0000
# 4 0.0000 0.0000 0.0000 28.5498 0.0000 -12.3617
# 5 -25.6036 -30.3921 -23.7357 0.0000 33.2142 0.0000
# 6 0.0000 0.0000 0.0000 -12.3617 0.0000 27.9578
#
#
#
# Elastic Compliance Matrix: (Units=1/GPa)
#
#
# Indices 1 2 3 4 5 6 
#
# 1 0.038098 -0.004042 -0.024572 0.000000 0.008110 0.000000
# 2 -0.004042 0.010607 -0.005371 0.000000 0.002752 0.000000
# 3 -0.024572 -0.005371 0.039691 0.000000 0.004508 0.000000
# 4 0.000000 0.000000 0.000000 0.043320 0.000000 0.019154
# 5 0.008110 0.002752 0.004508 0.000000 0.042099 0.000000
# 6 0.000000 0.000000 0.000000 0.019154 0.000000 0.044237
#
#
# Mechanical properties :
#
#
# Convention : Reuss Voigt Hill
#
# Bulk Modulus (GPa) = 48.95613 77.39611 63.17612
# Shear Modulus (GPa) = 17.07466 25.92840 21.50153
#
# Velocity S-wave (km/s) = 3.15278 3.88513 3.53796
# Velocity P-wave (km/s) = 6.46168 8.07354 7.31216
#
# Compressibility (1/GPa) = 0.02042645
#
# Stress axis : x y z
#
# Youngs Moduli (GPa) = 26.24786 94.27601 25.19465
#
# Poissons Ratio (x) = 0.38108 0.61909
# Poissons Ratio (y) = 0.10610 0.13531
# Poissons Ratio (z) = 0.64497 0.50632
#
# Static dielectric constant tensor:
#      x y z
#    x 2.936990 0.000000 -0.472070 
#    y 0.000000 3.430080 0.000000 
#    z -0.472070 0.000000 3.000080 
# 
# 
# High freq. dielectric constant tensor:
#      x y z
#    x 1.629150 0.000000 -0.053240 
#    y 0.000000 1.682580 0.000000 
#    z -0.053240 0.000000 1.632390 
# 
# From -- ./inp_files/67306.got.cif
#   From: 2010.06.25/outbox.cif.g09.slc.cpg/sg11_34_cif.got.tgz:67306.got - 2010.06.27 23:14:04.
