data_PCOD8077929
_publ_section_title
;
Structure prediction by ZEFSAII (Michael W. Deem and Ramdas Pophale) SiO2 
 PCOD8077929
Probable space group: P 21/M
;
_chemical_formula_sum "Si O2"
_cell_formula_units_Z 24
_cell_length_a 19.019332
_cell_length_b 9.519350
_cell_length_c 17.303373
_cell_angle_alpha 90.000000
_cell_angle_beta 50.824557
_cell_angle_gamma 90.000000
_cell_volume 2428.598167
_symmetry_space_group_name_H-M "P 21/M"
_symmetry_group_IT_number 11
_symmetry_cell_setting 'monoclinic'
loop_
_space_group_symop_operation_xyz
x,y,z
-x,1/2+y,-z
-x,-y,-z
x,1/2-y,z
loop_
_atom_site_type_symbol
_atom_site_label
_atom_site_fract_x
_atom_site_fract_y
_atom_site_fract_z
Si Si1 0.956614 0.090728 0.141288
Si Si2 0.727933 0.591747 0.174453
Si Si3 0.612075 0.907093 0.485565
Si Si4 0.116419 0.909272 0.981483
Si Si5 0.199249 0.408252 0.703139
Si Si6 0.539236 0.592908 0.363122
O O1 0.974736 0.250000 0.157298
O O2 0.919644 0.093363 0.080356
O O3 0.883729 0.016765 0.248790
O O4 0.048596 0.000001 0.081691
O O5 0.734048 0.750000 0.135808
O O6 0.784872 0.483233 0.082608
O O7 0.769272 0.594564 0.230727
O O8 0.622931 0.540577 0.251353
O O9 0.609453 0.750000 0.520256
O O10 0.716712 0.959423 0.409002
O O11 0.570538 0.911893 0.429461
O O12 0.551084 1.000000 0.585874
O O13 0.123757 0.750000 0.008278
O O14 0.168869 0.250000 0.700989
O O15 0.512691 0.750000 0.357599
#
# Coordination Sequence:
#
# PCOD8077929 Si02
#       6
#     4   4   4   4   4   4
#     4   9  15  20  25  31  36  41  47  53  59  65
#     4   8  13  20  26  30  36  43  48  53  59  64
#     4   8  13  19  25  31  37  43  48  53  59  64
#     4   9  15  20  25  31  36  41  47  53  59  65
#     4   8  13  20  26  30  36  43  48  53  59  64
#     4   8  13  19  25  31  37  43  48  53  59  64
#
# _framework density 9.8822449999999993
#
# number of rings (size 3 to 8) (size 9 to 14) (size 15 to 20)
#    0.000    3.667    0.000    3.000    0.000    5.333 
#    0.000    6.667    0.000    0.000    0.000    0.000 
#    0.000    0.000    0.000    0.000    0.000    0.000 
#
# Total GULP energy -297314.769682 kJ/mol
# GULP energy per Si atom -12388.115403 kJ/mol
# Density = 0.985975 g / cm^3
# Si number density = 9.882245 Si / 1000 Ang^3
#
#
#
# Elastic Constant Matrix: (Units=GPa)
#
#
# Indices 1 2 3 4 5 6 
#
# 1 23.8472 30.2242 27.8755 0.0000 -25.7829 0.0000
# 2 30.2242 81.8598 35.3290 0.0000 -32.6768 0.0000
# 3 27.8755 35.3290 32.5848 0.0000 -30.1383 0.0000
# 4 0.0000 0.0000 0.0000 13.4150 0.0000 -12.4077
# 5 -25.7829 -32.6768 -30.1383 0.0000 27.8757 0.0000
# 6 0.0000 0.0000 0.0000 -12.4077 0.0000 11.4763
#
#
#
# Elastic Compliance Matrix: (Units=1/GPa)
#
#
# Indices 1 2 3 4 5 6 
#
# 1 ********** 0.092014********** 0.000023********** 0.000025
# 2 0.092014 0.022958 0.074106 0.000000 0.192139 0.000000
# 3 ********** 0.074106********** 0.000004********** 0.000004
# 4 0.000020 0.000000 0.000005********** 0.000024**********
# 5 ********** 0.192139********** 0.000026********** 0.000028
# 6 0.000022 0.000000 0.000006********** 0.000026**********
#
#
# Mechanical properties :
#
#
# Convention : Reuss Voigt Hill
#
# Bulk Modulus (GPa) = -0.00007 36.12771 18.06382
# Shear Modulus (GPa) = -0.00067 13.54427 6.77180
#
# Velocity S-wave (km/s) = -0.02601 3.70613 2.62057
# Velocity P-wave (km/s) = 0.03117 7.41292 5.24168
#
# Compressibility (1/GPa) = *************
#
# Stress axis : x y z
#
# Youngs Moduli (GPa) = -0.00016 43.55757 0.00094
#
# Poissons Ratio (x) = -4.00790 4.33703
# Poissons Ratio (y) = 0.00001 -0.00007
# Poissons Ratio (z) = -0.71948 -3.22786
#
# Static dielectric constant tensor:
#      x y z
#    x 1.954550 0.000000 -0.569180 
#    y 0.000000 2.430980 0.000000 
#    z -0.569180 0.000000 2.043470 
# 
# 
# High freq. dielectric constant tensor:
#      x y z
#    x 1.317230 0.000000 -0.072290 
#    y 0.000000 1.385050 0.000000 
#    z -0.072290 0.000000 1.328520 
# 
# From -- ./inp_files/36997.got.cif
#   From: 2010.06.25/outbox.cif.g09.slc.cpg/sg11_19_cif.got.tgz:36997.got - 2010.06.27 23:14:04.
