data_PCOD8077371
_publ_section_title
;
Structure prediction by ZEFSAII (Michael W. Deem and Ramdas Pophale) SiO2 
 PCOD8077371
Probable space group: P 21/M
;
_chemical_formula_sum "Si O2"
_cell_formula_units_Z 28
_cell_length_a 11.910096
_cell_length_b 8.715374
_cell_length_c 14.915581
_cell_angle_alpha 90.000000
_cell_angle_beta 60.973530
_cell_angle_gamma 90.000000
_cell_volume 1353.784220
_symmetry_space_group_name_H-M "P 21/M"
_symmetry_group_IT_number 11
_symmetry_cell_setting 'monoclinic'
loop_
_space_group_symop_operation_xyz
x,y,z
-x,1/2+y,-z
-x,-y,-z
x,1/2-y,z
loop_
_atom_site_type_symbol
_atom_site_label
_atom_site_fract_x
_atom_site_fract_y
_atom_site_fract_z
Si Si1 0.918858 0.931467 0.114437
Si Si2 0.987803 0.074485 0.274342
Si Si3 0.760345 0.069597 0.796805
Si Si4 0.377909 0.427374 0.002658
Si Si5 0.124664 0.927577 0.498762
Si Si6 0.631028 0.572834 0.202546
Si Si7 0.629488 0.568735 0.686266
O O1 0.921845 0.750000 0.099803
O O2 0.771248 0.991284 0.175232
O O3 0.972901 0.975076 0.190585
O O4 0.000000 0.000000 0.000000
O O5 0.009624 0.250000 0.236853
O O6 0.876205 0.059413 0.391958
O O7 0.107482 0.007917 0.284991
O O8 0.765866 0.250000 0.785804
O O9 0.646466 0.006240 0.778029
O O10 0.741681 0.016938 0.906987
O O11 0.369297 0.250000 0.031106
O O12 0.376515 0.455908 0.899321
O O13 0.500000 0.500000 0.000000
O O14 0.130412 0.750000 0.466565
O O15 0.256897 0.010052 0.421322
O O16 0.000000 0.000000 0.500000
O O17 0.616536 0.750000 0.234938
O O18 0.512254 0.481805 0.294734
O O19 0.635816 0.750000 0.690232
#
# Coordination Sequence:
#
# PCOD8077371 Si02
#       7
#     4   4   4   4   4   4   4
#     4  11  24  44  70  97 129 171 218 267 318 381
#     4  11  24  42  65  94 127 166 215 267 321 383
#     4  12  23  36  58  88 126 166 207 259 318 383
#     4  11  21  34  55  85 122 160 203 254 311 380
#     4  11  23  40  65  94 130 170 213 266 323 387
#     4  10  23  42  62  87 125 169 212 262 319 380
#     4  12  24  38  61  92 127 164 208 262 322 386
#
# _framework density 20.682765
#
# number of rings (size 3 to 8) (size 9 to 14) (size 15 to 20)
#    0.000    0.857    2.857    5.143    0.000    4.571 
#    0.000    0.714    0.000    0.000    0.000    0.000 
#    0.000    0.000    0.000    0.000    0.000    0.000 
#
# Total GULP energy -347101.434235 kJ/mol
# GULP energy per Si atom -12396.479794 kJ/mol
# Density = 2.063569 g / cm^3
# Si number density = 20.682765 Si / 1000 Ang^3
#
#
#
# Elastic Constant Matrix: (Units=GPa)
#
#
# Indices 1 2 3 4 5 6 
#
# 1 94.9126 26.7764 33.1195 0.0000 -20.7780 0.0000
# 2 26.7764 100.0882 42.6655 0.0000 -1.2024 0.0000
# 3 33.1195 42.6655 103.1126 0.0000 -17.1870 0.0000
# 4 0.0000 0.0000 0.0000 35.2005 0.0000 -5.6836
# 5 -20.7780 -1.2024 -17.1870 0.0000 45.0950 0.0000
# 6 0.0000 0.0000 0.0000 -5.6836 0.0000 32.1004
#
#
#
# Elastic Compliance Matrix: (Units=1/GPa)
#
#
# Indices 1 2 3 4 5 6 
#
# 1 0.013170 -0.002454 -0.002364 0.000000 0.005102 0.000000
# 2 -0.002454 0.012711 -0.004916 0.000000 -0.002665 0.000000
# 3 -0.002364 -0.004916 0.013122 0.000000 0.003781 0.000000
# 4 0.000000 0.000000 0.000000 0.029245 0.000000 0.005178
# 5 0.005102 -0.002665 0.003781 0.000000 0.025896 0.000000
# 6 0.000000 0.000000 0.000000 0.005178 0.000000 0.032069
#
#
# Mechanical properties :
#
#
# Convention : Reuss Voigt Hill
#
# Bulk Modulus (GPa) = 51.19078 55.91513 53.55296
# Shear Modulus (GPa) = 32.85306 35.51597 34.18452
#
# Velocity S-wave (km/s) = 3.98983 4.14838 4.06988
# Velocity P-wave (km/s) = 6.78448 7.07381 6.93065
#
# Compressibility (1/GPa) = 0.01953477
#
# Stress axis : x y z
#
# Youngs Moduli (GPa) = 75.92838 78.67115 76.20990
#
# Poissons Ratio (x) = 0.19308 0.18019
# Poissons Ratio (y) = 0.18635 0.37461
# Poissons Ratio (z) = 0.17952 0.38671
#
# Static dielectric constant tensor:
#      x y z
#    x 3.972660 0.000000 0.076100 
#    y 0.000000 3.795800 0.000000 
#    z 0.076100 0.000000 5.540960 
# 
# 
# High freq. dielectric constant tensor:
#      x y z
#    x 1.798990 0.000000 -0.019160 
#    y 0.000000 1.817710 0.000000 
#    z -0.019160 0.000000 1.818610 
# 
# From -- ./inp_files/49174.got.cif
#   From: 2010.06.25/outbox.cif.g09.slc.cpg/sg11_25_cif.got.tgz:49174.got - 2010.06.27 23:14:04.
