data_PCOD8077820
_publ_section_title
;
Structure prediction by ZEFSAII (Michael W. Deem and Ramdas Pophale) SiO2 
 PCOD8077820
Probable space group: P 21/M
;
_chemical_formula_sum "Si O2"
_cell_formula_units_Z 28
_cell_length_a 11.786024
_cell_length_b 8.739827
_cell_length_c 15.629968
_cell_angle_alpha 90.000000
_cell_angle_beta 121.388921
_cell_angle_gamma 90.000000
_cell_volume 1374.386458
_symmetry_space_group_name_H-M "P 21/M"
_symmetry_group_IT_number 11
_symmetry_cell_setting 'monoclinic'
loop_
_space_group_symop_operation_xyz
x,y,z
-x,1/2+y,-z
-x,-y,-z
x,1/2-y,z
loop_
_atom_site_type_symbol
_atom_site_label
_atom_site_fract_x
_atom_site_fract_y
_atom_site_fract_z
Si Si1 0.965000 0.573104 0.576042
Si Si2 0.894287 0.928604 0.023889
Si Si3 0.581053 0.068594 0.109778
Si Si4 0.678514 0.925011 0.525550
Si Si5 0.627086 0.431957 0.855921
Si Si6 0.404348 0.569974 0.345555
Si Si7 0.869109 0.928434 0.207824
O O1 0.009063 0.750000 0.596345
O O2 0.029141 0.484946 0.680594
O O3 0.000000 0.500000 0.500000
O O4 0.807099 0.553894 0.518413
O O5 0.884921 0.750000 0.999541
O O6 0.933463 0.956798 0.138816
O O7 0.750497 0.004594 0.957672
O O8 0.000000 0.000000 0.000000
O O9 0.571040 0.250000 0.103627
O O10 0.512037 0.003097 0.167746
O O11 0.733409 0.020215 0.166256
O O12 0.500000 0.000000 0.000000
O O13 0.652392 0.750000 0.538920
O O14 0.552551 0.993295 0.424444
O O15 0.698243 0.012484 0.623120
O O16 0.621753 0.250000 0.863762
O O17 0.644796 0.488375 0.765526
O O18 0.405812 0.750000 0.344694
O O19 0.838985 0.750000 0.209430
#
# Coordination Sequence:
#
# PCOD8077820 Si02
#       7
#     4   4   4   4   4   4   4
#     4  11  25  43  65  94 127 168 216 266 321 384
#     4  11  25  43  65  93 130 171 215 264 320 385
#     4  12  24  41  65  94 126 163 209 257 314 376
#     4   9  20  40  62  88 122 160 204 257 312 368
#     4  11  23  39  64  95 128 165 208 258 317 381
#     4   9  20  38  62  91 122 160 202 251 311 371
#     4  11  25  45  67  92 127 171 215 268 325 380
#
# _framework density 20.372726
#
# number of rings (size 3 to 8) (size 9 to 14) (size 15 to 20)
#    0.000    1.429    1.429    3.000    4.000    4.000 
#    0.000    0.000    0.000    0.000    0.000    0.000 
#    0.000    0.000    0.000    0.000    0.000    0.000 
#
# Total GULP energy -347243.342714 kJ/mol
# GULP energy per Si atom -12401.547954 kJ/mol
# Density = 2.032636 g / cm^3
# Si number density = 20.372726 Si / 1000 Ang^3
#
#
#
# Elastic Constant Matrix: (Units=GPa)
#
#
# Indices 1 2 3 4 5 6 
#
# 1 101.1190 41.3744 29.0073 0.0000 -17.5252 0.0000
# 2 41.3744 107.3692 45.6345 0.0000 -13.7527 0.0000
# 3 29.0073 45.6345 113.8312 0.0000 -21.2074 0.0000
# 4 0.0000 0.0000 0.0000 32.5883 0.0000 -1.6055
# 5 -17.5252 -13.7527 -21.2074 0.0000 34.7126 0.0000
# 6 0.0000 0.0000 0.0000 -1.6055 0.0000 38.0218
#
#
#
# Elastic Compliance Matrix: (Units=1/GPa)
#
#
# Indices 1 2 3 4 5 6 
#
# 1 0.012459 -0.003910 -0.000817 0.000000 0.004242 0.000000
# 2 -0.003910 0.012568 -0.003929 0.000000 0.000604 0.000000
# 3 -0.000817 -0.003929 0.011512 0.000000 0.005064 0.000000
# 4 0.000000 0.000000 0.000000 0.030750 0.000000 0.001298
# 5 0.004242 0.000604 0.005064 0.000000 0.034283 0.000000
# 6 0.000000 0.000000 0.000000 0.001298 0.000000 0.026356
#
#
# Mechanical properties :
#
#
# Convention : Reuss Voigt Hill
#
# Bulk Modulus (GPa) = 52.01513 61.59466 56.80489
# Shear Modulus (GPa) = 32.97094 34.81808 33.89451
#
# Velocity S-wave (km/s) = 4.02728 4.13855 4.08330
# Velocity P-wave (km/s) = 6.87114 7.28947 7.08339
#
# Compressibility (1/GPa) = 0.01922518
#
# Stress axis : x y z
#
# Youngs Moduli (GPa) = 80.26432 79.56684 86.86729
#
# Poissons Ratio (x) = 0.31114 0.07096
# Poissons Ratio (y) = 0.31387 0.34134
# Poissons Ratio (z) = 0.06557 0.31265
#
# Static dielectric constant tensor:
#      x y z
#    x 3.788500 0.000000 -0.034340 
#    y 0.000000 3.787190 0.000000 
#    z -0.034340 0.000000 3.983460 
# 
# 
# High freq. dielectric constant tensor:
#      x y z
#    x 1.804470 0.000000 -0.007780 
#    y 0.000000 1.803300 0.000000 
#    z -0.007780 0.000000 1.802080 
# 
# From -- ./inp_files/49458.got.cif
#   From: 2010.06.25/outbox.cif.g09.slc.cpg/sg11_25_cif.got.tgz:49458.got - 2010.06.27 23:14:04.
