data_PCOD8077767
_publ_section_title
;
Structure prediction by ZEFSAII (Michael W. Deem and Ramdas Pophale) SiO2 
 PCOD8077767
Probable space group: P 21/M
;
_chemical_formula_sum "Si O2"
_cell_formula_units_Z 24
_cell_length_a 8.491810
_cell_length_b 20.054976
_cell_length_c 8.886605
_cell_angle_alpha 90.000000
_cell_angle_beta 132.087018
_cell_angle_gamma 90.000000
_cell_volume 1123.147899
_symmetry_space_group_name_H-M "P 21/M"
_symmetry_group_IT_number 11
_symmetry_cell_setting 'monoclinic'
loop_
_space_group_symop_operation_xyz
x,y,z
-x,1/2+y,-z
-x,-y,-z
x,1/2-y,z
loop_
_atom_site_type_symbol
_atom_site_label
_atom_site_fract_x
_atom_site_fract_y
_atom_site_fract_z
Si Si1 0.207063 0.064929 0.385112
Si Si2 0.743078 0.040644 0.985820
Si Si3 0.833577 0.675025 0.396402
Si Si4 0.343776 0.929623 0.417638
Si Si5 0.400269 0.401854 0.991240
Si Si6 0.702811 0.176020 0.398449
O O1 0.246667 0.119794 0.538243
O O2 0.400924 0.074656 0.391455
O O3 0.244788 0.987792 0.463923
O O4 0.974746 0.071752 0.165799
O O5 0.708708 0.053339 0.788041
O O6 0.565151 0.077621 0.967465
O O7 0.736204 0.962873 0.028170
O O8 0.745171 0.750000 0.374958
O O9 0.758509 0.652164 0.183055
O O10 0.087112 0.677753 0.567352
O O11 0.246224 0.859489 0.408803
O O12 0.523355 0.366971 0.204309
O O13 0.617892 0.250000 0.375735
#
# Coordination Sequence:
#
# PCOD8077767 Si02
#       6
#     4   4   4   4   4   4
#     4  11  22  41  65  96 132 164 214 269 318 386
#     4  11  23  39  67  99 126 164 212 269 322 375
#     4  11  24  42  65  94 128 173 220 263 318 388
#     4  11  24  41  63  99 134 165 209 274 329 378
#     4  11  22  40  68  95 126 166 215 268 316 373
#     4  11  25  44  65  92 130 174 216 264 324 387
#
# _framework density 21.368513
#
# number of rings (size 3 to 8) (size 9 to 14) (size 15 to 20)
#    0.000    1.000    3.333    4.000    2.333    3.333 
#    0.000    0.833    0.000    0.000    0.000    0.000 
#    0.000    0.000    0.000    0.000    0.000    0.000 
#
# Total GULP energy -297416.603571 kJ/mol
# GULP energy per Si atom -12392.358482 kJ/mol
# Density = 2.131988 g / cm^3
# Si number density = 21.368513 Si / 1000 Ang^3
#
#
#
# Elastic Constant Matrix: (Units=GPa)
#
#
# Indices 1 2 3 4 5 6 
#
# 1 53.4598 40.1849 37.5976 0.0000 -3.7701 0.0000
# 2 40.1849 154.1700 57.3626 0.0000 -24.5199 0.0000
# 3 37.5976 57.3626 94.6880 0.0000 -2.1616 0.0000
# 4 0.0000 0.0000 0.0000 26.2233 0.0000 0.2587
# 5 -3.7701 -24.5199 -2.1616 0.0000 35.3841 0.0000
# 6 0.0000 0.0000 0.0000 0.2587 0.0000 25.2120
#
#
#
# Elastic Compliance Matrix: (Units=1/GPa)
#
#
# Indices 1 2 3 4 5 6 
#
# 1 0.027788 -0.004133 -0.008540 0.000000 -0.000425 0.000000
# 2 -0.004133 0.010214 -0.004401 0.000000 0.006369 0.000000
# 3 -0.008540 -0.004401 0.016551 0.000000 -0.002949 0.000000
# 4 0.000000 0.000000 0.000000 0.038138 0.000000 -0.000391
# 5 -0.000425 0.006369 -0.002949 0.000000 0.032449 0.000000
# 6 0.000000 0.000000 0.000000 -0.000391 0.000000 0.039668
#
#
# Mechanical properties :
#
#
# Convention : Reuss Voigt Hill
#
# Bulk Modulus (GPa) = 49.00748 63.62313 56.31531
# Shear Modulus (GPa) = 24.30036 28.50873 26.40455
#
# Velocity S-wave (km/s) = 3.37590 3.65656 3.51903
# Velocity P-wave (km/s) = 6.17899 6.90407 6.55156
#
# Compressibility (1/GPa) = 0.02040505
#
# Stress axis : x y z
#
# Youngs Moduli (GPa) = 35.98618 97.90254 60.42016
#
# Poissons Ratio (x) = 0.40467 0.51596
# Poissons Ratio (y) = 0.14875 0.26592
# Poissons Ratio (z) = 0.30731 0.43089
#
# Static dielectric constant tensor:
#      x y z
#    x 3.787440 0.000000 0.183820 
#    y 0.000000 4.117020 0.000000 
#    z 0.183820 0.000000 3.802290 
# 
# 
# High freq. dielectric constant tensor:
#      x y z
#    x 1.834180 0.000000 0.013690 
#    y 0.000000 1.839510 0.000000 
#    z 0.013690 0.000000 1.839160 
# 
# From -- ./inp_files/14404.got.cif
#   From: 2010.06.25/outbox.cif.g09.slc.cpg/sg11_8_cif.got.tgz:14404.got - 2010.06.27 23:14:04.
