data_PCOD8077357
_publ_section_title
;
Structure prediction by ZEFSAII (Michael W. Deem and Ramdas Pophale) SiO2 
 PCOD8077357
Probable space group: P 21/M
;
_chemical_formula_sum "Si O2"
_cell_formula_units_Z 24
_cell_length_a 15.434373
_cell_length_b 8.675260
_cell_length_c 8.912185
_cell_angle_alpha 90.000000
_cell_angle_beta 89.561532
_cell_angle_gamma 90.000000
_cell_volume 1193.281663
_symmetry_space_group_name_H-M "P 21/M"
_symmetry_group_IT_number 11
_symmetry_cell_setting 'monoclinic'
loop_
_space_group_symop_operation_xyz
x,y,z
-x,1/2+y,-z
-x,-y,-z
x,1/2-y,z
loop_
_atom_site_type_symbol
_atom_site_label
_atom_site_fract_x
_atom_site_fract_y
_atom_site_fract_z
Si Si1 0.914738 0.933796 0.576116
Si Si2 0.581688 0.568564 0.583193
Si Si3 0.243897 0.927388 0.924700
Si Si4 0.253661 0.929726 0.573697
Si Si5 0.580345 0.431228 0.911528
Si Si6 0.081512 0.429691 0.081375
O O1 0.910632 0.750000 0.559274
O O2 0.913341 0.988843 0.748293
O O3 0.834395 0.011560 0.496257
O O4 0.000000 0.000000 0.500000
O O5 0.500000 0.500000 0.500000
O O6 0.570538 0.750000 0.592065
O O7 0.667969 0.527001 0.493378
O O8 0.587736 0.503318 0.748868
O O9 0.220979 0.750000 0.956939
O O10 0.250611 0.961300 0.749623
O O11 0.333922 0.975281 0.998433
O O12 0.169265 0.031185 0.994750
O O13 0.267372 0.750000 0.536861
O O14 0.567897 0.250000 0.896930
O O15 0.500000 0.500000 0.000000
O O16 0.067070 0.250000 0.080661
O O17 0.000000 0.500000 0.000000
#
# Coordination Sequence:
#
# PCOD8077357 Si02
#       6
#     4   4   4   4   4   4
#     4  11  24  41  61  90 123 160 204 252 305 365
#     4  12  25  42  64  92 125 163 208 257 309 370
#     4  10  23  41  62  89 122 158 200 247 300 360
#     4  11  23  41  64  92 124 160 203 253 306 367
#     4  11  23  41  65  93 126 165 206 254 308 365
#     4  11  24  40  61  88 120 156 200 249 300 359
#
# _framework density 20.112604000000001
#
# number of rings (size 3 to 8) (size 9 to 14) (size 15 to 20)
#    0.000    1.000    0.000    6.500    0.000   13.333 
#    0.000    0.000    0.000    0.000    0.000    0.000 
#    0.000    0.000    0.000    0.000    0.000    0.000 
#
# Total GULP energy -297758.283594 kJ/mol
# GULP energy per Si atom -12406.595150 kJ/mol
# Density = 2.006683 g / cm^3
# Si number density = 20.112604 Si / 1000 Ang^3
#
#
#
# Elastic Constant Matrix: (Units=GPa)
#
#
# Indices 1 2 3 4 5 6 
#
# 1 167.5372 54.6647 79.5815 0.0000 13.3964 0.0000
# 2 54.6647 87.6367 54.2374 0.0000 14.5102 0.0000
# 3 79.5815 54.2374 153.4431 0.0000 24.3349 0.0000
# 4 0.0000 0.0000 0.0000 37.0335 0.0000 -3.0347
# 5 13.3964 14.5102 24.3349 0.0000 42.5091 0.0000
# 6 0.0000 0.0000 0.0000 -3.0347 0.0000 43.2279
#
#
#
# Elastic Compliance Matrix: (Units=1/GPa)
#
#
# Indices 1 2 3 4 5 6 
#
# 1 0.008627 -0.003373 -0.003336 0.000000 0.000343 0.000000
# 2 -0.003373 0.016120 -0.003568 0.000000 -0.002397 0.000000
# 3 -0.003336 -0.003568 0.010062 0.000000 -0.003491 0.000000
# 4 0.000000 0.000000 0.000000 0.027159 0.000000 0.001907
# 5 0.000343 -0.002397 -0.003491 0.000000 0.026233 0.000000
# 6 0.000000 0.000000 0.000000 0.001907 0.000000 0.023267
#
#
# Mechanical properties :
#
#
# Convention : Reuss Voigt Hill
#
# Bulk Modulus (GPa) = 70.15736 87.28714 78.72225
# Shear Modulus (GPa) = 36.55653 39.22966 37.89309
#
# Velocity S-wave (km/s) = 4.26795 4.42124 4.34527
# Velocity P-wave (km/s) = 7.69709 8.34006 8.02502
#
# Compressibility (1/GPa) = 0.01425367
#
# Stress axis : x y z
#
# Youngs Moduli (GPa) = 115.91880 62.03465 99.38054
#
# Poissons Ratio (x) = 0.20924 0.33156
# Poissons Ratio (y) = 0.39100 0.35464
# Poissons Ratio (z) = 0.38673 0.22137
#
# Static dielectric constant tensor:
#      x y z
#    x 3.901680 0.000000 -0.123270 
#    y 0.000000 3.824500 0.000000 
#    z -0.123270 0.000000 4.032830 
# 
# 
# High freq. dielectric constant tensor:
#      x y z
#    x 1.807380 0.000000 0.002530 
#    y 0.000000 1.798050 0.000000 
#    z 0.002530 0.000000 1.809150 
# 
# From -- ./inp_files/20478.got.cif
#   From: 2010.06.25/outbox.cif.g09.slc.cpg/sg11_11_cif.got.tgz:20478.got - 2010.06.27 23:14:04.
