data_PCOD8077137
_publ_section_title
;
Structure prediction by ZEFSAII (Michael W. Deem and Ramdas Pophale) SiO2 
 PCOD8077137
Probable space group: P 21/M
;
_chemical_formula_sum "Si O2"
_cell_formula_units_Z 28
_cell_length_a 19.632811
_cell_length_b 10.754034
_cell_length_c 11.922732
_cell_angle_alpha 90.000000
_cell_angle_beta 149.082901
_cell_angle_gamma 90.000000
_cell_volume 1293.366163
_symmetry_space_group_name_H-M "P 21/M"
_symmetry_group_IT_number 11
_symmetry_cell_setting 'monoclinic'
loop_
_space_group_symop_operation_xyz
x,y,z
-x,1/2+y,-z
-x,-y,-z
x,1/2-y,z
loop_
_atom_site_type_symbol
_atom_site_label
_atom_site_fract_x
_atom_site_fract_y
_atom_site_fract_z
Si Si1 0.185291 0.610254 0.801317
Si Si2 0.440994 0.481190 0.098067
Si Si3 0.167716 0.885625 0.188682
Si Si4 0.339431 0.113685 0.730583
Si Si5 0.036802 0.111689 0.697606
Si Si6 0.923949 0.976742 0.730286
Si Si7 0.544014 0.392426 0.477339
O O1 0.173059 0.750000 0.837377
O O2 0.143693 0.497948 0.825988
O O3 0.090828 0.600403 0.561110
O O4 0.338643 0.592416 0.982300
O O5 0.576922 0.524485 0.231842
O O6 0.476112 0.406172 0.259831
O O7 0.370165 0.394524 0.906244
O O8 0.180274 0.750000 0.262053
O O9 0.299805 0.916858 0.307604
O O10 0.148790 0.985778 0.258614
O O11 0.044773 0.884971 0.929051
O O12 0.375124 0.250000 0.738816
O O13 0.182396 0.091608 0.497983
O O14 0.101711 0.250000 0.778301
O O15 0.983701 0.095494 0.749130
O O16 0.500000 0.500000 0.500000
O O17 0.514412 0.250000 0.477750
#
# Coordination Sequence:
#
# PCOD8077137 Si02
#       7
#     4   4   4   4   4   4   4
#     4  10  22  40  63  93 133 174 212 263 325 396
#     4  11  23  44  65 101 133 179 218 275 336 405
#     4  10  23  43  66  90 127 173 224 274 327 391
#     4  11  23  39  67 103 137 170 216 277 338 404
#     4  10  22  40  63  94 129 170 216 268 327 391
#     4  11  21  42  65  95 127 168 221 271 337 391
#     4  11  26  48  70  97 134 183 231 276 330 397
#
# _framework density 21.648935999999999
#
# number of rings (size 3 to 8) (size 9 to 14) (size 15 to 20)
#    0.000    1.429    2.857    1.714    2.000    3.429 
#    0.000    0.714    0.000    0.000    0.000    0.000 
#    0.000    0.000    0.000    0.000    0.000    0.000 
#
# Total GULP energy -347069.210728 kJ/mol
# GULP energy per Si atom -12395.328955 kJ/mol
# Density = 2.159966 g / cm^3
# Si number density = 21.648936 Si / 1000 Ang^3
#
#
#
# Elastic Constant Matrix: (Units=GPa)
#
#
# Indices 1 2 3 4 5 6 
#
# 1 98.6277 59.2860 45.1045 0.0000 0.5100 0.0000
# 2 59.2860 146.3856 37.4848 0.0000 4.0207 0.0000
# 3 45.1045 37.4848 118.0698 0.0000 8.9847 0.0000
# 4 0.0000 0.0000 0.0000 21.6799 0.0000 0.6106
# 5 0.5100 4.0207 8.9847 0.0000 32.4275 0.0000
# 6 0.0000 0.0000 0.0000 0.6106 0.0000 27.3955
#
#
#
# Elastic Compliance Matrix: (Units=1/GPa)
#
#
# Indices 1 2 3 4 5 6 
#
# 1 0.015148 -0.005079 -0.004295 0.000000 0.001581 0.000000
# 2 -0.005079 0.009141 -0.000901 0.000000 -0.000804 0.000000
# 3 -0.004295 -0.000901 0.010606 0.000000 -0.002759 0.000000
# 4 0.000000 0.000000 0.000000 0.046155 0.000000 -0.001029
# 5 0.001581 -0.000804 -0.002759 0.000000 0.031677 0.000000
# 6 0.000000 0.000000 0.000000 -0.001029 0.000000 0.036525
#
#
# Mechanical properties :
#
#
# Convention : Reuss Voigt Hill
#
# Bulk Modulus (GPa) = 69.70213 71.87041 70.78627
# Shear Modulus (GPa) = 28.63980 31.04777 29.84379
#
# Velocity S-wave (km/s) = 3.64114 3.79112 3.71689
# Velocity P-wave (km/s) = 7.06708 7.24111 7.15463
#
# Compressibility (1/GPa) = 0.01434676
#
# Stress axis : x y z
#
# Youngs Moduli (GPa) = 66.01640 109.39946 94.28485
#
# Poissons Ratio (x) = 0.55559 0.40492
# Poissons Ratio (y) = 0.33527 0.08493
# Poissons Ratio (z) = 0.28352 0.09854
#
# Static dielectric constant tensor:
#      x y z
#    x 3.745430 0.000000 0.079700 
#    y 0.000000 3.864180 0.000000 
#    z 0.079700 0.000000 4.055720 
# 
# 
# High freq. dielectric constant tensor:
#      x y z
#    x 1.844550 0.000000 0.005770 
#    y 0.000000 1.845620 0.000000 
#    z 0.005770 0.000000 1.859160 
# 
# From -- ./inp_files/43244.got.cif
#   From: 2010.06.25/outbox.cif.g09.slc.cpg/sg11_22_cif.got.tgz:43244.got - 2010.06.27 23:14:04.
