data_PCOD8077250
_publ_section_title
;
Structure prediction by ZEFSAII (Michael W. Deem and Ramdas Pophale) SiO2 
 PCOD8077250
Probable space group: P 21/M
;
_chemical_formula_sum "Si O2"
_cell_formula_units_Z 32
_cell_length_a 13.903664
_cell_length_b 17.748405
_cell_length_c 10.580940
_cell_angle_alpha 90.000000
_cell_angle_beta 150.172905
_cell_angle_gamma 90.000000
_cell_volume 1298.688191
_symmetry_space_group_name_H-M "P 21/M"
_symmetry_group_IT_number 11
_symmetry_cell_setting 'monoclinic'
loop_
_space_group_symop_operation_xyz
x,y,z
-x,1/2+y,-z
-x,-y,-z
x,1/2-y,z
loop_
_atom_site_type_symbol
_atom_site_label
_atom_site_fract_x
_atom_site_fract_y
_atom_site_fract_z
Si Si1 0.042820 0.165091 0.519331
Si Si2 0.635357 0.413275 0.574097
Si Si3 0.018045 0.337695 0.769170
Si Si4 0.643365 0.584319 0.251554
Si Si5 0.755958 0.920137 0.755014
Si Si6 0.053064 0.836538 0.947413
Si Si7 0.673093 0.163165 0.967789
Si Si8 0.381580 0.586181 0.723883
O O1 0.085493 0.250000 0.528891
O O2 0.118282 0.147784 0.746393
O O3 0.144821 0.120135 0.520655
O O4 0.810438 0.151063 0.247396
O O5 0.466456 0.392432 0.482447
O O6 0.751714 0.489707 0.742627
O O7 0.804197 0.349408 0.768162
O O8 0.532244 0.420240 0.320230
O O9 0.041658 0.250000 0.836999
O O10 0.795030 0.356833 0.491481
O O11 0.118271 0.392812 0.982566
O O12 0.682589 0.496131 0.301889
O O13 0.519347 0.612855 0.231354
O O14 0.539765 0.613994 0.004365
O O15 0.854769 0.884946 0.740581
O O16 0.992841 0.750000 0.865539
O O17 0.191541 0.865654 0.992702
O O18 0.611378 0.250000 0.878074
#
# Coordination Sequence:
#
# PCOD8077250 Si02
#       8
#     4   4   4   4   4   4   4   4
#     4  10  22  41  69  99 130 179 225 277 346 403
#     4  11  26  45  69  99 137 179 230 279 343 404
#     4  11  23  44  72 102 135 176 230 287 345 402
#     4  11  24  43  66 100 140 175 230 279 340 407
#     4  11  25  44  69  98 135 181 224 279 341 406
#     4  11  25  44  69 102 135 177 230 281 340 410
#     4  10  23  42  66  98 136 177 225 281 339 404
#     4  11  25  43  66 104 133 179 228 280 339 404
#
# _framework density 24.640246999999999
#
# number of rings (size 3 to 8) (size 9 to 14) (size 15 to 20)
#    0.000    1.250    2.500    1.875    5.250    2.000 
#    0.000    2.500    0.000    0.000    0.000    0.000 
#    0.000    0.000    0.000    0.000    0.000    0.000 
#
# Total GULP energy -396641.827625 kJ/mol
# GULP energy per Si atom -12395.057113 kJ/mol
# Density = 2.458416 g / cm^3
# Si number density = 24.640247 Si / 1000 Ang^3
#
#
#
# Elastic Constant Matrix: (Units=GPa)
#
#
# Indices 1 2 3 4 5 6 
#
# 1 100.8216 25.7747 16.3759 0.0000 15.9674 0.0000
# 2 25.7747 50.9751 7.1486 0.0000 13.7999 0.0000
# 3 16.3759 7.1486 45.4868 0.0000 12.8962 0.0000
# 4 0.0000 0.0000 0.0000 30.1828 0.0000 2.8960
# 5 15.9674 13.7999 12.8962 0.0000 37.2840 0.0000
# 6 0.0000 0.0000 0.0000 2.8960 0.0000 38.5506
#
#
#
# Elastic Compliance Matrix: (Units=1/GPa)
#
#
# Indices 1 2 3 4 5 6 
#
# 1 0.012045 -0.005067 -0.002893 0.000000 -0.002282 0.000000
# 2 -0.005067 0.023999 -0.000049 0.000000 -0.006696 0.000000
# 3 -0.002893 -0.000049 0.025143 0.000000 -0.007440 0.000000
# 4 0.000000 0.000000 0.000000 0.033372 0.000000 -0.002507
# 5 -0.002282 -0.006696 -0.007440 0.000000 0.032850 0.000000
# 6 0.000000 0.000000 0.000000 -0.002507 0.000000 0.026128
#
#
# Mechanical properties :
#
#
# Convention : Reuss Voigt Hill
#
# Bulk Modulus (GPa) = 22.13908 32.87579 27.50744
# Shear Modulus (GPa) = 27.08386 31.06911 29.07649
#
# Velocity S-wave (km/s) = 3.31897 3.55478 3.43890
# Velocity P-wave (km/s) = 4.86743 5.49726 5.19191
#
# Compressibility (1/GPa) = 0.04516899
#
# Stress axis : x y z
#
# Youngs Moduli (GPa) = 83.02055 41.66850 39.77275
#
# Poissons Ratio (x) = 0.21113 0.11506
# Poissons Ratio (y) = 0.42065 0.00195
# Poissons Ratio (z) = 0.24018 0.00205
#
# Static dielectric constant tensor:
#      x y z
#    x 4.832080 0.000000 -0.227290 
#    y 0.000000 4.025850 0.000000 
#    z -0.227290 0.000000 4.549530 
# 
# 
# High freq. dielectric constant tensor:
#      x y z
#    x 2.004530 0.000000 -0.006870 
#    y 0.000000 1.957120 0.000000 
#    z -0.006870 0.000000 1.986490 
# 
# From -- ./inp_files/40046.got.cif
#   From: 2010.06.25/outbox.cif.g09.slc.cpg/sg11_21_cif.got.tgz:40046.got - 2010.06.27 23:14:04.
