data_PCOD8077428
_publ_section_title
;
Structure prediction by ZEFSAII (Michael W. Deem and Ramdas Pophale) SiO2 
 PCOD8077428
Probable space group: P 21/M
;
_chemical_formula_sum "Si O2"
_cell_formula_units_Z 20
_cell_length_a 7.756494
_cell_length_b 8.721485
_cell_length_c 18.484501
_cell_angle_alpha 90.000000
_cell_angle_beta 129.588591
_cell_angle_gamma 90.000000
_cell_volume 963.640988
_symmetry_space_group_name_H-M "P 21/M"
_symmetry_group_IT_number 11
_symmetry_cell_setting 'monoclinic'
loop_
_space_group_symop_operation_xyz
x,y,z
-x,1/2+y,-z
-x,-y,-z
x,1/2-y,z
loop_
_atom_site_type_symbol
_atom_site_label
_atom_site_fract_x
_atom_site_fract_y
_atom_site_fract_z
Si Si1 0.089364 0.930720 0.097453
Si Si2 0.719638 0.425859 0.091513
Si Si3 0.639963 0.429981 0.602061
Si Si4 0.490211 0.071109 0.280683
Si Si5 0.107566 0.922875 0.708234
O O1 0.088066 0.750000 0.090672
O O2 0.337806 0.988726 0.180062
O O3 0.935669 0.983424 0.122399
O O4 0.000000 0.000000 0.000000
O O5 0.731288 0.250000 0.068884
O O6 0.722140 0.440091 0.178767
O O7 0.500000 0.500000 0.000000
O O8 0.500000 0.500000 0.500000
O O9 0.601471 0.250000 0.595395
O O10 0.547936 0.501838 0.650970
O O11 0.901737 0.461412 0.659016
O O12 0.429045 0.250000 0.265917
O O13 0.747475 0.043934 0.325139
O O14 0.010102 0.750000 0.680452
#
# Coordination Sequence:
#
# PCOD8077428 Si02
#       5
#     4   4   4   4   4
#     4  12  24  39  61  93 132 177 225 273 330 393
#     4  11  22  38  62  93 133 176 222 273 328 393
#     4  12  26  45  71  99 132 175 222 277 337 399
#     4  11  23  43  69  99 135 173 219 275 334 398
#     4  10  23  43  68  96 132 175 219 272 332 394
#
# _framework density 20.754617
#
# number of rings (size 3 to 8) (size 9 to 14) (size 15 to 20)
#    0.000    0.800    2.000    6.000    0.000    4.800 
#    0.000    0.000    0.000    0.000    0.000    0.000 
#    0.000    0.000    0.000    0.000    0.000    0.000 
#
# Total GULP energy -248102.823900 kJ/mol
# GULP energy per Si atom -12405.141195 kJ/mol
# Density = 2.070738 g / cm^3
# Si number density = 20.754617 Si / 1000 Ang^3
#
#
#
# Elastic Constant Matrix: (Units=GPa)
#
#
# Indices 1 2 3 4 5 6 
#
# 1 123.8308 57.0106 41.9549 0.0000 -10.8001 0.0000
# 2 57.0106 175.2563 53.5986 0.0000 -7.8207 0.0000
# 3 41.9549 53.5986 119.6179 0.0000 -9.0995 0.0000
# 4 0.0000 0.0000 0.0000 39.1400 0.0000 3.9995
# 5 -10.8001 -7.8207 -9.0995 0.0000 29.8620 0.0000
# 6 0.0000 0.0000 0.0000 3.9995 0.0000 33.6678
#
#
#
# Elastic Compliance Matrix: (Units=1/GPa)
#
#
# Indices 1 2 3 4 5 6 
#
# 1 0.010211 -0.002522 -0.002273 0.000000 0.002340 0.000000
# 2 -0.002522 0.007256 -0.002346 0.000000 0.000273 0.000000
# 3 -0.002273 -0.002346 0.010339 0.000000 0.001714 0.000000
# 4 0.000000 0.000000 0.000000 0.025863 0.000000 -0.003072
# 5 0.002340 0.000273 0.001714 0.000000 0.034927 0.000000
# 6 0.000000 0.000000 0.000000 -0.003072 0.000000 0.030067
#
#
# Mechanical properties :
#
#
# Convention : Reuss Voigt Hill
#
# Bulk Modulus (GPa) = 73.94650 80.42592 77.18621
# Shear Modulus (GPa) = 36.37593 38.27669 37.32631
#
# Velocity S-wave (km/s) = 4.19103 4.29913 4.24542
# Velocity P-wave (km/s) = 7.68934 7.96733 7.82957
#
# Compressibility (1/GPa) = 0.01352329
#
# Stress axis : x y z
#
# Youngs Moduli (GPa) = 97.93449 137.81780 96.72243
#
# Poissons Ratio (x) = 0.34757 0.21989
# Poissons Ratio (y) = 0.24698 0.22690
# Poissons Ratio (z) = 0.22264 0.32331
#
# Static dielectric constant tensor:
#      x y z
#    x 4.186760 0.000000 -0.195110 
#    y 0.000000 4.309480 0.000000 
#    z -0.195110 0.000000 3.787850 
# 
# 
# High freq. dielectric constant tensor:
#      x y z
#    x 1.823580 0.000000 -0.004880 
#    y 0.000000 1.824740 0.000000 
#    z -0.004880 0.000000 1.814010 
# 
# From -- ./inp_files/28200.got.cif
#   From: 2010.06.25/outbox.cif.g09.slc.cpg/sg11_15_cif.got.tgz:28200.got - 2010.06.27 23:14:04.
