data_PCOD8077914
_publ_section_title
;
Structure prediction by ZEFSAII (Michael W. Deem and Ramdas Pophale) SiO2 
 PCOD8077914
Probable space group: P 21/M
;
_chemical_formula_sum "Si O2"
_cell_formula_units_Z 24
_cell_length_a 15.755518
_cell_length_b 8.866101
_cell_length_c 9.531647
_cell_angle_alpha 90.000000
_cell_angle_beta 103.386593
_cell_angle_gamma 90.000000
_cell_volume 1295.299808
_symmetry_space_group_name_H-M "P 21/M"
_symmetry_group_IT_number 11
_symmetry_cell_setting 'monoclinic'
loop_
_space_group_symop_operation_xyz
x,y,z
-x,1/2+y,-z
-x,-y,-z
x,1/2-y,z
loop_
_atom_site_type_symbol
_atom_site_label
_atom_site_fract_x
_atom_site_fract_y
_atom_site_fract_z
Si Si1 0.777670 0.423782 0.167043
Si Si2 0.472425 0.927312 0.135208
Si Si3 0.289101 0.426706 0.123471
Si Si4 0.761636 0.073366 0.616253
Si Si5 0.093650 0.572491 0.546290
Si Si6 0.373754 0.921690 0.671500
O O1 0.789925 0.250000 0.127109
O O2 0.858582 0.480373 0.292651
O O3 0.688440 0.443090 0.218592
O O4 0.773986 0.527836 0.028713
O O5 0.467937 0.750000 0.113260
O O6 0.379228 0.984025 0.150140
O O7 0.543184 0.969428 0.281203
O O8 0.500000 0.000000 0.000000
O O9 0.307658 0.250000 0.126441
O O10 0.239864 0.471766 0.246568
O O11 0.763319 0.250000 0.655466
O O12 0.848341 0.025560 0.565140
O O13 0.676889 0.036175 0.489840
O O14 0.083691 0.750000 0.546023
O O15 0.000000 0.500000 0.500000
O O16 0.407020 0.750000 0.677757
#
# Coordination Sequence:
#
# PCOD8077914 Si02
#       6
#     4   4   4   4   4   4
#     4   9  18  35  58  81 110 147 184 227 279 331
#     4  12  23  35  54  80 112 149 191 235 276 323
#     4  12  24  36  54  83 114 149 189 232 281 327
#     4   9  20  39  59  81 113 150 184 226 283 334
#     4   9  19  37  63  90 112 142 181 224 278 337
#     4   9  18  35  58  80 105 145 194 235 274 324
#
# _framework density 18.528527
#
# number of rings (size 3 to 8) (size 9 to 14) (size 15 to 20)
#    0.000    2.000    1.667    5.000    0.000    2.667 
#    0.000    4.167    0.000    0.000    0.000    0.000 
#    0.000    0.000    0.000    0.000    0.000    0.000 
#
# Total GULP energy -297650.821921 kJ/mol
# GULP energy per Si atom -12402.117580 kJ/mol
# Density = 1.848636 g / cm^3
# Si number density = 18.528527 Si / 1000 Ang^3
#
#
#
# Elastic Constant Matrix: (Units=GPa)
#
#
# Indices 1 2 3 4 5 6 
#
# 1 118.9577 50.5721 58.9417 0.0000 16.0333 0.0000
# 2 50.5721 107.6900 57.2520 0.0000 2.0844 0.0000
# 3 58.9417 57.2520 124.7304 0.0000 -0.6963 0.0000
# 4 0.0000 0.0000 0.0000 30.0704 0.0000 4.1693
# 5 16.0333 2.0844 -0.6963 0.0000 25.4687 0.0000
# 6 0.0000 0.0000 0.0000 4.1693 0.0000 32.7827
#
#
#
# Elastic Compliance Matrix: (Units=1/GPa)
#
#
# Indices 1 2 3 4 5 6 
#
# 1 0.013397 -0.003626 -0.004713 0.000000 -0.008266 0.000000
# 2 -0.003626 0.013299 -0.004385 0.000000 0.001074 0.000000
# 3 -0.004713 -0.004385 0.012277 0.000000 0.003661 0.000000
# 4 0.000000 0.000000 0.000000 0.033852 0.000000 -0.004305
# 5 -0.008266 0.001074 0.003661 0.000000 0.044480 0.000000
# 6 0.000000 0.000000 0.000000 -0.004305 0.000000 0.031051
#
#
# Mechanical properties :
#
#
# Convention : Reuss Voigt Hill
#
# Bulk Modulus (GPa) = 73.92881 76.10108 75.01494
# Shear Modulus (GPa) = 28.04069 29.97185 29.00627
#
# Velocity S-wave (km/s) = 3.89444 4.02631 3.96092
# Velocity P-wave (km/s) = 7.75943 7.92316 7.84172
#
# Compressibility (1/GPa) = 0.01352653
#
# Stress axis : x y z
#
# Youngs Moduli (GPa) = 74.64404 75.19323 81.45066
#
# Poissons Ratio (x) = 0.27265 0.38384
# Poissons Ratio (y) = 0.27065 0.35715
# Poissons Ratio (z) = 0.35177 0.32972
#
# Static dielectric constant tensor:
#      x y z
#    x 3.075290 0.000000 0.033590 
#    y 0.000000 3.416500 0.000000 
#    z 0.033590 0.000000 3.512280 
# 
# 
# High freq. dielectric constant tensor:
#      x y z
#    x 1.704250 0.000000 0.008120 
#    y 0.000000 1.713480 0.000000 
#    z 0.008120 0.000000 1.724790 
# 
# From -- ./inp_files/20345.got.cif
#   From: 2010.06.25/outbox.cif.g09.slc.cpg/sg11_11_cif.got.tgz:20345.got - 2010.06.27 23:14:04.
