data_PCOD8077886
_publ_section_title
;
Structure prediction by ZEFSAII (Michael W. Deem and Ramdas Pophale) SiO2 
 PCOD8077886
Probable space group: P 21/M
;
_chemical_formula_sum "Si O2"
_cell_formula_units_Z 20
_cell_length_a 6.138284
_cell_length_b 26.281572
_cell_length_c 5.006210
_cell_angle_alpha 90.000000
_cell_angle_beta 87.403253
_cell_angle_gamma 90.000000
_cell_volume 806.791275
_symmetry_space_group_name_H-M "P 21/M"
_symmetry_group_IT_number 11
_symmetry_cell_setting 'monoclinic'
loop_
_space_group_symop_operation_xyz
x,y,z
-x,1/2+y,-z
-x,-y,-z
x,1/2-y,z
loop_
_atom_site_type_symbol
_atom_site_label
_atom_site_fract_x
_atom_site_fract_y
_atom_site_fract_z
Si Si1 0.579315 0.622982 0.250608
Si Si2 0.804062 0.347011 0.407683
Si Si3 0.239111 0.937071 0.917171
Si Si4 0.043772 0.191150 0.897719
Si Si5 0.866608 0.535986 0.309889
O O1 0.439668 0.659369 0.456550
O O2 0.703720 0.579875 0.427416
O O3 0.737397 0.658656 0.063843
O O4 0.438022 0.592262 0.041744
O O5 0.828294 0.408030 0.356820
O O6 0.974816 0.323572 0.602290
O O7 0.847595 0.320441 0.117900
O O8 0.283894 0.996454 0.853828
O O9 0.028160 0.931941 0.115310
O O10 0.103912 0.250000 0.908250
O O11 0.000000 0.500000 0.500000
#
# Coordination Sequence:
#
# PCOD8077886 Si02
#       5
#     4   4   4   4   4
#     4  12  25  47  78 112 152 204 251 310 383 453
#     4  12  26  52  76 111 152 196 251 316 376 457
#     4  11  24  44  74 113 157 200 251 309 371 460
#     4  12  29  52  78 109 151 196 256 327 388 448
#     4  11  24  45  73 115 158 207 248 305 377 454
#
# _framework density 24.789556000000001
#
# number of rings (size 3 to 8) (size 9 to 14) (size 15 to 20)
#    0.000    0.400    4.000    3.600    2.800    8.000 
#    0.000    0.000    0.000    0.000    0.000    0.000 
#    0.000    0.000    0.000    0.000    0.000    0.000 
#
# Total GULP energy -247843.808091 kJ/mol
# GULP energy per Si atom -12392.190405 kJ/mol
# Density = 2.473313 g / cm^3
# Si number density = 24.789556 Si / 1000 Ang^3
#
#
#
# Elastic Constant Matrix: (Units=GPa)
#
#
# Indices 1 2 3 4 5 6 
#
# 1 115.5297 89.2256 37.0567 0.0000 -8.8702 0.0000
# 2 89.2256 144.8221 34.7704 0.0000 -12.4484 0.0000
# 3 37.0567 34.7704 103.9083 0.0000 -12.2205 0.0000
# 4 0.0000 0.0000 0.0000 38.1073 0.0000 0.2540
# 5 -8.8702 -12.4484 -12.2205 0.0000 33.1221 0.0000
# 6 0.0000 0.0000 0.0000 0.2540 0.0000 30.4521
#
#
#
# Elastic Compliance Matrix: (Units=1/GPa)
#
#
# Indices 1 2 3 4 5 6 
#
# 1 0.017242 -0.009957 -0.002838 0.000000 -0.000171 0.000000
# 2 -0.009957 0.013384 -0.000679 0.000000 0.002113 0.000000
# 3 -0.002838 -0.000679 0.011231 0.000000 0.003129 0.000000
# 4 0.000000 0.000000 0.000000 0.026243 0.000000 -0.000219
# 5 -0.000171 0.002113 0.003129 0.000000 0.032094 0.000000
# 6 0.000000 0.000000 0.000000 -0.000219 0.000000 0.032840
#
#
# Mechanical properties :
#
#
# Convention : Reuss Voigt Hill
#
# Bulk Modulus (GPa) = 67.06637 76.26284 71.66461
# Shear Modulus (GPa) = 30.31182 33.88347 32.09765
#
# Velocity S-wave (km/s) = 3.50060 3.70110 3.60224
# Velocity P-wave (km/s) = 6.59181 7.00679 6.80246
#
# Compressibility (1/GPa) = 0.01491060
#
# Stress axis : x y z
#
# Youngs Moduli (GPa) = 57.99629 74.71558 89.03859
#
# Poissons Ratio (x) = 0.74392 0.25265
# Poissons Ratio (y) = 0.57745 0.06048
# Poissons Ratio (z) = 0.16457 0.05075
#
# Static dielectric constant tensor:
#      x y z
#    x 4.507960 0.000000 -0.139870 
#    y 0.000000 4.677390 0.000000 
#    z -0.139870 0.000000 4.419900 
# 
# 
# High freq. dielectric constant tensor:
#      x y z
#    x 1.983680 0.000000 -0.005510 
#    y 0.000000 1.990410 0.000000 
#    z -0.005510 0.000000 1.983200 
# 
# From -- ./inp_files/769.got.cif
#   From: 2010.06.25/outbox.cif.g09.slc.cpg/sg11_1_cif.got.tgz:769.got - 2010.06.27 23:14:04.
