data_PCOD8077251
_publ_section_title
;
Structure prediction by ZEFSAII (Michael W. Deem and Ramdas Pophale) SiO2 
 PCOD8077251
Probable space group: P 21/M
;
_chemical_formula_sum "Si O2"
_cell_formula_units_Z 28
_cell_length_a 8.579883
_cell_length_b 14.682951
_cell_length_c 14.027950
_cell_angle_alpha 90.000000
_cell_angle_beta 129.343648
_cell_angle_gamma 90.000000
_cell_volume 1366.687467
_symmetry_space_group_name_H-M "P 21/M"
_symmetry_group_IT_number 11
_symmetry_cell_setting 'monoclinic'
loop_
_space_group_symop_operation_xyz
x,y,z
-x,1/2+y,-z
-x,-y,-z
x,1/2-y,z
loop_
_atom_site_type_symbol
_atom_site_label
_atom_site_fract_x
_atom_site_fract_y
_atom_site_fract_z
Si Si1 0.867188 0.351508 0.725077
Si Si2 0.792518 0.454389 0.889029
Si Si3 0.722765 0.108962 0.053211
Si Si4 0.284582 0.999019 0.466485
Si Si5 0.713537 0.588747 0.130691
Si Si6 0.638261 0.018982 0.283654
Si Si7 0.048989 0.649691 0.685036
O O1 0.772184 0.250000 0.686340
O O2 0.786609 0.407871 0.783788
O O3 0.817029 0.405693 0.608596
O O4 0.108265 0.341098 0.821667
O O5 0.606151 0.527599 0.818786
O O6 0.761152 0.375016 0.955793
O O7 0.000000 0.500000 0.000000
O O8 0.876243 0.165484 0.177231
O O9 0.755835 0.001901 0.086413
O O10 0.491410 0.135950 0.985481
O O11 0.147661 0.085998 0.386665
O O12 0.500000 0.000000 0.500000
O O13 0.297852 0.002668 0.584691
O O14 0.704512 0.563473 0.239862
O O15 0.760515 0.109175 0.299525
O O16 0.992687 0.750000 0.622345
#
# Coordination Sequence:
#
# PCOD8077251 Si02
#       7
#     4   4   4   4   4   4   4
#     4  12  25  40  64  98 130 172 224 270 323 391
#     4  11  20  39  67  93 129 173 214 262 327 389
#     4   9  18  36  66  89 127 167 202 261 329 383
#     4  12  24  46  68  89 131 176 212 275 333 383
#     4   9  18  38  62  95 121 164 216 263 322 385
#     4  10  22  41  70  91 123 174 216 262 328 380
#     4  11  24  42  68 101 127 166 223 268 321 395
#
# _framework density 20.487490999999999
#
# number of rings (size 3 to 8) (size 9 to 14) (size 15 to 20)
#    0.000    1.429    5.714    1.286    0.000    2.286 
#    0.000    2.143    0.000    0.000    0.000    0.000 
#    0.000    0.000    0.000    0.000    0.000    0.000 
#
# Total GULP energy -346930.436754 kJ/mol
# GULP energy per Si atom -12390.372741 kJ/mol
# Density = 2.044086 g / cm^3
# Si number density = 20.487491 Si / 1000 Ang^3
#
#
#
# Elastic Constant Matrix: (Units=GPa)
#
#
# Indices 1 2 3 4 5 6 
#
# 1 112.4623 39.7258 46.1412 0.0000 13.0039 0.0000
# 2 39.7258 105.8387 32.2200 0.0000 16.4458 0.0000
# 3 46.1412 32.2200 112.5987 0.0000 -1.1187 0.0000
# 4 0.0000 0.0000 0.0000 5.5607 0.0000 -2.3727
# 5 13.0039 16.4458 -1.1187 0.0000 47.8926 0.0000
# 6 0.0000 0.0000 0.0000 -2.3727 0.0000 17.7013
#
#
#
# Elastic Compliance Matrix: (Units=1/GPa)
#
#
# Indices 1 2 3 4 5 6 
#
# 1 0.011830 -0.002843 -0.004058 0.000000 -0.002331 0.000000
# 2 -0.002843 0.011703 -0.002216 0.000000 -0.003298 0.000000
# 3 -0.004058 -0.002216 0.011199 0.000000 0.002124 0.000000
# 4 0.000000 0.000000 0.000000 0.190741 0.000000 0.025567
# 5 -0.002331 -0.003298 0.002124 0.000000 0.022695 0.000000
# 6 0.000000 0.000000 0.000000 0.025567 0.000000 0.059920
#
#
# Mechanical properties :
#
#
# Convention : Reuss Voigt Hill
#
# Bulk Modulus (GPa) = 60.61279 63.00820 61.81050
# Shear Modulus (GPa) = 15.06834 28.41845 21.74339
#
# Velocity S-wave (km/s) = 2.71493 3.72844 3.26130
# Velocity P-wave (km/s) = 6.28310 7.02540 6.66459
#
# Compressibility (1/GPa) = 0.01649817
#
# Stress axis : x y z
#
# Youngs Moduli (GPa) = 84.52824 85.45012 89.29252
#
# Poissons Ratio (x) = 0.24294 0.36231
# Poissons Ratio (y) = 0.24032 0.19791
# Poissons Ratio (z) = 0.34297 0.18940
#
# Static dielectric constant tensor:
#      x y z
#    x 4.029420 0.000000 -0.014090 
#    y 0.000000 3.346990 0.000000 
#    z -0.014090 0.000000 4.048340 
# 
# 
# High freq. dielectric constant tensor:
#      x y z
#    x 1.813310 0.000000 0.002380 
#    y 0.000000 1.756090 0.000000 
#    z 0.002380 0.000000 1.816580 
# 
# From -- ./inp_files/47683.got.cif
#   From: 2010.06.25/outbox.cif.g09.slc.cpg/sg11_24_cif.got.tgz:47683.got - 2010.06.27 23:14:04.
