data_PCOD8077255
_publ_section_title
;
Structure prediction by ZEFSAII (Michael W. Deem and Ramdas Pophale) SiO2 
 PCOD8077255
Probable space group: P 21/M
;
_chemical_formula_sum "Si O2"
_cell_formula_units_Z 28
_cell_length_a 26.647418
_cell_length_b 9.077725
_cell_length_c 9.174972
_cell_angle_alpha 90.000000
_cell_angle_beta 140.832246
_cell_angle_gamma 90.000000
_cell_volume 1401.761916
_symmetry_space_group_name_H-M "P 21/M"
_symmetry_group_IT_number 11
_symmetry_cell_setting 'monoclinic'
loop_
_space_group_symop_operation_xyz
x,y,z
-x,1/2+y,-z
-x,-y,-z
x,1/2-y,z
loop_
_atom_site_type_symbol
_atom_site_label
_atom_site_fract_x
_atom_site_fract_y
_atom_site_fract_z
Si Si1 0.017632 0.421666 0.691806
Si Si2 0.434616 0.585240 0.263516
Si Si3 0.709519 0.922555 0.673029
Si Si4 0.465322 0.412201 0.790909
Si Si5 0.154533 0.923438 0.177223
Si Si6 0.725871 0.922295 0.041160
Si Si7 0.860511 0.081100 0.519403
O O1 0.033934 0.250000 0.698228
O O2 0.000000 0.500000 0.500000
O O3 0.946599 0.445059 0.645251
O O4 0.094776 0.492716 0.936717
O O5 0.500000 0.500000 0.500000
O O6 0.424349 0.750000 0.304031
O O7 0.464966 0.591050 0.168385
O O8 0.351461 0.503415 0.074776
O O9 0.719552 0.750000 0.660566
O O10 0.617638 0.975799 0.458979
O O11 0.757690 0.018426 0.664091
O O12 0.741157 0.958372 0.906206
O O13 0.446249 0.250000 0.806087
O O14 0.500000 0.500000 0.000000
O O15 0.148505 0.750000 0.134340
O O16 0.135842 0.962061 0.302641
O O17 0.712415 0.750000 0.034862
O O18 0.800603 0.974754 0.301744
O O19 0.832569 0.250000 0.437045
#
# Coordination Sequence:
#
# PCOD8077255 Si02
#       7
#     4   4   4   4   4   4   4
#     4  11  23  42  68  95 125 161 202 247 299 358
#     4  11  22  40  63  89 121 158 204 256 306 361
#     4  10  22  42  61  86 123 161 205 254 303 360
#     4  10  23  41  60  86 122 159 203 255 307 363
#     4  11  24  41  63  92 126 162 202 248 302 358
#     4  11  23  40  63  90 121 160 205 252 306 362
#     4  10  24  43  62  91 127 161 200 249 301 358
#
# _framework density 19.974862000000002
#
# number of rings (size 3 to 8) (size 9 to 14) (size 15 to 20)
#    0.000    1.429    1.429    3.000    2.000    7.429 
#    0.000    0.000    0.000    0.000    0.000    0.000 
#    0.000    0.000    0.000    0.000    0.000    0.000 
#
# Total GULP energy -347294.143198 kJ/mol
# GULP energy per Si atom -12403.362257 kJ/mol
# Density = 1.992940 g / cm^3
# Si number density = 19.974862 Si / 1000 Ang^3
#
#
#
# Elastic Constant Matrix: (Units=GPa)
#
#
# Indices 1 2 3 4 5 6 
#
# 1 114.7117 52.0663 29.8156 0.0000 -3.9599 0.0000
# 2 52.0663 109.7911 50.4894 0.0000 -5.9452 0.0000
# 3 29.8156 50.4894 97.0321 0.0000 -11.9442 0.0000
# 4 0.0000 0.0000 0.0000 43.2242 0.0000 1.7300
# 5 -3.9599 -5.9452 -11.9442 0.0000 35.9968 0.0000
# 6 0.0000 0.0000 0.0000 1.7300 0.0000 34.6277
#
#
#
# Elastic Compliance Matrix: (Units=1/GPa)
#
#
# Indices 1 2 3 4 5 6 
#
# 1 0.011167 -0.004888 -0.000872 0.000000 0.000132 0.000000
# 2 -0.004888 0.014113 -0.005860 0.000000 -0.000151 0.000000
# 3 -0.000872 -0.005860 0.014067 0.000000 0.003604 0.000000
# 4 0.000000 0.000000 0.000000 0.023182 0.000000 -0.001158
# 5 0.000132 -0.000151 0.003604 0.000000 0.028965 0.000000
# 6 0.000000 0.000000 0.000000 -0.001158 0.000000 0.028937
#
#
# Mechanical properties :
#
#
# Convention : Reuss Voigt Hill
#
# Bulk Modulus (GPa) = 62.08460 65.14194 63.61327
# Shear Modulus (GPa) = 33.54832 35.38064 34.46448
#
# Velocity S-wave (km/s) = 4.10265 4.21320 4.15829
# Velocity P-wave (km/s) = 7.32060 7.50672 7.41424
#
# Compressibility (1/GPa) = 0.01610705
#
# Stress axis : x y z
#
# Youngs Moduli (GPa) = 89.54832 70.85755 71.09012
#
# Poissons Ratio (x) = 0.34633 0.06198
# Poissons Ratio (y) = 0.43769 0.41660
# Poissons Ratio (z) = 0.07808 0.41524
#
# Static dielectric constant tensor:
#      x y z
#    x 3.680840 0.000000 -0.255090 
#    y 0.000000 3.778390 0.000000 
#    z -0.255090 0.000000 3.389860 
# 
# 
# High freq. dielectric constant tensor:
#      x y z
#    x 1.792280 0.000000 0.003520 
#    y 0.000000 1.786700 0.000000 
#    z 0.003520 0.000000 1.786110 
# 
# From -- ./inp_files/28379.got.cif
#   From: 2010.06.25/outbox.cif.g09.slc.cpg/sg11_15_cif.got.tgz:28379.got - 2010.06.27 23:14:04.
