data_PCOD8077231
_publ_section_title
;
Structure prediction by ZEFSAII (Michael W. Deem and Ramdas Pophale) SiO2 
 PCOD8077231
Probable space group: P 21/M
;
_chemical_formula_sum "Si O2"
_cell_formula_units_Z 32
_cell_length_a 25.194883
_cell_length_b 8.564953
_cell_length_c 19.704053
_cell_angle_alpha 90.000000
_cell_angle_beta 21.507780
_cell_angle_gamma 90.000000
_cell_volume 1558.899104
_symmetry_space_group_name_H-M "P 21/M"
_symmetry_group_IT_number 11
_symmetry_cell_setting 'monoclinic'
loop_
_space_group_symop_operation_xyz
x,y,z
-x,1/2+y,-z
-x,-y,-z
x,1/2-y,z
loop_
_atom_site_type_symbol
_atom_site_label
_atom_site_fract_x
_atom_site_fract_y
_atom_site_fract_z
Si Si1 0.857131 0.066743 0.204507
Si Si2 0.450449 0.564281 0.487244
Si Si3 0.152295 0.067900 0.635420
Si Si4 0.046804 0.066842 0.239946
Si Si5 0.532914 0.572663 0.783013
Si Si6 0.389774 0.431483 0.078362
Si Si7 0.355161 0.570738 0.859975
Si Si8 0.081794 0.932014 0.466313
O O1 0.864128 0.250000 0.188672
O O2 0.711343 0.004993 0.340278
O O3 0.854731 0.024423 0.286225
O O4 0.000000 0.000000 0.000000
O O5 0.500000 0.500000 0.500000
O O6 0.457817 0.750000 0.476956
O O7 0.568006 0.494248 0.297240
O O8 0.145742 0.250000 0.660809
O O9 0.298950 0.025057 0.420736
O O10 0.019145 0.021226 0.746237
O O11 0.017226 0.250000 0.267018
O O12 0.976803 0.999523 0.392703
O O13 0.216356 0.033339 0.041372
O O14 0.515100 0.750000 0.830980
O O15 0.450488 0.455099 0.930691
O O16 0.468047 0.553239 0.786126
O O17 0.358992 0.250000 0.127577
O O18 0.500000 0.500000 0.000000
O O19 0.247877 0.530346 0.259666
O O20 0.308376 0.750000 0.904601
O O21 0.053622 0.750000 0.499834
O O22 0.000000 0.000000 0.500000
#
# Coordination Sequence:
#
# PCOD8077231 Si02
#       8
#     4   4   4   4   4   4   4   4
#     4  11  25  44  68  97 131 172 213 259 315 378
#     4  11  25  44  68  97 131 171 214 261 314 375
#     4  11  23  42  67  95 128 167 213 266 321 380
#     4  11  25  42  62  93 129 170 215 263 319 382
#     4  10  22  41  66  94 125 164 211 265 322 383
#     4  12  25  40  63  93 128 169 214 268 323 384
#     4  11  23  42  67  95 127 166 212 263 317 377
#     4  11  24  43  66  94 129 170 217 269 327 388
#
# _framework density 20.527305999999999
#
# number of rings (size 3 to 8) (size 9 to 14) (size 15 to 20)
#    0.000    1.000    1.250    4.875    1.750    9.500 
#    0.000    0.000    0.000    0.000    0.000    0.000 
#    0.000    0.000    0.000    0.000    0.000    0.000 
#
# Total GULP energy -396974.002417 kJ/mol
# GULP energy per Si atom -12405.437576 kJ/mol
# Density = 2.048058 g / cm^3
# Si number density = 20.527306 Si / 1000 Ang^3
#
#
#
# Elastic Constant Matrix: (Units=GPa)
#
#
# Indices 1 2 3 4 5 6 
#
# 1 109.5251 29.5684 23.3446 0.0000 6.1413 0.0000
# 2 29.5684 46.5216 18.2480 0.0000 5.4512 0.0000
# 3 23.3446 18.2480 95.9465 0.0000 5.1919 0.0000
# 4 0.0000 0.0000 0.0000 34.2454 0.0000 2.4943
# 5 6.1413 5.4512 5.1919 0.0000 39.5717 0.0000
# 6 0.0000 0.0000 0.0000 2.4943 0.0000 36.1709
#
#
#
# Elastic Compliance Matrix: (Units=1/GPa)
#
#
# Indices 1 2 3 4 5 6 
#
# 1 0.011230 -0.006487 -0.001463 0.000000 -0.000657 0.000000
# 2 -0.006487 0.027252 -0.003481 0.000000 -0.002291 0.000000
# 3 -0.001463 -0.003481 0.011484 0.000000 -0.000800 0.000000
# 4 0.000000 0.000000 0.000000 0.029348 0.000000 -0.002024
# 5 -0.000657 -0.002291 -0.000800 0.000000 0.025793 0.000000
# 6 0.000000 0.000000 0.000000 -0.002024 0.000000 0.027786
#
#
# Mechanical properties :
#
#
# Convention : Reuss Voigt Hill
#
# Bulk Modulus (GPa) = 36.89414 43.81281 40.35347
# Shear Modulus (GPa) = 30.34161 34.05307 32.19734
#
# Velocity S-wave (km/s) = 3.84879 4.07740 3.96474
# Velocity P-wave (km/s) = 6.14517 6.59977 6.37652
#
# Compressibility (1/GPa) = 0.02710458
#
# Stress axis : x y z
#
# Youngs Moduli (GPa) = 89.04492 36.69446 87.07938
#
# Poissons Ratio (x) = 0.23803 0.12741
# Poissons Ratio (y) = 0.57762 0.30311
# Poissons Ratio (z) = 0.13028 0.12773
#
# Static dielectric constant tensor:
#      x y z
#    x 3.719960 0.000000 -0.008770 
#    y 0.000000 3.658060 0.000000 
#    z -0.008770 0.000000 3.897770 
# 
# 
# High freq. dielectric constant tensor:
#      x y z
#    x 1.818840 0.000000 -0.001350 
#    y 0.000000 1.809260 0.000000 
#    z -0.001350 0.000000 1.818290 
# 
# From -- ./inp_files/66983.got.cif
#   From: 2010.06.25/outbox.cif.g09.slc.cpg/sg11_34_cif.got.tgz:66983.got - 2010.06.27 23:14:04.
