data_PCOD8077816
_publ_section_title
;
Structure prediction by ZEFSAII (Michael W. Deem and Ramdas Pophale) SiO2 
 PCOD8077816
Probable space group: P 21/M
;
_chemical_formula_sum "Si O2"
_cell_formula_units_Z 28
_cell_length_a 11.858248
_cell_length_b 8.656134
_cell_length_c 15.469183
_cell_angle_alpha 90.000000
_cell_angle_beta 60.624377
_cell_angle_gamma 90.000000
_cell_volume 1383.696020
_symmetry_space_group_name_H-M "P 21/M"
_symmetry_group_IT_number 11
_symmetry_cell_setting 'monoclinic'
loop_
_space_group_symop_operation_xyz
x,y,z
-x,1/2+y,-z
-x,-y,-z
x,1/2-y,z
loop_
_atom_site_type_symbol
_atom_site_label
_atom_site_fract_x
_atom_site_fract_y
_atom_site_fract_z
Si Si1 0.939079 0.428707 0.643222
Si Si2 0.601851 0.567611 0.029757
Si Si3 0.631539 0.432545 0.203289
Si Si4 0.534893 0.433961 0.579298
Si Si5 0.140119 0.570688 0.139992
Si Si6 0.181623 0.931980 0.486862
Si Si7 0.930078 0.067663 0.108630
O O1 0.970412 0.250000 0.618541
O O2 0.852190 0.456434 0.760356
O O3 0.858777 0.495703 0.592458
O O4 0.077573 0.513650 0.597349
O O5 0.584520 0.750000 0.038383
O O6 0.574932 0.502601 0.135709
O O7 0.500000 0.500000 0.000000
O O8 0.747218 0.525043 0.947937
O O9 0.613111 0.250000 0.206852
O O10 0.558120 0.501897 0.312218
O O11 0.780607 0.479508 0.160683
O O12 0.500000 0.500000 0.500000
O O13 0.527092 0.250000 0.581285
O O14 0.678130 0.498379 0.544304
O O15 0.157195 0.750000 0.108292
O O16 0.998915 0.510626 0.164899
O O17 0.187880 0.750000 0.484951
O O18 0.948220 0.250000 0.106269
O O19 0.000000 0.000000 0.000000
#
# Coordination Sequence:
#
# PCOD8077816 Si02
#       7
#     4   4   4   4   4   4   4
#     4   9  20  38  62  91 121 158 201 254 312 371
#     4  12  26  44  67  96 132 172 215 262 320 385
#     4  11  25  45  67  95 128 168 217 268 321 385
#     4  11  25  43  65  92 126 170 215 267 324 384
#     4  11  23  39  63  95 129 163 210 262 315 381
#     4   9  20  40  62  87 120 159 205 256 313 372
#     4  11  23  40  64  90 125 164 207 259 314 375
#
# _framework density 20.235658999999998
#
# number of rings (size 3 to 8) (size 9 to 14) (size 15 to 20)
#    0.000    1.429    1.429    3.000    4.000    4.000 
#    0.000    0.000    0.000    0.000    0.000    0.000 
#    0.000    0.000    0.000    0.000    0.000    0.000 
#
# Total GULP energy -347275.106139 kJ/mol
# GULP energy per Si atom -12402.682362 kJ/mol
# Density = 2.018960 g / cm^3
# Si number density = 20.235659 Si / 1000 Ang^3
#
#
#
# Elastic Constant Matrix: (Units=GPa)
#
#
# Indices 1 2 3 4 5 6 
#
# 1 147.3507 51.7144 68.4926 0.0000 0.9418 0.0000
# 2 51.7144 87.4830 47.7041 0.0000 1.7724 0.0000
# 3 68.4926 47.7041 144.1594 0.0000 4.0032 0.0000
# 4 0.0000 0.0000 0.0000 36.9701 0.0000 0.5346
# 5 0.9418 1.7724 4.0032 0.0000 32.6893 0.0000
# 6 0.0000 0.0000 0.0000 0.5346 0.0000 35.1641
#
#
#
# Elastic Compliance Matrix: (Units=1/GPa)
#
#
# Indices 1 2 3 4 5 6 
#
# 1 0.009709 -0.003936 -0.003320 0.000000 0.000340 0.000000
# 2 -0.003936 0.015544 -0.003265 0.000000 -0.000330 0.000000
# 3 -0.003320 -0.003265 0.009620 0.000000 -0.000905 0.000000
# 4 0.000000 0.000000 0.000000 0.027055 0.000000 -0.000411
# 5 0.000340 -0.000330 -0.000905 0.000000 0.030710 0.000000
# 6 0.000000 0.000000 0.000000 -0.000411 0.000000 0.028444
#
#
# Mechanical properties :
#
#
# Convention : Reuss Voigt Hill
#
# Bulk Modulus (GPa) = 72.29636 79.42392 75.86014
# Shear Modulus (GPa) = 34.07544 35.03684 34.55614
#
# Velocity S-wave (km/s) = 4.10802 4.16557 4.13690
# Velocity P-wave (km/s) = 7.63583 7.90384 7.77099
#
# Compressibility (1/GPa) = 0.01383196
#
# Stress axis : x y z
#
# Youngs Moduli (GPa) = 102.99882 64.33226 103.95493
#
# Poissons Ratio (x) = 0.25320 0.34512
# Poissons Ratio (y) = 0.40539 0.33938
# Poissons Ratio (z) = 0.34194 0.21002
#
# Static dielectric constant tensor:
#      x y z
#    x 7.846810 0.000000 -0.278190 
#    y 0.000000 3.715720 0.000000 
#    z -0.278190 0.000000 3.771300 
# 
# 
# High freq. dielectric constant tensor:
#      x y z
#    x 1.801870 0.000000 0.003930 
#    y 0.000000 1.795590 0.000000 
#    z 0.003930 0.000000 1.798320 
# 
# From -- ./inp_files/49136.got.cif
#   From: 2010.06.25/outbox.cif.g09.slc.cpg/sg11_25_cif.got.tgz:49136.got - 2010.06.27 23:14:04.
