data_PCOD8077292
_publ_section_title
;
Structure prediction by ZEFSAII (Michael W. Deem and Ramdas Pophale) SiO2 
 PCOD8077292
Probable space group: P 21/M
;
_chemical_formula_sum "Si O2"
_cell_formula_units_Z 20
_cell_length_a 9.960334
_cell_length_b 21.186488
_cell_length_c 5.378500
_cell_angle_alpha 90.000000
_cell_angle_beta 128.085327
_cell_angle_gamma 90.000000
_cell_volume 893.346837
_symmetry_space_group_name_H-M "P 21/M"
_symmetry_group_IT_number 11
_symmetry_cell_setting 'monoclinic'
loop_
_space_group_symop_operation_xyz
x,y,z
-x,1/2+y,-z
-x,-y,-z
x,1/2-y,z
loop_
_atom_site_type_symbol
_atom_site_label
_atom_site_fract_x
_atom_site_fract_y
_atom_site_fract_z
Si Si1 0.790990 0.988567 0.661933
Si Si2 0.335215 0.750000 0.490986
Si Si3 0.604237 0.883081 0.216100
Si Si4 0.905948 0.935682 0.298489
Si Si5 0.755523 0.380916 0.447869
Si Si6 0.455490 0.250000 0.764622
O O1 0.633761 0.939162 0.451872
O O2 0.901752 0.985991 0.526384
O O3 0.728162 0.060998 0.612617
O O4 0.905171 0.967886 0.024405
O O5 0.226008 0.814359 0.388627
O O6 0.471851 0.750000 0.870240
O O7 0.405682 0.750000 0.293672
O O8 0.731875 0.894548 0.128898
O O9 0.405869 0.882409 0.919978
O O10 0.653260 0.814544 0.388998
O O11 0.069265 0.889567 0.506128
#
# Coordination Sequence:
#
# PCOD8077292 Si02
#       6
#     4   2   4   4   4   2
#     4  10  23  42  64 100 126 165 211 265 317 368
#     4  10  26  39  65  94 119 179 207 252 325 367
#     4   9  24  40  66  93 125 170 211 256 321 370
#     4  10  24  40  64  98 124 164 211 257 328 361
#     4  11  22  45  65  92 136 163 215 263 308 388
#     4  10  22  43  61  90 133 159 215 266 307 377
#
# _framework density 22.387722
#
# number of rings (size 3 to 8) (size 9 to 14) (size 15 to 20)
#    1.200    0.800    0.000    1.800    5.600    8.000 
#    0.000    1.000    0.000    0.000    0.000    0.000 
#    0.000    0.000    0.000    0.000    0.000    0.000 
#
# Total GULP energy -247812.475543 kJ/mol
# GULP energy per Si atom -12390.623777 kJ/mol
# Density = 2.233677 g / cm^3
# Si number density = 22.387722 Si / 1000 Ang^3
#
#
#
# Elastic Constant Matrix: (Units=GPa)
#
#
# Indices 1 2 3 4 5 6 
#
# 1 100.7115 46.6714 45.8605 0.0000 -0.3921 0.0000
# 2 46.6714 231.1735 44.8867 0.0000 0.9808 0.0000
# 3 45.8605 44.8867 98.6086 0.0000 3.6292 0.0000
# 4 0.0000 0.0000 0.0000 4.8484 0.0000 6.5542
# 5 -0.3921 0.9808 3.6292 0.0000 34.8839 0.0000
# 6 0.0000 0.0000 0.0000 6.5542 0.0000 39.9210
#
#
#
# Elastic Compliance Matrix: (Units=1/GPa)
#
#
# Indices 1 2 3 4 5 6 
#
# 1 0.013139 -0.001606 -0.005407 0.000000 0.000755 0.000000
# 2 -0.001606 0.004942 -0.001503 0.000000 -0.000001 0.000000
# 3 -0.005407 -0.001503 0.013392 0.000000 -0.001412 0.000000
# 4 0.000000 0.000000 0.000000 0.265085 0.000000 -0.043521
# 5 0.000755 -0.000001 -0.001412 0.000000 0.028822 0.000000
# 6 0.000000 0.000000 0.000000 -0.043521 0.000000 0.032195
#
#
# Mechanical properties :
#
#
# Convention : Reuss Voigt Hill
#
# Bulk Modulus (GPa) = 69.24839 78.37010 73.80925
# Shear Modulus (GPa) = 13.17803 35.46900 24.32351
#
# Velocity S-wave (km/s) = 2.42880 3.98465 3.29974
# Velocity P-wave (km/s) = 6.23410 7.50012 6.89622
#
# Compressibility (1/GPa) = 0.01444077
#
# Stress axis : x y z
#
# Youngs Moduli (GPa) = 76.11054 202.35865 74.67208
#
# Poissons Ratio (x) = 0.32496 0.40378
# Poissons Ratio (y) = 0.12222 0.11220
# Poissons Ratio (z) = 0.41156 0.30407
#
# Static dielectric constant tensor:
#      x y z
#    x 3.820370 0.000000 0.030900 
#    y 0.000000 4.735040 0.000000 
#    z 0.030900 0.000000 3.686050 
# 
# 
# High freq. dielectric constant tensor:
#      x y z
#    x 1.878160 0.000000 0.001510 
#    y 0.000000 1.904910 0.000000 
#    z 0.001510 0.000000 1.869140 
# 
# From -- ./inp_files/2483.got.cif
#   From: 2010.06.25/outbox.cif.g09.slc.cpg/sg11_2_cif.got.tgz:2483.got - 2010.06.27 23:14:04.
