data_PCOD8077318
_publ_section_title
;
Structure prediction by ZEFSAII (Michael W. Deem and Ramdas Pophale) SiO2 
 PCOD8077318
Probable space group: P 21/M
;
_chemical_formula_sum "Si O2"
_cell_formula_units_Z 14
_cell_length_a 11.399695
_cell_length_b 7.670623
_cell_length_c 11.421582
_cell_angle_alpha 90.000000
_cell_angle_beta 39.415143
_cell_angle_gamma 90.000000
_cell_volume 634.131328
_symmetry_space_group_name_H-M "P 21/M"
_symmetry_group_IT_number 11
_symmetry_cell_setting 'monoclinic'
loop_
_space_group_symop_operation_xyz
x,y,z
-x,1/2+y,-z
-x,-y,-z
x,1/2-y,z
loop_
_atom_site_type_symbol
_atom_site_label
_atom_site_fract_x
_atom_site_fract_y
_atom_site_fract_z
Si Si1 0.011481 0.250000 0.507327
Si Si2 0.603433 0.250000 0.756777
Si Si3 0.796345 0.750000 0.887763
Si Si4 0.735762 0.937740 0.524745
Si Si5 0.978289 0.048169 0.882799
O O1 0.094358 0.420242 0.511180
O O2 0.788961 0.250000 0.691459
O O3 0.071535 0.250000 0.325801
O O4 0.421922 0.250000 0.979027
O O5 0.594854 0.416932 0.677354
O O6 0.827340 0.577508 0.941256
O O7 0.631831 0.750000 0.596102
O O8 0.823883 0.987862 0.331865
O O9 0.919545 0.250000 0.910488
O O10 0.000000 0.000000 0.000000
#
# Coordination Sequence:
#
# PCOD8077318 Si02
#       5
#     2   2   2   4   4
#     4  10  22  45  62  94 136 171 209 259 320 385
#     4  12  22  40  65  96 135 162 214 265 318 380
#     4  12  26  39  67 102 125 169 213 264 324 379
#     4   9  22  40  67  90 126 176 208 255 324 374
#     4  11  22  43  72  91 125 173 216 262 321 380
#
# _framework density 22.077448
#
# number of rings (size 3 to 8) (size 9 to 14) (size 15 to 20)
#    0.857    0.571    4.286    0.857    0.000    2.286 
#    0.000    1.429    0.000    0.000    0.000    0.000 
#    0.000    0.000    0.000    0.000    0.000    0.000 
#
# Total GULP energy -173531.342962 kJ/mol
# GULP energy per Si atom -12395.095926 kJ/mol
# Density = 2.202720 g / cm^3
# Si number density = 22.077448 Si / 1000 Ang^3
#
#
#
# Elastic Constant Matrix: (Units=GPa)
#
#
# Indices 1 2 3 4 5 6 
#
# 1 63.6898 11.2993 37.6958 0.0000 17.8215 0.0000
# 2 11.2993 124.8936 18.2000 0.0000 -3.7172 0.0000
# 3 37.6958 18.2000 62.4086 0.0000 2.2356 0.0000
# 4 0.0000 0.0000 0.0000 26.6313 0.0000 11.0983
# 5 17.8215 -3.7172 2.2356 0.0000 42.2075 0.0000
# 6 0.0000 0.0000 0.0000 11.0983 0.0000 26.0738
#
#
#
# Elastic Compliance Matrix: (Units=1/GPa)
#
#
# Indices 1 2 3 4 5 6 
#
# 1 0.029030 -0.000491 -0.016983 0.000000 -0.011401 0.000000
# 2 -0.000491 0.008402 -0.002192 0.000000 0.001063 0.000000
# 3 -0.016983 -0.002192 0.026721 0.000000 0.005562 0.000000
# 4 0.000000 0.000000 0.000000 0.045647 0.000000 -0.019429
# 5 -0.011401 0.001063 0.005562 0.000000 0.028305 0.000000
# 6 0.000000 0.000000 0.000000 -0.019429 0.000000 0.046623
#
#
# Mechanical properties :
#
#
# Convention : Reuss Voigt Hill
#
# Bulk Modulus (GPa) = 40.28671 42.82023 41.55347
# Shear Modulus (GPa) = 21.52067 31.23565 26.37816
#
# Velocity S-wave (km/s) = 3.12554 3.76549 3.46034
# Velocity P-wave (km/s) = 5.59578 6.19216 5.90151
#
# Compressibility (1/GPa) = 0.02482208
#
# Stress axis : x y z
#
# Youngs Moduli (GPa) = 34.44697 119.01517 37.42309
#
# Poissons Ratio (x) = 0.05842 0.63556
# Poissons Ratio (y) = 0.01691 0.08203
# Poissons Ratio (z) = 0.58502 0.26087
#
# Static dielectric constant tensor:
#      x y z
#    x 3.517210 0.000000 0.308470 
#    y 0.000000 4.428920 0.000000 
#    z 0.308470 0.000000 3.737070 
# 
# 
# High freq. dielectric constant tensor:
#      x y z
#    x 1.823270 0.000000 0.026550 
#    y 0.000000 1.900320 0.000000 
#    z 0.026550 0.000000 1.857120 
# 
# From -- ./inp_files/33377.got.cif
#   From: 2010.06.25/outbox.cif.g09.slc.cpg/sg11_17_cif.got.tgz:33377.got - 2010.06.27 23:14:04.
