data_PCOD8077971
_publ_section_title
;
Structure prediction by ZEFSAII (Michael W. Deem and Ramdas Pophale) SiO2 
 PCOD8077971
Probable space group: P 21/M
;
_chemical_formula_sum "Si O2"
_cell_formula_units_Z 24
_cell_length_a 24.579522
_cell_length_b 9.261262
_cell_length_c 18.165090
_cell_angle_alpha 90.000000
_cell_angle_beta 160.678254
_cell_angle_gamma 90.000000
_cell_volume 1368.175891
_symmetry_space_group_name_H-M "P 21/M"
_symmetry_group_IT_number 11
_symmetry_cell_setting 'monoclinic'
loop_
_space_group_symop_operation_xyz
x,y,z
-x,1/2+y,-z
-x,-y,-z
x,1/2-y,z
loop_
_atom_site_type_symbol
_atom_site_label
_atom_site_fract_x
_atom_site_fract_y
_atom_site_fract_z
Si Si1 0.583882 0.586842 0.001408
Si Si2 0.411053 0.082276 0.660013
Si Si3 0.748788 0.086841 0.330975
Si Si4 0.913604 0.917728 0.664366
Si Si5 0.423866 0.418281 0.508824
Si Si6 0.254159 0.918286 0.168912
O O1 0.644043 0.750000 0.063337
O O2 0.548231 0.508318 0.878742
O O3 0.421103 0.586920 0.842324
O O4 0.726721 0.499999 0.226524
O O5 0.459146 0.250000 0.728091
O O6 0.230402 0.052786 0.461202
O O7 0.413095 0.028375 0.578818
O O8 0.805307 0.250000 0.385624
O O9 0.887335 0.008317 0.556447
O O10 0.921619 0.750000 0.652361
O O11 0.082218 0.971680 0.916046
O O12 0.384845 0.250000 0.452898
O O13 0.604541 0.456322 0.709391
O O14 0.285168 0.500030 0.284992
O O15 0.248689 0.750000 0.180259
#
# Coordination Sequence:
#
# PCOD8077971 Si02
#       6
#     4   4   4   4   4   4
#     4   9  16  26  42  65  92 120 148 179 217 261
#     4   9  17  29  45  66  91 117 146 182 222 260
#     4   9  16  26  42  65  92 120 148 179 217 261
#     4   9  17  29  45  66  91 117 146 182 222 260
#     4   9  18  32  48  65  87 117 150 182 219 264
#     4   9  18  32  48  65  87 117 150 182 219 264
#
# _framework density 17.541604
#
# number of rings (size 3 to 8) (size 9 to 14) (size 15 to 20)
#    0.000    3.000    0.000    1.000    0.000    6.000 
#    0.000    0.000    0.000    1.000    0.000    0.000 
#    0.000    0.000    0.000    0.000    0.000    0.000 
#
# Total GULP energy -297618.511929 kJ/mol
# GULP energy per Si atom -12400.771330 kJ/mol
# Density = 1.750168 g / cm^3
# Si number density = 17.541604 Si / 1000 Ang^3
#
#
#
# Elastic Constant Matrix: (Units=GPa)
#
#
# Indices 1 2 3 4 5 6 
#
# 1 76.8595 55.2927 83.4641 0.0000 -35.3910 0.0000
# 2 55.2927 98.6223 67.2689 0.0000 -30.6220 0.0000
# 3 83.4641 67.2689 109.1100 0.0000 -45.7571 0.0000
# 4 0.0000 0.0000 0.0000 29.7596 0.0000 -13.1696
# 5 -35.3910 -30.6220 -45.7571 0.0000 30.4154 0.0000
# 6 0.0000 0.0000 0.0000 -13.1696 0.0000 24.8751
#
#
#
# Elastic Compliance Matrix: (Units=1/GPa)
#
#
# Indices 1 2 3 4 5 6 
#
# 1 0.078424 -0.005195 -0.056116 0.000000 0.001601 0.000000
# 2 -0.005195 0.018002 -0.005578 0.000000 0.003687 0.000000
# 3 -0.056116 -0.005578 0.069878 0.000000 0.034213 0.000000
# 4 0.000000 0.000000 0.000000 0.043884 0.000000 0.023234
# 5 0.001601 0.003687 0.034213 0.000000 0.089923 0.000000
# 6 0.000000 0.000000 0.000000 0.023234 0.000000 0.052502
#
#
# Mechanical properties :
#
#
# Convention : Reuss Voigt Hill
#
# Bulk Modulus (GPa) = 30.74592 77.40479 54.07536
# Shear Modulus (GPa) = 10.05563 22.24776 16.15170
#
# Velocity S-wave (km/s) = 2.39685 3.56516 3.03770
# Velocity P-wave (km/s) = 5.02248 7.82109 6.57247
#
# Compressibility (1/GPa) = 0.03252464
#
# Stress axis : x y z
#
# Youngs Moduli (GPa) = 12.75127 55.54879 14.31061
#
# Poissons Ratio (x) = 0.28859 0.80306
# Poissons Ratio (y) = 0.06625 0.07983
# Poissons Ratio (z) = 0.71555 0.30987
#
# Static dielectric constant tensor:
#      x y z
#    x 3.117460 0.000000 -0.263490 
#    y 0.000000 3.317780 0.000000 
#    z -0.263490 0.000000 3.215850 
# 
# 
# High freq. dielectric constant tensor:
#      x y z
#    x 1.656200 0.000000 -0.028530 
#    y 0.000000 1.679980 0.000000 
#    z -0.028530 0.000000 1.666840 
# 
# From -- ./inp_files/33835.got.cif
#   From: 2010.06.25/outbox.cif.g09.slc.cpg/sg11_17_cif.got.tgz:33835.got - 2010.06.27 23:14:04.
