data_PCOD8077758
_publ_section_title
;
Structure prediction by ZEFSAII (Michael W. Deem and Ramdas Pophale) SiO2 
 PCOD8077758
Probable space group: P 21/M
;
_chemical_formula_sum "Si O2"
_cell_formula_units_Z 32
_cell_length_a 11.482173
_cell_length_b 18.167201
_cell_length_c 13.610370
_cell_angle_alpha 90.000000
_cell_angle_beta 33.772268
_cell_angle_gamma 90.000000
_cell_volume 1578.241690
_symmetry_space_group_name_H-M "P 21/M"
_symmetry_group_IT_number 11
_symmetry_cell_setting 'monoclinic'
loop_
_space_group_symop_operation_xyz
x,y,z
-x,1/2+y,-z
-x,-y,-z
x,1/2-y,z
loop_
_atom_site_type_symbol
_atom_site_label
_atom_site_fract_x
_atom_site_fract_y
_atom_site_fract_z
Si Si1 0.081676 0.908439 0.708485
Si Si2 0.874840 0.423106 0.101883
Si Si3 0.390451 0.925101 0.043070
Si Si4 0.349753 0.331975 0.999740
Si Si5 0.090298 0.073362 0.645215
Si Si6 0.483706 0.047646 0.259193
Si Si7 0.184212 0.163039 0.765758
Si Si8 0.519210 0.117067 0.685152
O O1 0.119552 0.887803 0.794451
O O2 0.245455 0.868270 0.520155
O O3 0.113085 0.995794 0.684066
O O4 0.846570 0.886061 0.846670
O O5 0.632227 0.430869 0.245478
O O6 0.000000 0.500000 0.000000
O O7 0.967429 0.359578 0.968079
O O8 0.476394 0.856726 0.044370
O O9 0.142065 0.921045 0.235307
O O10 0.433176 0.915141 0.897966
O O11 0.500000 0.000000 0.000000
O O12 0.276370 0.250000 0.077821
O O13 0.444034 0.327491 0.822808
O O14 0.248644 0.076393 0.442186
O O15 0.164941 0.137099 0.666764
O O16 0.490873 0.959581 0.248693
O O17 0.221950 0.250000 0.742312
O O18 0.369190 0.121469 0.695373
#
# Coordination Sequence:
#
# PCOD8077758 Si02
#       8
#     4   4   4   4   4   4   4   4
#     4  11  22  39  70  99 126 163 215 266 318 386
#     4  12  19  38  67  96 128 167 210 258 318 386
#     4  12  23  43  66  94 124 166 220 274 311 373
#     4  12  26  43  63  93 132 173 211 267 336 385
#     4  11  23  42  68  96 124 168 218 268 314 377
#     4  11  22  40  70  98 122 163 223 270 312 372
#     4  12  24  39  63  97 137 173 205 257 332 393
#     4  11  22  40  66  98 130 162 209 269 325 383
#
# _framework density 20.275728000000001
#
# number of rings (size 3 to 8) (size 9 to 14) (size 15 to 20)
#    0.000    0.500    7.500    1.125    0.000    5.000 
#    0.000    2.500    0.000    0.000    0.000    0.000 
#    0.000    0.000    0.000    0.000    0.000    0.000 
#
# Total GULP energy -396807.555902 kJ/mol
# GULP energy per Si atom -12400.236122 kJ/mol
# Density = 2.022958 g / cm^3
# Si number density = 20.275728 Si / 1000 Ang^3
#
#
#
# Elastic Constant Matrix: (Units=GPa)
#
#
# Indices 1 2 3 4 5 6 
#
# 1 91.1583 15.8987 36.6739 0.0000 -20.8908 0.0000
# 2 15.8987 59.8480 27.6151 0.0000 3.5243 0.0000
# 3 36.6739 27.6151 136.7270 0.0000 -21.4147 0.0000
# 4 0.0000 0.0000 0.0000 14.9779 0.0000 3.0942
# 5 -20.8908 3.5243 -21.4147 0.0000 25.8217 0.0000
# 6 0.0000 0.0000 0.0000 3.0942 0.0000 20.9734
#
#
#
# Elastic Compliance Matrix: (Units=1/GPa)
#
#
# Indices 1 2 3 4 5 6 
#
# 1 0.014832 -0.003967 -0.001394 0.000000 0.011385 0.000000
# 2 -0.003967 0.020468 -0.004609 0.000000 -0.009825 0.000000
# 3 -0.001394 -0.004609 0.009815 0.000000 0.007642 0.000000
# 4 0.000000 0.000000 0.000000 0.068864 0.000000 -0.010159
# 5 0.011385 -0.009825 0.007642 0.000000 0.055617 0.000000
# 6 0.000000 0.000000 0.000000 -0.010159 0.000000 0.049178
#
#
# Mechanical properties :
#
#
# Convention : Reuss Voigt Hill
#
# Bulk Modulus (GPa) = 39.72135 49.78984 44.75560
# Shear Modulus (GPa) = 20.23429 26.19098 23.21263
#
# Velocity S-wave (km/s) = 3.16247 3.59798 3.38723
# Velocity P-wave (km/s) = 5.74178 6.47073 6.11712
#
# Compressibility (1/GPa) = 0.02517538
#
# Stress axis : x y z
#
# Youngs Moduli (GPa) = 67.42310 48.85656 101.88083
#
# Poissons Ratio (x) = 0.19383 0.14200
# Poissons Ratio (y) = 0.26749 0.46954
# Poissons Ratio (z) = 0.09397 0.22517
#
# Static dielectric constant tensor:
#      x y z
#    x 3.684200 0.000000 -0.070800 
#    y 0.000000 3.455000 0.000000 
#    z -0.070800 0.000000 3.865360 
# 
# 
# High freq. dielectric constant tensor:
#      x y z
#    x 1.793520 0.000000 -0.003210 
#    y 0.000000 1.765310 0.000000 
#    z -0.003210 0.000000 1.803540 
# 
# From -- ./inp_files/39999.got.cif
#   From: 2010.06.25/outbox.cif.g09.slc.cpg/sg11_20_cif.got.tgz:39999.got - 2010.06.27 23:14:04.
