data_PCOD8077061
_publ_section_title
;
Structure prediction by ZEFSAII (Michael W. Deem and Ramdas Pophale) SiO2 
 PCOD8077061
Probable space group: P 21/M
;
_chemical_formula_sum "Si O2"
_cell_formula_units_Z 28
_cell_length_a 14.984357
_cell_length_b 8.813184
_cell_length_c 21.714190
_cell_angle_alpha 90.000000
_cell_angle_beta 153.036751
_cell_angle_gamma 90.000000
_cell_volume 1300.212070
_symmetry_space_group_name_H-M "P 21/M"
_symmetry_group_IT_number 11
_symmetry_cell_setting 'monoclinic'
loop_
_space_group_symop_operation_xyz
x,y,z
-x,1/2+y,-z
-x,-y,-z
x,1/2-y,z
loop_
_atom_site_type_symbol
_atom_site_label
_atom_site_fract_x
_atom_site_fract_y
_atom_site_fract_z
Si Si1 0.063804 0.082458 0.978664
Si Si2 0.055632 0.923761 0.308259
Si Si3 0.697249 0.069754 0.150664
Si Si4 0.805980 0.930971 0.349888
Si Si5 0.443718 0.927503 0.210501
Si Si6 0.462718 0.578600 0.606436
Si Si7 0.279744 0.919749 0.328231
O O1 0.137147 0.250000 0.040395
O O2 0.248138 0.998074 0.059676
O O3 0.875437 0.086582 0.821160
O O4 0.000000 0.000000 0.000000
O O5 0.980914 0.750000 0.252654
O O6 0.225245 0.928588 0.464791
O O7 0.161251 0.990693 0.312569
O O8 0.875029 0.032006 0.213734
O O9 0.672815 0.250000 0.142231
O O10 0.754776 0.997580 0.251544
O O11 0.500000 0.000000 0.000000
O O12 0.828070 0.750000 0.357812
O O13 0.631046 0.981933 0.287301
O O14 0.000000 0.000000 0.500000
O O15 0.423164 0.750000 0.195693
O O16 0.453051 0.976633 0.287385
O O17 0.537616 0.750000 0.660743
O O18 0.536289 0.519759 0.583762
O O19 0.354077 0.750000 0.391198
#
# Coordination Sequence:
#
# PCOD8077061 Si02
#       7
#     4   4   4   4   4   4   4
#     4  11  22  37  59  89 124 164 207 255 313 375
#     4  10  23  43  65  93 127 165 212 264 319 383
#     4  12  27  47  71  99 133 176 223 280 340 399
#     4  11  25  46  72 103 135 173 223 279 337 399
#     4  11  24  40  62  91 127 165 209 260 313 379
#     4  11  22  37  62  94 129 167 208 257 312 376
#     4  10  22  39  61  89 126 167 207 256 314 377
#
# _framework density 21.534949000000001
#
# number of rings (size 3 to 8) (size 9 to 14) (size 15 to 20)
#    0.000    1.143    1.429    4.286    2.000    6.857 
#    0.000    0.000    0.000    0.000    0.000    0.000 
#    0.000    0.000    0.000    0.000    0.000    0.000 
#
# Total GULP energy -347183.766827 kJ/mol
# GULP energy per Si atom -12399.420244 kJ/mol
# Density = 2.148593 g / cm^3
# Si number density = 21.534949 Si / 1000 Ang^3
#
#
#
# Elastic Constant Matrix: (Units=GPa)
#
#
# Indices 1 2 3 4 5 6 
#
# 1 126.6586 51.4089 43.0458 0.0000 17.4213 0.0000
# 2 51.4089 102.2197 41.0585 0.0000 18.0274 0.0000
# 3 43.0458 41.0585 90.4777 0.0000 15.9918 0.0000
# 4 0.0000 0.0000 0.0000 34.6903 0.0000 6.4742
# 5 17.4213 18.0274 15.9918 0.0000 42.3443 0.0000
# 6 0.0000 0.0000 0.0000 6.4742 0.0000 35.0872
#
#
#
# Elastic Compliance Matrix: (Units=1/GPa)
#
#
# Indices 1 2 3 4 5 6 
#
# 1 0.010733 -0.003886 -0.003059 0.000000 -0.001606 0.000000
# 2 -0.003886 0.013806 -0.003922 0.000000 -0.002798 0.000000
# 3 -0.003059 -0.003922 0.014755 0.000000 -0.002644 0.000000
# 4 0.000000 0.000000 0.000000 0.029855 0.000000 -0.005509
# 5 -0.001606 -0.002798 -0.002644 0.000000 0.026466 0.000000
# 6 0.000000 0.000000 0.000000 -0.005509 0.000000 0.029517
#
#
# Mechanical properties :
#
#
# Convention : Reuss Voigt Hill
#
# Bulk Modulus (GPa) = 56.94686 65.59802 61.27244
# Shear Modulus (GPa) = 32.73997 34.68056 33.71026
#
# Velocity S-wave (km/s) = 3.90336 4.01737 3.96077
# Velocity P-wave (km/s) = 6.84224 7.21432 7.03074
#
# Compressibility (1/GPa) = 0.01756023
#
# Stress axis : x y z
#
# Youngs Moduli (GPa) = 93.17025 72.43313 67.77422
#
# Poissons Ratio (x) = 0.28147 0.20733
# Poissons Ratio (y) = 0.36205 0.26579
# Poissons Ratio (z) = 0.28501 0.28407
#
# Static dielectric constant tensor:
#      x y z
#    x 4.111440 0.000000 0.048590 
#    y 0.000000 4.312160 0.000000 
#    z 0.048590 0.000000 5.145220 
# 
# 
# High freq. dielectric constant tensor:
#      x y z
#    x 1.851940 0.000000 0.005420 
#    y 0.000000 1.847260 0.000000 
#    z 0.005420 0.000000 1.864180 
# 
# From -- ./inp_files/65429.got.cif
#   From: 2010.06.25/outbox.cif.g09.slc.cpg/sg11_33_cif.got.tgz:65429.got - 2010.06.27 23:14:04.
