data_PCOD8077687
_publ_section_title
;
Structure prediction by ZEFSAII (Michael W. Deem and Ramdas Pophale) SiO2 
 PCOD8077687
Probable space group: P 21/M
;
_chemical_formula_sum "Si O2"
_cell_formula_units_Z 28
_cell_length_a 11.357475
_cell_length_b 9.260323
_cell_length_c 20.961476
_cell_angle_alpha 90.000000
_cell_angle_beta 129.749054
_cell_angle_gamma 90.000000
_cell_volume 1695.011907
_symmetry_space_group_name_H-M "P 21/M"
_symmetry_group_IT_number 11
_symmetry_cell_setting 'monoclinic'
loop_
_space_group_symop_operation_xyz
x,y,z
-x,1/2+y,-z
-x,-y,-z
x,1/2-y,z
loop_
_atom_site_type_symbol
_atom_site_label
_atom_site_fract_x
_atom_site_fract_y
_atom_site_fract_z
Si Si1 0.970985 0.413901 0.404812
Si Si2 0.345683 0.079453 0.927865
Si Si3 0.524340 0.082728 0.272147
Si Si4 0.898534 0.917983 0.050671
Si Si5 0.241146 0.415111 0.576794
Si Si6 0.189632 0.080357 0.121666
Si Si7 0.737164 0.086779 0.224631
O O1 0.927236 0.250000 0.412825
O O2 0.883655 0.533732 0.415253
O O3 0.912386 0.429951 0.311445
O O4 0.155621 0.435467 0.477971
O O5 0.374727 0.250000 0.936968
O O6 0.218028 0.035298 0.934855
O O7 0.288205 0.028276 0.839270
O O8 0.500000 0.000000 0.000000
O O9 0.520795 0.250000 0.287265
O O10 0.352895 0.023132 0.203313
O O11 0.619989 0.051852 0.241257
O O12 0.602202 0.004833 0.360290
O O13 0.937424 0.750000 0.067230
O O14 0.822336 0.960640 0.956979
O O15 0.056733 0.003168 0.115878
O O16 0.283653 0.250000 0.604292
O O17 0.172858 0.250000 0.126050
O O18 0.708288 0.250000 0.189289
#
# Coordination Sequence:
#
# PCOD8077687 Si02
#       7
#     4   4   4   4   4   4   4
#     4   8  15  27  40  57  87 122 149 180 224 264
#     4  11  22  34  48  67  92 120 149 182 220 261
#     4   9  17  29  44  65  95 124 146 178 226 267
#     4   9  19  34  48  64  88 115 144 183 225 257
#     4   9  15  23  39  63  88 116 151 184 216 262
#     4   9  17  31  50  67  85 114 149 180 216 266
#     4   9  17  30  46  64  91 124 152 180 219 264
#
# _framework density 16.519058000000001
#
# number of rings (size 3 to 8) (size 9 to 14) (size 15 to 20)
#    0.000    2.857    0.000    2.571    0.000    6.857 
#    0.000    2.857    0.000    0.000    0.000    1.000 
#    0.000    0.000    0.000    0.000    0.000    0.000 
#
# Total GULP energy -346997.143307 kJ/mol
# GULP energy per Si atom -12392.755118 kJ/mol
# Density = 1.648146 g / cm^3
# Si number density = 16.519058 Si / 1000 Ang^3
#
#
#
# Elastic Constant Matrix: (Units=GPa)
#
#
# Indices 1 2 3 4 5 6 
#
# 1 75.4144 39.5281 56.6529 0.0000 18.5998 0.0000
# 2 39.5281 61.4695 53.3067 0.0000 10.9629 0.0000
# 3 56.6529 53.3067 140.2747 0.0000 31.5493 0.0000
# 4 0.0000 0.0000 0.0000 31.0412 0.0000 3.8410
# 5 18.5998 10.9629 31.5493 0.0000 26.6954 0.0000
# 6 0.0000 0.0000 0.0000 3.8410 0.0000 23.4329
#
#
#
# Elastic Compliance Matrix: (Units=1/GPa)
#
#
# Indices 1 2 3 4 5 6 
#
# 1 0.023451 -0.010430 -0.003808 0.000000 -0.007555 0.000000
# 2 -0.010430 0.028936 -0.007825 0.000000 0.004633 0.000000
# 3 -0.003808 -0.007825 0.014058 0.000000 -0.010747 0.000000
# 4 0.000000 0.000000 0.000000 0.032882 0.000000 -0.005390
# 5 -0.007555 0.004633 -0.010747 0.000000 0.053522 0.000000
# 6 0.000000 0.000000 0.000000 -0.005390 0.000000 0.043558
#
#
# Mechanical properties :
#
#
# Convention : Reuss Voigt Hill
#
# Bulk Modulus (GPa) = 44.80987 64.01489 54.41238
# Shear Modulus (GPa) = 20.16334 24.74530 22.45432
#
# Velocity S-wave (km/s) = 3.49751 3.87458 3.69087
# Velocity P-wave (km/s) = 6.59509 7.67156 7.15360
#
# Compressibility (1/GPa) = 0.02231651
#
# Stress axis : x y z
#
# Youngs Moduli (GPa) = 42.64125 34.55961 71.13488
#
# Poissons Ratio (x) = 0.36047 0.27091
# Poissons Ratio (y) = 0.44477 0.55666
# Poissons Ratio (z) = 0.16239 0.27044
#
# Static dielectric constant tensor:
#      x y z
#    x 2.813140 0.000000 0.268030 
#    y 0.000000 3.142650 0.000000 
#    z 0.268030 0.000000 3.517370 
# 
# 
# High freq. dielectric constant tensor:
#      x y z
#    x 1.584720 0.000000 0.025530 
#    y 0.000000 1.640580 0.000000 
#    z 0.025530 0.000000 1.648570 
# 
# From -- ./inp_files/42137.got.cif
#   From: 2010.06.25/outbox.cif.g09.slc.cpg/sg11_22_cif.got.tgz:42137.got - 2010.06.27 23:14:04.
