data_PCOD8077904
_publ_section_title
;
Structure prediction by ZEFSAII (Michael W. Deem and Ramdas Pophale) SiO2 
 PCOD8077904
Probable space group: P 21/M
;
_chemical_formula_sum "Si O2"
_cell_formula_units_Z 32
_cell_length_a 14.858773
_cell_length_b 22.435899
_cell_length_c 9.239208
_cell_angle_alpha 90.000000
_cell_angle_beta 29.736023
_cell_angle_gamma 90.000000
_cell_volume 1527.731232
_symmetry_space_group_name_H-M "P 21/M"
_symmetry_group_IT_number 11
_symmetry_cell_setting 'monoclinic'
loop_
_space_group_symop_operation_xyz
x,y,z
-x,1/2+y,-z
-x,-y,-z
x,1/2-y,z
loop_
_atom_site_type_symbol
_atom_site_label
_atom_site_fract_x
_atom_site_fract_y
_atom_site_fract_z
Si Si1 0.503289 0.907572 0.240835
Si Si2 0.912805 0.610419 0.024120
Si Si3 0.581589 0.818872 0.389781
Si Si4 0.974930 0.099366 0.809847
Si Si5 0.251721 0.680680 0.059674
Si Si6 0.304046 0.510432 0.707596
Si Si7 0.183845 0.479791 0.319979
Si Si8 0.256749 0.604237 0.337818
O O1 0.530635 0.856009 0.319099
O O2 0.336837 0.951696 0.515827
O O3 0.433901 0.879655 0.186902
O O4 0.688606 0.945661 0.973149
O O5 0.779770 0.664650 0.171994
O O6 0.801201 0.549301 0.182100
O O7 0.992078 0.620745 0.073002
O O8 0.069738 0.609647 0.686417
O O9 0.578824 0.750000 0.348961
O O10 0.438095 0.833020 0.715918
O O11 0.918425 0.156548 0.795002
O O12 0.150364 0.067753 0.495558
O O13 0.814737 0.050453 0.018661
O O14 0.219452 0.750000 0.128565
O O15 0.255522 0.650668 0.210117
O O16 0.500000 0.500000 0.500000
O O17 0.285759 0.537398 0.238843
O O18 0.000000 0.500000 0.500000
#
# Coordination Sequence:
#
# PCOD8077904 Si02
#       8
#     4   4   4   4   4   4   4   4
#     4  12  25  43  68 101 132 181 216 268 334 396
#     4  12  24  42  69 101 131 173 220 270 332 398
#     4  11  26  47  68  93 127 174 229 276 324 389
#     4  12  23  43  68  98 136 172 213 272 327 397
#     4  11  26  46  67  93 128 175 224 275 331 388
#     4  12  21  39  70  99 134 171 213 262 333 395
#     4  12  24  40  66 105 143 171 211 273 333 399
#     4  12  25  43  67 101 137 170 218 272 334 398
#
# _framework density 20.946093999999999
#
# number of rings (size 3 to 8) (size 9 to 14) (size 15 to 20)
#    0.000    0.250    6.250    3.000    3.500    1.500 
#    0.000    0.000    0.000    0.000    0.000    0.000 
#    0.000    0.000    0.000    0.000    0.000    0.000 
#
# Total GULP energy -396941.685939 kJ/mol
# GULP energy per Si atom -12404.427686 kJ/mol
# Density = 2.089842 g / cm^3
# Si number density = 20.946094 Si / 1000 Ang^3
#
#
#
# Elastic Constant Matrix: (Units=GPa)
#
#
# Indices 1 2 3 4 5 6 
#
# 1 154.0758 67.2466 37.9033 0.0000 5.7240 0.0000
# 2 67.2466 133.0690 66.5636 0.0000 10.7181 0.0000
# 3 37.9033 66.5636 98.4793 0.0000 10.9097 0.0000
# 4 0.0000 0.0000 0.0000 36.5025 0.0000 5.6957
# 5 5.7240 10.7181 10.9097 0.0000 34.3644 0.0000
# 6 0.0000 0.0000 0.0000 5.6957 0.0000 15.9390
#
#
#
# Elastic Compliance Matrix: (Units=1/GPa)
#
#
# Indices 1 2 3 4 5 6 
#
# 1 0.008346 -0.003945 -0.000547 0.000000 0.000014 0.000000
# 2 -0.003945 0.013262 -0.007318 0.000000 -0.001156 0.000000
# 3 -0.000547 -0.007318 0.015597 0.000000 -0.002578 0.000000
# 4 0.000000 0.000000 0.000000 0.029013 0.000000 -0.010368
# 5 0.000014 -0.001156 -0.002578 0.000000 0.030277 0.000000
# 6 0.000000 0.000000 0.000000 -0.010368 0.000000 0.066444
#
#
# Mechanical properties :
#
#
# Convention : Reuss Voigt Hill
#
# Bulk Modulus (GPa) = 73.61028 81.00566 77.30797
# Shear Modulus (GPa) = 26.16606 31.62188 28.89397
#
# Velocity S-wave (km/s) = 3.53825 3.88967 3.71812
# Velocity P-wave (km/s) = 7.20495 7.67659 7.44451
#
# Compressibility (1/GPa) = 0.01358506
#
# Stress axis : x y z
#
# Youngs Moduli (GPa) = 119.81347 75.40305 64.11610
#
# Poissons Ratio (x) = 0.29748 0.03509
# Poissons Ratio (y) = 0.47268 0.46917
# Poissons Ratio (z) = 0.06558 0.55176
#
# Static dielectric constant tensor:
#      x y z
#    x 3.212840 0.000000 0.848460 
#    y 0.000000 3.693010 0.000000 
#    z 0.848460 0.000000 3.192280 
# 
# 
# High freq. dielectric constant tensor:
#      x y z
#    x 1.830260 0.000000 0.005330 
#    y 0.000000 1.809100 0.000000 
#    z 0.005330 0.000000 1.835470 
# 
# From -- ./inp_files/23373.got.cif
#   From: 2010.06.25/outbox.cif.g09.slc.cpg/sg11_12_cif.got.tgz:23373.got - 2010.06.27 23:14:04.
