data_PCOD8077298
_publ_section_title
;
Structure prediction by ZEFSAII (Michael W. Deem and Ramdas Pophale) SiO2 
 PCOD8077298
Probable space group: P 21/M
;
_chemical_formula_sum "Si O2"
_cell_formula_units_Z 32
_cell_length_a 11.919044
_cell_length_b 8.834501
_cell_length_c 15.234057
_cell_angle_alpha 90.000000
_cell_angle_beta 89.517965
_cell_angle_gamma 90.000000
_cell_volume 1604.071245
_symmetry_space_group_name_H-M "P 21/M"
_symmetry_group_IT_number 11
_symmetry_cell_setting 'monoclinic'
loop_
_space_group_symop_operation_xyz
x,y,z
-x,1/2+y,-z
-x,-y,-z
x,1/2-y,z
loop_
_atom_site_type_symbol
_atom_site_label
_atom_site_fract_x
_atom_site_fract_y
_atom_site_fract_z
Si Si1 0.996249 0.072873 0.904759
Si Si2 0.248125 0.574073 0.156418
Si Si3 0.444970 0.572499 0.416871
Si Si4 0.458733 0.427442 0.088268
Si Si5 0.408948 0.074275 0.754990
Si Si6 0.850334 0.571109 0.255473
Si Si7 0.245056 0.075171 0.336326
Si Si8 0.996464 0.075038 0.405166
O O1 0.009573 0.250000 0.918495
O O2 0.878309 0.027932 0.863307
O O3 0.090955 0.013507 0.835699
O O4 0.000000 0.000000 0.000000
O O5 0.272575 0.750000 0.140726
O O6 0.329374 0.476353 0.095329
O O7 0.275569 0.532879 0.255666
O O8 0.500000 0.500000 0.500000
O O9 0.423594 0.750000 0.429863
O O10 0.526566 0.538729 0.334950
O O11 0.326732 0.484539 0.411563
O O12 0.467244 0.250000 0.080879
O O13 0.533786 0.480232 0.168795
O O14 0.500000 0.500000 0.000000
O O15 0.416467 0.250000 0.780115
O O16 0.279567 0.023480 0.746499
O O17 0.866732 0.750000 0.264480
O O18 0.904873 0.498256 0.341558
O O19 0.270237 0.250000 0.313509
O O20 0.117454 0.050940 0.362622
O O21 0.966052 0.250000 0.416908
O O22 0.000000 0.000000 0.500000
#
# Coordination Sequence:
#
# PCOD8077298 Si02
#       8
#     4   4   4   4   4   4   4   4
#     4  10  23  40  63  93 126 165 206 254 310 370
#     4  11  22  41  66  94 126 162 209 261 314 372
#     4  11  24  41  64  93 129 167 208 260 313 373
#     4  12  26  43  66  94 127 167 212 261 314 374
#     4  10  23  43  65  91 127 168 210 258 313 370
#     4  10  22  43  65  90 126 167 208 255 310 369
#     4  11  23  41  65  93 124 163 211 262 314 371
#     4  11  25  42  64  94 127 165 210 260 313 372
#
# _framework density 19.94924
#
# number of rings (size 3 to 8) (size 9 to 14) (size 15 to 20)
#    0.000    1.250    2.500    2.625    3.500    4.000 
#    0.000    0.000    0.000    0.000    0.000    0.000 
#    0.000    0.000    0.000    0.000    0.000    0.000 
#
# Total GULP energy -396894.766688 kJ/mol
# GULP energy per Si atom -12402.961459 kJ/mol
# Density = 1.990384 g / cm^3
# Si number density = 19.949240 Si / 1000 Ang^3
#
#
#
# Elastic Constant Matrix: (Units=GPa)
#
#
# Indices 1 2 3 4 5 6 
#
# 1 104.8559 57.1453 19.7422 0.0000 3.7101 0.0000
# 2 57.1453 100.8924 53.9192 0.0000 -0.8368 0.0000
# 3 19.7422 53.9192 99.6901 0.0000 -2.3026 0.0000
# 4 0.0000 0.0000 0.0000 41.7988 0.0000 3.0926
# 5 3.7101 -0.8368 -2.3026 0.0000 28.3210 0.0000
# 6 0.0000 0.0000 0.0000 3.0926 0.0000 32.9785
#
#
#
# Elastic Compliance Matrix: (Units=1/GPa)
#
#
# Indices 1 2 3 4 5 6 
#
# 1 0.014224 -0.009203 0.002116 0.000000 -0.001963 0.000000
# 2 -0.009203 0.019897 -0.008915 0.000000 0.001069 0.000000
# 3 0.002116 -0.008915 0.014448 0.000000 0.000634 0.000000
# 4 0.000000 0.000000 0.000000 0.024091 0.000000 -0.002259
# 5 -0.001963 0.001069 0.000634 0.000000 0.035650 0.000000
# 6 0.000000 0.000000 0.000000 -0.002259 0.000000 0.030535
#
#
# Mechanical properties :
#
#
# Convention : Reuss Voigt Hill
#
# Bulk Modulus (GPa) = 60.36831 63.00576 61.68703
# Shear Modulus (GPa) = 28.34935 32.26176 30.30556
#
# Velocity S-wave (km/s) = 3.77380 4.02580 3.90183
# Velocity P-wave (km/s) = 7.02250 7.29801 7.16158
#
# Compressibility (1/GPa) = 0.01656498
#
# Stress axis : x y z
#
# Youngs Moduli (GPa) = 70.30538 50.25837 69.21195
#
# Poissons Ratio (x) = 0.46253 -0.14642
# Poissons Ratio (y) = 0.64703 0.61699
# Poissons Ratio (z) = -0.14873 0.44803
#
# Static dielectric constant tensor:
#      x y z
#    x 3.096160 0.000000 -1.097210 
#    y 0.000000 3.707080 0.000000 
#    z -1.097210 0.000000 2.417500 
# 
# 
# High freq. dielectric constant tensor:
#      x y z
#    x 1.795610 0.000000 0.000520 
#    y 0.000000 1.781590 0.000000 
#    z 0.000520 0.000000 1.787310 
# 
# From -- ./inp_files/45210.got.cif
#   From: 2010.06.25/outbox.cif.g09.slc.cpg/sg11_23_cif.got.tgz:45210.got - 2010.06.27 23:14:04.
