data_PCOD8077486
_publ_section_title
;
Structure prediction by ZEFSAII (Michael W. Deem and Ramdas Pophale) SiO2 
 PCOD8077486
Probable space group: P 21/M
;
_chemical_formula_sum "Si O2"
_cell_formula_units_Z 32
_cell_length_a 11.691938
_cell_length_b 16.700286
_cell_length_c 14.463723
_cell_angle_alpha 90.000000
_cell_angle_beta 148.747791
_cell_angle_gamma 90.000000
_cell_volume 1465.195854
_symmetry_space_group_name_H-M "P 21/M"
_symmetry_group_IT_number 11
_symmetry_cell_setting 'monoclinic'
loop_
_space_group_symop_operation_xyz
x,y,z
-x,1/2+y,-z
-x,-y,-z
x,1/2-y,z
loop_
_atom_site_type_symbol
_atom_site_label
_atom_site_fract_x
_atom_site_fract_y
_atom_site_fract_z
Si Si1 0.704092 0.838790 0.114092
Si Si2 0.685797 0.110163 0.279996
Si Si3 0.941051 0.084586 0.158569
Si Si4 0.542318 0.342229 0.373194
Si Si5 0.574187 0.927393 0.199024
Si Si6 0.934950 0.592083 0.953443
Si Si7 0.081231 0.900529 0.247966
Si Si8 0.101842 0.344200 0.455534
O O1 0.715682 0.750000 0.165520
O O2 0.705920 0.902842 0.197728
O O3 0.913144 0.851138 0.194073
O O4 0.482819 0.843684 0.901747
O O5 0.690872 0.152067 0.383565
O O6 0.925439 0.112821 0.400069
O O7 0.610359 0.019804 0.243125
O O8 0.065124 0.133782 0.323531
O O9 0.993199 0.127589 0.096249
O O10 0.681417 0.089159 0.996032
O O11 0.029819 0.994338 0.220957
O O12 0.482669 0.250000 0.352502
O O13 0.324141 0.395131 0.209733
O O14 0.672779 0.380576 0.549325
O O15 0.660338 0.876973 0.346794
O O16 0.000000 0.500000 0.000000
O O17 0.060109 0.631190 0.127632
O O18 0.088216 0.250000 0.458836
#
# Coordination Sequence:
#
# PCOD8077486 Si02
#       8
#     4   4   4   4   4   4   4   4
#     4  12  22  38  68 100 136 173 214 274 339 392
#     4  12  22  42  68  96 133 175 220 270 335 401
#     4  11  24  44  67  93 129 176 225 268 321 400
#     4  12  25  42  69 104 136 168 216 279 341 390
#     4  12  24  43  67  97 132 179 225 267 323 404
#     4  10  24  45  69  95 129 174 223 270 322 392
#     4  11  23  43  70 100 131 170 220 275 338 395
#     4  12  26  41  62  95 133 174 220 274 333 392
#
# _framework density 21.840081999999999
#
# number of rings (size 3 to 8) (size 9 to 14) (size 15 to 20)
#    0.000    0.500    3.750    5.625    0.000    4.500 
#    0.000    0.000    0.000    0.000    0.000    0.000 
#    0.000    0.000    0.000    0.000    0.000    0.000 
#
# Total GULP energy -396953.391798 kJ/mol
# GULP energy per Si atom -12404.793494 kJ/mol
# Density = 2.179037 g / cm^3
# Si number density = 21.840082 Si / 1000 Ang^3
#
#
#
# Elastic Constant Matrix: (Units=GPa)
#
#
# Indices 1 2 3 4 5 6 
#
# 1 110.3135 29.4160 29.8167 0.0000 -28.9378 0.0000
# 2 29.4160 71.6608 44.4913 0.0000 -3.2789 0.0000
# 3 29.8167 44.4913 129.0232 0.0000 -31.7476 0.0000
# 4 0.0000 0.0000 0.0000 26.8862 0.0000 1.2505
# 5 -28.9378 -3.2789 -31.7476 0.0000 32.2763 0.0000
# 6 0.0000 0.0000 0.0000 1.2505 0.0000 4.5287
#
#
#
# Elastic Compliance Matrix: (Units=1/GPa)
#
#
# Indices 1 2 3 4 5 6 
#
# 1 0.013908 -0.006682 0.002627 0.000000 0.014374 0.000000
# 2 -0.006682 0.021759 -0.009089 0.000000 -0.012721 0.000000
# 3 0.002627 -0.009089 0.014024 0.000000 0.015227 0.000000
# 4 0.000000 0.000000 0.000000 0.037678 0.000000 -0.010404
# 5 0.014374 -0.012721 0.015227 0.000000 0.057555 0.000000
# 6 0.000000 0.000000 0.000000 -0.010404 0.000000 0.223687
#
#
# Mechanical properties :
#
#
# Convention : Reuss Voigt Hill
#
# Bulk Modulus (GPa) = 42.73046 57.60505 50.16775
# Shear Modulus (GPa) = 12.41622 26.55648 19.48635
#
# Velocity S-wave (km/s) = 2.38692 3.49083 2.99026
# Velocity P-wave (km/s) = 5.21576 6.53307 5.91122
#
# Compressibility (1/GPa) = 0.02340251
#
# Stress axis : x y z
#
# Youngs Moduli (GPa) = 71.90311 45.95905 71.30530
#
# Poissons Ratio (x) = 0.30712 -0.18734
# Poissons Ratio (y) = 0.48048 0.64808
# Poissons Ratio (z) = -0.18891 0.41771
#
# Static dielectric constant tensor:
#      x y z
#    x 4.301570 0.000000 -0.373940 
#    y 0.000000 3.816230 0.000000 
#    z -0.373940 0.000000 4.323480 
# 
# 
# High freq. dielectric constant tensor:
#      x y z
#    x 1.856110 0.000000 -0.015540 
#    y 0.000000 1.853040 0.000000 
#    z -0.015540 0.000000 1.874020 
# 
# From -- ./inp_files/50689.got.cif
#   From: 2010.06.25/outbox.cif.g09.slc.cpg/sg11_26_cif.got.tgz:50689.got - 2010.06.27 23:14:04.
