data_PCOD8077507
_publ_section_title
;
Structure prediction by ZEFSAII (Michael W. Deem and Ramdas Pophale) SiO2 
 PCOD8077507
Probable space group: P 21/M
;
_chemical_formula_sum "Si O2"
_cell_formula_units_Z 24
_cell_length_a 11.141115
_cell_length_b 16.621261
_cell_length_c 8.773797
_cell_angle_alpha 90.000000
_cell_angle_beta 61.353066
_cell_angle_gamma 90.000000
_cell_volume 1425.844454
_symmetry_space_group_name_H-M "P 21/M"
_symmetry_group_IT_number 11
_symmetry_cell_setting 'monoclinic'
loop_
_space_group_symop_operation_xyz
x,y,z
-x,1/2+y,-z
-x,-y,-z
x,1/2-y,z
loop_
_atom_site_type_symbol
_atom_site_label
_atom_site_fract_x
_atom_site_fract_y
_atom_site_fract_z
Si Si1 0.892874 0.840533 0.297025
Si Si2 0.795997 0.341040 0.989045
Si Si3 0.167517 0.421117 0.951615
Si Si4 0.878648 0.077964 0.217720
Si Si5 0.658958 0.009273 0.927862
Si Si6 0.849534 0.988694 0.527007
O O1 0.871508 0.750000 0.369251
O O2 0.808033 0.851397 0.189561
O O3 0.837737 0.900429 0.459435
O O4 0.052354 0.859482 0.167094
O O5 0.749862 0.250000 0.981284
O O6 0.796734 0.353172 0.173528
O O7 0.691191 0.401719 0.971982
O O8 0.130176 0.499372 0.879260
O O9 0.296993 0.439174 0.980190
O O10 0.038737 0.398252 0.137997
O O11 0.818779 0.059286 0.421457
O O12 0.734394 0.996331 0.723015
O O13 0.500000 0.000000 0.000000
O O14 0.000000 0.000000 0.500000
#
# Coordination Sequence:
#
# PCOD8077507 Si02
#       6
#     4   4   4   4   4   4
#     4   9  17  31  54  79  99 130 175 224 264 293
#     4   9  17  33  53  75 102 134 174 217 259 304
#     4   8  14  29  48  69  97 128 163 202 243 305
#     4   8  14  27  51  72  90 125 167 206 251 289
#     4  11  21  33  51  77 107 144 172 200 259 322
#     4  11  17  31  53  77 105 131 169 219 257 299
#
# _framework density 16.832129999999999
#
# number of rings (size 3 to 8) (size 9 to 14) (size 15 to 20)
#    0.000    2.667    3.333    2.000    0.000    0.000 
#    0.000   11.667    0.000    0.000    0.000    0.000 
#    0.000    0.000    0.000    0.000    0.000    0.000 
#
# Total GULP energy -297380.268929 kJ/mol
# GULP energy per Si atom -12390.844539 kJ/mol
# Density = 1.679382 g / cm^3
# Si number density = 16.832130 Si / 1000 Ang^3
#
#
#
# Elastic Constant Matrix: (Units=GPa)
#
#
# Indices 1 2 3 4 5 6 
#
# 1 115.8423 44.5131 60.6614 0.0000 0.5018 0.0000
# 2 44.5131 91.2862 36.2747 0.0000 5.4121 0.0000
# 3 60.6614 36.2747 100.4042 0.0000 7.4660 0.0000
# 4 0.0000 0.0000 0.0000 16.1173 0.0000 5.0003
# 5 0.5018 5.4121 7.4660 0.0000 21.6552 0.0000
# 6 0.0000 0.0000 0.0000 5.0003 0.0000 20.5373
#
#
#
# Elastic Compliance Matrix: (Units=1/GPa)
#
#
# Indices 1 2 3 4 5 6 
#
# 1 0.013973 -0.004149 -0.007180 0.000000 0.003189 0.000000
# 2 -0.004149 0.014080 -0.002387 0.000000 -0.002600 0.000000
# 3 -0.007180 -0.002387 0.015501 0.000000 -0.004581 0.000000
# 4 0.000000 0.000000 0.000000 0.067115 0.000000 -0.016341
# 5 0.003189 -0.002600 -0.004581 0.000000 0.048334 0.000000
# 6 0.000000 0.000000 0.000000 -0.016341 0.000000 0.052670
#
#
# Mechanical properties :
#
#
# Convention : Reuss Voigt Hill
#
# Bulk Modulus (GPa) = 62.02845 65.60345 63.81595
# Shear Modulus (GPa) = 20.45165 22.73420 21.59292
#
# Velocity S-wave (km/s) = 3.48952 3.67910 3.58556
# Velocity P-wave (km/s) = 7.29156 7.55694 7.42544
#
# Compressibility (1/GPa) = 0.01612164
#
# Stress axis : x y z
#
# Youngs Moduli (GPa) = 71.56719 71.02029 64.51322
#
# Poissons Ratio (x) = 0.29469 0.46321
# Poissons Ratio (y) = 0.29696 0.15398
# Poissons Ratio (z) = 0.51385 0.16951
#
# Static dielectric constant tensor:
#      x y z
#    x 3.166100 0.000000 0.029130 
#    y 0.000000 3.907130 0.000000 
#    z 0.029130 0.000000 4.646520 
# 
# 
# High freq. dielectric constant tensor:
#      x y z
#    x 1.627980 0.000000 0.028120 
#    y 0.000000 1.635650 0.000000 
#    z 0.028120 0.000000 1.629910 
# 
# From -- ./inp_files/13279.got.cif
#   From: 2010.06.25/outbox.cif.g09.slc.cpg/sg11_7_cif.got.tgz:13279.got - 2010.06.27 23:14:04.
