data_PCOD8077575
_publ_section_title
;
Structure prediction by ZEFSAII (Michael W. Deem and Ramdas Pophale) SiO2 
 PCOD8077575
Probable space group: P 21/M
;
_chemical_formula_sum "Si O2"
_cell_formula_units_Z 28
_cell_length_a 23.055432
_cell_length_b 13.266137
_cell_length_c 9.410648
_cell_angle_alpha 90.000000
_cell_angle_beta 151.756695
_cell_angle_gamma 90.000000
_cell_volume 1362.063526
_symmetry_space_group_name_H-M "P 21/M"
_symmetry_group_IT_number 11
_symmetry_cell_setting 'monoclinic'
loop_
_space_group_symop_operation_xyz
x,y,z
-x,1/2+y,-z
-x,-y,-z
x,1/2-y,z
loop_
_atom_site_type_symbol
_atom_site_label
_atom_site_fract_x
_atom_site_fract_y
_atom_site_fract_z
Si Si1 0.098397 0.475288 0.087778
Si Si2 0.517833 0.499808 0.844991
Si Si3 0.699038 0.362242 0.123188
Si Si4 0.144424 0.864147 0.964296
Si Si5 0.052725 0.629892 0.471979
Si Si6 0.411881 0.859492 0.411542
Si Si7 0.649593 0.628151 0.347317
O O1 0.215038 0.413870 0.401788
O O2 0.132112 0.581202 0.089039
O O3 0.000000 0.500000 0.000000
O O4 0.056794 0.409425 0.861280
O O5 0.501693 0.552359 0.657088
O O6 0.397893 0.428975 0.612886
O O7 0.640903 0.432175 0.118562
O O8 0.543032 0.591876 0.008122
O O9 0.718129 0.250000 0.225721
O O10 0.825733 0.410231 0.345075
O O11 0.600370 0.362603 0.783622
O O12 0.107936 0.750000 0.918902
O O13 0.054632 0.905762 0.642481
O O14 0.281546 0.873847 0.205172
O O15 0.055049 0.750000 0.478580
O O16 0.465977 0.750000 0.570833
O O17 0.651008 0.750000 0.364069
#
# Coordination Sequence:
#
# PCOD8077575 Si02
#       7
#     4   4   4   4   4   4   4
#     4  12  23  38  58  85 116 156 191 241 298 345
#     4  11  20  37  57  80 113 155 186 226 284 343
#     4   9  18  33  57  88 110 137 184 233 279 335
#     4   9  19  37  59  85 109 145 195 238 283 346
#     4   9  19  37  60  82 113 149 190 238 285 340
#     4   9  17  33  58  84 111 140 181 232 280 336
#     4  11  25  39  54  80 116 154 194 236 283 342
#
# _framework density 20.557043
#
# number of rings (size 3 to 8) (size 9 to 14) (size 15 to 20)
#    0.000    2.000    1.429    4.714    0.000    1.143 
#    0.000    0.714    0.000    0.000    0.000    0.000 
#    0.000    0.000    0.000    0.000    0.000    0.000 
#
# Total GULP energy -346871.653100 kJ/mol
# GULP energy per Si atom -12388.273325 kJ/mol
# Density = 2.051025 g / cm^3
# Si number density = 20.557043 Si / 1000 Ang^3
#
#
#
# Elastic Constant Matrix: (Units=GPa)
#
#
# Indices 1 2 3 4 5 6 
#
# 1 51.0719 28.4418 0.9684 0.0000 5.4867 0.0000
# 2 28.4418 98.9057 33.9872 0.0000 3.7751 0.0000
# 3 0.9684 33.9872 60.5342 0.0000 2.5158 0.0000
# 4 0.0000 0.0000 0.0000 31.1677 0.0000 -4.1866
# 5 5.4867 3.7751 2.5158 0.0000 25.1892 0.0000
# 6 0.0000 0.0000 0.0000 -4.1866 0.0000 23.7834
#
#
#
# Elastic Compliance Matrix: (Units=1/GPa)
#
#
# Indices 1 2 3 4 5 6 
#
# 1 0.024720 -0.008505 0.004569 0.000000 -0.004566 0.000000
# 2 -0.008505 0.015488 -0.008576 0.000000 0.000388 0.000000
# 3 0.004569 -0.008576 0.021338 0.000000 -0.001841 0.000000
# 4 0.000000 0.000000 0.000000 0.032862 0.000000 0.005785
# 5 -0.004566 0.000388 -0.001841 0.000000 0.040820 0.000000
# 6 0.000000 0.000000 0.000000 0.005785 0.000000 0.043064
#
#
# Mechanical properties :
#
#
# Convention : Reuss Voigt Hill
#
# Bulk Modulus (GPa) = 27.37924 37.47850 32.42887
# Shear Modulus (GPa) = 23.20288 25.83569 24.51929
#
# Velocity S-wave (km/s) = 3.36327 3.54896 3.45736
# Velocity P-wave (km/s) = 5.33195 5.92153 5.63446
#
# Compressibility (1/GPa) = 0.03652403
#
# Stress axis : x y z
#
# Youngs Moduli (GPa) = 40.45250 64.56407 46.86449
#
# Poissons Ratio (x) = 0.54909 -0.21413
# Poissons Ratio (y) = 0.34403 0.40192
# Poissons Ratio (z) = -0.18484 0.55371
#
# Static dielectric constant tensor:
#      x y z
#    x 3.636980 0.000000 -0.082450 
#    y 0.000000 3.795460 0.000000 
#    z -0.082450 0.000000 3.629480 
# 
# 
# High freq. dielectric constant tensor:
#      x y z
#    x 1.791040 0.000000 -0.007950 
#    y 0.000000 1.810510 0.000000 
#    z -0.007950 0.000000 1.793180 
# 
# From -- ./inp_files/26927.got.cif
#   From: 2010.06.25/outbox.cif.g09.slc.cpg/sg11_14_cif.got.tgz:26927.got - 2010.06.27 23:14:04.
