data_PCOD8077051
_publ_section_title
;
Structure prediction by ZEFSAII (Michael W. Deem and Ramdas Pophale) SiO2 
 PCOD8077051
Probable space group: P 21/M
;
_chemical_formula_sum "Si O2"
_cell_formula_units_Z 32
_cell_length_a 18.873988
_cell_length_b 14.094991
_cell_length_c 12.497191
_cell_angle_alpha 90.000000
_cell_angle_beta 152.325494
_cell_angle_gamma 90.000000
_cell_volume 1544.109231
_symmetry_space_group_name_H-M "P 21/M"
_symmetry_group_IT_number 11
_symmetry_cell_setting 'monoclinic'
loop_
_space_group_symop_operation_xyz
x,y,z
-x,1/2+y,-z
-x,-y,-z
x,1/2-y,z
loop_
_atom_site_type_symbol
_atom_site_label
_atom_site_fract_x
_atom_site_fract_y
_atom_site_fract_z
Si Si1 0.723469 0.514540 0.852319
Si Si2 0.451166 0.101233 0.971753
Si Si3 0.222396 0.853213 0.535936
Si Si4 0.894535 0.138637 0.391049
Si Si5 0.782734 0.947762 0.161408
Si Si6 0.473351 0.136020 0.564164
Si Si7 0.046732 0.006090 0.184394
Si Si8 0.315810 0.353957 0.567244
O O1 0.666000 0.591412 0.689523
O O2 0.625920 0.417066 0.727261
O O3 0.714328 0.569705 0.952778
O O4 0.897962 0.487043 0.059727
O O5 0.325711 0.093672 0.894099
O O6 0.391735 0.153020 0.785784
O O7 0.594319 0.152619 0.218177
O O8 0.500000 0.000000 0.000000
O O9 0.154099 0.750000 0.423579
O O10 0.167827 0.891310 0.576972
O O11 0.153253 0.915923 0.349777
O O12 0.858440 0.250000 0.313446
O O13 0.072371 0.118819 0.626669
O O14 0.812619 0.062251 0.204186
O O15 0.489832 0.250000 0.568654
O O16 0.436875 0.108246 0.639793
O O17 0.154784 0.093850 0.355461
O O18 0.000000 0.000000 0.000000
O O19 0.270916 0.250000 0.468511
#
# Coordination Sequence:
#
# PCOD8077051 Si02
#       8
#     4   4   4   4   4   4   4   4
#     4  11  24  43  66  95 131 172 218 267 329 389
#     4  12  22  41  67  95 134 172 216 274 330 388
#     4  11  24  43  67  96 129 172 219 269 327 393
#     4  10  22  39  60  92 128 166 210 257 324 394
#     4  11  23  40  63  93 130 170 207 267 325 382
#     4  10  24  45  68  93 126 174 222 269 324 390
#     4  12  24  43  68  96 133 173 218 275 327 387
#     4  11  24  43  68  98 132 175 223 273 331 391
#
# _framework density 20.723922999999999
#
# number of rings (size 3 to 8) (size 9 to 14) (size 15 to 20)
#    0.000    1.000    5.000    1.125    1.750    3.500 
#    0.000    1.250    0.000    0.000    0.000    0.000 
#    0.000    0.000    0.000    0.000    0.000    0.000 
#
# Total GULP energy -396677.789456 kJ/mol
# GULP energy per Si atom -12396.180920 kJ/mol
# Density = 2.067675 g / cm^3
# Si number density = 20.723923 Si / 1000 Ang^3
#
#
#
# Elastic Constant Matrix: (Units=GPa)
#
#
# Indices 1 2 3 4 5 6 
#
# 1 207.7215 25.9964 63.3531 0.0000 3.2902 0.0000
# 2 25.9964 86.1304 31.2086 0.0000 1.9857 0.0000
# 3 63.3531 31.2086 125.3675 0.0000 2.3431 0.0000
# 4 0.0000 0.0000 0.0000 -23.4173 0.0000 0.9531
# 5 3.2902 1.9857 2.3431 0.0000 42.3514 0.0000
# 6 0.0000 0.0000 0.0000 0.9531 0.0000 26.7642
#
#
#
# Elastic Compliance Matrix: (Units=1/GPa)
#
#
# Indices 1 2 3 4 5 6 
#
# 1 0.005738 -0.000744 -0.002709 0.000000 -0.000261 0.000000
# 2 -0.000744 0.012865 -0.002819 0.000000 -0.000389 0.000000
# 3 -0.002709 -0.002819 0.010052 0.000000 -0.000213 0.000000
# 4 0.000000 0.000000 0.000000 -0.042642 0.000000 0.001518
# 5 -0.000261 -0.000389 -0.000213 0.000000 0.023662 0.000000
# 6 0.000000 0.000000 0.000000 0.001518 0.000000 0.037309
#
#
# Mechanical properties :
#
#
# Convention : Reuss Voigt Hill
#
# Bulk Modulus (GPa) = 62.07706 73.37063 67.72384
# Shear Modulus (GPa) = 77.04143 29.05040 53.04592
#
# Velocity S-wave (km/s) = 6.10375 3.74810 5.06478
# Velocity P-wave (km/s) = 8.92714 7.36286 8.18246
#
# Compressibility (1/GPa) = 0.01610901
#
# Stress axis : x y z
#
# Youngs Moduli (GPa) = 174.28486 77.72762 99.48706
#
# Poissons Ratio (x) = 0.05783 0.26955
# Poissons Ratio (y) = 0.12968 0.28049
# Poissons Ratio (z) = 0.47221 0.21915
#
# Static dielectric constant tensor:
#      x y z
#    x 3.926720 0.000000 -0.061240 
#    y 0.000000 3.660830 0.000000 
#    z -0.061240 0.000000 3.426650 
# 
# 
# High freq. dielectric constant tensor:
#      x y z
#    x 1.819810 0.000000 0.005210 
#    y 0.000000 1.811380 0.000000 
#    z 0.005210 0.000000 1.816560 
# 
# From -- ./inp_files/41716.got.cif
#   From: 2010.06.25/outbox.cif.g09.slc.cpg/sg11_21_cif.got.tgz:41716.got - 2010.06.27 23:14:04.
