data_PCOD8077243
_publ_section_title
;
Structure prediction by ZEFSAII (Michael W. Deem and Ramdas Pophale) SiO2 
 PCOD8077243
Probable space group: P 21/M
;
_chemical_formula_sum "Si O2"
_cell_formula_units_Z 32
_cell_length_a 5.314651
_cell_length_b 13.582224
_cell_length_c 18.623154
_cell_angle_alpha 90.000000
_cell_angle_beta 89.502550
_cell_angle_gamma 90.000000
_cell_volume 1344.257615
_symmetry_space_group_name_H-M "P 21/M"
_symmetry_group_IT_number 11
_symmetry_cell_setting 'monoclinic'
loop_
_space_group_symop_operation_xyz
x,y,z
-x,1/2+y,-z
-x,-y,-z
x,1/2-y,z
loop_
_atom_site_type_symbol
_atom_site_label
_atom_site_fract_x
_atom_site_fract_y
_atom_site_fract_z
Si Si1 0.569467 0.994506 0.802031
Si Si2 0.907202 0.642083 0.874138
Si Si3 0.167325 0.635769 0.014400
Si Si4 0.599772 0.634057 0.550701
Si Si5 0.173536 0.006493 0.339062
Si Si6 0.665969 0.633196 0.092561
Si Si7 0.803092 0.141925 0.271577
Si Si8 0.100275 0.865537 0.465745
O O1 0.703837 0.945798 0.871670
O O2 0.754083 0.037836 0.739815
O O3 0.443333 0.905461 0.760217
O O4 0.382252 0.079557 0.830684
O O5 0.794274 0.750000 0.898968
O O6 0.004128 0.653765 0.794018
O O7 0.126536 0.611750 0.930079
O O8 0.155172 0.750000 0.030243
O O9 0.928083 0.591708 0.059498
O O10 0.440487 0.599492 0.039549
O O11 0.606500 0.750000 0.566496
O O12 0.603023 0.573513 0.625708
O O13 0.353247 0.603657 0.507062
O O14 0.852560 0.598269 0.508733
O O15 0.928130 0.076351 0.333388
O O16 0.102896 0.913588 0.387462
O O17 0.669812 0.750000 0.106067
O O18 0.740595 0.250000 0.304300
O O19 0.087739 0.750000 0.452922
#
# Coordination Sequence:
#
# PCOD8077243 Si02
#       8
#     4   4   4   4   4   4   4   4
#     4  11  25  38  61  89 125 168 210 252 308 374
#     4   9  20  39  60  88 122 159 206 264 320 372
#     4   9  20  39  65  89 118 162 208 262 322 368
#     4  10  22  41  67  97 127 164 206 258 310 358
#     4  11  24  40  63  92 127 168 211 248 308 371
#     4  10  23  42  62  89 124 161 210 263 312 370
#     4  10  23  41  60  88 126 164 210 258 310 374
#     4  10  23  42  67  98 130 162 207 258 306 360
#
# _framework density 23.804957999999999
#
# number of rings (size 3 to 8) (size 9 to 14) (size 15 to 20)
#    0.000    2.000    0.000    1.500    8.750    3.000 
#    0.000    0.625    0.000    0.000    0.000    0.000 
#    0.000    0.000    0.000    0.000    0.000    0.000 
#
# Total GULP energy -396703.496465 kJ/mol
# GULP energy per Si atom -12396.984265 kJ/mol
# Density = 2.375078 g / cm^3
# Si number density = 23.804958 Si / 1000 Ang^3
#
#
#
# Elastic Constant Matrix: (Units=GPa)
#
#
# Indices 1 2 3 4 5 6 
#
# 1 93.0893 8.7039 5.0402 0.0000 8.9436 0.0000
# 2 8.7039 38.8072 16.4853 0.0000 7.8876 0.0000
# 3 5.0402 16.4853 73.5647 0.0000 6.9625 0.0000
# 4 0.0000 0.0000 0.0000 29.6266 0.0000 2.6126
# 5 8.9436 7.8876 6.9625 0.0000 24.1647 0.0000
# 6 0.0000 0.0000 0.0000 2.6126 0.0000 25.7905
#
#
#
# Elastic Compliance Matrix: (Units=1/GPa)
#
#
# Indices 1 2 3 4 5 6 
#
# 1 0.011254 -0.001784 -0.000033 0.000000 -0.003574 0.000000
# 2 -0.001784 0.030214 -0.005940 0.000000 -0.007491 0.000000
# 3 -0.000033 -0.005940 0.015155 0.000000 -0.002416 0.000000
# 4 0.000000 0.000000 0.000000 0.034058 0.000000 -0.003450
# 5 -0.003574 -0.007491 -0.002416 0.000000 0.045846 0.000000
# 6 0.000000 0.000000 0.000000 -0.003450 0.000000 0.039123
#
#
# Mechanical properties :
#
#
# Convention : Reuss Voigt Hill
#
# Bulk Modulus (GPa) = 24.32452 29.54667 26.93560
# Shear Modulus (GPa) = 24.40596 27.59847 26.00222
#
# Velocity S-wave (km/s) = 3.20542 3.40863 3.30859
# Velocity P-wave (km/s) = 4.89286 5.28494 5.09267
#
# Compressibility (1/GPa) = 0.04111078
#
# Stress axis : x y z
#
# Youngs Moduli (GPa) = 88.85509 33.09710 65.98313
#
# Poissons Ratio (x) = 0.05904 0.00219
# Poissons Ratio (y) = 0.15850 0.39191
# Poissons Ratio (z) = 0.00294 0.19658
#
# Static dielectric constant tensor:
#      x y z
#    x 4.361910 0.000000 0.031150 
#    y 0.000000 4.359000 0.000000 
#    z 0.031150 0.000000 4.302170 
# 
# 
# High freq. dielectric constant tensor:
#      x y z
#    x 1.943950 0.000000 0.000040 
#    y 0.000000 1.945470 0.000000 
#    z 0.000040 0.000000 1.940280 
# 
# From -- ./inp_files/8090.got.cif
#   From: 2010.06.25/outbox.cif.g09.slc.cpg/sg11_5_cif.got.tgz:8090.got - 2010.06.27 23:14:04.
