data_PCOD8077067
_publ_section_title
;
Structure prediction by ZEFSAII (Michael W. Deem and Ramdas Pophale) SiO2 
 PCOD8077067
Probable space group: P 21/M
;
_chemical_formula_sum "Si O2"
_cell_formula_units_Z 32
_cell_length_a 12.742916
_cell_length_b 13.513047
_cell_length_c 9.058181
_cell_angle_alpha 90.000000
_cell_angle_beta 90.091937
_cell_angle_gamma 90.000000
_cell_volume 1559.777111
_symmetry_space_group_name_H-M "P 21/M"
_symmetry_group_IT_number 11
_symmetry_cell_setting 'monoclinic'
loop_
_space_group_symop_operation_xyz
x,y,z
-x,1/2+y,-z
-x,-y,-z
x,1/2-y,z
loop_
_atom_site_type_symbol
_atom_site_label
_atom_site_fract_x
_atom_site_fract_y
_atom_site_fract_z
Si Si1 0.713658 0.139360 0.923389
Si Si2 0.111933 0.984623 0.186772
Si Si3 0.230661 0.044354 0.465866
Si Si4 0.585342 0.637017 0.378121
Si Si5 0.390022 0.475631 0.924024
Si Si6 0.916525 0.636105 0.300473
Si Si7 0.647656 0.360778 0.596392
Si Si8 0.195933 0.140295 0.996164
O O1 0.710923 0.250000 0.979385
O O2 0.645620 0.122290 0.774106
O O3 0.832472 0.109966 0.885761
O O4 0.671748 0.079230 0.064916
O O5 0.188017 0.043461 0.300133
O O6 0.102503 0.071104 0.063698
O O7 0.007869 0.939988 0.255714
O O8 0.328223 0.118260 0.494308
O O9 0.132966 0.079260 0.562215
O O10 0.274283 0.932623 0.494029
O O11 0.595407 0.750000 0.319682
O O12 0.599663 0.561010 0.242912
O O13 0.472240 0.620904 0.454346
O O14 0.500000 0.500000 0.000000
O O15 0.315303 0.399881 0.017610
O O16 0.954377 0.750000 0.337492
O O17 0.826412 0.643029 0.178222
O O18 0.686345 0.250000 0.560446
O O19 0.188180 0.250000 0.064935
#
# Coordination Sequence:
#
# PCOD8077067 Si02
#       8
#     4   4   4   4   4   4   4   4
#     4   9  18  34  56  83 116 157 200 244 300 360
#     4  10  22  39  62  90 119 157 206 256 303 356
#     4  11  22  38  61  90 124 160 203 254 304 365
#     4  11  21  37  61  87 122 166 207 246 302 370
#     4  11  20  33  59  89 120 157 202 248 293 357
#     4  11  22  40  66  90 116 159 207 253 311 371
#     4   9  19  36  58  82 117 163 204 244 299 361
#     4  10  22  40  62  90 125 159 202 254 307 361
#
# _framework density 20.515751000000002
#
# number of rings (size 3 to 8) (size 9 to 14) (size 15 to 20)
#    0.000    1.750    2.500    2.250    0.000    2.000 
#    0.000    1.250    0.000    0.000    0.000    0.000 
#    0.000    0.000    0.000    0.000    0.000    0.000 
#
# Total GULP energy -396443.190497 kJ/mol
# GULP energy per Si atom -12388.849703 kJ/mol
# Density = 2.046906 g / cm^3
# Si number density = 20.515751 Si / 1000 Ang^3
#
#
#
# Elastic Constant Matrix: (Units=GPa)
#
#
# Indices 1 2 3 4 5 6 
#
# 1 65.5394 36.9433 4.5427 0.0000 -6.5625 0.0000
# 2 36.9433 144.4169 38.1876 0.0000 -15.1956 0.0000
# 3 4.5427 38.1876 43.4303 0.0000 -3.8927 0.0000
# 4 0.0000 0.0000 0.0000 31.1238 0.0000 -3.6906
# 5 -6.5625 -15.1956 -3.8927 0.0000 27.7571 0.0000
# 6 0.0000 0.0000 0.0000 -3.6906 0.0000 30.4775
#
#
#
# Elastic Compliance Matrix: (Units=1/GPa)
#
#
# Indices 1 2 3 4 5 6 
#
# 1 0.018182 -0.005209 0.002844 0.000000 0.001846 0.000000
# 2 -0.005209 0.010946 -0.008763 0.000000 0.003532 0.000000
# 3 0.002844 -0.008763 0.030446 0.000000 0.000145 0.000000
# 4 0.000000 0.000000 0.000000 0.032598 0.000000 0.003947
# 5 0.001846 0.003532 0.000145 0.000000 0.038417 0.000000
# 6 0.000000 0.000000 0.000000 0.003947 0.000000 0.033289
#
#
# Mechanical properties :
#
#
# Convention : Reuss Voigt Hill
#
# Bulk Modulus (GPa) = 26.79711 45.85930 36.32821
# Shear Modulus (GPa) = 25.17970 29.45254 27.31612
#
# Velocity S-wave (km/s) = 3.50713 3.79305 3.65289
# Velocity P-wave (km/s) = 5.43048 6.44862 5.96132
#
# Compressibility (1/GPa) = 0.03731745
#
# Stress axis : x y z
#
# Youngs Moduli (GPa) = 54.99994 91.36074 32.84497
#
# Poissons Ratio (x) = 0.47588 -0.09340
# Poissons Ratio (y) = 0.28648 0.28782
# Poissons Ratio (z) = -0.15640 0.80059
#
# Static dielectric constant tensor:
#      x y z
#    x 3.789630 0.000000 0.029730 
#    y 0.000000 3.917690 0.000000 
#    z 0.029730 0.000000 3.459800 
# 
# 
# High freq. dielectric constant tensor:
#      x y z
#    x 1.805690 0.000000 -0.002790 
#    y 0.000000 1.812150 0.000000 
#    z -0.002790 0.000000 1.771290 
# 
# From -- ./inp_files/18060.got.cif
#   From: 2010.06.25/outbox.cif.g09.slc.cpg/sg11_10_cif.got.tgz:18060.got - 2010.06.27 23:14:04.
