data_PCOD8077984
_publ_section_title
;
Structure prediction by ZEFSAII (Michael W. Deem and Ramdas Pophale) SiO2 
 PCOD8077984
Probable space group: P 21/M
;
_chemical_formula_sum "Si O2"
_cell_formula_units_Z 32
_cell_length_a 27.000000
_cell_length_b 9.000000
_cell_length_c 21.000000
_cell_angle_alpha 90.000000
_cell_angle_beta 160.000000
_cell_angle_gamma 90.000000
_cell_volume 1745.328791
_symmetry_space_group_name_H-M "P 21/M"
_symmetry_group_IT_number 11
_symmetry_cell_setting 'monoclinic'
loop_
_space_group_symop_operation_xyz
x,y,z
-x,1/2+y,-z
-x,-y,-z
x,1/2-y,z
loop_
_atom_site_type_symbol
_atom_site_label
_atom_site_fract_x
_atom_site_fract_y
_atom_site_fract_z
Si Si1 0.399843 0.416064 0.692251
Si Si2 0.569985 0.586611 0.994471
Si Si3 0.573265 0.424177 0.648373
Si Si4 0.131860 0.923719 0.423740
Si Si5 0.931679 0.077378 0.857857
Si Si6 0.637013 0.583609 0.494307
Si Si7 0.278209 0.914027 0.723239
Si Si8 0.875082 0.922046 0.028240
O O1 0.384992 0.250000 0.701343
O O2 0.245688 0.494371 0.515972
O O3 0.440363 0.418239 0.667282
O O4 0.535810 0.491762 0.890843
O O5 0.615259 0.750000 0.027140
O O6 0.707328 0.520358 0.198530
O O7 0.428629 0.588965 0.867272
O O8 0.500000 0.500000 0.500000
O O9 0.575829 0.250000 0.639212
O O10 0.480852 0.470197 0.597785
O O11 0.735014 0.477324 0.856516
O O12 0.168232 0.750000 0.460009
O O13 0.154162 0.972131 0.524539
O O14 0.967274 0.957113 0.203655
O O15 0.936523 0.250000 0.876056
O O16 0.022130 0.032026 0.905484
O O17 0.767228 0.030392 0.651493
O O18 0.000000 0.000000 0.000000
O O19 0.693344 0.750000 0.578853
O O20 0.239560 0.750000 0.701562
O O21 0.828975 0.750000 0.968972
#
# Coordination Sequence:
#
# PCOD8077984 Si02
#       8
#     4   4   4   4   4   4   4   4
#     4  10  18  29  48  72 100 133 170 212 256 303
#     4   9  16  25  39  63  99 136 169 206 248 299
#     4  11  24  41  58  77 103 136 175 217 262 312
#     4   9  17  31  49  72 103 134 168 211 256 303
#     4  11  22  35  55  79 105 133 167 210 259 314
#     4  10  22  38  54  76 105 135 172 217 261 308
#     4   8  14  24  40  63  95 134 169 202 245 299
#     4  10  21  37  55  78 106 136 170 213 262 311
#
# _framework density 18.334654
#
# number of rings (size 3 to 8) (size 9 to 14) (size 15 to 20)
#    0.000    2.250    1.250    3.000    0.000    9.000 
#    0.000    0.000    0.000    0.000    0.000    0.875 
#    0.000    0.000    0.000    0.000    0.000    0.000 
#
# Total GULP energy -396716.195483 kJ/mol
# GULP energy per Si atom -12397.381109 kJ/mol
# Density = 1.829292 g / cm^3
# Si number density = 18.334654 Si / 1000 Ang^3
#
#
#
# Elastic Constant Matrix: (Units=GPa)
#
#
# Indices 1 2 3 4 5 6 
#
# 1 69.9397 53.7629 64.2064 0.0000 -6.9530 0.0000
# 2 53.7629 93.1663 75.5671 0.0000 -9.0080 0.0000
# 3 64.2064 75.5671 135.7345 0.0000 -21.4200 0.0000
# 4 0.0000 0.0000 0.0000 30.4744 0.0000 -5.7146
# 5 -6.9530 -9.0080 -21.4200 0.0000 30.3321 0.0000
# 6 0.0000 0.0000 0.0000 -5.7146 0.0000 18.9167
#
#
#
# Elastic Compliance Matrix: (Units=1/GPa)
#
#
# Indices 1 2 3 4 5 6 
#
# 1 0.030264 -0.010533 -0.008835 0.000000 -0.002430 0.000000
# 2 -0.010533 0.023359 -0.008225 0.000000 -0.001286 0.000000
# 3 -0.008835 -0.008225 0.017355 0.000000 0.007788 0.000000
# 4 0.000000 0.000000 0.000000 0.034785 0.000000 0.010508
# 5 -0.002430 -0.001286 0.007788 0.000000 0.037529 0.000000
# 6 0.000000 0.000000 0.000000 0.010508 0.000000 0.056038
#
#
# Mechanical properties :
#
#
# Convention : Reuss Voigt Hill
#
# Bulk Modulus (GPa) = 63.32679 76.21258 69.76969
# Shear Modulus (GPa) = 19.24711 22.96490 21.10601
#
# Velocity S-wave (km/s) = 3.24353 3.54296 3.39655
# Velocity P-wave (km/s) = 6.97436 7.64163 7.31561
#
# Compressibility (1/GPa) = 0.01579111
#
# Stress axis : x y z
#
# Youngs Moduli (GPa) = 33.04224 42.81091 57.62166
#
# Poissons Ratio (x) = 0.45093 0.50911
# Poissons Ratio (y) = 0.34804 0.47392
# Poissons Ratio (z) = 0.29194 0.35211
#
# Static dielectric constant tensor:
#      x y z
#    x 3.210500 0.000000 -0.387600 
#    y 0.000000 3.456180 0.000000 
#    z -0.387600 0.000000 3.374490 
# 
# 
# High freq. dielectric constant tensor:
#      x y z
#    x 1.677340 0.000000 -0.036390 
#    y 0.000000 1.712640 0.000000 
#    z -0.036390 0.000000 1.700450 
# 
# From -- ./inp_files/67264.got.cif
#   From: 2010.06.25/outbox.ucp.g09.slc.cvg/sg11_34_cif.got.tgz:67264.got - 2010.06.28 13:43:20.
