data_PCOD8077615
_publ_section_title
;
Structure prediction by ZEFSAII (Michael W. Deem and Ramdas Pophale) SiO2 
 PCOD8077615
Probable space group: P 21/M
;
_chemical_formula_sum "Si O2"
_cell_formula_units_Z 24
_cell_length_a 14.353179
_cell_length_b 15.084348
_cell_length_c 11.074036
_cell_angle_alpha 90.000000
_cell_angle_beta 28.778319
_cell_angle_gamma 90.000000
_cell_volume 1154.267705
_symmetry_space_group_name_H-M "P 21/M"
_symmetry_group_IT_number 11
_symmetry_cell_setting 'monoclinic'
loop_
_space_group_symop_operation_xyz
x,y,z
-x,1/2+y,-z
-x,-y,-z
x,1/2-y,z
loop_
_atom_site_type_symbol
_atom_site_label
_atom_site_fract_x
_atom_site_fract_y
_atom_site_fract_z
Si Si1 0.132398 0.857120 0.145904
Si Si2 0.449579 0.345009 0.048655
Si Si3 0.737138 0.848992 0.975306
Si Si4 0.865735 0.386167 0.576278
Si Si5 0.241247 0.453191 0.467486
Si Si6 0.553139 0.007785 0.301594
O O1 0.156254 0.750000 0.110629
O O2 0.090997 0.890671 0.329625
O O3 0.941410 0.890473 0.288838
O O4 0.322080 0.904284 0.873194
O O5 0.342684 0.250000 0.179424
O O6 0.364906 0.392550 0.026621
O O7 0.414373 0.397683 0.210563
O O8 0.676001 0.327337 0.775278
O O9 0.658646 0.750000 0.096982
O O10 0.964072 0.840161 0.691870
O O11 0.685187 0.919845 0.135954
O O12 0.829638 0.480627 0.555984
O O13 0.347167 0.495720 0.463497
O O14 0.500000 0.000000 0.500000
#
# Coordination Sequence:
#
# PCOD8077615 Si02
#       6
#     4   4   4   4   4   4
#     4  12  25  42  70 106 138 170 215 273 340 407
#     4  11  21  34  61 102 135 164 208 265 339 412
#     4  11  23  42  66  99 135 170 215 274 338 402
#     4  12  21  38  67 103 136 163 201 268 348 411
#     4  12  23  40  67  97 138 174 216 269 336 395
#     4  12  28  48  68  89 131 188 238 275 315 378
#
# _framework density 20.792404999999999
#
# number of rings (size 3 to 8) (size 9 to 14) (size 15 to 20)
#    0.000    0.333    6.667    4.000    0.000    2.000 
#    0.000    0.000    0.000    0.000    0.000    0.000 
#    0.000    0.000    0.000    0.000    0.000    0.000 
#
# Total GULP energy -297412.116875 kJ/mol
# GULP energy per Si atom -12392.171536 kJ/mol
# Density = 2.074508 g / cm^3
# Si number density = 20.792405 Si / 1000 Ang^3
#
#
#
# Elastic Constant Matrix: (Units=GPa)
#
#
# Indices 1 2 3 4 5 6 
#
# 1 81.4425 47.4404 54.2774 0.0000 4.2893 0.0000
# 2 47.4404 121.7736 46.4595 0.0000 9.0296 0.0000
# 3 54.2774 46.4595 105.6574 0.0000 -0.5243 0.0000
# 4 0.0000 0.0000 0.0000 21.7926 0.0000 -9.3365
# 5 4.2893 9.0296 -0.5243 0.0000 39.9158 0.0000
# 6 0.0000 0.0000 0.0000 -9.3365 0.0000 7.8679
#
#
#
# Elastic Compliance Matrix: (Units=1/GPa)
#
#
# Indices 1 2 3 4 5 6 
#
# 1 0.020865 -0.004736 -0.008642 0.000000 -0.001284 0.000000
# 2 -0.004736 0.011156 -0.002483 0.000000 -0.002047 0.000000
# 3 -0.008642 -0.002483 0.015004 0.000000 0.001687 0.000000
# 4 0.000000 0.000000 0.000000 0.093342 0.000000 0.110765
# 5 -0.001284 -0.002047 0.001687 0.000000 0.025676 0.000000
# 6 0.000000 0.000000 0.000000 0.110765 0.000000 0.258540
#
#
# Mechanical properties :
#
#
# Convention : Reuss Voigt Hill
#
# Bulk Modulus (GPa) = 65.34693 67.24758 66.29725
# Shear Modulus (GPa) = 10.83645 24.62834 17.73239
#
# Velocity S-wave (km/s) = 2.28540 3.44537 2.92349
# Velocity P-wave (km/s) = 6.20166 6.94550 6.58409
#
# Compressibility (1/GPa) = 0.01530294
#
# Stress axis : x y z
#
# Youngs Moduli (GPa) = 47.92812 89.63760 66.64770
#
# Poissons Ratio (x) = 0.42452 0.57599
# Poissons Ratio (y) = 0.22699 0.16547
# Poissons Ratio (z) = 0.41421 0.22255
#
# Static dielectric constant tensor:
#      x y z
#    x 3.578220 0.000000 -0.307570 
#    y 0.000000 3.893710 0.000000 
#    z -0.307570 0.000000 3.747450 
# 
# 
# High freq. dielectric constant tensor:
#      x y z
#    x 1.791340 0.000000 -0.034240 
#    y 0.000000 1.827710 0.000000 
#    z -0.034240 0.000000 1.808040 
# 
# From -- ./inp_files/39565.got.cif
#   From: 2010.06.25/outbox.cif.g09.slc.cpg/sg11_20_cif.got.tgz:39565.got - 2010.06.27 23:14:04.
