data_PCOD8077286
_publ_section_title
;
Structure prediction by ZEFSAII (Michael W. Deem and Ramdas Pophale) SiO2 
 PCOD8077286
Probable space group: P 21/M
;
_chemical_formula_sum "Si O2"
_cell_formula_units_Z 24
_cell_length_a 7.401802
_cell_length_b 17.266651
_cell_length_c 8.874109
_cell_angle_alpha 90.000000
_cell_angle_beta 80.066897
_cell_angle_gamma 90.000000
_cell_volume 1117.148476
_symmetry_space_group_name_H-M "P 21/M"
_symmetry_group_IT_number 11
_symmetry_cell_setting 'monoclinic'
loop_
_space_group_symop_operation_xyz
x,y,z
-x,1/2+y,-z
-x,-y,-z
x,1/2-y,z
loop_
_atom_site_type_symbol
_atom_site_label
_atom_site_fract_x
_atom_site_fract_y
_atom_site_fract_z
Si Si1 0.129407 0.104017 0.669956
Si Si2 0.401345 0.060692 0.123110
Si Si3 0.482403 0.085251 0.441554
Si Si4 0.995124 0.554911 0.780259
Si Si5 0.845598 0.340994 0.491034
Si Si6 0.843675 0.662803 0.018191
O O1 0.281631 0.116204 0.518277
O O2 0.176411 0.161067 0.799613
O O3 0.928758 0.124466 0.634151
O O4 0.134921 0.016010 0.736734
O O5 0.516761 0.085808 0.254976
O O6 0.212284 0.022670 0.213912
O O7 0.348941 0.137300 0.032948
O O8 0.500000 0.000000 0.000000
O O9 0.632280 0.138674 0.502023
O O10 0.500000 0.000000 0.500000
O O11 0.034106 0.622257 0.657282
O O12 0.001323 0.599998 0.942106
O O13 0.872935 0.250000 0.485464
O O14 0.892787 0.750000 0.961203
#
# Coordination Sequence:
#
# PCOD8077286 Si02
#       6
#     4   4   4   4   4   4
#     4  12  22  45  70 100 139 183 230 283 337 411
#     4  10  23  42  68 100 136 177 231 278 336 410
#     4  12  24  42  70 102 138 177 235 280 338 412
#     4  10  22  42  68  95 133 182 230 271 340 415
#     4  12  26  42  69 104 137 178 227 286 349 406
#     4  10  23  40  68  99 133 180 226 283 349 398
#
# _framework density 21.483267000000001
#
# number of rings (size 3 to 8) (size 9 to 14) (size 15 to 20)
#    1.000    0.000    3.333    4.000    0.000    2.000 
#    0.000    0.000    0.000    3.000    0.000    0.000 
#    0.000    0.000    0.000    0.000    0.000    0.000 
#
# Total GULP energy -297394.164826 kJ/mol
# GULP energy per Si atom -12391.423534 kJ/mol
# Density = 2.143437 g / cm^3
# Si number density = 21.483267 Si / 1000 Ang^3
#
#
#
# Elastic Constant Matrix: (Units=GPa)
#
#
# Indices 1 2 3 4 5 6 
#
# 1 99.5517 36.7029 48.1060 0.0000 6.0171 0.0000
# 2 36.7029 122.4322 50.3212 0.0000 -6.4170 0.0000
# 3 48.1060 50.3212 120.0012 0.0000 16.3595 0.0000
# 4 0.0000 0.0000 0.0000 29.9329 0.0000 -4.2657
# 5 6.0171 -6.4170 16.3595 0.0000 44.2986 0.0000
# 6 0.0000 0.0000 0.0000 -4.2657 0.0000 26.5865
#
#
#
# Elastic Compliance Matrix: (Units=1/GPa)
#
#
# Indices 1 2 3 4 5 6 
#
# 1 0.012902 -0.002173 -0.004190 0.000000 -0.000520 0.000000
# 2 -0.002173 0.010660 -0.004054 0.000000 0.003337 0.000000
# 3 -0.004190 -0.004054 0.012337 0.000000 -0.004574 0.000000
# 4 0.000000 0.000000 0.000000 0.034190 0.000000 0.005486
# 5 -0.000520 0.003337 -0.004574 0.000000 0.024817 0.000000
# 6 0.000000 0.000000 0.000000 0.005486 0.000000 0.038493
#
#
# Mechanical properties :
#
#
# Convention : Reuss Voigt Hill
#
# Bulk Modulus (GPa) = 66.37950 68.02725 67.20337
# Shear Modulus (GPa) = 31.39602 33.95392 32.67497
#
# Velocity S-wave (km/s) = 3.82700 3.97984 3.90417
# Velocity P-wave (km/s) = 7.10586 7.26999 7.18839
#
# Compressibility (1/GPa) = 0.01506489
#
# Stress axis : x y z
#
# Youngs Moduli (GPa) = 77.50491 93.80562 81.05933
#
# Poissons Ratio (x) = 0.20383 0.33966
# Poissons Ratio (y) = 0.16841 0.32862
# Poissons Ratio (z) = 0.32477 0.38030
#
# Static dielectric constant tensor:
#      x y z
#    x 4.157470 0.000000 -0.205120 
#    y 0.000000 3.625270 0.000000 
#    z -0.205120 0.000000 4.227970 
# 
# 
# High freq. dielectric constant tensor:
#      x y z
#    x 1.830620 0.000000 0.005130 
#    y 0.000000 1.830330 0.000000 
#    z 0.005130 0.000000 1.851410 
# 
# From -- ./inp_files/13113.got.cif
#   From: 2010.06.25/outbox.cif.g09.slc.cpg/sg11_7_cif.got.tgz:13113.got - 2010.06.27 23:14:04.
