data_PCOD8077360
_publ_section_title
;
Structure prediction by ZEFSAII (Michael W. Deem and Ramdas Pophale) SiO2 
 PCOD8077360
Probable space group: P 21/M
;
_chemical_formula_sum "Si O2"
_cell_formula_units_Z 20
_cell_length_a 5.882614
_cell_length_b 27.027229
_cell_length_c 5.210187
_cell_angle_alpha 90.000000
_cell_angle_beta 83.224368
_cell_angle_gamma 90.000000
_cell_volume 822.586036
_symmetry_space_group_name_H-M "P 21/M"
_symmetry_group_IT_number 11
_symmetry_cell_setting 'monoclinic'
loop_
_space_group_symop_operation_xyz
x,y,z
-x,1/2+y,-z
-x,-y,-z
x,1/2-y,z
loop_
_atom_site_type_symbol
_atom_site_label
_atom_site_fract_x
_atom_site_fract_y
_atom_site_fract_z
Si Si1 0.767886 0.881274 0.910505
Si Si2 0.867879 0.306754 0.241879
Si Si3 0.318522 0.028993 0.354631
Si Si4 0.351929 0.652704 0.246451
Si Si5 0.921168 0.441390 0.784150
O O1 0.622864 0.855019 0.155578
O O2 0.962470 0.919667 0.978166
O O3 0.594789 0.917748 0.772403
O O4 0.900786 0.838712 0.734208
O O5 0.943321 0.250000 0.229674
O O6 0.681243 0.314955 0.492178
O O7 0.761630 0.320221 0.981412
O O8 0.105694 0.044649 0.551291
O O9 0.500000 0.000000 0.500000
O O10 0.234154 0.990537 0.140768
O O11 0.241679 0.599821 0.318719
#
# Coordination Sequence:
#
# PCOD8077360 Si02
#       5
#     4   4   4   4   4
#     4  11  25  44  72  99 146 189 234 294 359 434
#     4  11  26  48  72 104 139 180 240 306 362 428
#     4  11  23  39  69 103 145 191 239 289 352 428
#     4  11  25  44  76 103 142 183 237 293 364 426
#     4  10  23  41  64 102 145 189 234 289 349 426
#
# _framework density 24.313566999999999
#
# number of rings (size 3 to 8) (size 9 to 14) (size 15 to 20)
#    0.000    1.200    2.000    2.400    5.600    6.400 
#    0.000    0.000    0.000    0.000    0.000    0.000 
#    0.000    0.000    0.000    0.000    0.000    0.000 
#
# Total GULP energy -247894.342608 kJ/mol
# GULP energy per Si atom -12394.717130 kJ/mol
# Density = 2.425823 g / cm^3
# Si number density = 24.313567 Si / 1000 Ang^3
#
#
#
# Elastic Constant Matrix: (Units=GPa)
#
#
# Indices 1 2 3 4 5 6 
#
# 1 87.2752 53.0451 24.8191 0.0000 -14.4098 0.0000
# 2 53.0451 196.2805 56.1769 0.0000 -8.9691 0.0000
# 3 24.8191 56.1769 106.2269 0.0000 -14.7831 0.0000
# 4 0.0000 0.0000 0.0000 38.2514 0.0000 -3.1624
# 5 -14.4098 -8.9691 -14.7831 0.0000 24.1677 0.0000
# 6 0.0000 0.0000 0.0000 -3.1624 0.0000 22.6463
#
#
#
# Elastic Compliance Matrix: (Units=1/GPa)
#
#
# Indices 1 2 3 4 5 6 
#
# 1 0.014982 -0.003540 -0.000621 0.000000 0.007239 0.000000
# 2 -0.003540 0.006842 -0.002986 0.000000 -0.001398 0.000000
# 3 -0.000621 -0.002986 0.011949 0.000000 0.005831 0.000000
# 4 0.000000 0.000000 0.000000 0.026448 0.000000 0.003693
# 5 0.007239 -0.001398 0.005831 0.000000 0.048742 0.000000
# 6 0.000000 0.000000 0.000000 0.003693 0.000000 0.044673
#
#
# Mechanical properties :
#
#
# Convention : Reuss Voigt Hill
#
# Bulk Modulus (GPa) = 51.33600 73.09608 62.21604
# Shear Modulus (GPa) = 28.66596 34.06251 31.36423
#
# Velocity S-wave (km/s) = 3.43740 3.74701 3.59554
# Velocity P-wave (km/s) = 6.07571 6.98923 6.54842
#
# Compressibility (1/GPa) = 0.01947951
#
# Stress axis : x y z
#
# Youngs Moduli (GPa) = 66.74888 146.15155 83.68683
#
# Poissons Ratio (x) = 0.51743 0.05194
# Poissons Ratio (y) = 0.23632 0.24987
# Poissons Ratio (z) = 0.04142 0.43638
#
# Static dielectric constant tensor:
#      x y z
#    x 4.956530 0.000000 0.062220 
#    y 0.000000 4.913000 0.000000 
#    z 0.062220 0.000000 4.205200 
# 
# 
# High freq. dielectric constant tensor:
#      x y z
#    x 1.955790 0.000000 -0.010170 
#    y 0.000000 1.977830 0.000000 
#    z -0.010170 0.000000 1.957990 
# 
# From -- ./inp_files/950.got.cif
#   From: 2010.06.25/outbox.cif.g09.slc.cpg/sg11_1_cif.got.tgz:950.got - 2010.06.27 23:14:04.
