data_PCOD8077689
_publ_section_title
;
Structure prediction by ZEFSAII (Michael W. Deem and Ramdas Pophale) SiO2 
 PCOD8077689
Probable space group: P 21/M
;
_chemical_formula_sum "Si O2"
_cell_formula_units_Z 28
_cell_length_a 26.409474
_cell_length_b 8.806406
_cell_length_c 20.410915
_cell_angle_alpha 90.000000
_cell_angle_beta 18.770124
_cell_angle_gamma 90.000000
_cell_volume 1527.457824
_symmetry_space_group_name_H-M "P 21/M"
_symmetry_group_IT_number 11
_symmetry_cell_setting 'monoclinic'
loop_
_space_group_symop_operation_xyz
x,y,z
-x,1/2+y,-z
-x,-y,-z
x,1/2-y,z
loop_
_atom_site_type_symbol
_atom_site_label
_atom_site_fract_x
_atom_site_fract_y
_atom_site_fract_z
Si Si1 0.474991 0.930130 0.902055
Si Si2 0.262971 0.929762 0.808763
Si Si3 0.795581 0.570951 0.574891
Si Si4 0.430487 0.429526 0.489280
Si Si5 0.624684 0.569016 0.587642
Si Si6 0.145019 0.930060 0.361226
Si Si7 0.941464 0.570522 0.260983
O O1 0.472376 0.750000 0.905192
O O2 0.617632 0.982228 0.775011
O O3 0.505679 0.989260 0.790208
O O4 0.308418 0.994917 0.130811
O O5 0.255204 0.750000 0.811475
O O6 0.403620 0.981443 0.684067
O O7 0.288455 0.999594 0.705512
O O8 0.104265 0.998898 0.034699
O O9 0.800930 0.750000 0.583228
O O10 0.861558 0.479086 0.555433
O O11 0.911748 0.526819 0.372963
O O12 0.409856 0.250000 0.515144
O O13 0.425085 0.495064 0.422093
O O14 0.623260 0.750000 0.589095
O O15 0.799359 0.508516 0.390240
O O16 0.136080 0.750000 0.366426
O O17 0.000000 0.000000 0.500000
O O18 0.948566 0.750000 0.246574
#
# Coordination Sequence:
#
# PCOD8077689 Si02
#       7
#     4   4   4   4   4   4   4
#     4   8  16  31  52  74  95 123 159 198 239 287
#     4   9  17  29  44  64  91 122 154 186 224 272
#     4   9  17  33  55  75  95 122 158 199 243 287
#     4   9  17  28  44  65  89 119 153 188 226 268
#     4   8  14  27  47  70  91 113 150 194 230 270
#     4  11  22  34  49  73 102 130 161 196 236 281
#     4   8  15  28  48  71  91 115 150 190 229 274
#
# _framework density 18.331112999999998
#
# number of rings (size 3 to 8) (size 9 to 14) (size 15 to 20)
#    0.000    3.143    0.000    2.571    0.000    1.714 
#    0.000    5.714    0.000    8.571    0.000    0.000 
#    0.000    0.000    0.000    0.000    0.000    0.000 
#
# Total GULP energy -347069.790945 kJ/mol
# GULP energy per Si atom -12395.349677 kJ/mol
# Density = 1.828939 g / cm^3
# Si number density = 18.331113 Si / 1000 Ang^3
#
#
#
# Elastic Constant Matrix: (Units=GPa)
#
#
# Indices 1 2 3 4 5 6 
#
# 1 144.0933 21.0108 50.8615 0.0000 12.6619 0.0000
# 2 21.0108 21.6940 15.4246 0.0000 0.3855 0.0000
# 3 50.8615 15.4246 109.8046 0.0000 5.8723 0.0000
# 4 0.0000 0.0000 0.0000 20.7863 0.0000 4.0402
# 5 12.6619 0.3855 5.8723 0.0000 22.8660 0.0000
# 6 0.0000 0.0000 0.0000 4.0402 0.0000 24.6583
#
#
#
# Elastic Compliance Matrix: (Units=1/GPa)
#
#
# Indices 1 2 3 4 5 6 
#
# 1 0.009432 -0.006794 -0.003185 0.000000 -0.004290 0.000000
# 2 -0.006794 0.056127 -0.004956 0.000000 0.004089 0.000000
# 3 -0.003185 -0.004956 0.011335 0.000000 -0.001064 0.000000
# 4 0.000000 0.000000 0.000000 0.049691 0.000000 -0.008142
# 5 -0.004290 0.004089 -0.001064 0.000000 0.046313 0.000000
# 6 0.000000 0.000000 0.000000 -0.008142 0.000000 0.041888
#
#
# Mechanical properties :
#
#
# Convention : Reuss Voigt Hill
#
# Bulk Modulus (GPa) = 21.26571 50.02063 35.64317
# Shear Modulus (GPa) = 19.20631 26.21513 22.71072
#
# Velocity S-wave (km/s) = 3.24040 3.78575 3.52364
# Velocity P-wave (km/s) = 5.06224 6.81585 6.00342
#
# Compressibility (1/GPa) = 0.04702406
#
# Stress axis : x y z
#
# Youngs Moduli (GPa) = 106.02381 17.81682 88.21873
#
# Poissons Ratio (x) = 0.12105 0.28098
# Poissons Ratio (y) = 0.72033 0.43721
# Poissons Ratio (z) = 0.33769 0.08830
#
# Static dielectric constant tensor:
#      x y z
#    x 3.534050 0.000000 0.077900 
#    y 0.000000 2.879140 0.000000 
#    z 0.077900 0.000000 3.822740 
# 
# 
# High freq. dielectric constant tensor:
#      x y z
#    x 1.715620 0.000000 0.007920 
#    y 0.000000 1.662240 0.000000 
#    z 0.007920 0.000000 1.718250 
# 
# From -- ./inp_files/61914.got.cif
#   From: 2010.06.25/outbox.cif.g09.slc.cpg/sg11_31_cif.got.tgz:61914.got - 2010.06.27 23:14:04.
