data_PCOD8077182
_publ_section_title
;
Structure prediction by ZEFSAII (Michael W. Deem and Ramdas Pophale) SiO2 
 PCOD8077182
Probable space group: P 21/M
;
_chemical_formula_sum "Si O2"
_cell_formula_units_Z 24
_cell_length_a 12.225217
_cell_length_b 13.478524
_cell_length_c 15.084128
_cell_angle_alpha 90.000000
_cell_angle_beta 23.733195
_cell_angle_gamma 90.000000
_cell_volume 1000.371923
_symmetry_space_group_name_H-M "P 21/M"
_symmetry_group_IT_number 11
_symmetry_cell_setting 'monoclinic'
loop_
_space_group_symop_operation_xyz
x,y,z
-x,1/2+y,-z
-x,-y,-z
x,1/2-y,z
loop_
_atom_site_type_symbol
_atom_site_label
_atom_site_fract_x
_atom_site_fract_y
_atom_site_fract_z
Si Si1 0.951929 0.857485 0.075771
Si Si2 0.369308 0.638648 0.589611
Si Si3 0.215321 0.034613 0.963820
Si Si4 0.576890 0.022298 0.844344
Si Si5 0.094856 0.132335 0.505736
Si Si6 0.679036 0.525564 0.503816
O O1 0.082936 0.750000 0.987684
O O2 0.635438 0.859526 0.330768
O O3 0.987356 0.890802 0.943570
O O4 0.105601 0.922909 0.033993
O O5 0.244433 0.750000 0.684269
O O6 0.466182 0.601212 0.614674
O O7 0.185623 0.551607 0.671898
O O8 0.300694 0.062010 0.000950
O O9 0.507720 0.041751 0.697871
O O10 0.807593 0.107100 0.673099
O O11 0.672415 0.920523 0.725437
O O12 0.500000 0.000000 0.000000
O O13 0.142112 0.250000 0.471661
O O14 0.101476 0.088821 0.602577
#
# Coordination Sequence:
#
# PCOD8077182 Si02
#       6
#     4   4   4   4   4   4
#     4   9  18  32  53  80 108 143 189 235 289 355
#     4   9  17  30  52  82 113 153 195 237 298 360
#     4   9  19  35  53  79 112 151 184 240 302 351
#     4  10  23  41  62  90 124 160 203 257 308 361
#     4  10  22  41  63  88 119 162 208 252 306 369
#     4   9  18  33  53  80 117 150 194 247 298 355
#
# _framework density 23.991078000000002
#
# number of rings (size 3 to 8) (size 9 to 14) (size 15 to 20)
#    0.000    2.667    0.000    0.500    2.333    4.667 
#    0.000    8.333    0.000    0.000    0.000    0.000 
#    0.000    0.000    0.000    0.000    0.000    0.000 
#
# Total GULP energy -297497.516199 kJ/mol
# GULP energy per Si atom -12395.729842 kJ/mol
# Density = 2.393647 g / cm^3
# Si number density = 23.991078 Si / 1000 Ang^3
#
#
#
# Elastic Constant Matrix: (Units=GPa)
#
#
# Indices 1 2 3 4 5 6 
#
# 1 205.2542 76.5525 47.4714 0.0000 -13.6180 0.0000
# 2 76.5525 145.4570 22.0001 0.0000 -2.7213 0.0000
# 3 47.4714 22.0001 62.7035 0.0000 2.2395 0.0000
# 4 0.0000 0.0000 0.0000 28.1154 0.0000 2.4924
# 5 -13.6180 -2.7213 2.2395 0.0000 47.3336 0.0000
# 6 0.0000 0.0000 0.0000 2.4924 0.0000 29.0755
#
#
#
# Elastic Compliance Matrix: (Units=1/GPa)
#
#
# Indices 1 2 3 4 5 6 
#
# 1 0.007182 -0.003070 -0.004435 0.000000 0.002100 0.000000
# 2 -0.003070 0.008586 -0.000676 0.000000 -0.000358 0.000000
# 3 -0.004435 -0.000676 0.019623 0.000000 -0.002243 0.000000
# 4 0.000000 0.000000 0.000000 0.035840 0.000000 -0.003072
# 5 0.002100 -0.000358 -0.002243 0.000000 0.021816 0.000000
# 6 0.000000 0.000000 0.000000 -0.003072 0.000000 0.034657
#
#
# Mechanical properties :
#
#
# Convention : Reuss Voigt Hill
#
# Bulk Modulus (GPa) = 52.54936 78.38474 65.46705
# Shear Modulus (GPa) = 33.24277 38.73093 35.98685
#
# Velocity S-wave (km/s) = 3.72644 4.02230 3.87720
# Velocity P-wave (km/s) = 6.36132 7.36989 6.88410
#
# Compressibility (1/GPa) = 0.01902973
#
# Stress axis : x y z
#
# Youngs Moduli (GPa) = 139.23689 116.46944 50.96022
#
# Poissons Ratio (x) = 0.35753 0.22602
# Poissons Ratio (y) = 0.42742 0.03443
# Poissons Ratio (z) = 0.61756 0.07870
#
# Static dielectric constant tensor:
#      x y z
#    x 4.871170 0.000000 -0.005330 
#    y 0.000000 4.427380 0.000000 
#    z -0.005330 0.000000 5.076440 
# 
# 
# High freq. dielectric constant tensor:
#      x y z
#    x 1.955710 0.000000 0.013370 
#    y 0.000000 1.928310 0.000000 
#    z 0.013370 0.000000 2.001490 
# 
# From -- ./inp_files/50316.got.cif
#   From: 2010.06.25/outbox.cif.g09.slc.cpg/sg11_26_cif.got.tgz:50316.got - 2010.06.27 23:14:04.
