data_PCOD8077108
_publ_section_title
;
Structure prediction by ZEFSAII (Michael W. Deem and Ramdas Pophale) SiO2 
 PCOD8077108
Probable space group: P 21/M
;
_chemical_formula_sum "Si O2"
_cell_formula_units_Z 28
_cell_length_a 11.638618
_cell_length_b 8.922132
_cell_length_c 14.978179
_cell_angle_alpha 90.000000
_cell_angle_beta 64.492069
_cell_angle_gamma 90.000000
_cell_volume 1403.746364
_symmetry_space_group_name_H-M "P 21/M"
_symmetry_group_IT_number 11
_symmetry_cell_setting 'monoclinic'
loop_
_space_group_symop_operation_xyz
x,y,z
-x,1/2+y,-z
-x,-y,-z
x,1/2-y,z
loop_
_atom_site_type_symbol
_atom_site_label
_atom_site_fract_x
_atom_site_fract_y
_atom_site_fract_z
Si Si1 0.805712 0.575437 0.851436
Si Si2 0.470925 0.075187 0.416601
Si Si3 0.614138 0.077801 0.194393
Si Si4 0.555525 0.427422 0.892986
Si Si5 0.192683 0.426669 0.466551
Si Si6 0.018341 0.077276 0.365007
Si Si7 0.129816 0.923950 0.985702
O O1 0.773335 0.750000 0.875911
O O2 0.694826 0.497047 0.831406
O O3 0.935238 0.554122 0.751960
O O4 0.817609 0.498275 0.942617
O O5 0.460594 0.250000 0.438509
O O6 0.582484 0.039344 0.307924
O O7 0.336950 0.012424 0.422861
O O8 0.500000 0.000000 0.500000
O O9 0.575878 0.250000 0.185325
O O10 0.764463 0.053081 0.126956
O O11 0.532874 0.967188 0.160545
O O12 0.564155 0.250000 0.901505
O O13 0.500000 0.500000 0.000000
O O14 0.193334 0.250000 0.471363
O O15 0.126896 0.482938 0.397007
O O16 0.112724 0.488000 0.577823
O O17 0.990493 0.250000 0.394609
O O18 0.103722 0.750000 0.012393
O O19 0.000000 0.000000 0.000000
#
# Coordination Sequence:
#
# PCOD8077108 Si02
#       7
#     4   4   4   4   4   4   4
#     4  11  22  38  60  87 121 158 197 241 293 355
#     4  10  22  40  61  85 116 155 200 248 298 352
#     4  10  22  42  64  86 118 159 200 248 304 359
#     4  12  23  36  60  92 124 156 194 244 300 356
#     4   9  18  35  57  83 115 150 189 240 295 346
#     4   9  19  35  58  85 115 152 190 235 293 351
#     4  11  24  41  61  84 116 157 200 244 294 354
#
# _framework density 19.946622999999999
#
# number of rings (size 3 to 8) (size 9 to 14) (size 15 to 20)
#    0.000    1.714    1.429    3.000    0.000    6.286 
#    0.000    7.143    0.000    0.000    0.000    0.000 
#    0.000    0.000    0.000    0.000    0.000    0.000 
#
# Total GULP energy -347248.604317 kJ/mol
# GULP energy per Si atom -12401.735868 kJ/mol
# Density = 1.990122 g / cm^3
# Si number density = 19.946623 Si / 1000 Ang^3
#
#
#
# Elastic Constant Matrix: (Units=GPa)
#
#
# Indices 1 2 3 4 5 6 
#
# 1 99.4346 43.6277 48.5602 0.0000 -13.7064 0.0000
# 2 43.6277 96.2737 47.6724 0.0000 -5.5168 0.0000
# 3 48.5602 47.6724 136.0465 0.0000 -10.6423 0.0000
# 4 0.0000 0.0000 0.0000 32.1326 0.0000 0.4114
# 5 -13.7064 -5.5168 -10.6423 0.0000 30.5130 0.0000
# 6 0.0000 0.0000 0.0000 0.4114 0.0000 35.3871
#
#
#
# Elastic Compliance Matrix: (Units=1/GPa)
#
#
# Indices 1 2 3 4 5 6 
#
# 1 0.014229 -0.004659 -0.003097 0.000000 0.004469 0.000000
# 2 -0.004659 0.014110 -0.003337 0.000000 -0.000705 0.000000
# 3 -0.003097 -0.003337 0.009735 0.000000 0.001401 0.000000
# 4 0.000000 0.000000 0.000000 0.031126 0.000000 -0.000362
# 5 0.004469 -0.000705 0.001401 0.000000 0.035142 0.000000
# 6 0.000000 0.000000 0.000000 -0.000362 0.000000 0.028263
#
#
# Mechanical properties :
#
#
# Convention : Reuss Voigt Hill
#
# Bulk Modulus (GPa) = 62.93433 67.94170 65.43801
# Shear Modulus (GPa) = 31.23335 32.39950 31.81642
#
# Velocity S-wave (km/s) = 3.96137 4.03465 3.99818
# Velocity P-wave (km/s) = 7.24866 7.47263 7.36150
#
# Compressibility (1/GPa) = 0.01588958
#
# Stress axis : x y z
#
# Youngs Moduli (GPa) = 70.27716 70.87187 102.72594
#
# Poissons Ratio (x) = 0.33016 0.31814
# Poissons Ratio (y) = 0.32739 0.34276
# Poissons Ratio (z) = 0.21765 0.23648
#
# Static dielectric constant tensor:
#      x y z
#    x 3.771530 0.000000 -0.133430 
#    y 0.000000 3.814250 0.000000 
#    z -0.133430 0.000000 3.830120 
# 
# 
# High freq. dielectric constant tensor:
#      x y z
#    x 1.769870 0.000000 -0.012990 
#    y 0.000000 1.775850 0.000000 
#    z -0.012990 0.000000 1.787500 
# 
# From -- ./inp_files/49108.got.cif
#   From: 2010.06.25/outbox.cif.g09.slc.cpg/sg11_25_cif.got.tgz:49108.got - 2010.06.27 23:14:04.
