data_PCOD8077777
_publ_section_title
;
Structure prediction by ZEFSAII (Michael W. Deem and Ramdas Pophale) SiO2 
 PCOD8077777
Probable space group: P 21/M
;
_chemical_formula_sum "Si O2"
_cell_formula_units_Z 32
_cell_length_a 12.606036
_cell_length_b 18.097552
_cell_length_c 16.626763
_cell_angle_alpha 90.000000
_cell_angle_beta 155.776182
_cell_angle_gamma 90.000000
_cell_volume 1556.359408
_symmetry_space_group_name_H-M "P 21/M"
_symmetry_group_IT_number 11
_symmetry_cell_setting 'monoclinic'
loop_
_space_group_symop_operation_xyz
x,y,z
-x,1/2+y,-z
-x,-y,-z
x,1/2-y,z
loop_
_atom_site_type_symbol
_atom_site_label
_atom_site_fract_x
_atom_site_fract_y
_atom_site_fract_z
Si Si1 0.856509 0.070560 0.866323
Si Si2 0.035602 0.663528 0.651165
Si Si3 0.031383 0.336168 0.580317
Si Si4 0.009639 0.078267 0.797801
Si Si5 0.743383 0.576819 0.581769
Si Si6 0.365013 0.664317 0.567071
Si Si7 0.568313 0.915799 0.032946
Si Si8 0.864554 0.662725 0.828077
O O1 0.015100 0.092602 0.896287
O O2 0.559300 0.056920 0.635708
O O3 0.872819 0.133790 0.947148
O O4 0.000000 0.000000 0.000000
O O5 0.017998 0.750000 0.658047
O O6 0.970015 0.645441 0.513997
O O7 0.828207 0.620346 0.561040
O O8 0.322292 0.636583 0.867968
O O9 0.094861 0.250000 0.641100
O O10 0.243323 0.388568 0.766410
O O11 0.750021 0.356611 0.424647
O O12 0.832184 0.141025 0.637960
O O13 0.297430 0.089459 0.961636
O O14 0.902833 0.998078 0.699422
O O15 0.807061 0.627184 0.702345
O O16 0.400229 0.750000 0.582142
O O17 0.647629 0.632619 0.741414
O O18 0.500000 0.000000 0.000000
O O19 0.883488 0.750000 0.828716
#
# Coordination Sequence:
#
# PCOD8077777 Si02
#       8
#     4   4   4   4   4   4   4   4
#     4  12  25  41  68  97 133 177 224 270 332 395
#     4  11  25  44  68  96 131 179 221 266 329 400
#     4   9  21  41  64  92 127 170 214 266 330 386
#     4  11  22  42  67  94 131 169 219 270 335 388
#     4  12  24  45  66  94 137 179 217 268 333 396
#     4   9  19  39  63  90 128 166 209 274 330 383
#     4  11  23  42  65  97 131 166 219 276 327 387
#     4  11  24  41  64  97 131 172 223 273 328 396
#
# _framework density 20.560803
#
# number of rings (size 3 to 8) (size 9 to 14) (size 15 to 20)
#    0.000    1.250    3.750    1.875    1.750    4.500 
#    0.000    1.250    0.000    0.000    0.000    0.000 
#    0.000    0.000    0.000    0.000    0.000    0.000 
#
# Total GULP energy -396717.026883 kJ/mol
# GULP energy per Si atom -12397.407090 kJ/mol
# Density = 2.051401 g / cm^3
# Si number density = 20.560803 Si / 1000 Ang^3
#
#
#
# Elastic Constant Matrix: (Units=GPa)
#
#
# Indices 1 2 3 4 5 6 
#
# 1 116.6593 -67.1882 20.9262 0.0000 -9.5028 0.0000
# 2 -67.1882-6921.7130 -561.1959 0.0000 687.7762 0.0000
# 3 20.9262 -561.1959 15.4588 0.0000 47.3085 0.0000
# 4 0.0000 0.0000 0.0000 31.8820 0.0000 -3.7735
# 5 -9.5028 687.7762 47.3085 0.0000 -38.2536 0.0000
# 6 0.0000 0.0000 0.0000 -3.7735 0.0000 31.0561
#
#
#
# Elastic Compliance Matrix: (Units=1/GPa)
#
#
# Indices 1 2 3 4 5 6 
#
# 1 0.009952 0.000632 -0.003708 0.000000 0.004310 0.000000
# 2 0.000632 0.000272 -0.001143 0.000000 0.003321 0.000000
# 3 -0.003708 -0.001143 0.018451 0.000000 0.003191 0.000000
# 4 0.000000 0.000000 0.000000 0.031823 0.000000 0.003867
# 5 0.004310 0.003321 0.003191 0.000000 0.036451 0.000000
# 6 0.000000 0.000000 0.000000 0.003867 0.000000 0.032670
#
#
# Mechanical properties :
#
#
# Convention : Reuss Voigt Hill
#
# Bulk Modulus (GPa) = 49.41148 -889.39006 -419.98929
# Shear Modulus (GPa) = 34.52969 -407.20558 -186.33794
#
# Velocity S-wave (km/s) = 4.10249 -14.08827 -9.53019
# Velocity P-wave (km/s) = 6.82089 26.42242 18.05020
#
# Compressibility (1/GPa) = 0.02023821
#
# Stress axis : x y z
#
# Youngs Moduli (GPa) = 100.47904 3675.33847 54.19682
#
# Poissons Ratio (x) = -2.32380 0.20097
# Poissons Ratio (y) = -0.06353 0.06194
# Poissons Ratio (z) = 0.37258 4.20061
#
# Static dielectric constant tensor:
#      x y z
#    x 4.031900 0.000000 0.225880 
#    y 0.000000 -23.123550 0.000000 
#    z 0.225880 0.000000 3.644700 
# 
# 
# High freq. dielectric constant tensor:
#      x y z
#    x 1.819030 0.000000 -0.000250 
#    y 0.000000 1.812780 0.000000 
#    z -0.000250 0.000000 1.799640 
# 
# From -- ./inp_files/50703.got.cif
#   From: 2010.06.25/outbox.cif.g09.slc.cpg/sg11_26_cif.got.tgz:50703.got - 2010.06.27 23:14:04.
