data_PCOD8077685
_publ_section_title
;
Structure prediction by ZEFSAII (Michael W. Deem and Ramdas Pophale) SiO2 
 PCOD8077685
Probable space group: P 21/M
;
_chemical_formula_sum "Si O2"
_cell_formula_units_Z 32
_cell_length_a 20.058899
_cell_length_b 8.999442
_cell_length_c 12.048204
_cell_angle_alpha 90.000000
_cell_angle_beta 57.565411
_cell_angle_gamma 90.000000
_cell_volume 1835.649009
_symmetry_space_group_name_H-M "P 21/M"
_symmetry_group_IT_number 11
_symmetry_cell_setting 'monoclinic'
loop_
_space_group_symop_operation_xyz
x,y,z
-x,1/2+y,-z
-x,-y,-z
x,1/2-y,z
loop_
_atom_site_type_symbol
_atom_site_label
_atom_site_fract_x
_atom_site_fract_y
_atom_site_fract_z
Si Si1 0.602519 0.423695 0.316740
Si Si2 0.720451 0.925583 0.545661
Si Si3 0.150148 0.426417 0.411426
Si Si4 0.772496 0.425393 0.086804
Si Si5 0.567783 0.575909 0.576390
Si Si6 0.872514 0.573513 0.816215
Si Si7 0.829156 0.578280 0.250576
Si Si8 0.967261 0.578455 0.292711
O O1 0.604522 0.250000 0.339726
O O2 0.680607 0.472777 0.181294
O O3 0.599183 0.503069 0.436830
O O4 0.523406 0.467139 0.316321
O O5 0.731133 0.750000 0.539842
O O6 0.766139 0.988765 0.613364
O O7 0.627579 0.973003 0.623016
O O8 0.763072 0.981014 0.395293
O O9 0.152113 0.250000 0.405104
O O10 0.136627 0.490190 0.300770
O O11 0.079766 0.477187 0.555961
O O12 0.783025 0.250000 0.065528
O O13 0.824178 0.479788 0.144802
O O14 0.801400 0.504902 0.949928
O O15 0.575799 0.750000 0.549901
O O16 0.867333 0.750000 0.825629
O O17 0.955723 0.521533 0.791578
O O18 0.815135 0.750000 0.231156
O O19 0.914803 0.556720 0.229590
O O20 0.992056 0.750000 0.284013
#
# Coordination Sequence:
#
# PCOD8077685 Si02
#       8
#     4   4   4   4   4   4   4   4
#     4   9  18  29  43  70 102 128 154 190 233 279
#     4   8  13  25  49  76  98 119 150 194 239 280
#     4   8  16  31  51  75  97 119 154 202 242 278
#     4  11  22  34  47  65 100 137 162 193 234 281
#     4   9  15  26  49  75  97 123 155 189 232 284
#     4  11  22  34  50  70  93 126 168 201 232 282
#     4   9  17  31  51  74  96 123 157 192 236 290
#     4   9  18  34  55  75  97 119 148 200 254 289
#
# _framework density 17.432527
#
# number of rings (size 3 to 8) (size 9 to 14) (size 15 to 20)
#    0.000    2.750    1.250    2.625    0.000    1.500 
#    0.000    0.625    0.000    3.750    0.000    0.000 
#    0.000    0.000    0.000    0.000    0.000    0.250 
#
# Total GULP energy -396583.410434 kJ/mol
# GULP energy per Si atom -12393.231576 kJ/mol
# Density = 1.739285 g / cm^3
# Si number density = 17.432527 Si / 1000 Ang^3
#
#
#
# Elastic Constant Matrix: (Units=GPa)
#
#
# Indices 1 2 3 4 5 6 
#
# 1 106.6284 26.2018 48.2926 0.0000 -22.9067 0.0000
# 2 26.2018 40.6385 28.9388 0.0000 -7.7206 0.0000
# 3 48.2926 28.9388 85.6753 0.0000 -13.6628 0.0000
# 4 0.0000 0.0000 0.0000 17.8614 0.0000 -1.4165
# 5 -22.9067 -7.7206 -13.6628 0.0000 22.4875 0.0000
# 6 0.0000 0.0000 0.0000 -1.4165 0.0000 19.5396
#
#
#
# Elastic Compliance Matrix: (Units=1/GPa)
#
#
# Indices 1 2 3 4 5 6 
#
# 1 0.015119 -0.003764 -0.005538 0.000000 0.010745 0.000000
# 2 -0.003764 0.033844 -0.008934 0.000000 0.002358 0.000000
# 3 -0.005538 -0.008934 0.018184 0.000000 0.002340 0.000000
# 4 0.000000 0.000000 0.000000 0.056310 0.000000 0.004082
# 5 0.010745 0.002358 0.002340 0.000000 0.057645 0.000000
# 6 0.000000 0.000000 0.000000 0.004082 0.000000 0.051474
#
#
# Mechanical properties :
#
#
# Convention : Reuss Voigt Hill
#
# Bulk Modulus (GPa) = 32.59805 48.86761 40.73283
# Shear Modulus (GPa) = 17.90362 20.61165 19.25763
#
# Velocity S-wave (km/s) = 3.20820 3.44229 3.32730
# Velocity P-wave (km/s) = 5.69768 6.62513 6.17883
#
# Compressibility (1/GPa) = 0.03067668
#
# Stress axis : x y z
#
# Youngs Moduli (GPa) = 66.13981 29.54761 54.99268
#
# Poissons Ratio (x) = 0.11121 0.30453
# Poissons Ratio (y) = 0.24893 0.49131
# Poissons Ratio (z) = 0.36626 0.26398
#
# Static dielectric constant tensor:
#      x y z
#    x 3.974720 0.000000 0.030600 
#    y 0.000000 3.001700 0.000000 
#    z 0.030600 0.000000 3.179530 
# 
# 
# High freq. dielectric constant tensor:
#      x y z
#    x 1.688170 0.000000 -0.010790 
#    y 0.000000 1.650820 0.000000 
#    z -0.010790 0.000000 1.644220 
# 
# From -- ./inp_files/40703.got.cif
#   From: 2010.06.25/outbox.cif.g09.slc.cpg/sg11_21_cif.got.tgz:40703.got - 2010.06.27 23:14:04.
