data_PCOD8077726
_publ_section_title
;
Structure prediction by ZEFSAII (Michael W. Deem and Ramdas Pophale) SiO2 
 PCOD8077726
Probable space group: P 21/M
;
_chemical_formula_sum "Si O2"
_cell_formula_units_Z 28
_cell_length_a 31.180985
_cell_length_b 8.634835
_cell_length_c 31.191409
_cell_angle_alpha 90.000000
_cell_angle_beta 170.495155
_cell_angle_gamma 90.000000
_cell_volume 1386.779764
_symmetry_space_group_name_H-M "P 21/M"
_symmetry_group_IT_number 11
_symmetry_cell_setting 'monoclinic'
loop_
_space_group_symop_operation_xyz
x,y,z
-x,1/2+y,-z
-x,-y,-z
x,1/2-y,z
loop_
_atom_site_type_symbol
_atom_site_label
_atom_site_fract_x
_atom_site_fract_y
_atom_site_fract_z
Si Si1 0.957059 0.569786 0.548919
Si Si2 0.158137 0.429291 0.466253
Si Si3 0.520761 0.933325 0.973302
Si Si4 0.675571 0.933284 0.942283
Si Si5 0.761719 0.066051 0.738840
Si Si6 0.818058 0.065820 0.697231
Si Si7 0.343371 0.434222 0.173636
O O1 0.964178 0.750000 0.543902
O O2 0.935828 0.541702 0.578366
O O3 0.717486 0.490773 0.289574
O O4 0.217430 0.488826 0.790498
O O5 0.194838 0.250000 0.492101
O O6 0.946211 0.499193 0.225517
O O7 0.435006 0.511559 0.733641
O O8 0.517363 0.750000 0.972311
O O9 0.500000 0.000000 0.000000
O O10 0.695752 0.750000 0.964710
O O11 0.634889 0.992525 0.853687
O O12 0.760523 0.250000 0.740294
O O13 0.786496 0.006744 0.714551
O O14 0.500000 0.000000 0.500000
O O15 0.000000 0.000000 0.000000
O O16 0.817270 0.250000 0.695116
O O17 0.584701 0.998469 0.438366
O O18 0.083667 0.998998 0.939423
O O19 0.341643 0.250000 0.173259
#
# Coordination Sequence:
#
# PCOD8077726 Si02
#       7
#     4   4   4   4   4   4   4
#     4  11  24  43  64  88 120 161 204 243 287 345
#     4  11  24  41  61  86 123 163 194 234 295 358
#     4  12  25  42  65  93 124 158 197 246 298 349
#     4  11  22  37  62  91 117 148 195 250 292 335
#     4  11  22  37  59  85 114 151 192 239 291 349
#     4   9  17  31  53  79 108 145 190 233 282 343
#     4   9  17  31  53  82 110 140 187 243 284 327
#
# _framework density 20.190660000000001
#
# number of rings (size 3 to 8) (size 9 to 14) (size 15 to 20)
#    0.000    1.429    0.000    6.000    0.000   10.286 
#    0.000    0.000    0.000   17.143    0.000    0.000 
#    0.000    0.000    0.000    0.000    0.000    0.000 
#
# Total GULP energy -347343.382608 kJ/mol
# GULP energy per Si atom -12405.120807 kJ/mol
# Density = 2.014471 g / cm^3
# Si number density = 20.190660 Si / 1000 Ang^3
#
#
#
# Elastic Constant Matrix: (Units=GPa)
#
#
# Indices 1 2 3 4 5 6 
#
# 1 115.4883 51.6863 46.3035 0.0000 -1.1098 0.0000
# 2 51.6863 107.2648 40.3811 0.0000 2.9663 0.0000
# 3 46.3035 40.3811 159.9519 0.0000 -0.1980 0.0000
# 4 0.0000 0.0000 0.0000 33.9006 0.0000 0.7619
# 5 -1.1098 2.9663 -0.1980 0.0000 52.5111 0.0000
# 6 0.0000 0.0000 0.0000 0.7619 0.0000 25.7129
#
#
#
# Elastic Compliance Matrix: (Units=1/GPa)
#
#
# Indices 1 2 3 4 5 6 
#
# 1 0.011695 -0.004835 -0.002164 0.000000 0.000512 0.000000
# 2 -0.004835 0.012319 -0.001711 0.000000 -0.000805 0.000000
# 3 -0.002164 -0.001711 0.007311 0.000000 0.000079 0.000000
# 4 0.000000 0.000000 0.000000 0.029518 0.000000 -0.000875
# 5 0.000512 -0.000805 0.000079 0.000000 0.019100 0.000000
# 6 0.000000 0.000000 0.000000 -0.000875 0.000000 0.038917
#
#
# Mechanical properties :
#
#
# Convention : Reuss Voigt Hill
#
# Bulk Modulus (GPa) = 71.92362 73.27187 72.59775
# Shear Modulus (GPa) = 35.48223 38.71385 37.09804
#
# Velocity S-wave (km/s) = 4.19663 4.38358 4.29112
# Velocity P-wave (km/s) = 7.69298 7.87336 7.78369
#
# Compressibility (1/GPa) = 0.01390364
#
# Stress axis : x y z
#
# Youngs Moduli (GPa) = 85.50352 81.17566 136.78780
#
# Poissons Ratio (x) = 0.39247 0.29606
# Poissons Ratio (y) = 0.41340 0.23410
# Poissons Ratio (z) = 0.18506 0.13892
#
# Static dielectric constant tensor:
#      x y z
#    x 3.988130 0.000000 -0.044740 
#    y 0.000000 3.554040 0.000000 
#    z -0.044740 0.000000 3.871170 
# 
# 
# High freq. dielectric constant tensor:
#      x y z
#    x 1.808880 0.000000 0.000020 
#    y 0.000000 1.773240 0.000000 
#    z 0.000020 0.000000 1.811720 
# 
# From -- ./inp_files/73858.got.cif
#   From: 2010.06.25/outbox.cif.g09.slc.cpg/sg11_37_cif.got.tgz:73858.got - 2010.06.27 23:14:04.
