data_PCOD8077039
_publ_section_title
;
Structure prediction by ZEFSAII (Michael W. Deem and Ramdas Pophale) SiO2 
 PCOD8077039
Probable space group: P 21/M
;
_chemical_formula_sum "Si O2"
_cell_formula_units_Z 32
_cell_length_a 29.009439
_cell_length_b 8.766711
_cell_length_c 11.950735
_cell_angle_alpha 90.000000
_cell_angle_beta 149.363377
_cell_angle_gamma 90.000000
_cell_volume 1548.790957
_symmetry_space_group_name_H-M "P 21/M"
_symmetry_group_IT_number 11
_symmetry_cell_setting 'monoclinic'
loop_
_space_group_symop_operation_xyz
x,y,z
-x,1/2+y,-z
-x,-y,-z
x,1/2-y,z
loop_
_atom_site_type_symbol
_atom_site_label
_atom_site_fract_x
_atom_site_fract_y
_atom_site_fract_z
Si Si1 0.778350 0.429089 0.533765
Si Si2 0.008471 0.570162 0.640593
Si Si3 0.298104 0.079402 0.996033
Si Si4 0.849662 0.072152 0.449103
Si Si5 0.422887 0.928330 0.913838
Si Si6 0.184558 0.929223 0.142114
Si Si7 0.336518 0.074358 0.321962
Si Si8 0.522305 0.576741 0.748499
O O1 0.767985 0.250000 0.494263
O O2 0.836561 0.489495 0.549191
O O3 0.676371 0.497650 0.322813
O O4 0.830448 0.468937 0.757808
O O5 0.008586 0.750000 0.626479
O O6 0.926994 0.523343 0.550436
O O7 0.000000 0.500000 0.500000
O O8 0.099606 0.513261 0.892210
O O9 0.265204 0.250000 0.893706
O O10 0.280701 0.051292 0.090826
O O11 0.405367 0.063757 0.200243
O O12 0.243810 0.954660 0.812031
O O13 0.874713 0.250000 0.497178
O O14 0.424042 0.750000 0.894151
O O15 0.500000 0.000000 0.000000
O O16 0.444774 0.963670 0.087016
O O17 0.200849 0.750000 0.159985
O O18 0.274049 0.017640 0.292174
O O19 0.362895 0.250000 0.396707
O O20 0.425865 0.973442 0.501066
O O21 0.515806 0.750000 0.780229
#
# Coordination Sequence:
#
# PCOD8077039 Si02
#       8
#     4   4   4   4   4   4   4   4
#     4   9  20  39  61  86 119 157 201 250 302 360
#     4  11  24  42  66  95 125 160 201 250 305 369
#     4  10  22  39  59  86 122 160 204 257 306 364
#     4  11  22  39  65  92 121 161 202 251 311 370
#     4  11  21  36  58  86 120 162 209 258 307 364
#     4  10  22  42  64  87 119 159 202 248 304 366
#     4  11  23  38  58  87 121 158 203 256 310 365
#     4  11  22  37  57  84 119 161 205 252 307 367
#
# _framework density 20.661277999999999
#
# number of rings (size 3 to 8) (size 9 to 14) (size 15 to 20)
#    0.000    1.500    1.250    3.750    0.000    6.000 
#    0.000    1.875    0.000    0.000    0.000    0.000 
#    0.000    0.000    0.000    0.000    0.000    0.000 
#
# Total GULP energy -396858.955012 kJ/mol
# GULP energy per Si atom -12401.842344 kJ/mol
# Density = 2.061425 g / cm^3
# Si number density = 20.661278 Si / 1000 Ang^3
#
#
#
# Elastic Constant Matrix: (Units=GPa)
#
#
# Indices 1 2 3 4 5 6 
#
# 1 136.8351 28.1750 44.5793 0.0000 -4.5243 0.0000
# 2 28.1750 51.4086 23.4000 0.0000 0.2249 0.0000
# 3 44.5793 23.4000 100.8321 0.0000 -5.0754 0.0000
# 4 0.0000 0.0000 0.0000 30.3673 0.0000 0.3576
# 5 -4.5243 0.2249 -5.0754 0.0000 36.8239 0.0000
# 6 0.0000 0.0000 0.0000 0.3576 0.0000 28.7385
#
#
#
# Elastic Compliance Matrix: (Units=1/GPa)
#
#
# Indices 1 2 3 4 5 6 
#
# 1 0.009091 -0.003547 -0.003161 0.000000 0.000703 0.000000
# 2 -0.003547 0.023159 -0.003862 0.000000 -0.001110 0.000000
# 3 -0.003161 -0.003862 0.012278 0.000000 0.001327 0.000000
# 4 0.000000 0.000000 0.000000 0.032935 0.000000 -0.000410
# 5 0.000703 -0.001110 0.001327 0.000000 0.027432 0.000000
# 6 0.000000 0.000000 0.000000 -0.000410 0.000000 0.034802
#
#
# Mechanical properties :
#
#
# Convention : Reuss Voigt Hill
#
# Bulk Modulus (GPa) = 42.75652 53.48716 48.12184
# Shear Modulus (GPa) = 29.65017 32.04741 30.84879
#
# Velocity S-wave (km/s) = 3.79233 3.94265 3.86822
# Velocity P-wave (km/s) = 6.31780 6.83153 6.57968
#
# Compressibility (1/GPa) = 0.02338824
#
# Stress axis : x y z
#
# Youngs Moduli (GPa) = 109.99367 43.18031 81.44612
#
# Poissons Ratio (x) = 0.15316 0.25745
# Poissons Ratio (y) = 0.39014 0.31455
# Poissons Ratio (z) = 0.34768 0.16677
#
# Static dielectric constant tensor:
#      x y z
#    x 4.155470 0.000000 -0.003130 
#    y 0.000000 3.877960 0.000000 
#    z -0.003130 0.000000 3.750710 
# 
# 
# High freq. dielectric constant tensor:
#      x y z
#    x 1.822490 0.000000 -0.002730 
#    y 0.000000 1.798120 0.000000 
#    z -0.002730 0.000000 1.806790 
# 
# From -- ./inp_files/45265.got.cif
#   From: 2010.06.25/outbox.cif.g09.slc.cpg/sg11_23_cif.got.tgz:45265.got - 2010.06.27 23:14:04.
