data_PCOD8077462
_publ_section_title
;
Structure prediction by ZEFSAII (Michael W. Deem and Ramdas Pophale) SiO2 
 PCOD8077462
Probable space group: P 21/M
;
_chemical_formula_sum "Si O2"
_cell_formula_units_Z 32
_cell_length_a 28.853122
_cell_length_b 8.831721
_cell_length_c 12.388892
_cell_angle_alpha 90.000000
_cell_angle_beta 29.752784
_cell_angle_gamma 90.000000
_cell_volume 1566.674389
_symmetry_space_group_name_H-M "P 21/M"
_symmetry_group_IT_number 11
_symmetry_cell_setting 'monoclinic'
loop_
_space_group_symop_operation_xyz
x,y,z
-x,1/2+y,-z
-x,-y,-z
x,1/2-y,z
loop_
_atom_site_type_symbol
_atom_site_label
_atom_site_fract_x
_atom_site_fract_y
_atom_site_fract_z
Si Si1 0.772081 0.926512 0.778873
Si Si2 0.311346 0.577333 0.257775
Si Si3 0.529122 0.420389 0.548922
Si Si4 0.019123 0.071810 0.577700
Si Si5 0.267703 0.580193 0.931820
Si Si6 0.846685 0.928084 0.012972
Si Si7 0.291674 0.575196 0.539321
Si Si8 0.516278 0.925506 0.791124
O O1 0.754524 0.750000 0.828635
O O2 0.879172 0.971849 0.583310
O O3 0.740755 0.971960 0.722447
O O4 0.710138 0.013599 0.994090
O O5 0.300253 0.750000 0.240888
O O6 0.264087 0.551706 0.469881
O O7 0.421871 0.540576 0.048691
O O8 0.500000 0.500000 0.500000
O O9 0.488131 0.250000 0.639102
O O10 0.641088 0.415764 0.327251
O O11 0.490301 0.522919 0.723090
O O12 0.005788 0.250000 0.594734
O O13 0.000000 0.000000 0.500000
O O14 0.948132 0.006203 0.811640
O O15 0.226592 0.750000 0.025450
O O16 0.194719 0.470970 0.020319
O O17 0.858108 0.750000 0.997930
O O18 0.781827 0.982541 0.241665
O O19 0.286077 0.750000 0.585073
O O20 0.398032 0.522537 0.338484
O O21 0.544889 0.750000 0.735485
#
# Coordination Sequence:
#
# PCOD8077462 Si02
#       8
#     4   4   4   4   4   4   4   4
#     4  11  24  40  63  94 126 160 206 255 308 370
#     4  10  24  43  63  89 124 166 210 255 311 369
#     4  11  23  36  53  82 121 165 206 249 306 367
#     4  11  23  40  64  95 128 163 202 252 309 373
#     4  11  22  37  59  85 122 164 201 246 308 369
#     4  12  24  39  63  94 123 157 204 254 307 368
#     4  11  23  42  65  90 123 165 211 259 310 366
#     4  11  22  38  61  90 122 160 209 259 305 367
#
# _framework density 20.425429999999999
#
# number of rings (size 3 to 8) (size 9 to 14) (size 15 to 20)
#    0.000    1.000    2.500    4.500    0.000    8.000 
#    0.000    0.625    0.000    0.000    0.000    0.000 
#    0.000    0.000    0.000    0.000    0.000    0.000 
#
# Total GULP energy -396920.181085 kJ/mol
# GULP energy per Si atom -12403.755659 kJ/mol
# Density = 2.037894 g / cm^3
# Si number density = 20.425430 Si / 1000 Ang^3
#
#
#
# Elastic Constant Matrix: (Units=GPa)
#
#
# Indices 1 2 3 4 5 6 
#
# 1 66.4742 27.5780 28.1617 0.0000 9.3754 0.0000
# 2 27.5780 108.8367 37.8659 0.0000 -1.3782 0.0000
# 3 28.1617 37.8659 90.7205 0.0000 4.0173 0.0000
# 4 0.0000 0.0000 0.0000 30.2791 0.0000 -1.6690
# 5 9.3754 -1.3782 4.0173 0.0000 28.1450 0.0000
# 6 0.0000 0.0000 0.0000 -1.6690 0.0000 34.3198
#
#
#
# Elastic Compliance Matrix: (Units=1/GPa)
#
#
# Indices 1 2 3 4 5 6 
#
# 1 0.019100 -0.003443 -0.004229 0.000000 -0.005927 0.000000
# 2 -0.003443 0.011408 -0.003792 0.000000 0.002247 0.000000
# 3 -0.004229 -0.003792 0.013953 0.000000 -0.000768 0.000000
# 4 0.000000 0.000000 0.000000 0.033115 0.000000 0.001610
# 5 -0.005927 0.002247 -0.000768 0.000000 0.037724 0.000000
# 6 0.000000 0.000000 0.000000 0.001610 0.000000 0.029216
#
#
# Mechanical properties :
#
#
# Convention : Reuss Voigt Hill
#
# Bulk Modulus (GPa) = 46.44505 50.36028 48.40267
# Shear Modulus (GPa) = 28.63314 30.04384 29.33849
#
# Velocity S-wave (km/s) = 3.74817 3.83940 3.79406
# Velocity P-wave (km/s) = 6.44360 6.66062 6.55301
#
# Compressibility (1/GPa) = 0.02153082
#
# Stress axis : x y z
#
# Youngs Moduli (GPa) = 52.35711 87.65436 71.67079
#
# Poissons Ratio (x) = 0.30182 0.30312
# Poissons Ratio (y) = 0.18028 0.27181
# Poissons Ratio (z) = 0.22143 0.33242
#
# Static dielectric constant tensor:
#      x y z
#    x 3.536930 0.000000 -0.050940 
#    y 0.000000 3.870520 0.000000 
#    z -0.050940 0.000000 3.947260 
# 
# 
# High freq. dielectric constant tensor:
#      x y z
#    x 1.786930 0.000000 0.003450 
#    y 0.000000 1.810840 0.000000 
#    z 0.003450 0.000000 1.805000 
# 
# From -- ./inp_files/38294.got.cif
#   From: 2010.06.25/outbox.cif.g09.slc.cpg/sg11_20_cif.got.tgz:38294.got - 2010.06.27 23:14:04.
