data_PCOD8077749
_publ_section_title
;
Structure prediction by ZEFSAII (Michael W. Deem and Ramdas Pophale) SiO2 
 PCOD8077749
Probable space group: P 21/M
;
_chemical_formula_sum "Si O2"
_cell_formula_units_Z 20
_cell_length_a 8.949792
_cell_length_b 8.361086
_cell_length_c 25.792999
_cell_angle_alpha 90.000000
_cell_angle_beta 149.939615
_cell_angle_gamma 90.000000
_cell_volume 966.805900
_symmetry_space_group_name_H-M "P 21/M"
_symmetry_group_IT_number 11
_symmetry_cell_setting 'monoclinic'
loop_
_space_group_symop_operation_xyz
x,y,z
-x,1/2+y,-z
-x,-y,-z
x,1/2-y,z
loop_
_atom_site_type_symbol
_atom_site_label
_atom_site_fract_x
_atom_site_fract_y
_atom_site_fract_z
Si Si1 0.668622 0.564620 0.904134
Si Si2 0.674668 0.563375 0.101536
Si Si3 0.312160 0.059666 0.491788
Si Si4 0.349102 0.062655 0.709304
Si Si5 0.659405 0.439565 0.697432
O O1 0.675453 0.750000 0.920509
O O2 0.497143 0.472374 0.897514
O O3 0.501071 0.538295 0.800076
O O4 0.000000 0.500000 0.000000
O O5 0.707436 0.750000 0.104390
O O6 0.006595 0.487221 0.203270
O O7 0.500000 0.500000 0.000000
O O8 0.269187 0.250000 0.477613
O O9 0.479361 0.998821 0.593538
O O10 0.500000 0.000000 0.500000
O O11 0.999118 0.970942 0.396161
O O12 0.408356 0.250000 0.736451
O O13 0.491975 0.001270 0.698638
O O14 0.672495 0.250000 0.699734
#
# Coordination Sequence:
#
# PCOD8077749 Si02
#       5
#     4   4   4   4   4
#     4  12  25  42  63  91 123 161 206 256 310 369
#     4  11  22  40  64  92 124 163 207 255 305 363
#     4  11  22  39  61  89 121 160 205 252 304 364
#     4  11  22  40  63  90 122 159 200 251 308 368
#     4   9  21  39  61  86 119 159 202 248 301 360
#
# _framework density 20.686675999999999
#
# number of rings (size 3 to 8) (size 9 to 14) (size 15 to 20)
#    0.000    1.200    0.000    6.600    0.000    3.200 
#    0.000    9.000    0.000    0.000    0.000    0.000 
#    0.000    0.000    0.000    0.000    0.000    0.000 
#
# Total GULP energy -248108.895456 kJ/mol
# GULP energy per Si atom -12405.444773 kJ/mol
# Density = 2.063959 g / cm^3
# Si number density = 20.686676 Si / 1000 Ang^3
#
#
#
# Elastic Constant Matrix: (Units=GPa)
#
#
# Indices 1 2 3 4 5 6 
#
# 1 170.6081 -2.0014 74.4697 0.0000 5.1976 0.0000
# 2 -2.0014 46.8764 6.9738 0.0000 0.6509 0.0000
# 3 74.4697 6.9738 174.0496 0.0000 3.4550 0.0000
# 4 0.0000 0.0000 0.0000 35.5977 0.0000 -0.8827
# 5 5.1976 0.6509 3.4550 0.0000 51.0266 0.0000
# 6 0.0000 0.0000 0.0000 -0.8827 0.0000 32.6583
#
#
#
# Elastic Compliance Matrix: (Units=1/GPa)
#
#
# Indices 1 2 3 4 5 6 
#
# 1 0.007250 0.000782 -0.003123 0.000000 -0.000537 0.000000
# 2 0.000782 0.021547 -0.001192 0.000000 -0.000274 0.000000
# 3 -0.003123 -0.001192 0.007132 0.000000 -0.000150 0.000000
# 4 0.000000 0.000000 0.000000 0.028111 0.000000 0.000760
# 5 -0.000537 -0.000274 -0.000150 0.000000 0.019666 0.000000
# 6 0.000000 0.000000 0.000000 0.000760 0.000000 0.030641
#
#
# Mechanical properties :
#
#
# Convention : Reuss Voigt Hill
#
# Bulk Modulus (GPa) = 34.64684 61.15760 47.90222
# Shear Modulus (GPa) = 38.15795 44.66266 41.41030
#
# Velocity S-wave (km/s) = 4.29950 4.65155 4.47899
# Velocity P-wave (km/s) = 6.43680 7.64704 7.06787
#
# Compressibility (1/GPa) = 0.02886266
#
# Stress axis : x y z
#
# Youngs Moduli (GPa) = 137.93215 46.40963 140.20710
#
# Poissons Ratio (x) = -0.03627 0.43782
# Poissons Ratio (y) = -0.10780 0.16717
# Poissons Ratio (z) = 0.43071 0.05534
#
# Static dielectric constant tensor:
#      x y z
#    x 4.033280 0.000000 -0.008940 
#    y 0.000000 3.727990 0.000000 
#    z -0.008940 0.000000 4.072580 
# 
# 
# High freq. dielectric constant tensor:
#      x y z
#    x 1.830470 0.000000 0.001490 
#    y 0.000000 1.800930 0.000000 
#    z 0.001490 0.000000 1.831730 
# 
# From -- ./inp_files/15875.got.cif
#   From: 2010.06.25/outbox.cif.g09.slc.cpg/sg11_8_cif.got.tgz:15875.got - 2010.06.27 23:14:04.
