data_PCOD8077384
_publ_section_title
;
Structure prediction by ZEFSAII (Michael W. Deem and Ramdas Pophale) SiO2 
 PCOD8077384
Probable space group: P 21/M
;
_chemical_formula_sum "Si O2"
_cell_formula_units_Z 20
_cell_length_a 7.772050
_cell_length_b 8.946584
_cell_length_c 18.246224
_cell_angle_alpha 90.000000
_cell_angle_beta 129.333425
_cell_angle_gamma 90.000000
_cell_volume 981.317696
_symmetry_space_group_name_H-M "P 21/M"
_symmetry_group_IT_number 11
_symmetry_cell_setting 'monoclinic'
loop_
_space_group_symop_operation_xyz
x,y,z
-x,1/2+y,-z
-x,-y,-z
x,1/2-y,z
loop_
_atom_site_type_symbol
_atom_site_label
_atom_site_fract_x
_atom_site_fract_y
_atom_site_fract_z
Si Si1 0.788766 0.921676 0.908530
Si Si2 0.348683 0.079079 0.289690
Si Si3 0.995201 0.079071 0.708204
Si Si4 0.852046 0.072870 0.397989
Si Si5 0.439733 0.078722 0.908586
O O1 0.785194 0.750000 0.932778
O O2 0.796105 0.936732 0.823150
O O3 0.565788 0.999927 0.876091
O O4 0.000000 0.000000 0.000000
O O5 0.350013 0.250000 0.317004
O O6 0.598328 0.021953 0.342826
O O7 0.238459 0.979123 0.323088
O O8 0.965910 0.250000 0.674963
O O9 0.178177 0.064881 0.821828
O O10 0.065806 0.981530 0.658376
O O11 0.874568 0.250000 0.406728
O O12 0.000000 0.000000 0.500000
O O13 0.517023 0.250000 0.934345
O O14 0.500000 0.000000 0.000000
#
# Coordination Sequence:
#
# PCOD8077384 Si02
#       5
#     4   4   4   4   4
#     4  11  22  38  60  90 127 170 215 263 318 380
#     4  10  23  42  65  92 127 170 212 260 320 383
#     4  11  24  41  65  96 129 168 214 266 319 379
#     4  11  24  45  70  96 127 167 214 268 326 384
#     4  11  23  38  59  90 128 171 216 264 318 379
#
# _framework density 20.380759000000001
#
# number of rings (size 3 to 8) (size 9 to 14) (size 15 to 20)
#    0.000    1.200    2.000    3.600    0.000    9.600 
#    0.000    0.000    0.000    0.000    0.000    0.000 
#    0.000    0.000    0.000    0.000    0.000    0.000 
#
# Total GULP energy -248112.344779 kJ/mol
# GULP energy per Si atom -12405.617239 kJ/mol
# Density = 2.033437 g / cm^3
# Si number density = 20.380759 Si / 1000 Ang^3
#
#
#
# Elastic Constant Matrix: (Units=GPa)
#
#
# Indices 1 2 3 4 5 6 
#
# 1 146.8805 66.0949 40.1505 0.0000 0.3883 0.0000
# 2 66.0949 133.4469 50.3449 0.0000 0.0626 0.0000
# 3 40.1505 50.3449 103.5994 0.0000 5.5077 0.0000
# 4 0.0000 0.0000 0.0000 36.3060 0.0000 -3.1667
# 5 0.3883 0.0626 5.5077 0.0000 27.0894 0.0000
# 6 0.0000 0.0000 0.0000 -3.1667 0.0000 39.9020
#
#
#
# Elastic Compliance Matrix: (Units=1/GPa)
#
#
# Indices 1 2 3 4 5 6 
#
# 1 0.008977 -0.003832 -0.001628 0.000000 0.000211 0.000000
# 2 -0.003832 0.010833 -0.003822 0.000000 0.000807 0.000000
# 3 -0.001628 -0.003822 0.012272 0.000000 -0.002463 0.000000
# 4 0.000000 0.000000 0.000000 0.027736 0.000000 0.002201
# 5 0.000211 0.000807 -0.002463 0.000000 0.037411 0.000000
# 6 0.000000 0.000000 0.000000 0.002201 0.000000 0.025236
#
#
# Mechanical properties :
#
#
# Convention : Reuss Voigt Hill
#
# Bulk Modulus (GPa) = 73.97900 77.45637 75.71768
# Shear Modulus (GPa) = 34.35584 35.81524 35.08554
#
# Velocity S-wave (km/s) = 4.11018 4.19657 4.15360
# Velocity P-wave (km/s) = 7.67477 7.84658 7.76115
#
# Compressibility (1/GPa) = 0.01351735
#
# Stress axis : x y z
#
# Youngs Moduli (GPa) = 111.39336 92.30823 81.48681
#
# Poissons Ratio (x) = 0.35374 0.13267
# Poissons Ratio (y) = 0.42688 0.31146
# Poissons Ratio (z) = 0.18136 0.35282
#
# Static dielectric constant tensor:
#      x y z
#    x 3.855100 0.000000 0.120130 
#    y 0.000000 3.481440 0.000000 
#    z 0.120130 0.000000 3.788350 
# 
# 
# High freq. dielectric constant tensor:
#      x y z
#    x 1.805150 0.000000 0.001240 
#    y 0.000000 1.808390 0.000000 
#    z 0.001240 0.000000 1.796590 
# 
# From -- ./inp_files/57567.got.cif
#   From: 2010.06.25/outbox.cif.g09.slc.cpg/sg11_29_cif.got.tgz:57567.got - 2010.06.27 23:14:04.
