data_PCOD8077705
_publ_section_title
;
Structure prediction by ZEFSAII (Michael W. Deem and Ramdas Pophale) SiO2 
 PCOD8077705
Probable space group: P 21/M
;
_chemical_formula_sum "Si O2"
_cell_formula_units_Z 28
_cell_length_a 11.867111
_cell_length_b 8.719218
_cell_length_c 14.986649
_cell_angle_alpha 90.000000
_cell_angle_beta 118.945676
_cell_angle_gamma 90.000000
_cell_volume 1356.982752
_symmetry_space_group_name_H-M "P 21/M"
_symmetry_group_IT_number 11
_symmetry_cell_setting 'monoclinic'
loop_
_space_group_symop_operation_xyz
x,y,z
-x,1/2+y,-z
-x,-y,-z
x,1/2-y,z
loop_
_atom_site_type_symbol
_atom_site_label
_atom_site_fract_x
_atom_site_fract_y
_atom_site_fract_z
Si Si1 0.030355 0.929659 0.291437
Si Si2 0.623828 0.568964 0.301699
Si Si3 0.121146 0.070124 0.493986
Si Si4 0.361249 0.075012 0.196462
Si Si5 0.624087 0.924185 0.007415
Si Si6 0.769973 0.070355 0.204004
Si Si7 0.085640 0.931377 0.113103
O O1 0.051652 0.750000 0.305220
O O2 0.034944 0.986736 0.190670
O O3 0.133241 0.009864 0.396377
O O4 0.895041 0.978337 0.283819
O O5 0.611906 0.750000 0.282614
O O6 0.741620 0.523917 0.411143
O O7 0.488023 0.504474 0.288312
O O8 0.649339 0.484314 0.217297
O O9 0.100613 0.250000 0.486595
O O10 0.000000 0.000000 0.500000
O O11 0.350051 0.250000 0.226331
O O12 0.233292 0.982618 0.170537
O O13 0.375892 0.067444 0.097156
O O14 0.635935 0.750000 0.045787
O O15 0.743838 0.022268 0.091432
O O16 0.500000 0.000000 0.000000
O O17 0.793217 0.250000 0.221982
O O18 0.076232 0.750000 0.099751
O O19 0.000000 0.000000 0.000000
#
# Coordination Sequence:
#
# PCOD8077705 Si02
#       7
#     4   4   4   4   4   4   4
#     4  11  24  42  64  92 126 166 214 266 319 379
#     4  11  23  39  61  90 127 165 205 257 317 379
#     4  11  23  39  64  96 130 169 212 263 322 384
#     4  11  24  41  63  91 125 166 213 263 320 381
#     4  11  22  35  54  84 122 160 202 253 311 380
#     4  12  23  35  57  89 124 164 207 255 317 381
#     4  11  25  45  69  95 127 169 217 266 319 380
#
# _framework density 20.634011000000001
#
# number of rings (size 3 to 8) (size 9 to 14) (size 15 to 20)
#    0.000    0.857    2.857    4.714    0.000    9.143 
#    0.000    0.714    0.000    0.000    0.000    0.000 
#    0.000    0.000    0.000    0.000    0.000    0.000 
#
# Total GULP energy -347161.976354 kJ/mol
# GULP energy per Si atom -12398.642013 kJ/mol
# Density = 2.058705 g / cm^3
# Si number density = 20.634011 Si / 1000 Ang^3
#
#
#
# Elastic Constant Matrix: (Units=GPa)
#
#
# Indices 1 2 3 4 5 6 
#
# 1 100.3490 34.0420 41.8690 0.0000 19.1396 0.0000
# 2 34.0420 89.8319 51.7073 0.0000 3.6095 0.0000
# 3 41.8690 51.7073 128.6975 0.0000 14.8755 0.0000
# 4 0.0000 0.0000 0.0000 37.1706 0.0000 3.9199
# 5 19.1396 3.6095 14.8755 0.0000 34.3356 0.0000
# 6 0.0000 0.0000 0.0000 3.9199 0.0000 32.1995
#
#
#
# Elastic Compliance Matrix: (Units=1/GPa)
#
#
# Indices 1 2 3 4 5 6 
#
# 1 0.013224 -0.003505 -0.002194 0.000000 -0.006052 0.000000
# 2 -0.003505 0.015446 -0.005373 0.000000 0.002658 0.000000
# 3 -0.002194 -0.005373 0.010986 0.000000 -0.002972 0.000000
# 4 0.000000 0.000000 0.000000 0.027253 0.000000 -0.003318
# 5 -0.006052 0.002658 -0.002972 0.000000 0.033506 0.000000
# 6 0.000000 0.000000 0.000000 -0.003318 0.000000 0.031460
#
#
# Mechanical properties :
#
#
# Convention : Reuss Voigt Hill
#
# Bulk Modulus (GPa) = 57.10377 63.79055 60.44716
# Shear Modulus (GPa) = 31.27798 33.49182 32.38490
#
# Velocity S-wave (km/s) = 3.89761 4.03319 3.96598
# Velocity P-wave (km/s) = 6.92747 7.25749 7.09440
#
# Compressibility (1/GPa) = 0.01751198
#
# Stress axis : x y z
#
# Youngs Moduli (GPa) = 75.61888 64.74234 91.02393
#
# Poissons Ratio (x) = 0.22692 0.19975
# Poissons Ratio (y) = 0.26505 0.48904
# Poissons Ratio (z) = 0.16594 0.34784
#
# Static dielectric constant tensor:
#      x y z
#    x 4.155780 0.000000 -0.223920 
#    y 0.000000 3.881250 0.000000 
#    z -0.223920 0.000000 4.514320 
# 
# 
# High freq. dielectric constant tensor:
#      x y z
#    x 1.794250 0.000000 0.016510 
#    y 0.000000 1.818490 0.000000 
#    z 0.016510 0.000000 1.817250 
# 
# From -- ./inp_files/38425.got.cif
#   From: 2010.06.25/outbox.cif.g09.slc.cpg/sg11_20_cif.got.tgz:38425.got - 2010.06.27 23:14:04.
