data_PCOD8077471
_publ_section_title
;
Structure prediction by ZEFSAII (Michael W. Deem and Ramdas Pophale) SiO2 
 PCOD8077471
Probable space group: P 21/M
;
_chemical_formula_sum "Si O2"
_cell_formula_units_Z 20
_cell_length_a 18.364104
_cell_length_b 9.345633
_cell_length_c 10.855810
_cell_angle_alpha 90.000000
_cell_angle_beta 149.503426
_cell_angle_gamma 90.000000
_cell_volume 945.508604
_symmetry_space_group_name_H-M "P 21/M"
_symmetry_group_IT_number 11
_symmetry_cell_setting 'monoclinic'
loop_
_space_group_symop_operation_xyz
x,y,z
-x,1/2+y,-z
-x,-y,-z
x,1/2-y,z
loop_
_atom_site_type_symbol
_atom_site_label
_atom_site_fract_x
_atom_site_fract_y
_atom_site_fract_z
Si Si1 0.690752 0.587442 0.530979
Si Si2 0.581477 0.412562 0.721892
Si Si3 0.816278 0.911969 0.972812
Si Si4 0.921951 0.088792 0.490103
Si Si5 0.649072 0.080114 0.236585
O O1 0.734007 0.750000 0.557651
O O2 0.517636 0.582234 0.301127
O O3 0.781588 0.536226 0.783125
O O4 0.724217 0.478022 0.470366
O O5 0.500000 0.500000 0.500000
O O6 0.607243 0.250000 0.717447
O O7 0.735699 0.490234 0.959058
O O8 0.757449 0.750000 0.900033
O O9 0.984946 0.921495 0.247743
O O10 0.918478 0.250000 0.435398
O O11 0.759274 0.042076 0.285898
O O12 0.000000 0.000000 0.500000
O O13 0.624288 0.250000 0.210595
O O14 0.500000 0.000000 0.000000
#
# Coordination Sequence:
#
# PCOD8077471 Si02
#       5
#     4   4   4   4   4
#     4   9  19  36  59  88 123 158 197 250 306 362
#     4   9  17  30  52  85 122 157 195 241 293 353
#     4   9  19  37  60  88 122 157 199 254 309 361
#     4  10  24  44  64  90 123 161 205 256 310 367
#     4  11  25  43  63  89 124 163 206 253 305 367
#
# _framework density 21.152638
#
# number of rings (size 3 to 8) (size 9 to 14) (size 15 to 20)
#    0.000    2.400    0.000    2.400    2.800    7.200 
#    0.000    0.000    0.000    0.000    0.000    0.000 
#    0.000    0.000    0.000    0.000    0.000    0.000 
#
# Total GULP energy -247865.329832 kJ/mol
# GULP energy per Si atom -12393.266492 kJ/mol
# Density = 2.110449 g / cm^3
# Si number density = 21.152638 Si / 1000 Ang^3
#
#
#
# Elastic Constant Matrix: (Units=GPa)
#
#
# Indices 1 2 3 4 5 6 
#
# 1 120.1040 70.9441 47.2971 0.0000 12.0339 0.0000
# 2 70.9441 120.2723 40.3071 0.0000 13.0531 0.0000
# 3 47.2971 40.3071 92.1132 0.0000 18.0293 0.0000
# 4 0.0000 0.0000 0.0000 28.9504 0.0000 0.1209
# 5 12.0339 13.0531 18.0293 0.0000 27.7838 0.0000
# 6 0.0000 0.0000 0.0000 0.1209 0.0000 38.0654
#
#
#
# Elastic Compliance Matrix: (Units=1/GPa)
#
#
# Indices 1 2 3 4 5 6 
#
# 1 0.014042 -0.006867 -0.004177 0.000000 -0.000145 0.000000
# 2 -0.006867 0.013207 -0.001857 0.000000 -0.002026 0.000000
# 3 -0.004177 -0.001857 0.015222 0.000000 -0.007196 0.000000
# 4 0.000000 0.000000 0.000000 0.034542 0.000000 -0.000110
# 5 -0.000145 -0.002026 -0.007196 0.000000 0.041677 0.000000
# 6 0.000000 0.000000 0.000000 -0.000110 0.000000 0.026271
#
#
# Mechanical properties :
#
#
# Convention : Reuss Voigt Hill
#
# Bulk Modulus (GPa) = 59.98867 72.17625 66.08246
# Shear Modulus (GPa) = 28.35778 30.55599 29.45688
#
# Velocity S-wave (km/s) = 3.66543 3.80484 3.73579
# Velocity P-wave (km/s) = 6.80700 7.31424 7.06518
#
# Compressibility (1/GPa) = 0.01666982
#
# Stress axis : x y z
#
# Youngs Moduli (GPa) = 71.21571 75.71573 65.69559
#
# Poissons Ratio (x) = 0.51996 0.27438
# Poissons Ratio (y) = 0.48906 0.12197
# Poissons Ratio (z) = 0.29744 0.14058
#
# Static dielectric constant tensor:
#      x y z
#    x 3.841430 0.000000 0.278200 
#    y 0.000000 1.639360 0.000000 
#    z 0.278200 0.000000 4.302780 
# 
# 
# High freq. dielectric constant tensor:
#      x y z
#    x 1.810370 0.000000 -0.000110 
#    y 0.000000 1.828490 0.000000 
#    z -0.000110 0.000000 1.836050 
# 
# From -- ./inp_files/41013.got.cif
#   From: 2010.06.25/outbox.cif.g09.slc.cpg/sg11_21_cif.got.tgz:41013.got - 2010.06.27 23:14:04.
