data_PCOD8077776
_publ_section_title
;
Structure prediction by ZEFSAII (Michael W. Deem and Ramdas Pophale) SiO2 
 PCOD8077776
Probable space group: P 21/M
;
_chemical_formula_sum "Si O2"
_cell_formula_units_Z 20
_cell_length_a 12.053761
_cell_length_b 10.126771
_cell_length_c 10.547737
_cell_angle_alpha 90.000000
_cell_angle_beta 127.126046
_cell_angle_gamma 90.000000
_cell_volume 1026.549439
_symmetry_space_group_name_H-M "P 21/M"
_symmetry_group_IT_number 11
_symmetry_cell_setting 'monoclinic'
loop_
_space_group_symop_operation_xyz
x,y,z
-x,1/2+y,-z
-x,-y,-z
x,1/2-y,z
loop_
_atom_site_type_symbol
_atom_site_label
_atom_site_fract_x
_atom_site_fract_y
_atom_site_fract_z
Si Si1 0.681882 0.250000 0.754670
Si Si2 0.082467 0.409178 0.728222
Si Si3 0.209785 0.501852 0.559599
Si Si4 0.846109 0.507605 0.946833
Si Si5 0.630242 0.250000 0.416302
Si Si6 0.627378 0.750000 0.422945
Si Si7 0.673970 0.750000 0.741318
O O1 0.767196 0.374054 0.862629
O O2 0.670969 0.250000 0.593741
O O3 0.534928 0.250000 0.729245
O O4 0.079462 0.250000 0.716061
O O5 0.171705 0.474699 0.678544
O O6 0.926994 0.467330 0.617517
O O7 0.154750 0.458096 0.905586
O O8 0.311845 0.624357 0.617789
O O9 0.289477 0.376303 0.563634
O O10 0.766403 0.622194 0.820607
O O11 0.000000 0.500000 0.000000
O O12 0.465744 0.250000 0.271029
O O13 0.612584 0.750000 0.560929
#
# Coordination Sequence:
#
# PCOD8077776 Si02
#       7
#     2   4   4   4   2   2   2
#     4  11  25  41  63  98 134 162 212 261 308 377
#     4  11  23  43  65  96 129 160 217 265 306 379
#     4  11  23  40  69  90 126 170 209 260 316 361
#     4  12  24  41  66  92 129 168 203 263 324 368
#     4  11  22  42  65  93 130 168 212 261 305 374
#     4  11  22  42  63  97 128 166 216 259 303 380
#     4  11  23  39  65  94 126 172 212 251 320 379
#
# _framework density 19.482745999999999
#
# number of rings (size 3 to 8) (size 9 to 14) (size 15 to 20)
#    0.000    0.800    3.000    5.400    0.000    4.800 
#    0.000    6.000    0.000    0.000    0.000    0.000 
#    0.000    0.000    0.000    0.000    0.000    0.000 
#
# Total GULP energy -248011.680901 kJ/mol
# GULP energy per Si atom -12400.584045 kJ/mol
# Density = 1.943840 g / cm^3
# Si number density = 19.482746 Si / 1000 Ang^3
#
#
#
# Elastic Constant Matrix: (Units=GPa)
#
#
# Indices 1 2 3 4 5 6 
#
# 1 127.5345 70.3522 39.8823 0.0000 31.6513 0.0000
# 2 70.3522 186.3526 42.1964 0.0000 28.0675 0.0000
# 3 39.8823 42.1964 74.3532 0.0000 17.9932 0.0000
# 4 0.0000 0.0000 0.0000 60.7895 0.0000 15.1743
# 5 31.6513 28.0675 17.9932 0.0000 35.5592 0.0000
# 6 0.0000 0.0000 0.0000 15.1743 0.0000 50.8461
#
#
#
# Elastic Compliance Matrix: (Units=1/GPa)
#
#
# Indices 1 2 3 4 5 6 
#
# 1 0.012118 -0.002797 -0.003232 0.000000 -0.006943 0.000000
# 2 -0.002797 0.007216 -0.002073 0.000000 -0.002157 0.000000
# 3 -0.003232 -0.002073 0.017398 0.000000 -0.004290 0.000000
# 4 0.000000 0.000000 0.000000 0.017774 0.000000 -0.005305
# 5 -0.006943 -0.002157 -0.004290 0.000000 0.038175 0.000000
# 6 0.000000 0.000000 0.000000 -0.005305 0.000000 0.021250
#
#
# Mechanical properties :
#
#
# Convention : Reuss Voigt Hill
#
# Bulk Modulus (GPa) = 48.71627 77.01135 62.86381
# Shear Modulus (GPa) = 36.50180 45.15958 40.83069
#
# Velocity S-wave (km/s) = 4.33314 4.81971 4.58289
# Velocity P-wave (km/s) = 7.07771 8.40158 7.76790
#
# Compressibility (1/GPa) = 0.02052702
#
# Stress axis : x y z
#
# Youngs Moduli (GPa) = 82.52279 138.57144 57.47876
#
# Poissons Ratio (x) = 0.38761 0.18579
# Poissons Ratio (y) = 0.23083 0.11915
# Poissons Ratio (z) = 0.26674 0.28726
#
# Static dielectric constant tensor:
#      x y z
#    x 3.861220 0.000000 0.063980 
#    y 0.000000 3.609130 0.000000 
#    z 0.063980 0.000000 3.625870 
# 
# 
# High freq. dielectric constant tensor:
#      x y z
#    x 1.777120 0.000000 0.009840 
#    y 0.000000 1.779930 0.000000 
#    z 0.009840 0.000000 1.756980 
# 
# From -- ./inp_files/15986.got.cif
#   From: 2010.06.25/outbox.cif.g09.slc.cpg/sg11_8_cif.got.tgz:15986.got - 2010.06.27 23:14:04.
