data_PCOD8077369
_publ_section_title
;
Structure prediction by ZEFSAII (Michael W. Deem and Ramdas Pophale) SiO2 
 PCOD8077369
Probable space group: P 21/M
;
_chemical_formula_sum "Si O2"
_cell_formula_units_Z 24
_cell_length_a 15.500596
_cell_length_b 17.574273
_cell_length_c 8.819101
_cell_angle_alpha 90.000000
_cell_angle_beta 149.425663
_cell_angle_gamma 90.000000
_cell_volume 1222.008180
_symmetry_space_group_name_H-M "P 21/M"
_symmetry_group_IT_number 11
_symmetry_cell_setting 'monoclinic'
loop_
_space_group_symop_operation_xyz
x,y,z
-x,1/2+y,-z
-x,-y,-z
x,1/2-y,z
loop_
_atom_site_type_symbol
_atom_site_label
_atom_site_fract_x
_atom_site_fract_y
_atom_site_fract_z
Si Si1 0.991421 0.662097 0.296793
Si Si2 0.654507 0.467015 0.824234
Si Si3 0.853318 0.533397 0.876705
Si Si4 0.630055 0.561401 0.261883
Si Si5 0.855381 0.560386 0.329467
Si Si6 0.360821 0.837486 0.970272
O O1 0.954931 0.750000 0.206573
O O2 0.191775 0.645125 0.616702
O O3 0.902353 0.640520 0.322580
O O4 0.912697 0.613318 0.040411
O O5 0.500000 0.500000 0.500000
O O6 0.815784 0.472467 0.953896
O O7 0.680035 0.526213 0.000089
O O8 0.639344 0.382460 0.869059
O O9 0.686194 0.543164 0.519553
O O10 0.000000 0.500000 0.000000
O O11 0.805243 0.571434 0.430346
O O12 0.500000 0.500000 0.000000
O O13 0.521361 0.639370 0.109170
O O14 0.000000 0.500000 0.500000
O O15 0.372738 0.750000 0.033748
#
# Coordination Sequence:
#
# PCOD8077369 Si02
#       6
#     4   4   4   4   4   4
#     4  10  23  42  61  86 127 167 206 260 315 364
#     4  11  20  39  59  89 120 162 202 251 304 370
#     4  11  23  36  64  94 121 158 211 258 305 369
#     4  12  21  38  64  94 124 157 207 256 307 374
#     4  11  20  37  66  90 118 161 214 247 304 376
#     4  11  23  40  62  89 126 166 206 257 317 366
#
# _framework density 19.639803000000001
#
# number of rings (size 3 to 8) (size 9 to 14) (size 15 to 20)
#    0.000    1.000    5.000    3.000    0.000    1.333 
#    0.000    0.833    0.000    3.000    0.000    0.000 
#    0.000    0.000    0.000    0.000    0.000    0.000 
#
# Total GULP energy -297402.138096 kJ/mol
# GULP energy per Si atom -12391.755754 kJ/mol
# Density = 1.959510 g / cm^3
# Si number density = 19.639803 Si / 1000 Ang^3
#
#
#
# Elastic Constant Matrix: (Units=GPa)
#
#
# Indices 1 2 3 4 5 6 
#
# 1 141.5708 59.6026 27.7869 0.0000 7.6922 0.0000
# 2 59.6026 125.0244 54.7228 0.0000 1.8858 0.0000
# 3 27.7869 54.7228 102.8848 0.0000 -9.6069 0.0000
# 4 0.0000 0.0000 0.0000 31.2934 0.0000 0.3019
# 5 7.6922 1.8858 -9.6069 0.0000 32.2980 0.0000
# 6 0.0000 0.0000 0.0000 0.3019 0.0000 31.2343
#
#
#
# Elastic Compliance Matrix: (Units=1/GPa)
#
#
# Indices 1 2 3 4 5 6 
#
# 1 0.008967 -0.004042 -0.000462 0.000000 -0.002037 0.000000
# 2 -0.004042 0.012419 -0.005649 0.000000 -0.001443 0.000000
# 3 -0.000462 -0.005649 0.013258 0.000000 0.004384 0.000000
# 4 0.000000 0.000000 0.000000 0.031959 0.000000 -0.000309
# 5 -0.002037 -0.001443 0.004384 0.000000 0.032835 0.000000
# 6 0.000000 0.000000 0.000000 -0.000309 0.000000 0.032019
#
#
# Mechanical properties :
#
#
# Convention : Reuss Voigt Hill
#
# Bulk Modulus (GPa) = 69.74019 72.63386 71.18703
# Shear Modulus (GPa) = 31.94032 34.12298 33.03165
#
# Velocity S-wave (km/s) = 4.03712 4.17278 4.10551
# Velocity P-wave (km/s) = 7.57086 7.76398 7.66803
#
# Compressibility (1/GPa) = 0.01433893
#
# Stress axis : x y z
#
# Youngs Moduli (GPa) = 111.52571 80.51896 75.42436
#
# Poissons Ratio (x) = 0.32542 0.03486
# Poissons Ratio (y) = 0.45074 0.42606
# Poissons Ratio (z) = 0.05155 0.45484
#
# Static dielectric constant tensor:
#      x y z
#    x 2.705490 0.000000 0.124380 
#    y 0.000000 6.500790 0.000000 
#    z 0.124380 0.000000 4.057290 
# 
# 
# High freq. dielectric constant tensor:
#      x y z
#    x 1.776270 0.000000 0.005920 
#    y 0.000000 1.735850 0.000000 
#    z 0.005920 0.000000 1.786730 
# 
# From -- ./inp_files/22836.got.cif
#   From: 2010.06.25/outbox.cif.g09.slc.cpg/sg11_12_cif.got.tgz:22836.got - 2010.06.27 23:14:04.
