data_PCOD8077395
_publ_section_title
;
Structure prediction by ZEFSAII (Michael W. Deem and Ramdas Pophale) SiO2 
 PCOD8077395
Probable space group: P 21/M
;
_chemical_formula_sum "Si O2"
_cell_formula_units_Z 28
_cell_length_a 27.046691
_cell_length_b 8.624577
_cell_length_c 9.337632
_cell_angle_alpha 90.000000
_cell_angle_beta 141.762998
_cell_angle_gamma 90.000000
_cell_volume 1348.094236
_symmetry_space_group_name_H-M "P 21/M"
_symmetry_group_IT_number 11
_symmetry_cell_setting 'monoclinic'
loop_
_space_group_symop_operation_xyz
x,y,z
-x,1/2+y,-z
-x,-y,-z
x,1/2-y,z
loop_
_atom_site_type_symbol
_atom_site_label
_atom_site_fract_x
_atom_site_fract_y
_atom_site_fract_z
Si Si1 0.362947 0.066958 0.530307
Si Si2 0.513507 0.068267 0.687514
Si Si3 0.661396 0.433409 0.212453
Si Si4 0.766156 0.428812 0.971561
Si Si5 0.969097 0.068636 0.785199
Si Si6 0.203091 0.432313 0.661372
Si Si7 0.941235 0.070259 0.253194
O O1 0.350207 0.250000 0.495879
O O2 0.445666 0.015392 0.644924
O O3 0.361829 0.011775 0.691037
O O4 0.293997 0.984289 0.285373
O O5 0.512138 0.250000 0.664116
O O6 0.500000 0.000000 0.500000
O O7 0.597563 0.013935 0.946502
O O8 0.661441 0.250000 0.235622
O O9 0.748429 0.488518 0.358138
O O10 0.750725 0.250000 0.974856
O O11 0.756122 0.525273 0.094594
O O12 0.852221 0.456210 0.101094
O O13 0.953247 0.250000 0.759115
O O14 0.887781 0.990218 0.546066
O O15 0.043389 0.029761 0.852601
O O16 0.000000 0.000000 0.000000
O O17 0.205333 0.250000 0.643340
O O18 0.960452 0.250000 0.269504
O O19 0.000000 0.000000 0.500000
#
# Coordination Sequence:
#
# PCOD8077395 Si02
#       7
#     4   4   4   4   4   4   4
#     4  11  24  42  65  97 132 168 214 264 317 377
#     4  10  23  42  67  97 129 169 213 260 314 378
#     4  11  24  43  66  94 131 171 213 262 321 381
#     4  11  24  42  65  94 129 169 213 263 320 382
#     4  12  26  44  66  93 129 170 215 266 323 383
#     4  12  25  43  66  94 128 168 215 266 320 380
#     4  11  23  41  66  94 127 168 216 266 321 378
#
# _framework density 20.770060000000001
#
# number of rings (size 3 to 8) (size 9 to 14) (size 15 to 20)
#    0.000    0.857    1.429    5.571    2.000    6.286 
#    0.000    0.000    0.000    0.000    0.000    0.000 
#    0.000    0.000    0.000    0.000    0.000    0.000 
#
# Total GULP energy -347306.192021 kJ/mol
# GULP energy per Si atom -12403.792572 kJ/mol
# Density = 2.072279 g / cm^3
# Si number density = 20.770060 Si / 1000 Ang^3
#
#
#
# Elastic Constant Matrix: (Units=GPa)
#
#
# Indices 1 2 3 4 5 6 
#
# 1 123.4249 18.4603 21.2214 0.0000 -7.3496 0.0000
# 2 18.4603 -131.6972 -51.1994 0.0000 73.6336 0.0000
# 3 21.2214 -51.1994 58.5205 0.0000 17.4326 0.0000
# 4 0.0000 0.0000 0.0000 37.7631 0.0000 -6.2611
# 5 -7.3496 73.6336 17.4326 0.0000 19.8927 0.0000
# 6 0.0000 0.0000 0.0000 -6.2611 0.0000 38.7183
#
#
#
# Elastic Compliance Matrix: (Units=1/GPa)
#
#
# Indices 1 2 3 4 5 6 
#
# 1 0.008125 0.001362 -0.001552 0.000000 -0.000680 0.000000
# 2 0.001362 -0.001172 -0.004009 0.000000 0.008355 0.000000
# 3 -0.001552 -0.004009 0.013390 0.000000 0.002530 0.000000
# 4 0.000000 0.000000 0.000000 0.027210 0.000000 0.004400
# 5 -0.000680 0.008355 0.002530 0.000000 0.016874 0.000000
# 6 0.000000 0.000000 0.000000 0.004400 0.000000 0.026539
#
#
# Mechanical properties :
#
#
# Convention : Reuss Voigt Hill
#
# Bulk Modulus (GPa) = 83.71314 3.02365 43.36840
# Shear Modulus (GPa) = 48.38182 23.39255 35.88719
#
# Velocity S-wave (km/s) = 4.83162 3.35962 4.16123
# Velocity P-wave (km/s) = 8.45685 4.06305 6.63426
#
# Compressibility (1/GPa) = 0.01194556
#
# Stress axis : x y z
#
# Youngs Moduli (GPa) = 123.08093 -853.03110 74.68205
#
# Poissons Ratio (x) = 1.16191 0.11591
# Poissons Ratio (y) = -0.16765 0.29937
# Poissons Ratio (z) = 0.19103 -3.41940
#
# Static dielectric constant tensor:
#      x y z
#    x 3.879710 0.000000 0.003150 
#    y 0.000000 3.873970 0.000000 
#    z 0.003150 0.000000 3.907250 
# 
# 
# High freq. dielectric constant tensor:
#      x y z
#    x 1.833340 0.000000 -0.001780 
#    y 0.000000 1.823420 0.000000 
#    z -0.001780 0.000000 1.822900 
# 
# From -- ./inp_files/28539.got.cif
#   From: 2010.06.25/outbox.cif.g09.slc.cpg/sg11_15_cif.got.tgz:28539.got - 2010.06.27 23:14:04.
