data_PCOD8077498
_publ_section_title
;
Structure prediction by ZEFSAII (Michael W. Deem and Ramdas Pophale) SiO2 
 PCOD8077498
Probable space group: P 21/M
;
_chemical_formula_sum "Si O2"
_cell_formula_units_Z 16
_cell_length_a 4.985240
_cell_length_b 14.884061
_cell_length_c 8.922898
_cell_angle_alpha 90.000000
_cell_angle_beta 106.468211
_cell_angle_gamma 90.000000
_cell_volume 634.923946
_symmetry_space_group_name_H-M "P 21/M"
_symmetry_group_IT_number 11
_symmetry_cell_setting 'monoclinic'
loop_
_space_group_symop_operation_xyz
x,y,z
-x,1/2+y,-z
-x,-y,-z
x,1/2-y,z
loop_
_atom_site_type_symbol
_atom_site_label
_atom_site_fract_x
_atom_site_fract_y
_atom_site_fract_z
Si Si1 0.015810 0.350988 0.573349
Si Si2 0.386770 0.605753 0.229008
Si Si3 0.333850 0.250000 0.239805
Si Si4 0.469942 0.934314 0.636286
Si Si5 0.727919 0.250000 0.028216
O O1 0.939812 0.250000 0.518394
O O2 0.889108 0.374002 0.717503
O O3 0.862199 0.409596 0.418039
O O4 0.346742 0.363350 0.629778
O O5 0.432867 0.497520 0.207770
O O6 0.371145 0.659767 0.072186
O O7 0.348008 0.341685 0.341380
O O8 0.597248 0.250000 0.170955
O O9 0.059651 0.250000 0.094863
O O10 0.500000 0.000000 0.500000
#
# Coordination Sequence:
#
# PCOD8077498 Si02
#       5
#     4   4   2   4   2
#     4  11  19  39  69 100 131 170 225 281 340 385
#     4  11  23  41  69  99 132 185 219 271 333 406
#     4  12  28  46  68 102 136 180 222 286 330 404
#     4  10  25  45  72 103 137 170 230 288 346 392
#     4  12  26  44  68  96 142 188 228 262 330 414
#
# _framework density 25.199870000000001
#
# number of rings (size 3 to 8) (size 9 to 14) (size 15 to 20)
#    0.000    1.000    3.750    2.250    0.000   10.000 
#    0.000    0.000    0.000    0.000    0.000    0.000 
#    0.000    0.000    0.000    0.000    0.000    0.000 
#
# Total GULP energy -198246.982826 kJ/mol
# GULP energy per Si atom -12390.436427 kJ/mol
# Density = 2.514251 g / cm^3
# Si number density = 25.199870 Si / 1000 Ang^3
#
#
#
# Elastic Constant Matrix: (Units=GPa)
#
#
# Indices 1 2 3 4 5 6 
#
# 1 63.0794 27.6555 15.7378 0.0000 14.6378 0.0000
# 2 27.6555 232.5398 67.3598 0.0000 17.4346 0.0000
# 3 15.7378 67.3598 82.9845 0.0000 17.3620 0.0000
# 4 0.0000 0.0000 0.0000 42.7130 0.0000 4.7259
# 5 14.6378 17.4346 17.3620 0.0000 40.7121 0.0000
# 6 0.0000 0.0000 0.0000 4.7259 0.0000 35.6763
#
#
#
# Elastic Compliance Matrix: (Units=1/GPa)
#
#
# Indices 1 2 3 4 5 6 
#
# 1 0.018004 -0.001405 -0.001148 0.000000 -0.005382 0.000000
# 2 -0.001405 0.005742 -0.004376 0.000000 -0.000087 0.000000
# 3 -0.001148 -0.004376 0.016844 0.000000 -0.004897 0.000000
# 4 0.000000 0.000000 0.000000 0.023760 0.000000 -0.003147
# 5 -0.005382 -0.000087 -0.004897 0.000000 0.028624 0.000000
# 6 0.000000 0.000000 0.000000 -0.003147 0.000000 0.028447
#
#
# Mechanical properties :
#
#
# Convention : Reuss Voigt Hill
#
# Bulk Modulus (GPa) = 37.40699 66.67887 52.04293
# Shear Modulus (GPa) = 34.67660 41.67700 38.17680
#
# Velocity S-wave (km/s) = 3.71356 4.07118 3.89647
# Velocity P-wave (km/s) = 5.76747 6.97257 6.39845
#
# Compressibility (1/GPa) = 0.02673297
#
# Stress axis : x y z
#
# Youngs Moduli (GPa) = 55.54187 174.16985 59.36673
#
# Poissons Ratio (x) = 0.24475 0.06814
# Poissons Ratio (y) = 0.07805 0.25977
# Poissons Ratio (z) = 0.06375 0.76211
#
# Static dielectric constant tensor:
#      x y z
#    x 4.470870 0.000000 0.123460 
#    y 0.000000 6.283110 0.000000 
#    z 0.123460 0.000000 4.306620 
# 
# 
# High freq. dielectric constant tensor:
#      x y z
#    x 2.007920 0.000000 0.013140 
#    y 0.000000 2.036370 0.000000 
#    z 0.013140 0.000000 1.973280 
# 
# From -- ./inp_files/4105.got.cif
#   From: 2010.06.25/outbox.cif.g09.slc.cpg/sg11_3_cif.got.tgz:4105.got - 2010.06.27 23:14:04.
