data_PCOD8077435
_publ_section_title
;
Structure prediction by ZEFSAII (Michael W. Deem and Ramdas Pophale) SiO2 
 PCOD8077435
Probable space group: P 21/M
;
_chemical_formula_sum "Si O2"
_cell_formula_units_Z 32
_cell_length_a 8.440567
_cell_length_b 14.683947
_cell_length_c 23.475392
_cell_angle_alpha 90.000000
_cell_angle_beta 32.390349
_cell_angle_gamma 90.000000
_cell_volume 1558.606265
_symmetry_space_group_name_H-M "P 21/M"
_symmetry_group_IT_number 11
_symmetry_cell_setting 'monoclinic'
loop_
_space_group_symop_operation_xyz
x,y,z
-x,1/2+y,-z
-x,-y,-z
x,1/2-y,z
loop_
_atom_site_type_symbol
_atom_site_label
_atom_site_fract_x
_atom_site_fract_y
_atom_site_fract_z
Si Si1 0.261314 0.986759 0.150298
Si Si2 0.386009 0.385687 0.423070
Si Si3 0.333027 0.356826 0.040342
Si Si4 0.246985 0.020146 0.282117
Si Si5 0.669072 0.150860 0.220902
Si Si6 0.591457 0.576870 0.355642
Si Si7 0.247442 0.650805 0.359985
Si Si8 0.684689 0.350853 0.451746
O O1 0.340356 0.081062 0.094659
O O2 0.364026 0.004288 0.183305
O O3 0.915500 0.965182 0.252210
O O4 0.427895 0.898078 0.075676
O O5 0.601054 0.348827 0.308810
O O6 0.358318 0.494447 0.428695
O O7 0.509130 0.354251 0.446320
O O8 0.058971 0.346588 0.511497
O O9 0.403689 0.250000 0.032805
O O10 0.015695 0.366746 0.106866
O O11 0.493974 0.073605 0.241584
O O12 0.937907 0.073358 0.376215
O O13 0.211766 0.921684 0.320794
O O14 0.585747 0.250000 0.221097
O O15 0.517307 0.634002 0.321662
O O16 0.551164 0.634422 0.425660
O O17 0.303674 0.750000 0.315154
O O18 0.824154 0.250000 0.416358
#
# Coordination Sequence:
#
# PCOD8077435 Si02
#       8
#     4   4   4   4   4   4   4   4
#     4  11  24  42  70  92 123 166 205 262 325 367
#     4  12  21  41  61  89 127 168 213 258 308 368
#     4  10  23  44  67  94 121 157 212 265 318 379
#     4  12  23  41  63  93 133 163 210 253 313 385
#     4  11  22  39  64  92 124 164 207 263 320 373
#     4  12  22  43  62  88 130 171 212 257 314 371
#     4  12  25  39  60  90 129 175 215 255 306 376
#     4  12  24  37  62  97 131 169 213 259 306 372
#
# _framework density 20.531164
#
# number of rings (size 3 to 8) (size 9 to 14) (size 15 to 20)
#    0.000    0.500    5.000    4.125    0.000    4.000 
#    0.000    0.000    0.000    0.000    0.000    0.000 
#    0.000    0.000    0.000    0.000    0.000    0.000 
#
# Total GULP energy -396853.932755 kJ/mol
# GULP energy per Si atom -12401.685399 kJ/mol
# Density = 2.048443 g / cm^3
# Si number density = 20.531164 Si / 1000 Ang^3
#
#
#
# Elastic Constant Matrix: (Units=GPa)
#
#
# Indices 1 2 3 4 5 6 
#
# 1 93.7807 42.2934 40.7025 0.0000 13.5347 0.0000
# 2 42.2934 169.1904 43.5804 0.0000 10.1858 0.0000
# 3 40.7025 43.5804 82.3173 0.0000 18.8702 0.0000
# 4 0.0000 0.0000 0.0000 -3.0480 0.0000 -9.8043
# 5 13.5347 10.1858 18.8702 0.0000 25.8657 0.0000
# 6 0.0000 0.0000 0.0000 -9.8043 0.0000 12.0298
#
#
#
# Elastic Compliance Matrix: (Units=1/GPa)
#
#
# Indices 1 2 3 4 5 6 
#
# 1 0.014306 -0.002027 -0.005365 0.000000 -0.002774 0.000000
# 2 -0.002027 0.007131 -0.002849 0.000000 0.000331 0.000000
# 3 -0.005365 -0.002849 0.018503 0.000000 -0.009570 0.000000
# 4 0.000000 0.000000 0.000000 -0.090592 0.000000 -0.073833
# 5 -0.002774 0.000331 -0.009570 0.000000 0.046964 0.000000
# 6 0.000000 0.000000 0.000000 -0.073833 0.000000 0.022953
#
#
# Mechanical properties :
#
#
# Convention : Reuss Voigt Hill
#
# Bulk Modulus (GPa) = 51.39175 66.49343 58.94259
# Shear Modulus (GPa) = 108.14959 21.55032 64.84996
#
# Velocity S-wave (km/s) = 7.26568 3.24333 5.62625
# Velocity P-wave (km/s) = 9.77099 6.81781 8.42481
#
# Compressibility (1/GPa) = 0.01945838
#
# Stress axis : x y z
#
# Youngs Moduli (GPa) = 69.90012 140.22955 54.04648
#
# Poissons Ratio (x) = 0.28430 0.28994
# Poissons Ratio (y) = 0.14171 0.15397
# Poissons Ratio (z) = 0.37499 0.39949
#
# Static dielectric constant tensor:
#      x y z
#    x 3.689610 0.000000 0.046420 
#    y 0.000000 4.031620 0.000000 
#    z 0.046420 0.000000 3.683520 
# 
# 
# High freq. dielectric constant tensor:
#      x y z
#    x 1.800880 0.000000 -0.000200 
#    y 0.000000 1.823710 0.000000 
#    z -0.000200 0.000000 1.787910 
# 
# From -- ./inp_files/68130.got.cif
#   From: 2010.06.25/outbox.cif.g09.slc.cpg/sg11_35_cif.got.tgz:68130.got - 2010.06.27 23:14:04.
