data_PCOD8077242
_publ_section_title
;
Structure prediction by ZEFSAII (Michael W. Deem and Ramdas Pophale) SiO2 
 PCOD8077242
Probable space group: P 21/M
;
_chemical_formula_sum "Si O2"
_cell_formula_units_Z 28
_cell_length_a 18.821079
_cell_length_b 15.117996
_cell_length_c 8.722577
_cell_angle_alpha 90.000000
_cell_angle_beta 32.279258
_cell_angle_gamma 90.000000
_cell_volume 1325.447344
_symmetry_space_group_name_H-M "P 21/M"
_symmetry_group_IT_number 11
_symmetry_cell_setting 'monoclinic'
loop_
_space_group_symop_operation_xyz
x,y,z
-x,1/2+y,-z
-x,-y,-z
x,1/2-y,z
loop_
_atom_site_type_symbol
_atom_site_label
_atom_site_fract_x
_atom_site_fract_y
_atom_site_fract_z
Si Si1 0.657344 0.553309 0.392780
Si Si2 0.696390 0.645374 0.004754
Si Si3 0.148312 0.850813 0.398366
Si Si4 0.571597 0.152919 0.023842
Si Si5 0.002937 0.151385 0.630235
Si Si6 0.489184 0.924270 0.154181
Si Si7 0.046623 0.017192 0.082884
O O1 0.645092 0.584180 0.238976
O O2 0.565473 0.615049 0.663613
O O3 0.602523 0.454291 0.533668
O O4 0.807361 0.559278 0.177640
O O5 0.664844 0.750000 0.089627
O O6 0.627889 0.609944 0.973585
O O7 0.853749 0.629556 0.704211
O O8 0.142335 0.750000 0.473383
O O9 0.111231 0.852746 0.288662
O O10 0.046825 0.910304 0.674260
O O11 0.295311 0.894330 0.152370
O O12 0.579268 0.250000 0.076040
O O13 0.574820 0.154143 0.830515
O O14 0.006392 0.250000 0.698276
O O15 0.960296 0.078465 0.827889
O O16 0.500000 0.000000 0.000000
O O17 0.000000 0.000000 0.000000
#
# Coordination Sequence:
#
# PCOD8077242 Si02
#       7
#     4   4   4   4   4   4   4
#     4  11  24  40  64  99 132 167 223 276 328 397
#     4  11  23  42  67  97 130 174 226 277 330 395
#     4  10  22  43  68  95 133 177 223 271 332 405
#     4  10  22  41  67  96 133 178 218 270 334 399
#     4  10  24  44  68  95 129 177 227 278 338 406
#     4  10  23  39  62  94 134 172 215 267 333 398
#     4  12  26  41  67  99 133 176 218 280 343 402
#
# _framework density 21.124945
#
# number of rings (size 3 to 8) (size 9 to 14) (size 15 to 20)
#    0.000    1.429    1.429    2.571    8.000    2.286 
#    0.000    2.857    0.000    0.000    0.000    0.000 
#    0.000    0.000    0.000    0.000    0.000    0.000 
#
# Total GULP energy -346923.118832 kJ/mol
# GULP energy per Si atom -12390.111387 kJ/mol
# Density = 2.107686 g / cm^3
# Si number density = 21.124945 Si / 1000 Ang^3
#
#
#
# Elastic Constant Matrix: (Units=GPa)
#
#
# Indices 1 2 3 4 5 6 
#
# 1 164.0503 49.7311 64.2700 0.0000 -9.8966 0.0000
# 2 49.7311 87.8523 54.8424 0.0000 -9.9331 0.0000
# 3 64.2700 54.8424 108.9907 0.0000 -30.8413 0.0000
# 4 0.0000 0.0000 0.0000 9.5841 0.0000 -17.0635
# 5 -9.8966 -9.9331 -30.8413 0.0000 21.5507 0.0000
# 6 0.0000 0.0000 0.0000 -17.0635 0.0000 20.4258
#
#
#
# Elastic Compliance Matrix: (Units=1/GPa)
#
#
# Indices 1 2 3 4 5 6 
#
# 1 0.008510 -0.002028 -0.005305 0.000000 -0.004618 0.000000
# 2 -0.002028 0.017777 -0.009570 0.000000 -0.006432 0.000000
# 3 -0.005305 -0.009570 0.025512 0.000000 0.029664 0.000000
# 4 0.000000 0.000000 0.000000 -0.214108 0.000000 -0.178863
# 5 -0.004618 -0.006432 0.029664 0.000000 0.083769 0.000000
# 6 0.000000 0.000000 0.000000 -0.178863 0.000000 -0.100463
#
#
# Mechanical properties :
#
#
# Convention : Reuss Voigt Hill
#
# Bulk Modulus (GPa) = 55.56940 77.62005 66.59472
# Shear Modulus (GPa) = -35.91979 23.11546 -6.40217
#
# Velocity S-wave (km/s) = -4.12800 3.31150 -1.74276
# Velocity P-wave (km/s) = 1.90832 7.17248 5.24815
#
# Compressibility (1/GPa) = 0.01799552
#
# Stress axis : x y z
#
# Youngs Moduli (GPa) = 117.50793 56.25128 39.19659
#
# Poissons Ratio (x) = 0.11408 0.20792
# Poissons Ratio (y) = 0.23832 0.37509
# Poissons Ratio (z) = 0.62332 0.53830
#
# Static dielectric constant tensor:
#      x y z
#    x 4.841310 0.000000 0.045810 
#    y 0.000000 -1.124210 0.000000 
#    z 0.045810 0.000000 3.784210 
# 
# 
# High freq. dielectric constant tensor:
#      x y z
#    x 1.843570 0.000000 -0.012910 
#    y 0.000000 1.837570 0.000000 
#    z -0.012910 0.000000 1.817820 
# 
# From -- ./inp_files/26908.got.cif
#   From: 2010.06.25/outbox.cif.g09.slc.cpg/sg11_14_cif.got.tgz:26908.got - 2010.06.27 23:14:04.
