data_PCOD8077072
_publ_section_title
;
Structure prediction by ZEFSAII (Michael W. Deem and Ramdas Pophale) SiO2 
 PCOD8077072
Probable space group: P 21/M
;
_chemical_formula_sum "Si O2"
_cell_formula_units_Z 28
_cell_length_a 15.040303
_cell_length_b 8.599619
_cell_length_c 11.839417
_cell_angle_alpha 90.000000
_cell_angle_beta 61.050434
_cell_angle_gamma 90.000000
_cell_volume 1339.976109
_symmetry_space_group_name_H-M "P 21/M"
_symmetry_group_IT_number 11
_symmetry_cell_setting 'monoclinic'
loop_
_space_group_symop_operation_xyz
x,y,z
-x,1/2+y,-z
-x,-y,-z
x,1/2-y,z
loop_
_atom_site_type_symbol
_atom_site_label
_atom_site_fract_x
_atom_site_fract_y
_atom_site_fract_z
Si Si1 0.114708 0.066984 0.422428
Si Si2 0.716953 0.431108 0.525205
Si Si3 0.512023 0.566862 0.618746
Si Si4 0.816998 0.431022 0.848388
Si Si5 0.998880 0.934457 0.876619
Si Si6 0.204653 0.431283 0.730855
Si Si7 0.307042 0.570396 0.868453
O O1 0.101967 0.250000 0.427065
O O2 0.185194 0.017660 0.483415
O O3 0.181001 0.012061 0.274061
O O4 0.000000 0.000000 0.500000
O O5 0.725507 0.250000 0.546468
O O6 0.607143 0.495307 0.630557
O O7 0.714899 0.470949 0.392684
O O8 0.500000 0.500000 0.500000
O O9 0.525813 0.750000 0.598839
O O10 0.418753 0.521697 0.758776
O O11 0.837945 0.250000 0.816572
O O12 0.903348 0.507265 0.868831
O O13 0.712269 0.458728 0.984849
O O14 0.004067 0.750000 0.873808
O O15 0.096012 0.007546 0.755340
O O16 0.000000 0.000000 0.000000
O O17 0.215944 0.250000 0.699926
O O18 0.224816 0.468337 0.849911
O O19 0.284862 0.750000 0.854011
#
# Coordination Sequence:
#
# PCOD8077072 Si02
#       7
#     4   4   4   4   4   4   4
#     4  12  26  47  71  97 129 169 219 271 324 391
#     4  12  25  43  66  94 129 171 220 272 326 386
#     4  11  22  39  64  98 134 173 217 269 328 389
#     4  11  23  42  65  92 128 170 214 266 326 387
#     4  12  23  36  55  86 125 165 208 258 317 384
#     4  12  23  36  59  90 126 166 211 263 323 387
#     4  10  22  39  62  91 130 169 209 260 321 386
#
# _framework density 20.895894999999999
#
# number of rings (size 3 to 8) (size 9 to 14) (size 15 to 20)
#    0.000    0.571    2.857    6.857    0.000    1.143 
#    0.000    0.714    0.000    0.000    0.000    0.000 
#    0.000    0.000    0.000    0.000    0.000    0.000 
#
# Total GULP energy -347119.384067 kJ/mol
# GULP energy per Si atom -12397.120860 kJ/mol
# Density = 2.084833 g / cm^3
# Si number density = 20.895895 Si / 1000 Ang^3
#
#
#
# Elastic Constant Matrix: (Units=GPa)
#
#
# Indices 1 2 3 4 5 6 
#
# 1 90.9903 38.7762 32.5787 0.0000 -15.7629 0.0000
# 2 38.7762 143.2674 46.4891 0.0000 -10.9994 0.0000
# 3 32.5787 46.4891 127.8695 0.0000 -13.6994 0.0000
# 4 0.0000 0.0000 0.0000 34.6336 0.0000 1.6177
# 5 -15.7629 -10.9994 -13.6994 0.0000 34.2284 0.0000
# 6 0.0000 0.0000 0.0000 1.6177 0.0000 34.9963
#
#
#
# Elastic Compliance Matrix: (Units=1/GPa)
#
#
# Indices 1 2 3 4 5 6 
#
# 1 0.013655 -0.002690 -0.002006 0.000000 0.004621 0.000000
# 2 -0.002690 0.008513 -0.002350 0.000000 0.000556 0.000000
# 3 -0.002006 -0.002350 0.009410 0.000000 0.002087 0.000000
# 4 0.000000 0.000000 0.000000 0.028936 0.000000 -0.001338
# 5 0.004621 0.000556 0.002087 0.000000 0.032358 0.000000
# 6 0.000000 0.000000 0.000000 -0.001338 0.000000 0.028636
#
#
# Mechanical properties :
#
#
# Convention : Reuss Voigt Hill
#
# Bulk Modulus (GPa) = 57.18954 66.42391 61.80672
# Shear Modulus (GPa) = 35.35322 37.05722 36.20522
#
# Velocity S-wave (km/s) = 4.11770 4.21577 4.16702
# Velocity P-wave (km/s) = 7.07358 7.45345 7.26600
#
# Compressibility (1/GPa) = 0.01748571
#
# Stress axis : x y z
#
# Youngs Moduli (GPa) = 73.23094 117.46192 106.27445
#
# Poissons Ratio (x) = 0.31600 0.21318
# Poissons Ratio (y) = 0.19701 0.24976
# Poissons Ratio (z) = 0.14690 0.27606
#
# Static dielectric constant tensor:
#      x y z
#    x 3.816050 0.000000 -0.072540 
#    y 0.000000 3.274120 0.000000 
#    z -0.072540 0.000000 4.585380 
# 
# 
# High freq. dielectric constant tensor:
#      x y z
#    x 1.804750 0.000000 -0.016430 
#    y 0.000000 1.829750 0.000000 
#    z -0.016430 0.000000 1.830520 
# 
# From -- ./inp_files/37877.got.cif
#   From: 2010.06.25/outbox.cif.g09.slc.cpg/sg11_19_cif.got.tgz:37877.got - 2010.06.27 23:14:04.
