data_PCOD8077257
_publ_section_title
;
Structure prediction by ZEFSAII (Michael W. Deem and Ramdas Pophale) SiO2 
 PCOD8077257
Probable space group: P 21/M
;
_chemical_formula_sum "Si O2"
_cell_formula_units_Z 32
_cell_length_a 28.221548
_cell_length_b 8.920807
_cell_length_c 11.970864
_cell_angle_alpha 90.000000
_cell_angle_beta 32.576066
_cell_angle_gamma 90.000000
_cell_volume 1622.671866
_symmetry_space_group_name_H-M "P 21/M"
_symmetry_group_IT_number 11
_symmetry_cell_setting 'monoclinic'
loop_
_space_group_symop_operation_xyz
x,y,z
-x,1/2+y,-z
-x,-y,-z
x,1/2-y,z
loop_
_atom_site_type_symbol
_atom_site_label
_atom_site_fract_x
_atom_site_fract_y
_atom_site_fract_z
Si Si1 0.170385 0.919049 0.894479
Si Si2 0.405945 0.573118 0.688595
Si Si3 0.996796 0.426997 0.627368
Si Si4 0.491606 0.572641 0.895367
Si Si5 0.149849 0.080932 0.485697
Si Si6 0.649722 0.578598 0.980401
Si Si7 0.346176 0.424233 0.588139
Si Si8 0.090290 0.916868 0.811301
O O1 0.200691 0.750000 0.866711
O O2 0.137753 0.920787 0.834092
O O3 0.249862 0.036774 0.735051
O O4 0.093435 0.973598 0.131015
O O5 0.500000 0.500000 0.500000
O O6 0.414598 0.750000 0.681332
O O7 0.355780 0.527916 0.676850
O O8 0.355087 0.511045 0.895559
O O9 0.002555 0.250000 0.600549
O O10 0.000000 0.500000 0.500000
O O11 0.080341 0.485556 0.533786
O O12 0.477340 0.750000 0.935632
O O13 0.579796 0.535919 0.650409
O O14 0.500000 0.500000 0.000000
O O15 0.407495 0.501620 0.001284
O O16 0.120074 0.250000 0.571629
O O17 0.248021 0.073757 0.247383
O O18 0.151618 0.990531 0.596689
O O19 0.616345 0.750000 0.059287
O O20 0.352145 0.250000 0.609356
O O21 0.069950 0.750000 0.812436
O O22 0.000000 0.000000 0.000000
#
# Coordination Sequence:
#
# PCOD8077257 Si02
#       8
#     4   4   4   4   4   4   4   4
#     4  10  23  42  63  91 126 164 206 259 314 368
#     4  12  24  42  68  95 127 165 211 263 316 373
#     4  10  22  42  62  88 126 165 205 254 309 367
#     4  11  25  44  65  91 128 170 212 262 317 379
#     4  10  23  43  64  91 128 165 206 258 313 371
#     4  11  24  42  67  96 128 168 211 260 319 376
#     4  11  25  43  65  94 126 166 213 260 316 375
#     4  11  22  40  66  93 124 164 210 259 315 372
#
# _framework density 19.720562000000001
#
# number of rings (size 3 to 8) (size 9 to 14) (size 15 to 20)
#    0.000    1.250    2.500    2.625    3.500    4.500 
#    0.000    0.000    0.000    0.000    0.000    0.000 
#    0.000    0.000    0.000    0.000    0.000    0.000 
#
# Total GULP energy -396872.756664 kJ/mol
# GULP energy per Si atom -12402.273646 kJ/mol
# Density = 1.967568 g / cm^3
# Si number density = 19.720562 Si / 1000 Ang^3
#
#
#
# Elastic Constant Matrix: (Units=GPa)
#
#
# Indices 1 2 3 4 5 6 
#
# 1 104.3166 51.3928 58.1590 0.0000 11.2606 0.0000
# 2 51.3928 123.5688 57.0601 0.0000 10.1612 0.0000
# 3 58.1590 57.0601 97.1691 0.0000 6.7718 0.0000
# 4 0.0000 0.0000 0.0000 27.1919 0.0000 4.2128
# 5 11.2606 10.1612 6.7718 0.0000 43.8189 0.0000
# 6 0.0000 0.0000 0.0000 4.2128 0.0000 37.9293
#
#
#
# Elastic Compliance Matrix: (Units=1/GPa)
#
#
# Indices 1 2 3 4 5 6 
#
# 1 0.015300 -0.002781 -0.007374 0.000000 -0.002147 0.000000
# 2 -0.002781 0.011719 -0.005133 0.000000 -0.001210 0.000000
# 3 -0.007374 -0.005133 0.017695 0.000000 0.000351 0.000000
# 4 0.000000 0.000000 0.000000 0.037420 0.000000 -0.004156
# 5 -0.002147 -0.001210 0.000351 0.000000 0.023599 0.000000
# 6 0.000000 0.000000 0.000000 -0.004156 0.000000 0.026826
#
#
# Mechanical properties :
#
#
# Convention : Reuss Voigt Hill
#
# Bulk Modulus (GPa) = 70.73879 73.14202 71.94041
# Shear Modulus (GPa) = 29.78888 32.35086 31.06987
#
# Velocity S-wave (km/s) = 3.89080 4.05466 3.97357
# Velocity P-wave (km/s) = 7.49218 7.68701 7.59022
#
# Compressibility (1/GPa) = 0.01413652
#
# Stress axis : x y z
#
# Youngs Moduli (GPa) = 65.36083 85.33157 56.51384
#
# Poissons Ratio (x) = 0.23734 0.41676
# Poissons Ratio (y) = 0.18179 0.29007
# Poissons Ratio (z) = 0.48200 0.43798
#
# Static dielectric constant tensor:
#      x y z
#    x 3.609170 0.000000 0.068270 
#    y 0.000000 3.815060 0.000000 
#    z 0.068270 0.000000 3.797850 
# 
# 
# High freq. dielectric constant tensor:
#      x y z
#    x 1.779880 0.000000 0.002160 
#    y 0.000000 1.776890 0.000000 
#    z 0.002160 0.000000 1.780730 
# 
# From -- ./inp_files/45165.got.cif
#   From: 2010.06.25/outbox.cif.g09.slc.cpg/sg11_23_cif.got.tgz:45165.got - 2010.06.27 23:14:04.
