data_PCOD8077008
_publ_section_title
;
Structure prediction by ZEFSAII (Michael W. Deem and Ramdas Pophale) SiO2 
 PCOD8077008
Probable space group: P 21/M
;
_chemical_formula_sum "Si O2"
_cell_formula_units_Z 32
_cell_length_a 23.557327
_cell_length_b 14.967124
_cell_length_c 8.120271
_cell_angle_alpha 90.000000
_cell_angle_beta 146.989369
_cell_angle_gamma 90.000000
_cell_volume 1559.795685
_symmetry_space_group_name_H-M "P 21/M"
_symmetry_group_IT_number 11
_symmetry_cell_setting 'monoclinic'
loop_
_space_group_symop_operation_xyz
x,y,z
-x,1/2+y,-z
-x,-y,-z
x,1/2-y,z
loop_
_atom_site_type_symbol
_atom_site_label
_atom_site_fract_x
_atom_site_fract_y
_atom_site_fract_z
Si Si1 0.775072 0.532601 0.252933
Si Si2 0.635278 0.009300 0.183868
Si Si3 0.960150 0.410641 0.688968
Si Si4 0.052774 0.152144 0.232358
Si Si5 0.835864 0.503061 0.877869
Si Si6 0.262569 0.351333 0.154971
Si Si7 0.928486 0.151894 0.265028
Si Si8 0.462989 0.353826 0.849864
O O1 0.665061 0.504242 0.065438
O O2 0.843586 0.446366 0.373021
O O3 0.848962 0.587218 0.560743
O O4 0.744466 0.595629 0.029858
O O5 0.746072 0.028753 0.537968
O O6 0.579502 0.917746 0.107309
O O7 0.567937 0.099049 0.040576
O O8 0.985043 0.356060 0.580933
O O9 0.965576 0.357076 0.874754
O O10 0.048621 0.488507 0.923216
O O11 0.099978 0.250000 0.329534
O O12 0.010845 0.139687 0.316674
O O13 0.809068 0.600019 0.885358
O O14 0.842041 0.425805 0.032823
O O15 0.222375 0.250000 0.035651
O O16 0.382214 0.353152 0.503490
O O17 0.876282 0.250000 0.125396
O O18 0.482656 0.250000 0.956076
#
# Coordination Sequence:
#
# PCOD8077008 Si02
#       8
#     4   4   4   4   4   4   4   4
#     4  12  21  37  60  90 125 159 205 250 305 365
#     4  10  22  38  67  93 116 157 201 256 314 373
#     4  12  22  39  58  86 133 177 202 252 303 356
#     4  11  23  36  55  86 123 169 218 257 295 349
#     4  11  20  40  60  85 126 168 205 245 301 365
#     4  10  22  38  63  91 117 155 205 260 313 363
#     4  11  23  38  57  85 125 177 220 246 291 358
#     4   9  21  44  65  89 119 151 199 257 322 380
#
# _framework density 20.515506999999999
#
# number of rings (size 3 to 8) (size 9 to 14) (size 15 to 20)
#    0.000    1.250    3.750    3.000    0.000    4.000 
#    0.000    1.250    0.000    0.000    0.000    0.000 
#    0.000    0.000    0.000    0.000    0.000    0.000 
#
# Total GULP energy -396510.714898 kJ/mol
# GULP energy per Si atom -12390.959841 kJ/mol
# Density = 2.046881 g / cm^3
# Si number density = 20.515507 Si / 1000 Ang^3
#
#
#
# Elastic Constant Matrix: (Units=GPa)
#
#
# Indices 1 2 3 4 5 6 
#
# 1 91.6663 25.5856 32.6969 0.0000 -1.5955 0.0000
# 2 25.5856 100.9990 25.9611 0.0000 12.0967 0.0000
# 3 32.6969 25.9611 56.7813 0.0000 7.9088 0.0000
# 4 0.0000 0.0000 0.0000 31.7178 0.0000 0.8447
# 5 -1.5955 12.0967 7.9088 0.0000 32.8035 0.0000
# 6 0.0000 0.0000 0.0000 0.8447 0.0000 19.7498
#
#
#
# Elastic Compliance Matrix: (Units=1/GPa)
#
#
# Indices 1 2 3 4 5 6 
#
# 1 0.014304 -0.002023 -0.007774 0.000000 0.003316 0.000000
# 2 -0.002023 0.011799 -0.003736 0.000000 -0.003549 0.000000
# 3 -0.007774 -0.003736 0.024479 0.000000 -0.004902 0.000000
# 4 0.000000 0.000000 0.000000 0.031564 0.000000 -0.001350
# 5 0.003316 -0.003549 -0.004902 0.000000 0.033136 0.000000
# 6 0.000000 0.000000 0.000000 -0.001350 0.000000 0.050691
#
#
# Mechanical properties :
#
#
# Convention : Reuss Voigt Hill
#
# Bulk Modulus (GPa) = 42.52168 46.43709 44.47938
# Shear Modulus (GPa) = 24.89084 27.86776 26.37930
#
# Velocity S-wave (km/s) = 3.48698 3.68961 3.58973
# Velocity P-wave (km/s) = 6.08142 6.39025 6.23774
#
# Compressibility (1/GPa) = 0.02351742
#
# Stress axis : x y z
#
# Youngs Moduli (GPa) = 69.90861 84.75534 40.85155
#
# Poissons Ratio (x) = 0.17142 0.31759
# Poissons Ratio (y) = 0.14139 0.15260
# Poissons Ratio (z) = 0.54348 0.31661
#
# Static dielectric constant tensor:
#      x y z
#    x 3.635690 0.000000 -0.070180 
#    y 0.000000 3.975560 0.000000 
#    z -0.070180 0.000000 3.661750 
# 
# 
# High freq. dielectric constant tensor:
#      x y z
#    x 1.794400 0.000000 -0.014860 
#    y 0.000000 1.810490 0.000000 
#    z -0.014860 0.000000 1.785550 
# 
# From -- ./inp_files/27824.got.cif
#   From: 2010.06.25/outbox.cif.g09.slc.cpg/sg11_14_cif.got.tgz:27824.got - 2010.06.27 23:14:04.
