data_PCOD8077710
_publ_section_title
;
Structure prediction by ZEFSAII (Michael W. Deem and Ramdas Pophale) SiO2 
 PCOD8077710
Probable space group: P 21/M
;
_chemical_formula_sum "Si O2"
_cell_formula_units_Z 32
_cell_length_a 28.250500
_cell_length_b 8.911014
_cell_length_c 15.833061
_cell_angle_alpha 90.000000
_cell_angle_beta 153.142938
_cell_angle_gamma 90.000000
_cell_volume 1800.660937
_symmetry_space_group_name_H-M "P 21/M"
_symmetry_group_IT_number 11
_symmetry_cell_setting 'monoclinic'
loop_
_space_group_symop_operation_xyz
x,y,z
-x,1/2+y,-z
-x,-y,-z
x,1/2-y,z
loop_
_atom_site_type_symbol
_atom_site_label
_atom_site_fract_x
_atom_site_fract_y
_atom_site_fract_z
Si Si1 0.773924 0.427894 0.795122
Si Si2 0.700154 0.427564 0.500002
Si Si3 0.521196 0.927894 0.795119
Si Si4 0.262585 0.073712 0.785374
Si Si5 0.022788 0.926287 0.785371
Si Si6 0.948689 0.428368 0.499997
Si Si7 0.449354 0.926698 0.499999
Si Si8 0.200500 0.079348 0.500001
O O1 0.780757 0.250000 0.803969
O O2 0.765336 0.488284 0.685040
O O3 0.671448 0.478926 0.684249
O O4 0.877366 0.491435 0.005208
O O5 0.697682 0.250000 0.500002
O O6 0.580298 0.488284 0.314965
O O7 0.754116 0.475209 0.500003
O O8 0.523210 0.750000 0.803967
O O9 0.512800 0.978924 0.684248
O O10 0.627839 0.991435 0.005205
O O11 0.246082 0.250000 0.778133
O O12 0.261487 0.044060 0.683569
O O13 0.171006 0.982856 0.685450
O O14 0.032054 0.750000 0.778133
O O15 0.922083 0.955929 0.683571
O O16 0.014439 0.017147 0.685443
O O17 0.952360 0.250000 0.499995
O O18 0.000000 0.500000 0.500000
O O19 0.455850 0.750000 0.499998
O O20 0.500000 0.000000 0.500000
O O21 0.218051 0.250000 0.500010
#
# Coordination Sequence:
#
# PCOD8077710 Si02
#       8
#     4   4   4   4   4   4   4   4
#     4   8  16  32  52  71  95 130 166 199 239 290
#     4   9  17  31  51  73  98 131 168 201 238 291
#     4   8  16  32  52  71  95 130 166 199 239 290
#     4   9  18  35  54  71  97 132 166 201 245 292
#     4   9  18  35  54  71  97 132 166 201 245 292
#     4  11  22  36  53  75 101 128 162 202 245 291
#     4   9  17  31  50  72  97 124 158 198 241 288
#     4   9  18  30  46  70  99 129 162 205 253 290
#
# _framework density 17.771252
#
# number of rings (size 3 to 8) (size 9 to 14) (size 15 to 20)
#    0.000    3.000    0.000    3.375    0.000    4.000 
#    0.000    7.500    0.000    0.000    0.000    0.000 
#    0.000    0.000    0.000    0.000    0.000    0.000 
#
# Total GULP energy -396688.781234 kJ/mol
# GULP energy per Si atom -12396.524414 kJ/mol
# Density = 1.773080 g / cm^3
# Si number density = 17.771252 Si / 1000 Ang^3
#
#
#
# Elastic Constant Matrix: (Units=GPa)
#
#
# Indices 1 2 3 4 5 6 
#
# 1 142.3413 42.2920 78.2134 0.0000 -1.3526 0.0000
# 2 42.2920 51.1934 36.2491 0.0000 -0.2140 0.0000
# 3 78.2134 36.2491 186.5745 0.0000 2.9299 0.0000
# 4 0.0000 0.0000 0.0000 17.4943 0.0000 -0.6378
# 5 -1.3526 -0.2140 2.9299 0.0000 13.1992 0.0000
# 6 0.0000 0.0000 0.0000 -0.6378 0.0000 35.4115
#
#
#
# Elastic Compliance Matrix: (Units=1/GPa)
#
#
# Indices 1 2 3 4 5 6 
#
# 1 0.010800 -0.006598 -0.003273 0.000000 0.001726 0.000000
# 2 -0.006598 0.026704 -0.002427 0.000000 0.000296 0.000000
# 3 -0.003273 -0.002427 0.007234 0.000000 -0.001981 0.000000
# 4 0.000000 0.000000 0.000000 0.057199 0.000000 0.001030
# 5 0.001726 0.000296 -0.001981 0.000000 0.076384 0.000000
# 6 0.000000 0.000000 0.000000 0.001030 0.000000 0.028258
#
#
# Mechanical properties :
#
#
# Convention : Reuss Voigt Hill
#
# Bulk Modulus (GPa) = 49.64369 77.06868 63.35618
# Shear Modulus (GPa) = 21.01814 28.11131 24.56473
#
# Velocity S-wave (km/s) = 3.44278 3.98155 3.72193
# Velocity P-wave (km/s) = 6.61809 8.03730 7.36197
#
# Compressibility (1/GPa) = 0.02014355
#
# Stress axis : x y z
#
# Youngs Moduli (GPa) = 92.58859 37.44735 138.22750
#
# Poissons Ratio (x) = 0.24707 0.45240
# Poissons Ratio (y) = 0.61088 0.33549
# Poissons Ratio (z) = 0.30303 0.09089
#
# Static dielectric constant tensor:
#      x y z
#    x 3.322180 0.000000 0.019280 
#    y 0.000000 2.960530 0.000000 
#    z 0.019280 0.000000 3.862840 
# 
# 
# High freq. dielectric constant tensor:
#      x y z
#    x 1.689470 0.000000 0.000280 
#    y 0.000000 1.656360 0.000000 
#    z 0.000280 0.000000 1.697210 
# 
# From -- ./inp_files/51677.got.cif
#   From: 2010.06.25/outbox.cif.g09.slc.cpg/sg11_26_cif.got.tgz:51677.got - 2010.06.27 23:14:04.
