data_PCOD8077011
_publ_section_title
;
Structure prediction by ZEFSAII (Michael W. Deem and Ramdas Pophale) SiO2 
 PCOD8077011
Probable space group: P 21/M
;
_chemical_formula_sum "Si O2"
_cell_formula_units_Z 28
_cell_length_a 12.423528
_cell_length_b 18.334221
_cell_length_c 6.396777
_cell_angle_alpha 90.000000
_cell_angle_beta 117.265734
_cell_angle_gamma 90.000000
_cell_volume 1295.141759
_symmetry_space_group_name_H-M "P 21/M"
_symmetry_group_IT_number 11
_symmetry_cell_setting 'monoclinic'
loop_
_space_group_symop_operation_xyz
x,y,z
-x,1/2+y,-z
-x,-y,-z
x,1/2-y,z
loop_
_atom_site_type_symbol
_atom_site_label
_atom_site_fract_x
_atom_site_fract_y
_atom_site_fract_z
Si Si1 0.845098 0.575112 0.673495
Si Si2 0.113669 0.170182 0.906691
Si Si3 0.445798 0.581113 0.940572
Si Si4 0.317299 0.333233 0.769293
Si Si5 0.742217 0.333795 0.950178
Si Si6 0.943657 0.116134 0.413622
Si Si7 0.750870 0.424459 0.559619
O O1 0.904355 0.610661 0.930915
O O2 0.741393 0.624409 0.477219
O O3 0.776568 0.502250 0.690977
O O4 0.958794 0.564034 0.616569
O O5 0.108365 0.250000 0.006248
O O6 0.242222 0.156524 0.913519
O O7 0.011299 0.167823 0.638018
O O8 0.351282 0.606597 0.037023
O O9 0.382292 0.585027 0.657418
O O10 0.500000 0.500000 0.000000
O O11 0.551659 0.638893 0.051628
O O12 0.325803 0.250000 0.704485
O O13 0.692954 0.250000 0.909580
O O14 0.870489 0.334193 0.183658
O O15 0.769058 0.358169 0.735991
O O16 0.846020 0.069990 0.454295
#
# Coordination Sequence:
#
# PCOD8077011 Si02
#       7
#     4   4   4   4   4   4   4
#     4  11  22  39  64  95 131 167 213 265 323 382
#     4  10  22  38  63  94 126 167 212 260 320 385
#     4  11  24  45  69  92 127 171 218 269 323 382
#     4  10  22  41  64  92 128 166 212 266 321 380
#     4  11  26  44  66  97 132 171 219 269 327 389
#     4  10  23  41  65  92 131 172 216 259 321 381
#     4  11  25  41  66  95 128 170 216 266 323 386
#
# _framework density 21.619254999999999
#
# number of rings (size 3 to 8) (size 9 to 14) (size 15 to 20)
#    0.000    1.429    1.429    2.571    2.000   11.429 
#    0.000    1.429    0.000    0.000    0.000    0.000 
#    0.000    0.000    0.000    0.000    0.000    0.000 
#
# Total GULP energy -347084.919794 kJ/mol
# GULP energy per Si atom -12395.889993 kJ/mol
# Density = 2.157005 g / cm^3
# Si number density = 21.619255 Si / 1000 Ang^3
#
#
#
# Elastic Constant Matrix: (Units=GPa)
#
#
# Indices 1 2 3 4 5 6 
#
# 1 92.1286 33.1893 48.0356 0.0000 23.0734 0.0000
# 2 33.1893 110.6782 46.1308 0.0000 -2.2579 0.0000
# 3 48.0356 46.1308 142.0650 0.0000 11.4388 0.0000
# 4 0.0000 0.0000 0.0000 31.2740 0.0000 -1.6028
# 5 23.0734 -2.2579 11.4388 0.0000 28.3361 0.0000
# 6 0.0000 0.0000 0.0000 -1.6028 0.0000 28.2916
#
#
#
# Elastic Compliance Matrix: (Units=1/GPa)
#
#
# Indices 1 2 3 4 5 6 
#
# 1 0.017419 -0.004018 -0.003532 0.000000 -0.013078 0.000000
# 2 -0.004018 0.011520 -0.002811 0.000000 0.005325 0.000000
# 3 -0.003532 -0.002811 0.009233 0.000000 -0.001075 0.000000
# 4 0.000000 0.000000 0.000000 0.032069 0.000000 0.001817
# 5 -0.013078 0.005325 -0.001075 0.000000 0.046798 0.000000
# 6 0.000000 0.000000 0.000000 0.001817 0.000000 0.035449
#
#
# Mechanical properties :
#
#
# Convention : Reuss Voigt Hill
#
# Bulk Modulus (GPa) = 57.30735 66.62035 61.96385
# Shear Modulus (GPa) = 27.92888 32.08142 30.00515
#
# Velocity S-wave (km/s) = 3.59813 3.85636 3.72948
# Velocity P-wave (km/s) = 6.62021 7.12115 6.87525
#
# Compressibility (1/GPa) = 0.01744977
#
# Stress axis : x y z
#
# Youngs Moduli (GPa) = 57.40902 86.80286 108.31194
#
# Poissons Ratio (x) = 0.34878 0.38255
# Poissons Ratio (y) = 0.23068 0.30446
# Poissons Ratio (z) = 0.20277 0.24400
#
# Static dielectric constant tensor:
#      x y z
#    x 4.068940 0.000000 0.135570 
#    y 0.000000 3.785850 0.000000 
#    z 0.135570 0.000000 3.906360 
# 
# 
# High freq. dielectric constant tensor:
#      x y z
#    x 1.849500 0.000000 0.011590 
#    y 0.000000 1.847920 0.000000 
#    z 0.011590 0.000000 1.854740 
# 
# From -- ./inp_files/5076.got.cif
#   From: 2010.06.25/outbox.cif.g09.slc.cpg/sg11_3_cif.got.tgz:5076.got - 2010.06.27 23:14:04.
