data_PCOD8077600
_publ_section_title
;
Structure prediction by ZEFSAII (Michael W. Deem and Ramdas Pophale) SiO2 
 PCOD8077600
Probable space group: P 21/M
;
_chemical_formula_sum "Si O2"
_cell_formula_units_Z 28
_cell_length_a 16.373584
_cell_length_b 8.568924
_cell_length_c 11.407653
_cell_angle_alpha 90.000000
_cell_angle_beta 118.846774
_cell_angle_gamma 90.000000
_cell_volume 1401.933355
_symmetry_space_group_name_H-M "P 21/M"
_symmetry_group_IT_number 11
_symmetry_cell_setting 'monoclinic'
loop_
_space_group_symop_operation_xyz
x,y,z
-x,1/2+y,-z
-x,-y,-z
x,1/2-y,z
loop_
_atom_site_type_symbol
_atom_site_label
_atom_site_fract_x
_atom_site_fract_y
_atom_site_fract_z
Si Si1 0.471461 0.565810 0.104769
Si Si2 0.265680 0.436438 0.332837
Si Si3 0.709489 0.933017 0.910972
Si Si4 0.637028 0.931999 0.372688
Si Si5 0.874805 0.067530 0.163816
Si Si6 0.825635 0.568195 0.373604
Si Si7 0.917671 0.934914 0.673917
O O1 0.480375 0.750000 0.104363
O O2 0.366694 0.519227 0.063333
O O3 0.541955 0.496511 0.252879
O O4 0.500000 0.500000 0.000000
O O5 0.263823 0.250000 0.334491
O O6 0.295977 0.496803 0.226152
O O7 0.337886 0.502414 0.481267
O O8 0.161492 0.498872 0.291887
O O9 0.690654 0.750000 0.903903
O O10 0.811292 0.969808 0.031452
O O11 0.623214 0.750000 0.381307
O O12 0.719796 0.964208 0.338877
O O13 0.865600 0.250000 0.128992
O O14 0.980438 0.004843 0.217851
O O15 0.845187 0.039511 0.276563
O O16 0.839806 0.750000 0.351197
O O17 0.894571 0.512523 0.525087
O O18 0.915535 0.750000 0.673631
#
# Coordination Sequence:
#
# PCOD8077600 Si02
#       7
#     4   4   4   4   4   4   4
#     4  11  22  37  58  84 113 140 170 211 262 318
#     4   8  16  34  56  77 102 135 178 220 262 317
#     4  11  23  37  54  76 104 141 183 222 260 310
#     4   8  16  32  56  80 101 133 173 215 262 311
#     4  11  21  32  49  76 110 143 177 221 271 316
#     4   9  16  31  55  80 106 135 173 217 265 325
#     4   8  16  31  53  79 105 137 176 221 270 318
#
# _framework density 19.972418000000001
#
# number of rings (size 3 to 8) (size 9 to 14) (size 15 to 20)
#    0.000    2.571    0.000    4.286    0.000    2.286 
#    0.000    1.429    0.000   12.000    0.000    0.000 
#    0.000    0.000    0.000    0.000    0.000    0.000 
#
# Total GULP energy -347107.601064 kJ/mol
# GULP energy per Si atom -12396.700038 kJ/mol
# Density = 1.992696 g / cm^3
# Si number density = 19.972418 Si / 1000 Ang^3
#
#
#
# Elastic Constant Matrix: (Units=GPa)
#
#
# Indices 1 2 3 4 5 6 
#
# 1 78.3822 20.8475 69.5598 0.0000 -1.8427 0.0000
# 2 20.8475 32.1326 21.1057 0.0000 -1.6091 0.0000
# 3 69.5598 21.1057 140.0753 0.0000 4.1107 0.0000
# 4 0.0000 0.0000 0.0000 20.7825 0.0000 -1.3841
# 5 -1.8427 -1.6091 4.1107 0.0000 40.3680 0.0000
# 6 0.0000 0.0000 0.0000 -1.3841 0.0000 18.7258
#
#
#
# Elastic Compliance Matrix: (Units=1/GPa)
#
#
# Indices 1 2 3 4 5 6 
#
# 1 0.025069 -0.008827 -0.011176 0.000000 0.001930 0.000000
# 2 -0.008827 0.037796 -0.001348 0.000000 0.001241 0.000000
# 3 -0.011176 -0.001348 0.012947 0.000000 -0.001882 0.000000
# 4 0.000000 0.000000 0.000000 0.048355 0.000000 0.003574
# 5 0.001930 0.001241 -0.001882 0.000000 0.025101 0.000000
# 6 0.000000 0.000000 0.000000 0.003574 0.000000 0.053666
#
#
# Mechanical properties :
#
#
# Convention : Reuss Voigt Hill
#
# Bulk Modulus (GPa) = 30.20217 52.62402 41.41310
# Shear Modulus (GPa) = 19.48008 25.24707 22.36357
#
# Velocity S-wave (km/s) = 3.12645 3.55927 3.34986
# Velocity P-wave (km/s) = 5.30920 6.58003 5.97848
#
# Compressibility (1/GPa) = 0.03311020
#
# Stress axis : x y z
#
# Youngs Moduli (GPa) = 39.89011 26.45814 77.23837
#
# Poissons Ratio (x) = 0.23356 0.86318
# Poissons Ratio (y) = 0.35213 0.10409
# Poissons Ratio (z) = 0.44579 0.03566
#
# Static dielectric constant tensor:
#      x y z
#    x 3.826920 0.000000 0.230670 
#    y 0.000000 3.159870 0.000000 
#    z 0.230670 0.000000 4.164330 
# 
# 
# High freq. dielectric constant tensor:
#      x y z
#    x 1.779980 0.000000 0.006240 
#    y 0.000000 1.737180 0.000000 
#    z 0.006240 0.000000 1.791640 
# 
# From -- ./inp_files/38448.got.cif
#   From: 2010.06.25/outbox.cif.g09.slc.cpg/sg11_20_cif.got.tgz:38448.got - 2010.06.27 23:14:04.
