data_PCOD8077466
_publ_section_title
;
Structure prediction by ZEFSAII (Michael W. Deem and Ramdas Pophale) SiO2 
 PCOD8077466
Probable space group: P 21/M
;
_chemical_formula_sum "Si O2"
_cell_formula_units_Z 24
_cell_length_a 5.299054
_cell_length_b 20.777239
_cell_length_c 11.718101
_cell_angle_alpha 90.000000
_cell_angle_beta 63.114703
_cell_angle_gamma 90.000000
_cell_volume 1150.710841
_symmetry_space_group_name_H-M "P 21/M"
_symmetry_group_IT_number 11
_symmetry_cell_setting 'monoclinic'
loop_
_space_group_symop_operation_xyz
x,y,z
-x,1/2+y,-z
-x,-y,-z
x,1/2-y,z
loop_
_atom_site_type_symbol
_atom_site_label
_atom_site_fract_x
_atom_site_fract_y
_atom_site_fract_z
Si Si1 0.578135 0.928082 0.013198
Si Si2 0.788180 0.821830 0.369710
Si Si3 0.527602 0.321831 0.130293
Si Si4 0.949210 0.373680 0.218191
Si Si5 0.385584 0.626320 0.281810
Si Si6 0.395466 0.571917 0.513198
O O1 0.388880 0.875260 0.982262
O O2 0.906495 0.918224 0.909578
O O3 0.528419 0.918300 0.157178
O O4 0.500000 0.000000 0.000000
O O5 0.743853 0.750000 0.428899
O O6 0.631881 0.826010 0.278081
O O7 0.646587 0.875259 0.482265
O O8 0.121375 0.834365 0.285892
O O9 0.601647 0.250000 0.071104
O O10 0.693166 0.334364 0.214110
O O11 0.188048 0.326011 0.221923
O O12 0.842779 0.418302 0.342821
O O13 0.274347 0.581775 0.409578
O O14 0.500000 0.500000 0.500000
#
# Coordination Sequence:
#
# PCOD8077466 Si02
#       6
#     4   4   4   4   4   4
#     4  10  26  45  73  98 140 176 232 282 343 403
#     4  10  24  43  68  99 138 178 225 279 341 405
#     4  10  24  43  68  99 138 178 225 279 341 405
#     4  10  25  44  68 100 131 179 228 278 341 405
#     4  10  25  44  68 100 131 179 228 278 341 405
#     4  10  26  45  73  98 140 176 232 282 343 403
#
# _framework density 20.856674000000002
#
# number of rings (size 3 to 8) (size 9 to 14) (size 15 to 20)
#    2.000    0.000    0.000    1.000    9.333    4.000 
#    0.000    0.000    0.000    0.000    0.000    0.000 
#    0.000    0.000    0.000    0.000    0.000    0.000 
#
# Total GULP energy -297316.854772 kJ/mol
# GULP energy per Si atom -12388.202282 kJ/mol
# Density = 2.080920 g / cm^3
# Si number density = 20.856674 Si / 1000 Ang^3
#
#
#
# Elastic Constant Matrix: (Units=GPa)
#
#
# Indices 1 2 3 4 5 6 
#
# 1 149.2990 45.6807 39.9628 0.0000 -5.7615 0.0000
# 2 45.6807 183.3820 51.7277 0.0000 0.4951 0.0000
# 3 39.9628 51.7277 124.4892 0.0000 3.7236 0.0000
# 4 0.0000 0.0000 0.0000 30.5916 0.0000 0.8390
# 5 -5.7615 0.4951 3.7236 0.0000 20.3367 0.0000
# 6 0.0000 0.0000 0.0000 0.8390 0.0000 20.3652
#
#
#
# Elastic Compliance Matrix: (Units=1/GPa)
#
#
# Indices 1 2 3 4 5 6 
#
# 1 0.007753 -0.001376 -0.001995 0.000000 0.002595 0.000000
# 2 -0.001376 0.006423 -0.002223 0.000000 -0.000139 0.000000
# 3 -0.001995 -0.002223 0.009665 0.000000 -0.002281 0.000000
# 4 0.000000 0.000000 0.000000 0.032726 0.000000 -0.001348
# 5 0.002595 -0.000139 -0.002281 0.000000 0.050328 0.000000
# 6 0.000000 0.000000 0.000000 -0.001348 0.000000 0.049159
#
#
# Mechanical properties :
#
#
# Convention : Reuss Voigt Hill
#
# Bulk Modulus (GPa) = 79.02594 81.32363 80.17478
# Shear Modulus (GPa) = 29.16134 35.57863 32.36999
#
# Velocity S-wave (km/s) = 3.74328 4.13469 3.94384
# Velocity P-wave (km/s) = 7.52696 7.86578 7.69823
#
# Compressibility (1/GPa) = 0.01265407
#
# Stress axis : x y z
#
# Youngs Moduli (GPa) = 128.98293 155.68430 103.46371
#
# Poissons Ratio (x) = 0.21416 0.20640
# Poissons Ratio (y) = 0.17743 0.23003
# Poissons Ratio (z) = 0.25730 0.34613
#
# Static dielectric constant tensor:
#      x y z
#    x 3.695230 0.000000 -0.002710 
#    y 0.000000 3.541420 0.000000 
#    z -0.002710 0.000000 3.662320 
# 
# 
# High freq. dielectric constant tensor:
#      x y z
#    x 1.814660 0.000000 -0.001200 
#    y 0.000000 1.811560 0.000000 
#    z -0.001200 0.000000 1.800040 
# 
# From -- ./inp_files/30069.got.cif
#   From: 2010.06.25/outbox.cif.g09.slc.cpg/sg11_16_cif.got.tgz:30069.got - 2010.06.27 23:14:04.
