data_PCOD8077385
_publ_section_title
;
Structure prediction by ZEFSAII (Michael W. Deem and Ramdas Pophale) SiO2 
 PCOD8077385
Probable space group: P 21/M
;
_chemical_formula_sum "Si O2"
_cell_formula_units_Z 28
_cell_length_a 15.043421
_cell_length_b 18.673194
_cell_length_c 9.023524
_cell_angle_alpha 90.000000
_cell_angle_beta 32.343362
_cell_angle_gamma 90.000000
_cell_volume 1356.090277
_symmetry_space_group_name_H-M "P 21/M"
_symmetry_group_IT_number 11
_symmetry_cell_setting 'monoclinic'
loop_
_space_group_symop_operation_xyz
x,y,z
-x,1/2+y,-z
-x,-y,-z
x,1/2-y,z
loop_
_atom_site_type_symbol
_atom_site_label
_atom_site_fract_x
_atom_site_fract_y
_atom_site_fract_z
Si Si1 0.889238 0.402575 0.558367
Si Si2 0.503280 0.668431 0.283632
Si Si3 0.542946 0.332673 0.993536
Si Si4 0.827073 0.668689 0.010284
Si Si5 0.984917 0.050666 0.731939
Si Si6 0.744961 0.593560 0.427492
Si Si7 0.346756 0.968322 0.625440
O O1 0.698400 0.381578 0.814088
O O2 0.943474 0.397428 0.653392
O O3 0.909512 0.483015 0.471630
O O4 0.996002 0.347431 0.311925
O O5 0.446068 0.750000 0.399032
O O6 0.512699 0.654053 0.096086
O O7 0.686012 0.652416 0.087930
O O8 0.373758 0.614691 0.543958
O O9 0.585983 0.250000 0.962949
O O10 0.394492 0.355325 0.309834
O O11 0.824635 0.750000 0.066853
O O12 0.801012 0.620564 0.189107
O O13 0.095356 0.094663 0.692029
O O14 0.815556 0.024264 0.045068
O O15 0.676418 0.513132 0.494605
O O16 0.500000 0.000000 0.500000
#
# Coordination Sequence:
#
# PCOD8077385 Si02
#       7
#     4   4   4   4   4   4   4
#     4  11  23  44  66  95 129 173 222 275 331 398
#     4  10  23  42  65  92 132 175 221 269 335 402
#     4  11  25  44  66  97 132 175 225 277 333 397
#     4  11  23  42  65  92 130 177 217 267 334 400
#     4  11  25  41  67  97 133 171 223 278 335 392
#     4  12  24  41  67  96 134 171 218 279 328 403
#     4  12  22  41  67 103 133 171 224 278 334 390
#
# _framework density 20.647593000000001
#
# number of rings (size 3 to 8) (size 9 to 14) (size 15 to 20)
#    0.000    0.857    2.857    3.857    2.000    4.571 
#    0.000    3.571    0.000    0.000    0.000    0.000 
#    0.000    0.000    0.000    0.000    0.000    0.000 
#
# Total GULP energy -347380.382335 kJ/mol
# GULP energy per Si atom -12406.442226 kJ/mol
# Density = 2.060060 g / cm^3
# Si number density = 20.647593 Si / 1000 Ang^3
#
#
#
# Elastic Constant Matrix: (Units=GPa)
#
#
# Indices 1 2 3 4 5 6 
#
# 1 149.5657 39.3892 57.1170 0.0000 -2.0583 0.0000
# 2 39.3892 84.5539 35.1269 0.0000 4.9841 0.0000
# 3 57.1170 35.1269 116.3457 0.0000 -5.2356 0.0000
# 4 0.0000 0.0000 0.0000 39.6109 0.0000 1.1328
# 5 -2.0583 4.9841 -5.2356 0.0000 32.7329 0.0000
# 6 0.0000 0.0000 0.0000 1.1328 0.0000 32.0777
#
#
#
# Elastic Compliance Matrix: (Units=1/GPa)
#
#
# Indices 1 2 3 4 5 6 
#
# 1 0.008709 -0.002643 -0.003459 0.000000 0.000397 0.000000
# 2 -0.002643 0.014572 -0.003233 0.000000 -0.002902 0.000000
# 3 -0.003459 -0.003233 0.011364 0.000000 0.002092 0.000000
# 4 0.000000 0.000000 0.000000 0.025271 0.000000 -0.000892
# 5 0.000397 -0.002902 0.002092 0.000000 0.031352 0.000000
# 6 0.000000 0.000000 0.000000 -0.000892 0.000000 0.031206
#
#
# Mechanical properties :
#
#
# Convention : Reuss Voigt Hill
#
# Bulk Modulus (GPa) = 62.60188 68.19241 65.39715
# Shear Modulus (GPa) = 34.13714 35.47310 34.80512
#
# Velocity S-wave (km/s) = 4.07052 4.14940 4.11015
# Velocity P-wave (km/s) = 7.24411 7.48701 7.36656
#
# Compressibility (1/GPa) = 0.01597396
#
# Stress axis : x y z
#
# Youngs Moduli (GPa) = 114.82794 68.62439 88.00073
#
# Poissons Ratio (x) = 0.18138 0.30443
# Poissons Ratio (y) = 0.30350 0.28447
# Poissons Ratio (z) = 0.39724 0.22184
#
# Static dielectric constant tensor:
#      x y z
#    x 3.971300 0.000000 0.048270 
#    y 0.000000 3.865940 0.000000 
#    z 0.048270 0.000000 3.630450 
# 
# 
# High freq. dielectric constant tensor:
#      x y z
#    x 1.823370 0.000000 0.000730 
#    y 0.000000 1.812650 0.000000 
#    z 0.000730 0.000000 1.808460 
# 
# From -- ./inp_files/23188.got.cif
#   From: 2010.06.25/outbox.cif.g09.slc.cpg/sg11_12_cif.got.tgz:23188.got - 2010.06.27 23:14:04.
