data_PCOD8077394
_publ_section_title
;
Structure prediction by ZEFSAII (Michael W. Deem and Ramdas Pophale) SiO2 
 PCOD8077394
Probable space group: P 21/M
;
_chemical_formula_sum "Si O2"
_cell_formula_units_Z 24
_cell_length_a 29.846775
_cell_length_b 8.589502
_cell_length_c 9.481900
_cell_angle_alpha 90.000000
_cell_angle_beta 28.633068
_cell_angle_gamma 90.000000
_cell_volume 1164.866671
_symmetry_space_group_name_H-M "P 21/M"
_symmetry_group_IT_number 11
_symmetry_cell_setting 'monoclinic'
loop_
_space_group_symop_operation_xyz
x,y,z
-x,1/2+y,-z
-x,-y,-z
x,1/2-y,z
loop_
_atom_site_type_symbol
_atom_site_label
_atom_site_fract_x
_atom_site_fract_y
_atom_site_fract_z
Si Si1 0.562288 0.069272 0.207775
Si Si2 0.454890 0.931747 0.261882
Si Si3 0.253103 0.431432 0.886815
Si Si4 0.254425 0.073620 0.204552
Si Si5 0.076201 0.427850 0.890751
Si Si6 0.085699 0.932923 0.174827
O O1 0.540385 0.250000 0.240709
O O2 0.500000 0.000000 0.500000
O O3 0.537133 0.965217 0.144087
O O4 0.669647 0.049215 0.952724
O O5 0.434020 0.750000 0.305367
O O6 0.359175 0.016430 0.568216
O O7 0.500000 0.000000 0.000000
O O8 0.244283 0.250000 0.877144
O O9 0.223497 0.468416 0.130182
O O10 0.184025 0.520105 0.972432
O O11 0.294502 0.250000 0.094428
O O12 0.171860 0.055895 0.542545
O O13 0.050404 0.250000 0.993202
O O14 0.082142 0.514254 0.022955
O O15 0.000000 0.500000 0.000000
O O16 0.075866 0.750000 0.204272
O O17 0.000000 0.000000 0.500000
#
# Coordination Sequence:
#
# PCOD8077394 Si02
#       6
#     4   4   4   4   4   4
#     4  12  24  41  66  96 132 174 224 274 325 388
#     4  12  26  44  66  95 133 177 224 275 330 391
#     4  11  23  43  69  98 133 173 220 272 330 392
#     4  10  23  42  67  96 131 172 218 269 328 392
#     4  11  24  44  70 101 135 171 217 269 328 393
#     4  12  26  45  69  98 134 175 222 272 329 393
#
# _framework density 20.603217999999998
#
# number of rings (size 3 to 8) (size 9 to 14) (size 15 to 20)
#    0.000    0.667    1.667    6.500    2.333    3.333 
#    0.000    0.000    0.000    0.000    0.000    0.000 
#    0.000    0.000    0.000    0.000    0.000    0.000 
#
# Total GULP energy -297661.772519 kJ/mol
# GULP energy per Si atom -12402.573855 kJ/mol
# Density = 2.055632 g / cm^3
# Si number density = 20.603218 Si / 1000 Ang^3
#
#
#
# Elastic Constant Matrix: (Units=GPa)
#
#
# Indices 1 2 3 4 5 6 
#
# 1 162.5187 57.9712 53.8627 0.0000 15.0521 0.0000
# 2 57.9712 139.6858 55.9224 0.0000 6.5589 0.0000
# 3 53.8627 55.9224 97.5797 0.0000 19.1723 0.0000
# 4 0.0000 0.0000 0.0000 36.4627 0.0000 -3.1527
# 5 15.0521 6.5589 19.1723 0.0000 43.3876 0.0000
# 6 0.0000 0.0000 0.0000 -3.1527 0.0000 41.2027
#
#
#
# Elastic Compliance Matrix: (Units=1/GPa)
#
#
# Indices 1 2 3 4 5 6 
#
# 1 0.007989 -0.002058 -0.003008 0.000000 -0.001131 0.000000
# 2 -0.002058 0.009864 -0.004779 0.000000 0.001335 0.000000
# 3 -0.003008 -0.004779 0.015660 0.000000 -0.005154 0.000000
# 4 0.000000 0.000000 0.000000 0.027608 0.000000 0.002113
# 5 -0.001131 0.001335 -0.005154 0.000000 0.025516 0.000000
# 6 0.000000 0.000000 0.000000 0.002113 0.000000 0.024432
#
#
# Mechanical properties :
#
#
# Convention : Reuss Voigt Hill
#
# Bulk Modulus (GPa) = 72.34753 81.69963 77.02358
# Shear Modulus (GPa) = 36.93684 39.67912 38.30798
#
# Velocity S-wave (km/s) = 4.23871 4.39323 4.31666
# Velocity P-wave (km/s) = 7.69067 8.09160 7.89368
#
# Compressibility (1/GPa) = 0.01382217
#
# Stress axis : x y z
#
# Youngs Moduli (GPa) = 125.17211 101.38246 63.85756
#
# Poissons Ratio (x) = 0.20866 0.19209
# Poissons Ratio (y) = 0.25762 0.30517
# Poissons Ratio (z) = 0.37652 0.48450
#
# Static dielectric constant tensor:
#      x y z
#    x 3.868130 0.000000 0.174940 
#    y 0.000000 4.214790 0.000000 
#    z 0.174940 0.000000 3.736200 
# 
# 
# High freq. dielectric constant tensor:
#      x y z
#    x 1.824250 0.000000 0.005250 
#    y 0.000000 1.820270 0.000000 
#    z 0.005250 0.000000 1.818360 
# 
# From -- ./inp_files/28955.got.cif
#   From: 2010.06.25/outbox.cif.g09.slc.cpg/sg11_15_cif.got.tgz:28955.got - 2010.06.27 23:14:04.
