data_PCOD8077577
_publ_section_title
;
Structure prediction by ZEFSAII (Michael W. Deem and Ramdas Pophale) SiO2 
 PCOD8077577
Probable space group: P 21/M
;
_chemical_formula_sum "Si O2"
_cell_formula_units_Z 24
_cell_length_a 10.133772
_cell_length_b 17.601218
_cell_length_c 9.504075
_cell_angle_alpha 90.000000
_cell_angle_beta 137.641487
_cell_angle_gamma 90.000000
_cell_volume 1142.177941
_symmetry_space_group_name_H-M "P 21/M"
_symmetry_group_IT_number 11
_symmetry_cell_setting 'monoclinic'
loop_
_space_group_symop_operation_xyz
x,y,z
-x,1/2+y,-z
-x,-y,-z
x,1/2-y,z
loop_
_atom_site_type_symbol
_atom_site_label
_atom_site_fract_x
_atom_site_fract_y
_atom_site_fract_z
Si Si1 0.923488 0.164288 0.700784
Si Si2 0.246566 0.448660 0.328966
Si Si3 0.484931 0.164131 0.323549
Si Si4 0.506253 0.560644 0.206119
Si Si5 0.844436 0.402505 0.920045
Si Si6 0.305896 0.409987 0.932527
O O1 0.984240 0.250000 0.705770
O O2 0.710678 0.142229 0.475524
O O3 0.915880 0.160512 0.865484
O O4 0.070278 0.100890 0.751919
O O5 0.388499 0.389776 0.363079
O O6 0.333795 0.464755 0.552148
O O7 0.234824 0.524308 0.227847
O O8 0.025306 0.417414 0.167844
O O9 0.465338 0.250000 0.363851
O O10 0.384975 0.157779 0.092502
O O11 0.346827 0.621756 0.139839
O O12 0.620700 0.599699 0.168463
O O13 0.375305 0.489443 0.052420
#
# Coordination Sequence:
#
# PCOD8077577 Si02
#       6
#     4   4   4   4   4   4
#     4  11  23  40  64  92 122 169 217 253 312 384
#     4  11  21  38  65  96 127 160 213 266 307 366
#     4  11  22  40  66  90 123 171 213 255 313 380
#     4  11  23  39  62  95 129 161 206 264 321 367
#     4  11  20  37  66  94 125 163 209 268 307 362
#     4  11  23  40  61  92 130 166 203 258 322 377
#
# _framework density 21.012487
#
# number of rings (size 3 to 8) (size 9 to 14) (size 15 to 20)
#    0.000    1.000    5.000    3.000    0.000    1.333 
#    0.000    7.500    0.000    0.000    0.000    0.000 
#    0.000    0.000    0.000    0.000    0.000    0.000 
#
# Total GULP energy -297516.686992 kJ/mol
# GULP energy per Si atom -12396.528625 kJ/mol
# Density = 2.096466 g / cm^3
# Si number density = 21.012487 Si / 1000 Ang^3
#
#
#
# Elastic Constant Matrix: (Units=GPa)
#
#
# Indices 1 2 3 4 5 6 
#
# 1 144.6857 25.8656 46.7225 0.0000 0.4900 0.0000
# 2 25.8656 62.2251 16.0517 0.0000 6.0217 0.0000
# 3 46.7225 16.0517 92.8618 0.0000 9.7072 0.0000
# 4 0.0000 0.0000 0.0000 23.7698 0.0000 5.0745
# 5 0.4900 6.0217 9.7072 0.0000 31.5483 0.0000
# 6 0.0000 0.0000 0.0000 5.0745 0.0000 18.2820
#
#
#
# Elastic Compliance Matrix: (Units=1/GPa)
#
#
# Indices 1 2 3 4 5 6 
#
# 1 0.008712 -0.002727 -0.004084 0.000000 0.001642 0.000000
# 2 -0.002727 0.017851 -0.001407 0.000000 -0.002932 0.000000
# 3 -0.004084 -0.001407 0.013465 0.000000 -0.003811 0.000000
# 4 0.000000 0.000000 0.000000 0.044720 0.000000 -0.012413
# 5 0.001642 -0.002932 -0.003811 0.000000 0.033404 0.000000
# 6 0.000000 0.000000 0.000000 -0.012413 0.000000 0.058144
#
#
# Mechanical properties :
#
#
# Convention : Reuss Voigt Hill
#
# Bulk Modulus (GPa) = 42.38614 53.00581 47.69597
# Shear Modulus (GPa) = 24.92571 28.79553 26.86062
#
# Velocity S-wave (km/s) = 3.44791 3.70591 3.57923
# Velocity P-wave (km/s) = 6.00553 6.60245 6.31105
#
# Compressibility (1/GPa) = 0.02359262
#
# Stress axis : x y z
#
# Youngs Moduli (GPa) = 114.78170 56.01950 74.26672
#
# Poissons Ratio (x) = 0.15276 0.30328
# Poissons Ratio (y) = 0.31300 0.10450
# Poissons Ratio (z) = 0.46873 0.07883
#
# Static dielectric constant tensor:
#      x y z
#    x 4.024870 0.000000 0.184430 
#    y 0.000000 3.586800 0.000000 
#    z 0.184430 0.000000 4.077130 
# 
# 
# High freq. dielectric constant tensor:
#      x y z
#    x 1.819670 0.000000 0.025900 
#    y 0.000000 1.794690 0.000000 
#    z 0.025900 0.000000 1.835610 
# 
# From -- ./inp_files/14393.got.cif
#   From: 2010.06.25/outbox.cif.g09.slc.cpg/sg11_8_cif.got.tgz:14393.got - 2010.06.27 23:14:04.
