data_PCOD8077122
_publ_section_title
;
Structure prediction by ZEFSAII (Michael W. Deem and Ramdas Pophale) SiO2 
 PCOD8077122
Probable space group: P 21/M
;
_chemical_formula_sum "Si O2"
_cell_formula_units_Z 28
_cell_length_a 27.169528
_cell_length_b 8.798651
_cell_length_c 9.324585
_cell_angle_alpha 90.000000
_cell_angle_beta 38.172439
_cell_angle_gamma 90.000000
_cell_volume 1377.645466
_symmetry_space_group_name_H-M "P 21/M"
_symmetry_group_IT_number 11
_symmetry_cell_setting 'monoclinic'
loop_
_space_group_symop_operation_xyz
x,y,z
-x,1/2+y,-z
-x,-y,-z
x,1/2-y,z
loop_
_atom_site_type_symbol
_atom_site_label
_atom_site_fract_x
_atom_site_fract_y
_atom_site_fract_z
Si Si1 0.206191 0.426685 0.842259
Si Si2 0.518011 0.930570 0.803337
Si Si3 0.657423 0.069974 0.307204
Si Si4 0.235919 0.426741 0.450419
Si Si5 0.370430 0.571067 0.952144
Si Si6 0.023719 0.429566 0.298673
Si Si7 0.063384 0.429448 0.751241
O O1 0.213126 0.250000 0.867445
O O2 0.252429 0.523818 0.856939
O O3 0.245102 0.459742 0.598317
O O4 0.113648 0.475605 0.049765
O O5 0.520961 0.750000 0.813221
O O6 0.452403 0.984212 0.837159
O O7 0.601471 0.990229 0.552487
O O8 0.500000 0.000000 0.000000
O O9 0.646664 0.250000 0.340917
O O10 0.637982 0.007644 0.191247
O O11 0.247286 0.250000 0.390927
O O12 0.150575 0.485974 0.594279
O O13 0.300216 0.518046 0.214774
O O14 0.367004 0.750000 0.952311
O O15 0.012827 0.250000 0.318439
O O16 0.000000 0.500000 0.500000
O O17 0.956851 0.509377 0.357306
O O18 0.058026 0.250000 0.774041
O O19 0.000000 0.500000 0.000000
#
# Coordination Sequence:
#
# PCOD8077122 Si02
#       7
#     4   4   4   4   4   4   4
#     4  10  22  42  62  86 122 163 205 252 307 367
#     4  11  23  42  67  94 124 161 202 247 301 361
#     4  11  24  41  62  92 126 160 202 250 301 360
#     4  10  22  40  62  88 120 159 205 251 305 366
#     4  10  24  42  61  91 126 159 200 249 301 358
#     4  11  24  42  62  89 125 164 210 263 318 378
#     4  11  22  40  63  91 122 164 212 261 316 372
#
# _framework density 20.324532000000001
#
# number of rings (size 3 to 8) (size 9 to 14) (size 15 to 20)
#    0.000    1.429    1.429    3.000    2.000    7.429 
#    0.000    0.000    0.000    0.000    0.000    0.000 
#    0.000    0.000    0.000    0.000    0.000    0.000 
#
# Total GULP energy -347243.010588 kJ/mol
# GULP energy per Si atom -12401.536092 kJ/mol
# Density = 2.027827 g / cm^3
# Si number density = 20.324532 Si / 1000 Ang^3
#
#
#
# Elastic Constant Matrix: (Units=GPa)
#
#
# Indices 1 2 3 4 5 6 
#
# 1 127.2311 31.0362 16.0693 0.0000 1.3914 0.0000
# 2 31.0362 43.8990 17.3767 0.0000 -6.0192 0.0000
# 3 16.0693 17.3767 77.1576 0.0000 5.9689 0.0000
# 4 0.0000 0.0000 0.0000 38.5493 0.0000 -0.1915
# 5 1.3914 -6.0192 5.9689 0.0000 38.6307 0.0000
# 6 0.0000 0.0000 0.0000 -0.1915 0.0000 37.0220
#
#
#
# Elastic Compliance Matrix: (Units=1/GPa)
#
#
# Indices 1 2 3 4 5 6 
#
# 1 0.009583 -0.006820 -0.000355 0.000000 -0.001353 0.000000
# 2 -0.006820 0.030784 -0.005974 0.000000 0.005965 0.000000
# 3 -0.000355 -0.005974 0.014626 0.000000 -0.003178 0.000000
# 4 0.000000 0.000000 0.000000 0.025941 0.000000 0.000134
# 5 -0.001353 0.005965 -0.003178 0.000000 0.027355 0.000000
# 6 0.000000 0.000000 0.000000 0.000134 0.000000 0.027012
#
#
# Mechanical properties :
#
#
# Convention : Reuss Voigt Hill
#
# Bulk Modulus (GPa) = 34.85020 41.91691 38.38355
# Shear Modulus (GPa) = 29.21171 35.09410 32.15291
#
# Velocity S-wave (km/s) = 3.79524 4.15985 3.98172
# Velocity P-wave (km/s) = 6.03235 6.61370 6.32970
#
# Compressibility (1/GPa) = 0.02869424
#
# Stress axis : x y z
#
# Youngs Moduli (GPa) = 104.35129 32.48452 68.37276
#
# Poissons Ratio (x) = 0.22154 0.02429
# Poissons Ratio (y) = 0.71168 0.40846
# Poissons Ratio (z) = 0.03707 0.19406
#
# Static dielectric constant tensor:
#      x y z
#    x 6.050240 0.000000 -0.147050 
#    y 0.000000 3.561020 0.000000 
#    z -0.147050 0.000000 3.707440 
# 
# 
# High freq. dielectric constant tensor:
#      x y z
#    x 1.816350 0.000000 0.001240 
#    y 0.000000 1.790420 0.000000 
#    z 0.001240 0.000000 1.801700 
# 
# From -- ./inp_files/28317.got.cif
#   From: 2010.06.25/outbox.cif.g09.slc.cpg/sg11_15_cif.got.tgz:28317.got - 2010.06.27 23:14:04.
