data_PCOD8077582
_publ_section_title
;
Structure prediction by ZEFSAII (Michael W. Deem and Ramdas Pophale) SiO2 
 PCOD8077582
Probable space group: P 21/M
;
_chemical_formula_sum "Si O2"
_cell_formula_units_Z 24
_cell_length_a 16.731615
_cell_length_b 14.820374
_cell_length_c 9.618548
_cell_angle_alpha 90.000000
_cell_angle_beta 152.408498
_cell_angle_gamma 90.000000
_cell_volume 1104.693737
_symmetry_space_group_name_H-M "P 21/M"
_symmetry_group_IT_number 11
_symmetry_cell_setting 'monoclinic'
loop_
_space_group_symop_operation_xyz
x,y,z
-x,1/2+y,-z
-x,-y,-z
x,1/2-y,z
loop_
_atom_site_type_symbol
_atom_site_label
_atom_site_fract_x
_atom_site_fract_y
_atom_site_fract_z
Si Si1 0.488349 0.516251 0.819178
Si Si2 0.935616 0.395530 0.183877
Si Si3 0.226068 0.154164 0.826038
Si Si4 0.334889 0.853937 0.015331
Si Si5 0.174926 0.851201 0.285851
Si Si6 0.024379 0.602304 0.333942
O O1 0.316694 0.570039 0.515250
O O2 0.500000 0.500000 0.000000
O O3 0.650841 0.572269 0.017283
O O4 0.499596 0.419041 0.758521
O O5 0.747516 0.380109 0.962903
O O6 0.073611 0.335973 0.478585
O O7 0.003351 0.496003 0.303555
O O8 0.931213 0.364797 0.018459
O O9 0.327098 0.250000 0.979415
O O10 0.143003 0.143940 0.850736
O O11 0.397233 0.750000 0.111219
O O12 0.198728 0.870436 0.682214
O O13 0.255808 0.750000 0.414189
O O14 0.037063 0.860888 0.197223
#
# Coordination Sequence:
#
# PCOD8077582 Si02
#       6
#     4   4   4   4   4   4
#     4  12  24  41  63  96 125 167 217 265 313 371
#     4  11  21  41  65  95 126 168 211 260 320 376
#     4  11  21  40  68  93 124 166 218 262 304 376
#     4  11  21  40  67  92 124 169 218 260 314 380
#     4  12  25  40  63  98 137 169 203 260 329 380
#     4  11  20  40  66  93 122 168 218 259 308 377
#
# _framework density 21.725480000000001
#
# number of rings (size 3 to 8) (size 9 to 14) (size 15 to 20)
#    0.000    0.667    5.000    6.000    0.000    1.333 
#    0.000    0.000    0.000    2.000    0.000    0.000 
#    0.000    0.000    0.000    0.000    0.000    0.000 
#
# Total GULP energy -297587.493432 kJ/mol
# GULP energy per Si atom -12399.478893 kJ/mol
# Density = 2.167603 g / cm^3
# Si number density = 21.725480 Si / 1000 Ang^3
#
#
#
# Elastic Constant Matrix: (Units=GPa)
#
#
# Indices 1 2 3 4 5 6 
#
# 1 157.4948 45.8025 51.4672 0.0000 -20.2972 0.0000
# 2 45.8025 176.6997 22.1793 0.0000 6.0057 0.0000
# 3 51.4672 22.1793 42.3814 0.0000 -6.3354 0.0000
# 4 0.0000 0.0000 0.0000 53.5186 0.0000 4.1040
# 5 -20.2972 6.0057 -6.3354 0.0000 34.5389 0.0000
# 6 0.0000 0.0000 0.0000 4.1040 0.0000 25.6824
#
#
#
# Elastic Compliance Matrix: (Units=1/GPa)
#
#
# Indices 1 2 3 4 5 6 
#
# 1 0.011470 -0.001579 -0.012394 0.000000 0.004741 0.000000
# 2 -0.001579 0.006371 -0.001770 0.000000 -0.002360 0.000000
# 3 -0.012394 -0.001770 0.039616 0.000000 0.000291 0.000000
# 4 0.000000 0.000000 0.000000 0.018917 0.000000 -0.003023
# 5 0.004741 -0.002360 0.000291 0.000000 0.032203 0.000000
# 6 0.000000 0.000000 0.000000 -0.003023 0.000000 0.039420
#
#
# Mechanical properties :
#
#
# Convention : Reuss Voigt Hill
#
# Bulk Modulus (GPa) = 38.50305 68.38601 53.44453
# Shear Modulus (GPa) = 26.57630 39.88978 33.23304
#
# Velocity S-wave (km/s) = 3.50133 4.28960 3.91536
# Velocity P-wave (km/s) = 5.84010 7.48865 6.71516
#
# Compressibility (1/GPa) = 0.02597197
#
# Stress axis : x y z
#
# Youngs Moduli (GPa) = 87.18689 156.96445 25.24258
#
# Poissons Ratio (x) = 0.24778 0.31285
# Poissons Ratio (y) = 0.13763 0.04468
# Poissons Ratio (z) = 1.08056 0.27781
#
# Static dielectric constant tensor:
#      x y z
#    x 4.267170 0.000000 -0.107310 
#    y 0.000000 4.317670 0.000000 
#    z -0.107310 0.000000 3.487320 
# 
# 
# High freq. dielectric constant tensor:
#      x y z
#    x 1.868210 0.000000 -0.009510 
#    y 0.000000 1.881540 0.000000 
#    z -0.009510 0.000000 1.805930 
# 
# From -- ./inp_files/22315.got.cif
#   From: 2010.06.25/outbox.cif.g09.slc.cpg/sg11_12_cif.got.tgz:22315.got - 2010.06.27 23:14:04.
