data_PCOD8077542
_publ_section_title
;
Structure prediction by ZEFSAII (Michael W. Deem and Ramdas Pophale) SiO2 
 PCOD8077542
Probable space group: P 21/M
;
_chemical_formula_sum "Si O2"
_cell_formula_units_Z 32
_cell_length_a 26.364556
_cell_length_b 14.036690
_cell_length_c 13.035962
_cell_angle_alpha 90.000000
_cell_angle_beta 21.923234
_cell_angle_gamma 90.000000
_cell_volume 1801.194845
_symmetry_space_group_name_H-M "P 21/M"
_symmetry_group_IT_number 11
_symmetry_cell_setting 'monoclinic'
loop_
_space_group_symop_operation_xyz
x,y,z
-x,1/2+y,-z
-x,-y,-z
x,1/2-y,z
loop_
_atom_site_type_symbol
_atom_site_label
_atom_site_fract_x
_atom_site_fract_y
_atom_site_fract_z
Si Si1 0.883012 0.058691 0.091635
Si Si2 0.579040 0.965829 0.158420
Si Si3 0.359447 0.644086 0.839030
Si Si4 0.416213 0.141367 0.057504
Si Si5 0.716125 0.145013 0.566458
Si Si6 0.175763 0.046780 0.606588
Si Si7 0.275992 0.969581 0.808154
Si Si8 0.336797 0.145401 0.812090
O O1 0.855677 0.962341 0.211571
O O2 0.792440 0.143126 0.312081
O O3 0.844700 0.047902 0.045067
O O4 0.043155 0.082451 0.794654
O O5 0.419176 0.962382 0.481476
O O6 0.661175 0.892533 0.075734
O O7 0.640611 0.071839 0.063724
O O8 0.603476 0.934244 0.996641
O O9 0.309976 0.750000 0.965247
O O10 0.266339 0.605582 0.920041
O O11 0.510423 0.647986 0.513609
O O12 0.409431 0.250000 0.029572
O O13 0.295383 0.122778 0.365214
O O14 0.557210 0.123291 0.850387
O O15 0.737785 0.250000 0.575148
O O16 0.778471 0.059808 0.519135
O O17 0.251797 0.075113 0.898918
O O18 0.269562 0.250000 0.935006
#
# Coordination Sequence:
#
# PCOD8077542 Si02
#       8
#     4   4   4   4   4   4   4   4
#     4   9  18  34  52  70  99 132 163 203 250 287
#     4   9  15  27  45  70 102 130 156 207 247 291
#     4   8  15  25  42  70 100 130 162 202 249 288
#     4  11  20  31  52  77  99 130 168 207 251 297
#     4   9  18  32  53  73  94 127 166 204 247 293
#     4   9  20  36  48  71 103 130 160 209 253 293
#     4   9  15  26  46  70  97 125 164 203 243 289
#     4   8  14  24  40  66  99 128 160 199 243 289
#
# _framework density 17.765985000000001
#
# number of rings (size 3 to 8) (size 9 to 14) (size 15 to 20)
#    0.750    2.250    1.250    2.250    0.000    1.500 
#    0.000    1.875    0.000    6.750    0.000    1.750 
#    0.000    0.000    0.000    0.000    0.000    0.000 
#
# Total GULP energy -396437.513012 kJ/mol
# GULP energy per Si atom -12388.672282 kJ/mol
# Density = 1.772555 g / cm^3
# Si number density = 17.765985 Si / 1000 Ang^3
#
#
#
# Elastic Constant Matrix: (Units=GPa)
#
#
# Indices 1 2 3 4 5 6 
#
# 1 42.0300 10.8945 13.6071 0.0000 -15.2555 0.0000
# 2 10.8945 98.1928 18.3767 0.0000 -6.3426 0.0000
# 3 13.6071 18.3767 72.4760 0.0000 -16.6895 0.0000
# 4 0.0000 0.0000 0.0000 6.1455 0.0000 3.3528
# 5 -15.2555 -6.3426 -16.6895 0.0000 21.2492 0.0000
# 6 0.0000 0.0000 0.0000 3.3528 0.0000 18.8081
#
#
#
# Elastic Compliance Matrix: (Units=1/GPa)
#
#
# Indices 1 2 3 4 5 6 
#
# 1 0.032626 -0.002090 -0.000422 0.000000 0.022468 0.000000
# 2 -0.002090 0.010855 -0.002392 0.000000 -0.000139 0.000000
# 3 -0.000422 -0.002392 0.017395 0.000000 0.012646 0.000000
# 4 0.000000 0.000000 0.000000 0.180252 0.000000 -0.032132
# 5 0.022468 -0.000139 0.012646 0.000000 0.073082 0.000000
# 6 0.000000 0.000000 0.000000 -0.032132 0.000000 0.058897
#
#
# Mechanical properties :
#
#
# Convention : Reuss Voigt Hill
#
# Bulk Modulus (GPa) = 19.58121 33.16172 26.37146
# Shear Modulus (GPa) = 12.50201 20.56192 16.53196
#
# Velocity S-wave (km/s) = 2.65562 3.40571 3.05378
# Velocity P-wave (km/s) = 4.52203 5.84564 5.22591
#
# Compressibility (1/GPa) = 0.05106938
#
# Stress axis : x y z
#
# Youngs Moduli (GPa) = 30.65052 92.12714 57.48656
#
# Poissons Ratio (x) = 0.19251 0.02424
# Poissons Ratio (y) = 0.06405 0.13750
# Poissons Ratio (z) = 0.01292 0.22036
#
# Static dielectric constant tensor:
#      x y z
#    x 3.025290 0.000000 -0.050460 
#    y 0.000000 3.587000 0.000000 
#    z -0.050460 0.000000 2.903880 
# 
# 
# High freq. dielectric constant tensor:
#      x y z
#    x 1.664700 0.000000 -0.006560 
#    y 0.000000 1.686030 0.000000 
#    z -0.006560 0.000000 1.647380 
# 
# From -- ./inp_files/56581.got.cif
#   From: 2010.06.25/outbox.cif.g09.slc.cpg/sg11_29_cif.got.tgz:56581.got - 2010.06.27 23:14:04.
