data_PCOD8077079
_publ_section_title
;
Structure prediction by ZEFSAII (Michael W. Deem and Ramdas Pophale) SiO2 
 PCOD8077079
Probable space group: P 21/M
;
_chemical_formula_sum "Si O2"
_cell_formula_units_Z 26
_cell_length_a 12.211475
_cell_length_b 21.143055
_cell_length_c 6.759696
_cell_angle_alpha 90.000000
_cell_angle_beta 51.315004
_cell_angle_gamma 90.000000
_cell_volume 1362.348759
_symmetry_space_group_name_H-M "P 21/M"
_symmetry_group_IT_number 11
_symmetry_cell_setting 'monoclinic'
loop_
_space_group_symop_operation_xyz
x,y,z
-x,1/2+y,-z
-x,-y,-z
x,1/2-y,z
loop_
_atom_site_type_symbol
_atom_site_label
_atom_site_fract_x
_atom_site_fract_y
_atom_site_fract_z
Si Si1 0.485352 0.648044 0.912807
Si Si2 0.621350 0.250000 0.687434
Si Si3 0.754194 0.575661 0.558641
Si Si4 0.996667 0.885028 0.554526
Si Si5 0.651027 0.250000 0.191173
Si Si6 0.127609 0.465857 0.967541
Si Si7 0.894475 0.250000 0.624647
Si Si8 0.268390 0.959264 0.152322
O O1 0.457612 0.686553 0.147745
O O2 0.409354 0.580864 0.979218
O O3 0.651258 0.635124 0.709442
O O4 0.430582 0.688597 0.791137
O O5 0.639333 0.250000 0.436175
O O6 0.778137 0.250000 0.588644
O O7 0.765223 0.562425 0.313266
O O8 0.694042 0.515100 0.740190
O O9 0.908603 0.589877 0.468053
O O10 0.005340 0.809812 0.521661
O O11 0.150217 0.914631 0.378686
O O12 0.925361 0.907036 0.839721
O O13 0.813296 0.250000 0.929605
O O14 0.215427 0.515387 0.000184
O O15 0.000000 0.500000 0.000000
#
# Coordination Sequence:
#
# PCOD8077079 Si02
#       8
#     4   2   4   4   2   4   2   4
#     4  10  23  41  59  89 123 153 200 249 297 353
#     4  10  22  41  64  82 116 162 194 243 301 346
#     4  11  23  38  59  89 123 158 194 246 303 355
#     4  11  21  39  61  87 121 156 200 245 300 353
#     4  10  22  39  63  85 117 157 201 246 297 358
#     4  11  21  35  62  90 121 160 193 245 303 349
#     4  10  22  40  61  91 115 153 205 255 288 354
#     4  11  20  38  62  87 120 157 197 245 298 362
#
# _framework density 19.084686000000001
#
# number of rings (size 3 to 8) (size 9 to 14) (size 15 to 20)
#    0.000    1.538    6.154    1.385    0.000    8.000 
#    0.000    1.538    0.000    0.000    0.000    0.000 
#    0.000    0.000    0.000    0.000    0.000    0.000 
#
# Total GULP energy -322401.942935 kJ/mol
# GULP energy per Si atom -12400.074728 kJ/mol
# Density = 1.904125 g / cm^3
# Si number density = 19.084686 Si / 1000 Ang^3
#
#
#
# Elastic Constant Matrix: (Units=GPa)
#
#
# Indices 1 2 3 4 5 6 
#
# 1 37.2890 17.0783 42.9636 0.0000 2.1971 0.0000
# 2 17.0783 114.2806 47.3081 0.0000 5.5563 0.0000
# 3 42.9636 47.3081 124.6156 0.0000 31.2008 0.0000
# 4 0.0000 0.0000 0.0000 21.5682 0.0000 -11.6128
# 5 2.1971 5.5563 31.2008 0.0000 31.5617 0.0000
# 6 0.0000 0.0000 0.0000 -11.6128 0.0000 25.9471
#
#
#
# Elastic Compliance Matrix: (Units=1/GPa)
#
#
# Indices 1 2 3 4 5 6 
#
# 1 0.051633 0.000817 -0.022825 0.000000 0.018826 0.000000
# 2 0.000817 0.010578 -0.005072 0.000000 0.003095 0.000000
# 3 -0.022825 -0.005072 0.022855 0.000000 -0.020112 0.000000
# 4 0.000000 0.000000 0.000000 0.061084 0.000000 0.027339
# 5 0.018826 0.003095 -0.020112 0.000000 0.049711 0.000000
# 6 0.000000 0.000000 0.000000 0.027339 0.000000 0.050776
#
#
# Mechanical properties :
#
#
# Convention : Reuss Voigt Hill
#
# Bulk Modulus (GPa) = 32.35707 54.54280 43.44994
# Shear Modulus (GPa) = 16.07207 27.07109 21.57158
#
# Velocity S-wave (km/s) = 2.90512 3.77035 3.36565
# Velocity P-wave (km/s) = 5.31453 6.89894 6.15791
#
# Compressibility (1/GPa) = 0.03090515
#
# Stress axis : x y z
#
# Youngs Moduli (GPa) = 19.36753 94.54004 43.75329
#
# Poissons Ratio (x) = -0.07728 0.99868
# Poissons Ratio (y) = -0.01583 0.22194
# Poissons Ratio (z) = 0.44207 0.47955
#
# Static dielectric constant tensor:
#      x y z
#    x 3.374250 0.000000 0.025260 
#    y 0.000000 3.850570 0.000000 
#    z 0.025260 0.000000 3.490940 
# 
# 
# High freq. dielectric constant tensor:
#      x y z
#    x 1.737200 0.000000 0.000460 
#    y 0.000000 1.748350 0.000000 
#    z 0.000460 0.000000 1.738520 
# 
# From -- ./inp_files/5007.got.cif
#   From: 2010.06.25/outbox.cif.g09.slc.cpg/sg11_3_cif.got.tgz:5007.got - 2010.06.27 23:14:04.
