data_PCOD8077478
_publ_section_title
;
Structure prediction by ZEFSAII (Michael W. Deem and Ramdas Pophale) SiO2 
 PCOD8077478
Probable space group: P 21/M
;
_chemical_formula_sum "Si O2"
_cell_formula_units_Z 28
_cell_length_a 14.628123
_cell_length_b 16.440967
_cell_length_c 5.154396
_cell_angle_alpha 90.000000
_cell_angle_beta 105.675170
_cell_angle_gamma 90.000000
_cell_volume 1193.531402
_symmetry_space_group_name_H-M "P 21/M"
_symmetry_group_IT_number 11
_symmetry_cell_setting 'monoclinic'
loop_
_space_group_symop_operation_xyz
x,y,z
-x,1/2+y,-z
-x,-y,-z
x,1/2-y,z
loop_
_atom_site_type_symbol
_atom_site_label
_atom_site_fract_x
_atom_site_fract_y
_atom_site_fract_z
Si Si1 0.048069 0.750000 0.920735
Si Si2 0.995170 0.575461 0.797933
Si Si3 0.687547 0.912279 0.907319
Si Si4 0.693347 0.107159 0.406005
Si Si5 0.166614 0.750000 0.510644
Si Si6 0.840467 0.991280 0.328914
Si Si7 0.585797 0.077331 0.826756
Si Si8 0.610977 0.657725 0.353584
O O1 0.990450 0.665240 0.925277
O O2 0.080103 0.750000 0.646107
O O3 0.133352 0.750000 0.188395
O O4 0.092674 0.566838 0.706665
O O5 0.903424 0.570915 0.543215
O O6 0.000000 0.500000 0.000000
O O7 0.686310 0.863099 0.637779
O O8 0.605782 0.981400 0.835988
O O9 0.663520 0.850644 0.121002
O O10 0.793979 0.948000 0.039242
O O11 0.769853 0.172762 0.390498
O O12 0.749976 0.021151 0.430910
O O13 0.650357 0.120419 0.656731
O O14 0.610723 0.112866 0.128318
O O15 0.476328 0.095027 0.687462
O O16 0.574014 0.750000 0.355500
#
# Coordination Sequence:
#
# PCOD8077478 Si02
#       8
#     2   4   4   4   2   4   4   4
#     4  12  26  46  68 108 145 183 234 288 360 424
#     4  11  25  45  75 104 141 190 231 298 351 429
#     4  11  24  45  71  97 135 186 233 284 342 422
#     4  11  23  39  69 104 139 177 225 286 351 426
#     4  12  24  40  66 102 153 171 218 284 366 418
#     4  10  24  44  69 100 133 183 241 281 354 414
#     4  11  24  42  72 101 133 180 235 279 350 417
#     4  12  26  45  68 100 142 182 233 293 347 404
#
# _framework density 23.459796000000001
#
# number of rings (size 3 to 8) (size 9 to 14) (size 15 to 20)
#    0.000    0.857    1.429    5.571   12.000    0.000 
#    2.571    0.000    0.000    0.000    0.000    0.000 
#    0.000    0.000    0.000    0.000    0.000    0.000 
#
# Total GULP energy -347235.201678 kJ/mol
# GULP energy per Si atom -12401.257203 kJ/mol
# Density = 2.340640 g / cm^3
# Si number density = 23.459796 Si / 1000 Ang^3
#
#
#
# Elastic Constant Matrix: (Units=GPa)
#
#
# Indices 1 2 3 4 5 6 
#
# 1 64.7556 3.3129 33.7697 0.0000 9.5865 0.0000
# 2 3.3129 117.3818 50.9716 0.0000 7.9276 0.0000
# 3 33.7697 50.9716 144.3230 0.0000 15.7635 0.0000
# 4 0.0000 0.0000 0.0000 32.7527 0.0000 -1.9120
# 5 9.5865 7.9276 15.7635 0.0000 43.4802 0.0000
# 6 0.0000 0.0000 0.0000 -1.9120 0.0000 27.4231
#
#
#
# Elastic Compliance Matrix: (Units=1/GPa)
#
#
# Indices 1 2 3 4 5 6 
#
# 1 0.018111 0.001633 -0.004525 0.000000 -0.002650 0.000000
# 2 0.001633 0.010223 -0.003904 0.000000 -0.000808 0.000000
# 3 -0.004525 -0.003904 0.009558 0.000000 -0.001756 0.000000
# 4 0.000000 0.000000 0.000000 0.030657 0.000000 0.002137
# 5 -0.002650 -0.000808 -0.001756 0.000000 0.024367 0.000000
# 6 0.000000 0.000000 0.000000 0.002137 0.000000 0.036615
#
#
# Mechanical properties :
#
#
# Convention : Reuss Voigt Hill
#
# Bulk Modulus (GPa) = 41.15277 55.84099 48.49688
# Shear Modulus (GPa) = 33.06345 36.62492 34.84418
#
# Velocity S-wave (km/s) = 3.75823 3.95546 3.85810
# Velocity P-wave (km/s) = 6.03426 6.68696 6.36897
#
# Compressibility (1/GPa) = 0.02429970
#
# Stress axis : x y z
#
# Youngs Moduli (GPa) = 55.21422 97.81741 104.62022
#
# Poissons Ratio (x) = -0.15971 0.47340
# Poissons Ratio (y) = -0.09015 0.40847
# Poissons Ratio (z) = 0.24984 0.38191
#
# Static dielectric constant tensor:
#      x y z
#    x 4.001270 0.000000 0.003430 
#    y 0.000000 3.945190 0.000000 
#    z 0.003430 0.000000 4.384490 
# 
# 
# High freq. dielectric constant tensor:
#      x y z
#    x 1.915440 0.000000 0.000870 
#    y 0.000000 1.917510 0.000000 
#    z 0.000870 0.000000 1.946480 
# 
# From -- ./inp_files/6922.got.cif
#   From: 2010.06.25/outbox.cif.g09.slc.cpg/sg11_4_cif.got.tgz:6922.got - 2010.06.27 23:14:04.
