data_PCOD8077330
_publ_section_title
;
Structure prediction by ZEFSAII (Michael W. Deem and Ramdas Pophale) SiO2 
 PCOD8077330
Probable space group: P 21/M
;
_chemical_formula_sum "Si O2"
_cell_formula_units_Z 28
_cell_length_a 14.133702
_cell_length_b 17.154190
_cell_length_c 5.534129
_cell_angle_alpha 90.000000
_cell_angle_beta 113.229257
_cell_angle_gamma 90.000000
_cell_volume 1232.990623
_symmetry_space_group_name_H-M "P 21/M"
_symmetry_group_IT_number 11
_symmetry_cell_setting 'monoclinic'
loop_
_space_group_symop_operation_xyz
x,y,z
-x,1/2+y,-z
-x,-y,-z
x,1/2-y,z
loop_
_atom_site_type_symbol
_atom_site_label
_atom_site_fract_x
_atom_site_fract_y
_atom_site_fract_z
Si Si1 0.024838 0.437305 0.825353
Si Si2 0.426901 0.605103 0.556020
Si Si3 0.333695 0.452059 0.566531
Si Si4 0.201750 0.163695 0.126429
Si Si5 0.164651 0.547667 0.664647
Si Si6 0.675552 0.160072 0.038337
Si Si7 0.611194 0.837352 0.993847
O O1 0.106656 0.477516 0.733692
O O2 0.917982 0.411123 0.595862
O O3 0.081909 0.359243 0.974269
O O4 0.000000 0.500000 0.000000
O O5 0.410250 0.511574 0.504728
O O6 0.382240 0.637177 0.768835
O O7 0.548901 0.626941 0.699763
O O8 0.387432 0.645917 0.272624
O O9 0.254700 0.402056 0.335504
O O10 0.263232 0.511253 0.640739
O O11 0.405266 0.395220 0.798221
O O12 0.204781 0.250000 0.249961
O O13 0.266982 0.166135 0.943459
O O14 0.214896 0.614562 0.882866
O O15 0.703448 0.250000 0.082028
O O16 0.571051 0.750000 0.017270
#
# Coordination Sequence:
#
# PCOD8077330 Si02
#       7
#     4   4   4   4   4   4   4
#     4  11  21  42  66  91 125 174 223 277 341 411
#     4  11  26  43  72  99 137 186 229 274 338 415
#     4  11  22  42  66  97 135 173 231 277 337 407
#     4  11  24  40  65  97 136 174 224 284 344 402
#     4  10  23  39  68  93 123 174 220 281 339 406
#     4  11  24  45  68 101 137 175 226 286 343 404
#     4  11  24  42  64  98 140 181 223 283 343 402
#
# _framework density 22.709014
#
# number of rings (size 3 to 8) (size 9 to 14) (size 15 to 20)
#    0.000    1.143    2.857    3.000    6.000    1.143 
#    0.000    0.714    0.000    0.000    0.000    0.000 
#    0.000    0.000    0.000    0.000    0.000    0.000 
#
# Total GULP energy -346969.292921 kJ/mol
# GULP energy per Si atom -12391.760461 kJ/mol
# Density = 2.265733 g / cm^3
# Si number density = 22.709014 Si / 1000 Ang^3
#
#
#
# Elastic Constant Matrix: (Units=GPa)
#
#
# Indices 1 2 3 4 5 6 
#
# 1 56.9445 12.8877 21.3629 0.0000 17.0235 0.0000
# 2 12.8877 154.4308 34.9558 0.0000 16.0450 0.0000
# 3 21.3629 34.9558 118.0689 0.0000 16.3533 0.0000
# 4 0.0000 0.0000 0.0000 83.6068 0.0000 36.2961
# 5 17.0235 16.0450 16.3533 0.0000 38.9259 0.0000
# 6 0.0000 0.0000 0.0000 36.2961 0.0000 46.2115
#
#
#
# Elastic Compliance Matrix: (Units=1/GPa)
#
#
# Indices 1 2 3 4 5 6 
#
# 1 0.020988 -0.000338 -0.002596 0.000000 -0.007948 0.000000
# 2 -0.000338 0.007115 -0.001762 0.000000 -0.002045 0.000000
# 3 -0.002596 -0.001762 0.009772 0.000000 -0.002243 0.000000
# 4 0.000000 0.000000 0.000000 0.018149 0.000000 -0.014255
# 5 -0.007948 -0.002045 -0.002243 0.000000 0.030951 0.000000
# 6 0.000000 0.000000 0.000000 -0.014255 0.000000 0.032836
#
#
# Mechanical properties :
#
#
# Convention : Reuss Voigt Hill
#
# Bulk Modulus (GPa) = 35.11066 51.98413 43.54740
# Shear Modulus (GPa) = 36.04960 51.09801 43.57381
#
# Velocity S-wave (km/s) = 3.98861 4.74869 4.38515
# Velocity P-wave (km/s) = 6.05861 7.28065 6.69756
#
# Compressibility (1/GPa) = 0.02848138
#
# Stress axis : x y z
#
# Youngs Moduli (GPa) = 47.64698 140.55034 102.33471
#
# Poissons Ratio (x) = 0.04750 0.26571
# Poissons Ratio (y) = 0.01610 0.18033
# Poissons Ratio (z) = 0.12371 0.24767
#
# Static dielectric constant tensor:
#      x y z
#    x 3.953710 0.000000 0.172210 
#    y 0.000000 4.416940 0.000000 
#    z 0.172210 0.000000 4.255510 
# 
# 
# High freq. dielectric constant tensor:
#      x y z
#    x 1.897230 0.000000 0.010750 
#    y 0.000000 1.905490 0.000000 
#    z 0.010750 0.000000 1.893900 
# 
# From -- ./inp_files/6782.got.cif
#   From: 2010.06.25/outbox.cif.g09.slc.cpg/sg11_4_cif.got.tgz:6782.got - 2010.06.27 23:14:04.
