data_PCOD8077200
_publ_section_title
;
Structure prediction by ZEFSAII (Michael W. Deem and Ramdas Pophale) SiO2 
 PCOD8077200
Probable space group: P 21/M
;
_chemical_formula_sum "Si O2"
_cell_formula_units_Z 28
_cell_length_a 20.566116
_cell_length_b 8.777508
_cell_length_c 9.321665
_cell_angle_alpha 90.000000
_cell_angle_beta 125.449794
_cell_angle_gamma 90.000000
_cell_volume 1370.800440
_symmetry_space_group_name_H-M "P 21/M"
_symmetry_group_IT_number 11
_symmetry_cell_setting 'monoclinic'
loop_
_space_group_symop_operation_xyz
x,y,z
-x,1/2+y,-z
-x,-y,-z
x,1/2-y,z
loop_
_atom_site_type_symbol
_atom_site_label
_atom_site_fract_x
_atom_site_fract_y
_atom_site_fract_z
Si Si1 0.937431 0.071320 0.313858
Si Si2 0.192936 0.076129 0.440695
Si Si3 0.640723 0.072068 0.843440
Si Si4 0.025148 0.570769 0.178385
Si Si5 0.485609 0.426519 0.827018
Si Si6 0.777574 0.575340 0.200221
Si Si7 0.342314 0.430024 0.446246
O O1 0.950913 0.250000 0.324882
O O2 0.848226 0.035436 0.245111
O O3 0.000000 0.000000 0.500000
O O4 0.955323 0.996063 0.186029
O O5 0.164747 0.250000 0.384787
O O6 0.238246 0.055709 0.650371
O O7 0.253989 0.030052 0.392373
O O8 0.114631 0.972450 0.338946
O O9 0.663121 0.250000 0.879900
O O10 0.554835 0.038516 0.801310
O O11 0.642600 0.019509 0.681211
O O12 0.700462 0.973127 0.014357
O O13 0.019109 0.750000 0.168566
O O14 0.000000 0.500000 0.000000
O O15 0.478000 0.250000 0.850217
O O16 0.405040 0.486397 0.647268
O O17 0.500000 0.500000 0.000000
O O18 0.799148 0.750000 0.190851
O O19 0.352068 0.250000 0.430554
#
# Coordination Sequence:
#
# PCOD8077200 Si02
#       7
#     4   4   4   4   4   4   4
#     4  12  24  42  66  95 127 164 214 266 319 378
#     4  10  22  41  64  90 122 161 213 266 315 374
#     4  11  24  40  61  94 131 164 207 260 314 373
#     4  12  26  43  65  91 126 169 213 264 322 379
#     4  10  22  41  66  95 126 165 209 257 310 371
#     4  11  23  41  66  92 124 168 213 259 317 376
#     4  10  22  41  64  91 126 167 211 257 311 374
#
# _framework density 20.426023000000001
#
# number of rings (size 3 to 8) (size 9 to 14) (size 15 to 20)
#    0.000    1.143    1.429    4.714    2.000    4.000 
#    0.000    0.000    0.000    0.000    0.000    0.000 
#    0.000    0.000    0.000    0.000    0.000    0.000 
#
# Total GULP energy -347252.574736 kJ/mol
# GULP energy per Si atom -12401.877669 kJ/mol
# Density = 2.037953 g / cm^3
# Si number density = 20.426023 Si / 1000 Ang^3
#
#
#
# Elastic Constant Matrix: (Units=GPa)
#
#
# Indices 1 2 3 4 5 6 
#
# 1 101.6575 42.6728 20.9557 0.0000 -18.3560 0.0000
# 2 42.6728 123.2373 40.7321 0.0000 -9.8161 0.0000
# 3 20.9557 40.7321 98.9767 0.0000 -13.3911 0.0000
# 4 0.0000 0.0000 0.0000 37.3409 0.0000 -2.3921
# 5 -18.3560 -9.8161 -13.3911 0.0000 41.4779 0.0000
# 6 0.0000 0.0000 0.0000 -2.3921 0.0000 33.1559
#
#
#
# Elastic Compliance Matrix: (Units=1/GPa)
#
#
# Indices 1 2 3 4 5 6 
#
# 1 0.012305 -0.003757 -0.000463 0.000000 0.004407 0.000000
# 2 -0.003757 0.010580 -0.003602 0.000000 -0.000322 0.000000
# 3 -0.000463 -0.003602 0.012068 0.000000 0.002839 0.000000
# 4 0.000000 0.000000 0.000000 0.026905 0.000000 0.001941
# 5 0.004407 -0.000322 0.002839 0.000000 0.026900 0.000000
# 6 0.000000 0.000000 0.000000 0.001941 0.000000 0.030301
#
#
# Mechanical properties :
#
#
# Convention : Reuss Voigt Hill
#
# Bulk Modulus (GPa) = 51.78851 59.17696 55.48273
# Shear Modulus (GPa) = 35.42608 37.02900 36.22754
#
# Velocity S-wave (km/s) = 4.16908 4.26236 4.21598
# Velocity P-wave (km/s) = 6.97024 7.29780 7.13590
#
# Compressibility (1/GPa) = 0.01930930
#
# Stress axis : x y z
#
# Youngs Moduli (GPa) = 81.26674 94.51572 82.86431
#
# Poissons Ratio (x) = 0.35508 0.03837
# Poissons Ratio (y) = 0.30530 0.29850
# Poissons Ratio (z) = 0.03763 0.34047
#
# Static dielectric constant tensor:
#      x y z
#    x 3.729900 0.000000 -0.168710 
#    y 0.000000 3.637540 0.000000 
#    z -0.168710 0.000000 3.803180 
# 
# 
# High freq. dielectric constant tensor:
#      x y z
#    x 1.813420 0.000000 -0.005300 
#    y 0.000000 1.800800 0.000000 
#    z -0.005300 0.000000 1.810170 
# 
# From -- ./inp_files/26204.got.cif
#   From: 2010.06.25/outbox.cif.g09.slc.cpg/sg11_14_cif.got.tgz:26204.got - 2010.06.27 23:14:04.
