data_PCOD8077639
_publ_section_title
;
Structure prediction by ZEFSAII (Michael W. Deem and Ramdas Pophale) SiO2 
 PCOD8077639
Probable space group: P 21/M
;
_chemical_formula_sum "Si O2"
_cell_formula_units_Z 24
_cell_length_a 4.890871
_cell_length_b 27.995145
_cell_length_c 9.832757
_cell_angle_alpha 90.000000
_cell_angle_beta 119.699957
_cell_angle_gamma 90.000000
_cell_volume 1169.445544
_symmetry_space_group_name_H-M "P 21/M"
_symmetry_group_IT_number 11
_symmetry_cell_setting 'monoclinic'
loop_
_space_group_symop_operation_xyz
x,y,z
-x,1/2+y,-z
-x,-y,-z
x,1/2-y,z
loop_
_atom_site_type_symbol
_atom_site_label
_atom_site_fract_x
_atom_site_fract_y
_atom_site_fract_z
Si Si1 0.309925 0.198102 0.111726
Si Si2 0.453743 0.097850 0.827430
Si Si3 0.615214 0.102038 0.183408
Si Si4 0.800430 0.051778 0.681744
Si Si5 0.268692 0.442365 0.335268
Si Si6 0.597488 0.198296 0.899571
O O1 0.406929 0.250000 0.199778
O O2 0.524124 0.154681 0.219891
O O3 0.346196 0.200985 0.958466
O O4 0.941828 0.187956 0.049811
O O5 0.711334 0.065697 0.814025
O O6 0.496154 0.152764 0.783578
O O7 0.108039 0.079369 0.706562
O O8 0.511946 0.094802 0.002582
O O9 0.429803 0.063462 0.228037
O O10 0.987413 0.094949 0.288915
O O11 0.518872 0.067762 0.514628
O O12 0.869806 0.995633 0.689186
O O13 0.596755 0.250000 0.821369
#
# Coordination Sequence:
#
# PCOD8077639 Si02
#       6
#     4   4   4   4   4   4
#     4   9  17  31  53  82 113 141 173 219 275 329
#     4  11  21  36  60  87 110 138 187 239 272 311
#     4  11  21  36  60  87 110 138 187 239 272 311
#     4  11  24  40  56  77 112 155 187 219 278 342
#     4  11  24  40  56  77 112 155 187 219 278 342
#     4   9  17  31  53  82 113 141 173 219 275 329
#
# _framework density 20.522545000000001
#
# number of rings (size 3 to 8) (size 9 to 14) (size 15 to 20)
#    0.000    1.667    0.000    7.000    0.000    6.667 
#    0.000    0.000    0.000    6.000    0.000    0.000 
#    0.000    0.000    0.000    0.000    0.000    0.000 
#
# Total GULP energy -297514.701243 kJ/mol
# GULP energy per Si atom -12396.445885 kJ/mol
# Density = 2.047583 g / cm^3
# Si number density = 20.522545 Si / 1000 Ang^3
#
#
#
# Elastic Constant Matrix: (Units=GPa)
#
#
# Indices 1 2 3 4 5 6 
#
# 1 79.3018 15.2158 4.7946 0.0000 6.1545 0.0000
# 2 15.2158 107.4224 40.7566 0.0000 9.6159 0.0000
# 3 4.7946 40.7566 42.0185 0.0000 3.5662 0.0000
# 4 0.0000 0.0000 0.0000 16.0428 0.0000 14.2540
# 5 6.1545 9.6159 3.5662 0.0000 25.1925 0.0000
# 6 0.0000 0.0000 0.0000 14.2540 0.0000 33.5549
#
#
#
# Elastic Compliance Matrix: (Units=1/GPa)
#
#
# Indices 1 2 3 4 5 6 
#
# 1 0.013129 -0.001809 0.000476 0.000000 -0.002584 0.000000
# 2 -0.001809 0.015317 -0.014364 0.000000 -0.003371 0.000000
# 3 0.000476 -0.014364 0.037675 0.000000 0.000034 0.000000
# 4 0.000000 0.000000 0.000000 0.100122 0.000000 -0.042531
# 5 -0.002584 -0.003371 0.000034 0.000000 0.041608 0.000000
# 6 0.000000 0.000000 0.000000 -0.042531 0.000000 0.047869
#
#
# Mechanical properties :
#
#
# Convention : Reuss Voigt Hill
#
# Bulk Modulus (GPa) = 28.79706 38.91964 33.85835
# Shear Modulus (GPa) = 16.73976 26.15643 21.44809
#
# Velocity S-wave (km/s) = 2.85910 3.57392 3.23631
# Velocity P-wave (km/s) = 4.99617 6.00300 5.52258
#
# Compressibility (1/GPa) = 0.03472577
#
# Stress axis : x y z
#
# Youngs Moduli (GPa) = 76.16777 65.28707 26.54279
#
# Poissons Ratio (x) = 0.11809 -0.01263
# Poissons Ratio (y) = 0.13777 0.38127
# Poissons Ratio (z) = -0.03623 0.93781
#
# Static dielectric constant tensor:
#      x y z
#    x 3.880170 0.000000 0.068140 
#    y 0.000000 4.277410 0.000000 
#    z 0.068140 0.000000 3.254190 
# 
# 
# High freq. dielectric constant tensor:
#      x y z
#    x 1.826450 0.000000 0.012860 
#    y 0.000000 1.821080 0.000000 
#    z 0.012860 0.000000 1.743720 
# 
# From -- ./inp_files/30325.got.cif
#   From: 2010.06.25/outbox.cif.g09.slc.cpg/sg11_16_cif.got.tgz:30325.got - 2010.06.27 23:14:04.
