data_PCOD8077028
_publ_section_title
;
Structure prediction by ZEFSAII (Michael W. Deem and Ramdas Pophale) SiO2 
 PCOD8077028
Probable space group: P 21/M
;
_chemical_formula_sum "Si O2"
_cell_formula_units_Z 28
_cell_length_a 28.495436
_cell_length_b 9.073908
_cell_length_c 8.985987
_cell_angle_alpha 90.000000
_cell_angle_beta 141.054861
_cell_angle_gamma 90.000000
_cell_volume 1460.472037
_symmetry_space_group_name_H-M "P 21/M"
_symmetry_group_IT_number 11
_symmetry_cell_setting 'monoclinic'
loop_
_space_group_symop_operation_xyz
x,y,z
-x,1/2+y,-z
-x,-y,-z
x,1/2-y,z
loop_
_atom_site_type_symbol
_atom_site_label
_atom_site_fract_x
_atom_site_fract_y
_atom_site_fract_z
Si Si1 0.340292 0.418518 0.267767
Si Si2 0.209382 0.081257 0.418945
Si Si3 0.062883 0.078789 0.250031
Si Si4 0.934629 0.076195 0.429219
Si Si5 0.352326 0.423490 0.954959
Si Si6 0.505536 0.419589 0.668898
Si Si7 0.211424 0.578614 0.118189
O O1 0.313146 0.250000 0.210196
O O2 0.423919 0.434825 0.543447
O O3 0.287097 0.516159 0.236824
O O4 0.337336 0.471585 0.088761
O O5 0.219294 0.250000 0.394888
O O6 0.141352 0.061569 0.362803
O O7 0.283453 0.024038 0.684665
O O8 0.193482 0.987936 0.233983
O O9 0.041948 0.250000 0.223115
O O10 0.069541 0.995923 0.420913
O O11 0.000000 0.000000 0.000000
O O12 0.950394 0.250000 0.481301
O O13 0.856911 0.041409 0.157831
O O14 0.000000 0.000000 0.500000
O O15 0.365634 0.250000 0.979208
O O16 0.426833 0.503353 0.073860
O O17 0.500000 0.500000 0.500000
O O18 0.525972 0.250000 0.693532
O O19 0.222578 0.750000 0.167683
#
# Coordination Sequence:
#
# PCOD8077028 Si02
#       7
#     4   4   4   4   4   4   4
#     4   9  18  34  56  80 109 144 183 225 276 337
#     4  10  22  39  58  80 111 150 187 225 278 337
#     4  11  23  40  63  89 116 149 187 229 278 334
#     4  11  24  41  61  87 117 150 188 232 279 330
#     4   9  18  34  56  82 108 140 184 230 275 329
#     4   9  17  30  51  80 110 142 180 225 275 328
#     4  11  24  38  55  82 113 145 187 234 276 321
#
# _framework density 19.171885
#
# number of rings (size 3 to 8) (size 9 to 14) (size 15 to 20)
#    0.000    2.000    0.000    4.286    0.000   10.286 
#    0.000    0.714    0.000    0.000    0.000    0.000 
#    0.000    0.000    0.000    0.000    0.000    0.000 
#
# Total GULP energy -347208.111960 kJ/mol
# GULP energy per Si atom -12400.289713 kJ/mol
# Density = 1.912825 g / cm^3
# Si number density = 19.171885 Si / 1000 Ang^3
#
#
#
# Elastic Constant Matrix: (Units=GPa)
#
#
# Indices 1 2 3 4 5 6 
#
# 1 96.7378 57.9493 54.2462 0.0000 -0.0786 0.0000
# 2 57.9493 100.1081 73.2343 0.0000 6.1988 0.0000
# 3 54.2462 73.2343 136.1568 0.0000 4.9778 0.0000
# 4 0.0000 0.0000 0.0000 33.8183 0.0000 1.2189
# 5 -0.0786 6.1988 4.9778 0.0000 33.5998 0.0000
# 6 0.0000 0.0000 0.0000 1.2189 0.0000 34.6991
#
#
#
# Elastic Compliance Matrix: (Units=1/GPa)
#
#
# Indices 1 2 3 4 5 6 
#
# 1 0.016374 -0.007866 -0.002360 0.000000 0.001839 0.000000
# 2 -0.007866 0.020349 -0.007715 0.000000 -0.002630 0.000000
# 3 -0.002360 -0.007715 0.012450 0.000000 -0.000427 0.000000
# 4 0.000000 0.000000 0.000000 0.029607 0.000000 -0.001040
# 5 0.001839 -0.002630 -0.000427 0.000000 0.030315 0.000000
# 6 0.000000 0.000000 0.000000 -0.001040 0.000000 0.028856
#
#
# Mechanical properties :
#
#
# Convention : Reuss Voigt Hill
#
# Bulk Modulus (GPa) = 75.23739 78.20693 76.72216
# Shear Modulus (GPa) = 28.04826 30.26163 29.15494
#
# Velocity S-wave (km/s) = 3.82905 3.97727 3.90386
# Velocity P-wave (km/s) = 7.67318 7.87227 7.77336
#
# Compressibility (1/GPa) = 0.01329126
#
# Stress axis : x y z
#
# Youngs Moduli (GPa) = 61.07256 49.14134 80.31998
#
# Poissons Ratio (x) = 0.38653 0.18956
# Poissons Ratio (y) = 0.48038 0.61970
# Poissons Ratio (z) = 0.14414 0.37915
#
# Static dielectric constant tensor:
#      x y z
#    x 3.385840 0.000000 0.104700 
#    y 0.000000 4.305230 0.000000 
#    z 0.104700 0.000000 3.415280 
# 
# 
# High freq. dielectric constant tensor:
#      x y z
#    x 1.739700 0.000000 0.016410 
#    y 0.000000 1.752760 0.000000 
#    z 0.016410 0.000000 1.756960 
# 
# From -- ./inp_files/28333.got.cif
#   From: 2010.06.25/outbox.cif.g09.slc.cpg/sg11_15_cif.got.tgz:28333.got - 2010.06.27 23:14:04.
