data_PCOD8077126
_publ_section_title
;
Structure prediction by ZEFSAII (Michael W. Deem and Ramdas Pophale) SiO2 
 PCOD8077126
Probable space group: P 21/M
;
_chemical_formula_sum "Si O2"
_cell_formula_units_Z 32
_cell_length_a 24.743411
_cell_length_b 8.891604
_cell_length_c 24.647567
_cell_angle_alpha 90.000000
_cell_angle_beta 162.625227
_cell_angle_gamma 90.000000
_cell_volume 1619.323153
_symmetry_space_group_name_H-M "P 21/M"
_symmetry_group_IT_number 11
_symmetry_cell_setting 'monoclinic'
loop_
_space_group_symop_operation_xyz
x,y,z
-x,1/2+y,-z
-x,-y,-z
x,1/2-y,z
loop_
_atom_site_type_symbol
_atom_site_label
_atom_site_fract_x
_atom_site_fract_y
_atom_site_fract_z
Si Si1 0.185372 0.428284 0.346018
Si Si2 0.469011 0.571299 0.911858
Si Si3 0.412049 0.573581 0.245533
Si Si4 0.673753 0.918684 0.730996
Si Si5 0.204513 0.924906 0.835635
Si Si6 0.096075 0.424915 0.541116
Si Si7 0.251343 0.919031 0.301120
Si Si8 0.142356 0.927294 0.896649
O O1 0.173850 0.250000 0.329169
O O2 0.379956 0.480555 0.555732
O O3 0.148789 0.496200 0.251507
O O4 0.035601 0.492691 0.244058
O O5 0.455643 0.750000 0.904757
O O6 0.284800 0.507009 0.709802
O O7 0.500000 0.500000 0.000000
O O8 0.633065 0.526201 0.030428
O O9 0.399977 0.750000 0.244171
O O10 0.296639 0.498684 0.183054
O O11 0.321950 0.526924 0.102167
O O12 0.746975 0.750000 0.805497
O O13 0.463950 0.923493 0.515320
O O14 0.790169 0.001179 0.795995
O O15 0.264926 0.750000 0.894293
O O16 0.158506 0.989190 0.851174
O O17 0.026624 0.946489 0.629194
O O18 0.130070 0.250000 0.586644
O O19 0.000000 0.500000 0.500000
O O20 0.177498 0.750000 0.227505
O O21 0.120789 0.750000 0.873013
#
# Coordination Sequence:
#
# PCOD8077126 Si02
#       8
#     4   4   4   4   4   4   4   4
#     4   9  17  31  52  76 103 138 177 221 274 327
#     4  12  24  39  62  90 123 158 195 238 290 348
#     4   9  17  31  53  77 104 139 178 223 273 327
#     4   9  16  27  46  73 104 136 174 221 273 330
#     4  10  22  40  62  89 119 155 197 242 290 344
#     4  11  22  37  62  92 125 159 195 237 287 345
#     4   9  16  27  46  73 103 135 174 221 273 329
#     4   9  19  36  57  81 108 140 186 232 271 326
#
# _framework density 19.761343
#
# number of rings (size 3 to 8) (size 9 to 14) (size 15 to 20)
#    0.000    2.250    1.250    2.250    0.000    4.500 
#    0.000    6.250    0.000    3.000    0.000    0.000 
#    0.000    0.000    0.000    0.000    0.000    0.000 
#
# Total GULP energy -396818.814710 kJ/mol
# GULP energy per Si atom -12400.587960 kJ/mol
# Density = 1.971636 g / cm^3
# Si number density = 19.761343 Si / 1000 Ang^3
#
#
#
# Elastic Constant Matrix: (Units=GPa)
#
#
# Indices 1 2 3 4 5 6 
#
# 1 159.9679 49.0186 37.4544 0.0000 7.9851 0.0000
# 2 49.0186 96.3936 36.8422 0.0000 2.7092 0.0000
# 3 37.4544 36.8422 63.6846 0.0000 19.8903 0.0000
# 4 0.0000 0.0000 0.0000 17.9193 0.0000 2.0135
# 5 7.9851 2.7092 19.8903 0.0000 26.4186 0.0000
# 6 0.0000 0.0000 0.0000 2.0135 0.0000 28.7231
#
#
#
# Elastic Compliance Matrix: (Units=1/GPa)
#
#
# Indices 1 2 3 4 5 6 
#
# 1 0.007815 -0.002823 -0.003028 0.000000 0.000207 0.000000
# 2 -0.002823 0.015055 -0.008934 0.000000 0.006036 0.000000
# 3 -0.003028 -0.008934 0.028868 0.000000 -0.019903 0.000000
# 4 0.000000 0.000000 0.000000 0.056249 0.000000 -0.003943
# 5 0.000207 0.006036 -0.019903 0.000000 0.052155 0.000000
# 6 0.000000 0.000000 0.000000 -0.003943 0.000000 0.035092
#
#
# Mechanical properties :
#
#
# Convention : Reuss Voigt Hill
#
# Bulk Modulus (GPa) = 45.11054 62.96407 54.03730
# Shear Modulus (GPa) = 21.53392 27.72759 24.63076
#
# Velocity S-wave (km/s) = 3.30464 3.74989 3.53428
# Velocity P-wave (km/s) = 6.11867 7.11901 6.63771
#
# Compressibility (1/GPa) = 0.02216777
#
# Stress axis : x y z
#
# Youngs Moduli (GPa) = 127.96307 66.42483 34.64048
#
# Poissons Ratio (x) = 0.18749 0.10488
# Poissons Ratio (y) = 0.36118 0.30949
# Poissons Ratio (z) = 0.38745 0.59347
#
# Static dielectric constant tensor:
#      x y z
#    x 2.008460 0.000000 -1.848690 
#    y 0.000000 3.526190 0.000000 
#    z -1.848690 0.000000 1.686960 
# 
# 
# High freq. dielectric constant tensor:
#      x y z
#    x 1.770540 0.000000 0.000370 
#    y 0.000000 1.756560 0.000000 
#    z 0.000370 0.000000 1.770240 
# 
# From -- ./inp_files/70030.got.cif
#   From: 2010.06.25/outbox.cif.g09.slc.cpg/sg11_36_cif.got.tgz:70030.got - 2010.06.27 23:14:04.
