data_PCOD8077019
_publ_section_title
;
Structure prediction by ZEFSAII (Michael W. Deem and Ramdas Pophale) SiO2 
 PCOD8077019
Probable space group: P 21/M
;
_chemical_formula_sum "Si O2"
_cell_formula_units_Z 28
_cell_length_a 7.364181
_cell_length_b 15.418638
_cell_length_c 11.668877
_cell_angle_alpha 90.000000
_cell_angle_beta 105.613394
_cell_angle_gamma 90.000000
_cell_volume 1276.059029
_symmetry_space_group_name_H-M "P 21/M"
_symmetry_group_IT_number 11
_symmetry_cell_setting 'monoclinic'
loop_
_space_group_symop_operation_xyz
x,y,z
-x,1/2+y,-z
-x,-y,-z
x,1/2-y,z
loop_
_atom_site_type_symbol
_atom_site_label
_atom_site_fract_x
_atom_site_fract_y
_atom_site_fract_z
Si Si1 0.040415 0.345363 0.361692
Si Si2 0.858211 0.347493 0.663004
Si Si3 0.641014 0.347639 0.418177
Si Si4 0.469409 0.505970 0.757952
Si Si5 0.759546 0.852805 0.377124
Si Si6 0.837558 0.075832 0.891285
Si Si7 0.128937 0.948205 0.859690
O O1 0.080211 0.250000 0.318873
O O2 0.203998 0.369743 0.480827
O O3 0.842328 0.346986 0.391735
O O4 0.030445 0.409996 0.252420
O O5 0.885798 0.250000 0.626025
O O6 0.681949 0.381395 0.555697
O O7 0.808033 0.351432 0.788705
O O8 0.059878 0.390125 0.664246
O O9 0.550946 0.250000 0.399515
O O10 0.508231 0.417315 0.332562
O O11 0.411053 0.413852 0.691371
O O12 0.672059 0.495352 0.850679
O O13 0.326238 0.535679 0.832145
O O14 0.715506 0.750000 0.347134
O O15 0.834396 0.113170 0.021043
O O16 0.042668 0.035465 0.898662
#
# Coordination Sequence:
#
# PCOD8077019 Si02
#       7
#     4   4   4   4   4   4   4
#     4   8  16  33  58  81 106 148 190 227 281 342
#     4   9  18  35  56  81 117 150 184 234 287 342
#     4   8  17  33  56  86 115 147 187 234 291 348
#     4  11  21  36  63  83 114 152 187 239 296 332
#     4   9  18  34  58  89 117 145 187 237 292 346
#     4  11  23  36  55  84 110 149 197 229 280 344
#     4  10  22  39  55  78 114 149 191 239 271 335
#
# _framework density 21.94256
#
# number of rings (size 3 to 8) (size 9 to 14) (size 15 to 20)
#    0.000    2.571    1.429    2.143    2.000    3.429 
#    0.000    0.714    0.000    3.429    0.000    0.000 
#    0.000    0.000    0.000    0.000    0.000    0.000 
#
# Total GULP energy -346917.545326 kJ/mol
# GULP energy per Si atom -12389.912333 kJ/mol
# Density = 2.189262 g / cm^3
# Si number density = 21.942560 Si / 1000 Ang^3
#
#
#
# Elastic Constant Matrix: (Units=GPa)
#
#
# Indices 1 2 3 4 5 6 
#
# 1 36.7355 4.3857 18.3215 0.0000 0.9840 0.0000
# 2 4.3857 59.9057 31.2580 0.0000 -6.2949 0.0000
# 3 18.3215 31.2580 151.8608 0.0000 -15.4179 0.0000
# 4 0.0000 0.0000 0.0000 24.8454 0.0000 -2.5386
# 5 0.9840 -6.2949 -15.4179 0.0000 27.5892 0.0000
# 6 0.0000 0.0000 0.0000 -2.5386 0.0000 6.7374
#
#
#
# Elastic Compliance Matrix: (Units=1/GPa)
#
#
# Indices 1 2 3 4 5 6 
#
# 1 0.029242 -0.000526 -0.003751 0.000000 -0.003259 0.000000
# 2 -0.000526 0.018843 -0.003580 0.000000 0.002318 0.000000
# 3 -0.003751 -0.003580 0.008168 0.000000 0.003882 0.000000
# 4 0.000000 0.000000 0.000000 0.041860 0.000000 0.015773
# 5 -0.003259 0.002318 0.003882 0.000000 0.039060 0.000000
# 6 0.000000 0.000000 0.000000 0.015773 0.000000 0.154368
#
#
# Mechanical properties :
#
#
# Convention : Reuss Voigt Hill
#
# Bulk Modulus (GPa) = 24.66674 39.60359 32.13517
# Shear Modulus (GPa) = 15.58756 24.80352 20.19554
#
# Velocity S-wave (km/s) = 2.66819 3.36577 3.03707
# Velocity P-wave (km/s) = 4.55612 5.76129 5.19378
#
# Compressibility (1/GPa) = 0.04054042
#
# Stress axis : x y z
#
# Youngs Moduli (GPa) = 34.19706 53.07066 122.42318
#
# Poissons Ratio (x) = 0.02793 0.45915
# Poissons Ratio (y) = 0.01800 0.43823
# Poissons Ratio (z) = 0.12826 0.18998
#
# Static dielectric constant tensor:
#      x y z
#    x 3.638750 0.000000 -0.071070 
#    y 0.000000 3.790850 0.000000 
#    z -0.071070 0.000000 4.413340 
# 
# 
# High freq. dielectric constant tensor:
#      x y z
#    x 1.854860 0.000000 -0.006240 
#    y 0.000000 1.833490 0.000000 
#    z -0.006240 0.000000 1.868580 
# 
# From -- ./inp_files/31727.got.cif
#   From: 2010.06.25/outbox.cif.g09.slc.cpg/sg11_16_cif.got.tgz:31727.got - 2010.06.27 23:14:04.
