data_PCOD8077398
_publ_section_title
;
Structure prediction by ZEFSAII (Michael W. Deem and Ramdas Pophale) SiO2 
 PCOD8077398
Probable space group: P 21/M
;
_chemical_formula_sum "Si O2"
_cell_formula_units_Z 32
_cell_length_a 15.824754
_cell_length_b 15.002997
_cell_length_c 20.787048
_cell_angle_alpha 90.000000
_cell_angle_beta 162.191142
_cell_angle_gamma 90.000000
_cell_volume 1509.404520
_symmetry_space_group_name_H-M "P 21/M"
_symmetry_group_IT_number 11
_symmetry_cell_setting 'monoclinic'
loop_
_space_group_symop_operation_xyz
x,y,z
-x,1/2+y,-z
-x,-y,-z
x,1/2-y,z
loop_
_atom_site_type_symbol
_atom_site_label
_atom_site_fract_x
_atom_site_fract_y
_atom_site_fract_z
Si Si1 0.950745 0.149285 0.700313
Si Si2 0.466285 0.351308 0.886542
Si Si3 0.103857 0.588201 0.475622
Si Si4 0.290947 0.479771 0.404835
Si Si5 0.916302 0.102058 0.306757
Si Si6 0.447003 0.347865 0.627043
Si Si7 0.428578 0.649335 0.822294
Si Si8 0.801207 0.147844 0.005329
O O1 0.900682 0.250000 0.691234
O O2 0.850077 0.150094 0.553300
O O3 0.796755 0.076267 0.631662
O O4 0.274731 0.123593 0.934383
O O5 0.496920 0.250000 0.933219
O O6 0.547614 0.362421 0.871283
O O7 0.154711 0.383054 0.668231
O O8 0.664427 0.411193 0.074455
O O9 0.366318 0.590831 0.713658
O O10 0.072728 0.490374 0.426230
O O11 0.500000 0.500000 0.500000
O O12 0.447191 0.423081 0.572633
O O13 0.038121 0.422121 0.194367
O O14 0.806114 0.137450 0.294267
O O15 0.147321 0.165518 0.443329
O O16 0.517355 0.250000 0.648828
O O17 0.682079 0.374808 0.848840
O O18 0.420816 0.750000 0.792418
O O19 0.914930 0.250000 0.090893
#
# Coordination Sequence:
#
# PCOD8077398 Si02
#       8
#     4   4   4   4   4   4   4   4
#     4  11  25  44  64  91 129 172 218 264 318 388
#     4  11  20  35  61  93 133 177 213 252 304 370
#     4  12  23  38  60  92 132 178 216 255 308 375
#     4  12  27  46  72  97 125 162 214 282 340 395
#     4  12  22  35  60  97 134 172 215 261 305 372
#     4  11  23  43  69 100 134 171 214 265 322 386
#     4  11  24  39  59  90 131 179 217 254 305 375
#     4  10  23  42  69 100 134 170 213 265 321 385
#
# _framework density 21.200415
#
# number of rings (size 3 to 8) (size 9 to 14) (size 15 to 20)
#    0.000    0.750    3.750    4.125    3.500    2.500 
#    0.000    0.000    0.000    1.500    0.000    0.000 
#    0.000    0.000    0.000    0.000    0.000    0.000 
#
# Total GULP energy -396862.318602 kJ/mol
# GULP energy per Si atom -12401.947456 kJ/mol
# Density = 2.115216 g / cm^3
# Si number density = 21.200415 Si / 1000 Ang^3
#
#
#
# Elastic Constant Matrix: (Units=GPa)
#
#
# Indices 1 2 3 4 5 6 
#
# 1 116.7986 49.2431 47.7120 0.0000 -7.5231 0.0000
# 2 49.2431 123.0424 23.8443 0.0000 -4.2355 0.0000
# 3 47.7120 23.8443 47.0959 0.0000 -12.6315 0.0000
# 4 0.0000 0.0000 0.0000 13.5730 0.0000 -8.4679
# 5 -7.5231 -4.2355 -12.6315 0.0000 39.2195 0.0000
# 6 0.0000 0.0000 0.0000 -8.4679 0.0000 29.5322
#
#
#
# Elastic Compliance Matrix: (Units=1/GPa)
#
#
# Indices 1 2 3 4 5 6 
#
# 1 0.016090 -0.003596 -0.015057 0.000000 -0.002151 0.000000
# 2 -0.003596 0.009825 -0.001349 0.000000 -0.000063 0.000000
# 3 -0.015057 -0.001349 0.039794 0.000000 0.009783 0.000000
# 4 0.000000 0.000000 0.000000 0.089726 0.000000 0.025728
# 5 -0.002151 -0.000063 0.009783 0.000000 0.028229 0.000000
# 6 0.000000 0.000000 0.000000 0.025728 0.000000 0.041238
#
#
# Mechanical properties :
#
#
# Convention : Reuss Voigt Hill
#
# Bulk Modulus (GPa) = 38.90079 58.72620 48.81349
# Shear Modulus (GPa) = 18.28328 27.54077 22.91203
#
# Velocity S-wave (km/s) = 2.93985 3.60817 3.29102
# Velocity P-wave (km/s) = 5.46924 6.71708 6.12502
#
# Compressibility (1/GPa) = 0.02570642
#
# Stress axis : x y z
#
# Youngs Moduli (GPa) = 62.15129 101.77609 25.12955
#
# Poissons Ratio (x) = 0.36594 0.37837
# Poissons Ratio (y) = 0.22347 0.03390
# Poissons Ratio (z) = 0.93580 0.13729
#
# Static dielectric constant tensor:
#      x y z
#    x 3.699700 0.000000 -0.231400 
#    y 0.000000 4.028020 0.000000 
#    z -0.231400 0.000000 3.722130 
# 
# 
# High freq. dielectric constant tensor:
#      x y z
#    x 1.817120 0.000000 -0.028820 
#    y 0.000000 1.847570 0.000000 
#    z -0.028820 0.000000 1.816890 
# 
# From -- ./inp_files/65774.got.cif
#   From: 2010.06.25/outbox.cif.g09.slc.cpg/sg11_33_cif.got.tgz:65774.got - 2010.06.27 23:14:04.
