data_PCOD8077579
_publ_section_title
;
Structure prediction by ZEFSAII (Michael W. Deem and Ramdas Pophale) SiO2 
 PCOD8077579
Probable space group: P 21/M
;
_chemical_formula_sum "Si O2"
_cell_formula_units_Z 32
_cell_length_a 10.858929
_cell_length_b 18.670705
_cell_length_c 14.312471
_cell_angle_alpha 90.000000
_cell_angle_beta 147.443310
_cell_angle_gamma 90.000000
_cell_volume 1561.538215
_symmetry_space_group_name_H-M "P 21/M"
_symmetry_group_IT_number 11
_symmetry_cell_setting 'monoclinic'
loop_
_space_group_symop_operation_xyz
x,y,z
-x,1/2+y,-z
-x,-y,-z
x,1/2-y,z
loop_
_atom_site_type_symbol
_atom_site_label
_atom_site_fract_x
_atom_site_fract_y
_atom_site_fract_z
Si Si1 0.873585 0.038044 0.787807
Si Si2 0.378590 0.062526 0.130031
Si Si3 0.263240 0.666027 0.971571
Si Si4 0.110168 0.828998 0.322500
Si Si5 0.405982 0.167738 0.985454
Si Si6 0.416878 0.171018 0.308941
Si Si7 0.554865 0.424671 0.744255
Si Si8 0.771422 0.605306 0.629480
O O1 0.817302 0.115508 0.710006
O O2 0.770982 0.042051 0.826017
O O3 0.748267 0.976484 0.648681
O O4 0.143095 0.023381 0.951189
O O5 0.485574 0.112168 0.117043
O O6 0.305657 0.113834 0.169079
O O7 0.543768 0.995585 0.263382
O O8 0.220203 0.750000 0.956992
O O9 0.458806 0.649288 0.021358
O O10 0.033325 0.629381 0.786025
O O11 0.349768 0.635638 0.125550
O O12 0.108957 0.750000 0.275333
O O13 0.306838 0.832749 0.527359
O O14 0.862297 0.845077 0.208668
O O15 0.452277 0.250000 0.047302
O O16 0.326787 0.250000 0.224223
O O17 0.348997 0.156677 0.372589
O O18 0.358608 0.390289 0.553364
#
# Coordination Sequence:
#
# PCOD8077579 Si02
#       8
#     4   4   4   4   4   4   4   4
#     4  11  20  38  62  90 131 163 199 253 318 374
#     4  11  21  37  65  92 123 164 215 260 315 364
#     4  11  26  46  64  90 127 170 215 255 306 377
#     4   9  19  36  60  88 119 159 205 259 312 361
#     4   9  21  44  65  84 123 170 212 264 311 356
#     4  11  21  35  60  96 127 158 209 262 313 379
#     4  12  23  39  66  95 128 167 205 256 318 379
#     4  12  23  41  64  95 134 168 198 252 322 379
#
# _framework density 20.492614
#
# number of rings (size 3 to 8) (size 9 to 14) (size 15 to 20)
#    0.000    1.250    3.750    3.000    0.000    2.500 
#    2.250    0.625    0.000    0.000    0.000    0.000 
#    0.000    0.000    0.000    0.000    0.000    0.000 
#
# Total GULP energy -396697.111088 kJ/mol
# GULP energy per Si atom -12396.784722 kJ/mol
# Density = 2.044597 g / cm^3
# Si number density = 20.492614 Si / 1000 Ang^3
#
#
#
# Elastic Constant Matrix: (Units=GPa)
#
#
# Indices 1 2 3 4 5 6 
#
# 1 78.1854 30.6206 28.5958 0.0000 1.1566 0.0000
# 2 30.6206 112.0709 31.5393 0.0000 -4.3397 0.0000
# 3 28.5958 31.5393 80.4374 0.0000 -9.6223 0.0000
# 4 0.0000 0.0000 0.0000 29.5643 0.0000 -8.2785
# 5 1.1566 -4.3397 -9.6223 0.0000 26.1995 0.0000
# 6 0.0000 0.0000 0.0000 -8.2785 0.0000 31.1316
#
#
#
# Elastic Compliance Matrix: (Units=1/GPa)
#
#
# Indices 1 2 3 4 5 6 
#
# 1 0.015782 -0.003089 -0.004753 0.000000 -0.002954 0.000000
# 2 -0.003089 0.010635 -0.002976 0.000000 0.000805 0.000000
# 3 -0.004753 -0.002976 0.015956 0.000000 0.005577 0.000000
# 4 0.000000 0.000000 0.000000 0.036546 0.000000 0.009718
# 5 -0.002954 0.000805 0.005577 0.000000 0.040481 0.000000
# 6 0.000000 0.000000 0.000000 0.009718 0.000000 0.034706
#
#
# Mechanical properties :
#
#
# Convention : Reuss Voigt Hill
#
# Bulk Modulus (GPa) = 48.22011 50.24502 49.23257
# Shear Modulus (GPa) = 27.37439 29.37497 28.37468
#
# Velocity S-wave (km/s) = 3.65885 3.79019 3.72510
# Velocity P-wave (km/s) = 6.43670 6.61255 6.52522
#
# Compressibility (1/GPa) = 0.02073823
#
# Stress axis : x y z
#
# Youngs Moduli (GPa) = 63.36414 94.02485 62.67411
#
# Poissons Ratio (x) = 0.29043 0.29787
# Poissons Ratio (y) = 0.19572 0.18650
# Poissons Ratio (z) = 0.30115 0.27979
#
# Static dielectric constant tensor:
#      x y z
#    x 3.442720 0.000000 0.057890 
#    y 0.000000 3.929280 0.000000 
#    z 0.057890 0.000000 3.750650 
# 
# 
# High freq. dielectric constant tensor:
#      x y z
#    x 1.771120 0.000000 0.002040 
#    y 0.000000 1.823700 0.000000 
#    z 0.002040 0.000000 1.798480 
# 
# From -- ./inp_files/50693.got.cif
#   From: 2010.06.25/outbox.cif.g09.slc.cpg/sg11_26_cif.got.tgz:50693.got - 2010.06.27 23:14:04.
