data_PCOD8077916
_publ_section_title
;
Structure prediction by ZEFSAII (Michael W. Deem and Ramdas Pophale) SiO2 
 PCOD8077916
Probable space group: P 21/M
;
_chemical_formula_sum "Si O2"
_cell_formula_units_Z 24
_cell_length_a 10.237317
_cell_length_b 8.798481
_cell_length_c 31.773006
_cell_angle_alpha 90.000000
_cell_angle_beta 152.875242
_cell_angle_gamma 90.000000
_cell_volume 1304.817828
_symmetry_space_group_name_H-M "P 21/M"
_symmetry_group_IT_number 11
_symmetry_cell_setting 'monoclinic'
loop_
_space_group_symop_operation_xyz
x,y,z
-x,1/2+y,-z
-x,-y,-z
x,1/2-y,z
loop_
_atom_site_type_symbol
_atom_site_label
_atom_site_fract_x
_atom_site_fract_y
_atom_site_fract_z
Si Si1 0.142919 0.075514 0.224325
Si Si2 0.764081 0.571024 0.051369
Si Si3 0.709753 0.429176 0.432867
Si Si4 0.410943 0.429972 0.430541
Si Si5 0.831325 0.075150 0.221810
Si Si6 0.247129 0.929605 0.043070
O O1 0.142975 0.250000 0.209158
O O2 0.458706 0.023337 0.328830
O O3 0.923060 0.055607 0.199737
O O4 0.051768 0.967481 0.159814
O O5 0.722138 0.750000 0.034965
O O6 0.500000 0.500000 0.000000
O O7 0.787586 0.498290 0.012767
O O8 0.741495 0.250000 0.442883
O O9 0.628740 0.487378 0.456556
O O10 0.000000 0.500000 0.500000
O O11 0.500000 0.500000 0.500000
O O12 0.424155 0.250000 0.437284
O O13 0.087891 0.480139 0.325913
O O14 0.753930 0.250000 0.208832
O O15 0.554460 0.972464 0.151283
O O16 0.215759 0.750000 0.032451
O O17 0.000000 0.000000 0.000000
#
# Coordination Sequence:
#
# PCOD8077916 Si02
#       6
#     4   4   4   4   4   4
#     4   9  18  35  59  84 112 149 194 238 282 333
#     4  12  23  37  60  89 117 149 192 238 282 338
#     4   9  19  36  57  83 115 150 186 233 286 335
#     4   9  19  36  58  84 112 148 190 234 281 336
#     4   9  18  36  60  82 111 150 193 238 284 335
#     4  12  25  41  60  85 117 153 191 236 290 343
#
# _framework density 18.393371999999999
#
# number of rings (size 3 to 8) (size 9 to 14) (size 15 to 20)
#    0.000    2.000    1.667    5.000    0.000    2.000 
#    3.000    3.333    0.000    0.000    0.000    0.000 
#    0.000    0.000    0.000    0.000    0.000    0.000 
#
# Total GULP energy -297607.855258 kJ/mol
# GULP energy per Si atom -12400.327302 kJ/mol
# Density = 1.835151 g / cm^3
# Si number density = 18.393372 Si / 1000 Ang^3
#
#
#
# Elastic Constant Matrix: (Units=GPa)
#
#
# Indices 1 2 3 4 5 6 
#
# 1 134.2613 62.1560 92.1997 0.0000 1.3359 0.0000
# 2 62.1560 109.5213 61.8574 0.0000 1.6899 0.0000
# 3 92.1997 61.8574 147.6518 0.0000 1.1399 0.0000
# 4 0.0000 0.0000 0.0000 37.8377 0.0000 -0.3219
# 5 1.3359 1.6899 1.1399 0.0000 37.2473 0.0000
# 6 0.0000 0.0000 0.0000 -0.3219 0.0000 32.7151
#
#
#
# Elastic Compliance Matrix: (Units=1/GPa)
#
#
# Indices 1 2 3 4 5 6 
#
# 1 0.014273 -0.004015 -0.007229 0.000000 -0.000108 0.000000
# 2 -0.004015 0.013096 -0.002976 0.000000 -0.000359 0.000000
# 3 -0.007229 -0.002976 0.012534 0.000000 0.000011 0.000000
# 4 0.000000 0.000000 0.000000 0.026431 0.000000 0.000260
# 5 -0.000108 -0.000359 0.000011 0.000000 0.026867 0.000000
# 6 0.000000 0.000000 0.000000 0.000260 0.000000 0.030570
#
#
# Mechanical properties :
#
#
# Convention : Reuss Voigt Hill
#
# Bulk Modulus (GPa) = 87.25700 91.54007 89.39854
# Shear Modulus (GPa) = 32.04456 33.24143 32.64299
#
# Velocity S-wave (km/s) = 4.17847 4.25579 4.21731
# Velocity P-wave (km/s) = 8.41557 8.60378 8.51020
#
# Compressibility (1/GPa) = 0.01146040
#
# Stress axis : x y z
#
# Youngs Moduli (GPa) = 70.06388 76.35917 79.78366
#
# Poissons Ratio (x) = 0.30660 0.57679
# Poissons Ratio (y) = 0.28132 0.23747
# Poissons Ratio (z) = 0.50652 0.22728
#
# Static dielectric constant tensor:
#      x y z
#    x 2.825180 0.000000 0.004300 
#    y 0.000000 2.424820 0.000000 
#    z 0.004300 0.000000 3.652360 
# 
# 
# High freq. dielectric constant tensor:
#      x y z
#    x 1.702170 0.000000 -0.003750 
#    y 0.000000 1.709340 0.000000 
#    z -0.003750 0.000000 1.726960 
# 
# From -- ./inp_files/28929.got.cif
#   From: 2010.06.25/outbox.cif.g09.slc.cpg/sg11_15_cif.got.tgz:28929.got - 2010.06.27 23:14:04.
