data_PCOD8077879
_publ_section_title
;
Structure prediction by ZEFSAII (Michael W. Deem and Ramdas Pophale) SiO2 
 PCOD8077879
Probable space group: P 21/M
;
_chemical_formula_sum "Si O2"
_cell_formula_units_Z 24
_cell_length_a 14.854675
_cell_length_b 17.593647
_cell_length_c 8.691190
_cell_angle_alpha 90.000000
_cell_angle_beta 150.009950
_cell_angle_gamma 90.000000
_cell_volume 1135.370537
_symmetry_space_group_name_H-M "P 21/M"
_symmetry_group_IT_number 11
_symmetry_cell_setting 'monoclinic'
loop_
_space_group_symop_operation_xyz
x,y,z
-x,1/2+y,-z
-x,-y,-z
x,1/2-y,z
loop_
_atom_site_type_symbol
_atom_site_label
_atom_site_fract_x
_atom_site_fract_y
_atom_site_fract_z
Si Si1 0.264718 0.444604 0.264724
Si Si2 0.104456 0.917927 0.450955
Si Si3 0.425237 0.664151 0.778410
Si Si4 0.384593 0.611444 0.384587
Si Si5 0.072054 0.664155 0.718858
Si Si6 0.242061 0.417928 0.588572
O O1 0.280505 0.535286 0.280514
O O2 0.431688 0.404578 0.431773
O O3 0.255309 0.418852 0.425621
O O4 0.085078 0.418853 0.914684
O O5 0.228094 0.856993 0.547606
O O6 0.074089 0.894132 0.581253
O O7 0.196940 0.999999 0.590803
O O8 0.470453 0.750000 0.896214
O O9 0.430957 0.660035 0.602950
O O10 0.566838 0.605862 0.059738
O O11 0.258882 0.660060 0.086950
O O12 0.044697 0.750000 0.618892
O O13 0.908495 0.643016 0.588836
#
# Coordination Sequence:
#
# PCOD8077879 Si02
#       6
#     4   4   4   4   4   4
#     4  11  24  42  70 103 128 170 231 275 327 389
#     4  12  24  44  70 101 131 178 225 279 325 400
#     4  12  26  44  67  99 138 177 221 276 342 396
#     4  11  24  43  69  98 138 171 221 279 330 397
#     4  12  26  44  67  99 138 177 221 276 342 396
#     4  12  24  44  70 101 131 178 225 279 325 400
#
# _framework density 21.138473000000001
#
# number of rings (size 3 to 8) (size 9 to 14) (size 15 to 20)
#    0.000    0.333    3.333    6.000    4.667    0.000 
#    0.000    7.500    0.000    0.000    0.000    0.000 
#    0.000    0.000    0.000    0.000    0.000    0.000 
#
# Total GULP energy -297830.107415 kJ/mol
# GULP energy per Si atom -12409.587809 kJ/mol
# Density = 2.109036 g / cm^3
# Si number density = 21.138473 Si / 1000 Ang^3
#
#
#
# Elastic Constant Matrix: (Units=GPa)
#
#
# Indices 1 2 3 4 5 6 
#
# 1 132.1002 39.8232 63.7662 0.0000 -11.2476 0.0000
# 2 39.8232 89.3690 45.4248 0.0000 -5.7041 0.0000
# 3 63.7662 45.4248 153.5157 0.0000 -10.5690 0.0000
# 4 0.0000 0.0000 0.0000 20.5214 0.0000 0.2933
# 5 -11.2476 -5.7041 -10.5690 0.0000 38.9769 0.0000
# 6 0.0000 0.0000 0.0000 0.2933 0.0000 20.8095
#
#
#
# Elastic Compliance Matrix: (Units=1/GPa)
#
#
# Indices 1 2 3 4 5 6 
#
# 1 0.010117 -0.002737 -0.003280 0.000000 0.001630 0.000000
# 2 -0.002737 0.013941 -0.002957 0.000000 0.000448 0.000000
# 3 -0.003280 -0.002957 0.008821 0.000000 0.001013 0.000000
# 4 0.000000 0.000000 0.000000 0.048740 0.000000 -0.000687
# 5 0.001630 0.000448 0.001013 0.000000 0.026467 0.000000
# 6 0.000000 0.000000 0.000000 -0.000687 0.000000 0.048065
#
#
# Mechanical properties :
#
#
# Convention : Reuss Voigt Hill
#
# Bulk Modulus (GPa) = 66.97825 74.77928 70.87876
# Shear Modulus (GPa) = 27.92098 31.12625 29.52362
#
# Velocity S-wave (km/s) = 3.63831 3.84147 3.74127
# Velocity P-wave (km/s) = 7.02880 7.42486 7.22954
#
# Compressibility (1/GPa) = 0.01493022
#
# Stress axis : x y z
#
# Youngs Moduli (GPa) = 98.84023 71.73112 113.36096
#
# Poissons Ratio (x) = 0.19632 0.37187
# Poissons Ratio (y) = 0.27052 0.33525
# Poissons Ratio (z) = 0.32424 0.21214
#
# Static dielectric constant tensor:
#      x y z
#    x 3.984960 0.000000 0.114210 
#    y 0.000000 3.781320 0.000000 
#    z 0.114210 0.000000 3.872630 
# 
# 
# High freq. dielectric constant tensor:
#      x y z
#    x 1.847150 0.000000 0.004140 
#    y 0.000000 1.828920 0.000000 
#    z 0.004140 0.000000 1.843060 
# 
# From -- ./inp_files/22834.got.cif
#   From: 2010.06.25/outbox.cif.g09.slc.cpg/sg11_12_cif.got.tgz:22834.got - 2010.06.27 23:14:04.
