data_PCOD8077731
_publ_section_title
;
Structure prediction by ZEFSAII (Michael W. Deem and Ramdas Pophale) SiO2 
 PCOD8077731
Probable space group: P 21/M
;
_chemical_formula_sum "Si O2"
_cell_formula_units_Z 28
_cell_length_a 16.414674
_cell_length_b 8.647715
_cell_length_c 22.471737
_cell_angle_alpha 90.000000
_cell_angle_beta 25.422868
_cell_angle_gamma 90.000000
_cell_volume 1369.388737
_symmetry_space_group_name_H-M "P 21/M"
_symmetry_group_IT_number 11
_symmetry_cell_setting 'monoclinic'
loop_
_space_group_symop_operation_xyz
x,y,z
-x,1/2+y,-z
-x,-y,-z
x,1/2-y,z
loop_
_atom_site_type_symbol
_atom_site_label
_atom_site_fract_x
_atom_site_fract_y
_atom_site_fract_z
Si Si1 0.669967 0.933808 0.126911
Si Si2 0.705711 0.433170 0.349466
Si Si3 0.086216 0.566839 0.133973
Si Si4 0.720613 0.431377 0.662630
Si Si5 0.909110 0.928440 0.644310
Si Si6 0.309555 0.070268 0.096531
Si Si7 0.196552 0.567116 0.848253
O O1 0.693747 0.750000 0.109034
O O2 0.480275 0.000831 0.222503
O O3 0.652527 0.993128 0.205993
O O4 0.845907 0.008372 0.975501
O O5 0.500000 0.500000 0.500000
O O6 0.702854 0.250000 0.359382
O O7 0.751224 0.485756 0.252321
O O8 0.871154 0.501529 0.283676
O O9 0.080031 0.750000 0.141076
O O10 0.237111 0.507863 0.083759
O O11 0.708923 0.250000 0.664716
O O12 0.754311 0.479311 0.708270
O O13 0.883526 0.494173 0.510174
O O14 0.892726 0.750000 0.636772
O O15 0.864799 0.953891 0.742607
O O16 0.348857 0.250000 0.057758
O O17 0.500000 0.000000 0.000000
O O18 0.193530 0.750000 0.855266
O O19 0.000000 0.500000 0.000000
#
# Coordination Sequence:
#
# PCOD8077731 Si02
#       7
#     4   4   4   4   4   4   4
#     4  11  22  37  61  91 122 157 204 257 312 373
#     4  11  25  45  68  96 131 170 215 266 325 388
#     4  12  25  41  63  90 124 166 211 261 319 382
#     4   9  19  35  56  83 114 151 194 244 300 360
#     4   9  19  36  56  80 113 153 195 244 302 361
#     4  11  23  39  60  87 123 163 208 258 313 378
#     4  11  23  40  65  93 124 161 205 255 311 375
#
# _framework density 20.447078999999999
#
# number of rings (size 3 to 8) (size 9 to 14) (size 15 to 20)
#    0.000    1.429    1.429    3.857    0.000    7.429 
#    0.000    1.429    0.000    0.000    0.000    0.000 
#    0.000    0.000    0.000    0.000    0.000    0.000 
#
# Total GULP energy -347161.079081 kJ/mol
# GULP energy per Si atom -12398.609967 kJ/mol
# Density = 2.040054 g / cm^3
# Si number density = 20.447079 Si / 1000 Ang^3
#
#
#
# Elastic Constant Matrix: (Units=GPa)
#
#
# Indices 1 2 3 4 5 6 
#
# 1 115.7531 43.2905 51.3949 0.0000 -10.4062 0.0000
# 2 43.2905 97.7311 44.0199 0.0000 -3.5800 0.0000
# 3 51.3949 44.0199 104.0098 0.0000 -9.2895 0.0000
# 4 0.0000 0.0000 0.0000 30.3029 0.0000 -1.1044
# 5 -10.4062 -3.5800 -9.2895 0.0000 37.9227 0.0000
# 6 0.0000 0.0000 0.0000 -1.1044 0.0000 38.0539
#
#
#
# Elastic Compliance Matrix: (Units=1/GPa)
#
#
# Indices 1 2 3 4 5 6 
#
# 1 0.011969 -0.003268 -0.004361 0.000000 0.001908 0.000000
# 2 -0.003268 0.013535 -0.004171 0.000000 -0.000641 0.000000
# 3 -0.004361 -0.004171 0.013692 0.000000 0.001764 0.000000
# 4 0.000000 0.000000 0.000000 0.033035 0.000000 0.000959
# 5 0.001908 -0.000641 0.001764 0.000000 0.027264 0.000000
# 6 0.000000 0.000000 0.000000 0.000959 0.000000 0.026306
#
#
# Mechanical properties :
#
#
# Convention : Reuss Voigt Hill
#
# Bulk Modulus (GPa) = 64.11505 66.10051 65.10778
# Shear Modulus (GPa) = 32.34168 33.17516 32.75842
#
# Velocity S-wave (km/s) = 3.98141 4.03238 4.00698
# Velocity P-wave (km/s) = 7.24984 7.35377 7.30199
#
# Compressibility (1/GPa) = 0.01559696
#
# Stress axis : x y z
#
# Youngs Moduli (GPa) = 83.55006 73.88413 73.03468
#
# Poissons Ratio (x) = 0.24142 0.31850
# Poissons Ratio (y) = 0.27300 0.30462
# Poissons Ratio (z) = 0.36436 0.30816
#
# Static dielectric constant tensor:
#      x y z
#    x 4.072310 0.000000 -0.095210 
#    y 0.000000 3.683910 0.000000 
#    z -0.095210 0.000000 3.974320 
# 
# 
# High freq. dielectric constant tensor:
#      x y z
#    x 1.805680 0.000000 -0.005290 
#    y 0.000000 1.800780 0.000000 
#    z -0.005290 0.000000 1.804620 
# 
# From -- ./inp_files/65347.got.cif
#   From: 2010.06.25/outbox.cif.g09.slc.cpg/sg11_33_cif.got.tgz:65347.got - 2010.06.27 23:14:04.
