data_PCOD8077502
_publ_section_title
;
Structure prediction by ZEFSAII (Michael W. Deem and Ramdas Pophale) SiO2 
 PCOD8077502
Probable space group: P 21/M
;
_chemical_formula_sum "Si O2"
_cell_formula_units_Z 16
_cell_length_a 10.822922
_cell_length_b 12.971874
_cell_length_c 10.076233
_cell_angle_alpha 90.000000
_cell_angle_beta 153.008824
_cell_angle_gamma 90.000000
_cell_volume 642.038280
_symmetry_space_group_name_H-M "P 21/M"
_symmetry_group_IT_number 11
_symmetry_cell_setting 'monoclinic'
loop_
_space_group_symop_operation_xyz
x,y,z
-x,1/2+y,-z
-x,-y,-z
x,1/2-y,z
loop_
_atom_site_type_symbol
_atom_site_label
_atom_site_fract_x
_atom_site_fract_y
_atom_site_fract_z
Si Si1 0.963376 0.059811 0.312652
Si Si2 0.750407 0.138184 0.489322
Si Si3 0.548007 0.250000 0.531015
Si Si4 0.983442 0.750000 0.822088
Si Si5 0.430351 0.367950 0.926513
O O1 0.062756 0.149054 0.309871
O O2 0.644512 0.069226 0.040139
O O3 0.027839 0.952002 0.301843
O O4 0.135352 0.078403 0.616084
O O5 0.892015 0.250000 0.587661
O O6 0.618138 0.148085 0.509719
O O7 0.502900 0.119353 0.149922
O O8 0.230471 0.250000 0.261869
O O9 0.716095 0.250000 0.828112
O O10 0.431180 0.250000 0.879839
#
# Coordination Sequence:
#
# PCOD8077502 Si02
#       5
#     4   4   2   2   4
#     4  12  23  41  69  97 126 164 207 266 317 372
#     4   9  24  45  63  96 130 168 206 259 317 382
#     4  10  26  44  60  92 124 174 216 250 308 368
#     4  12  24  40  66  90 126 166 222 254 304 366
#     4  11  21  41  67 100 127 159 205 263 326 379
#
# _framework density 24.920631
#
# number of rings (size 3 to 8) (size 9 to 14) (size 15 to 20)
#    0.750    0.500    2.500    3.000    0.000    6.000 
#    0.000    0.000    0.000    0.000    0.000    0.000 
#    0.000    0.000    0.000    0.000    0.000    0.000 
#
# Total GULP energy -198457.597925 kJ/mol
# GULP energy per Si atom -12403.599870 kJ/mol
# Density = 2.486391 g / cm^3
# Si number density = 24.920631 Si / 1000 Ang^3
#
#
#
# Elastic Constant Matrix: (Units=GPa)
#
#
# Indices 1 2 3 4 5 6 
#
# 1 90.3773 26.1685 19.3809 0.0000 10.4216 0.0000
# 2 26.1685 171.1665 39.8035 0.0000 -0.9358 0.0000
# 3 19.3809 39.8035 104.3752 0.0000 14.0581 0.0000
# 4 0.0000 0.0000 0.0000 35.7580 0.0000 4.1297
# 5 10.4216 -0.9358 14.0581 0.0000 34.0491 0.0000
# 6 0.0000 0.0000 0.0000 4.1297 0.0000 22.9360
#
#
#
# Elastic Compliance Matrix: (Units=1/GPa)
#
#
# Indices 1 2 3 4 5 6 
#
# 1 0.012163 -0.001596 -0.001210 0.000000 -0.003267 0.000000
# 2 -0.001596 0.006671 -0.002476 0.000000 0.001694 0.000000
# 3 -0.001210 -0.002476 0.011340 0.000000 -0.004380 0.000000
# 4 0.000000 0.000000 0.000000 0.028560 0.000000 -0.005142
# 5 -0.003267 0.001694 -0.004380 0.000000 0.032224 0.000000
# 6 0.000000 0.000000 0.000000 -0.005142 0.000000 0.044525
#
#
# Mechanical properties :
#
#
# Convention : Reuss Voigt Hill
#
# Bulk Modulus (GPa) = 50.99348 59.62497 55.30922
# Shear Modulus (GPa) = 32.76895 37.25302 35.01099
#
# Velocity S-wave (km/s) = 3.63013 3.87055 3.75227
# Velocity P-wave (km/s) = 6.17068 6.62968 6.40429
#
# Compressibility (1/GPa) = 0.01961035
#
# Stress axis : x y z
#
# Youngs Moduli (GPa) = 82.21633 149.89596 88.18707
#
# Poissons Ratio (x) = 0.23924 0.10669
# Poissons Ratio (y) = 0.13122 0.21834
# Poissons Ratio (z) = 0.09946 0.37113
#
# Static dielectric constant tensor:
#      x y z
#    x 4.290330 0.000000 -0.088910 
#    y 0.000000 4.918920 0.000000 
#    z -0.088910 0.000000 4.224190 
# 
# 
# High freq. dielectric constant tensor:
#      x y z
#    x 1.982950 0.000000 0.005380 
#    y 0.000000 2.019960 0.000000 
#    z 0.005380 0.000000 1.989800 
# 
# From -- ./inp_files/29510.got.cif
#   From: 2010.06.25/outbox.cif.g09.slc.cpg/sg11_15_cif.got.tgz:29510.got - 2010.06.27 23:14:04.
