data_PCOD8077262
_publ_section_title
;
Structure prediction by ZEFSAII (Michael W. Deem and Ramdas Pophale) SiO2 
 PCOD8077262
Probable space group: P 21/M
;
_chemical_formula_sum "Si O2"
_cell_formula_units_Z 24
_cell_length_a 12.108124
_cell_length_b 19.157900
_cell_length_c 4.956765
_cell_angle_alpha 90.000000
_cell_angle_beta 113.605045
_cell_angle_gamma 90.000000
_cell_volume 1053.595240
_symmetry_space_group_name_H-M "P 21/M"
_symmetry_group_IT_number 11
_symmetry_cell_setting 'monoclinic'
loop_
_space_group_symop_operation_xyz
x,y,z
-x,1/2+y,-z
-x,-y,-z
x,1/2-y,z
loop_
_atom_site_type_symbol
_atom_site_label
_atom_site_fract_x
_atom_site_fract_y
_atom_site_fract_z
Si Si1 0.011937 0.624109 0.719509
Si Si2 0.876098 0.434056 0.648438
Si Si3 0.623720 0.964182 0.871734
Si Si4 0.669145 0.250000 0.667967
Si Si5 0.770663 0.574320 0.541770
Si Si6 0.166576 0.750000 0.674461
Si Si7 0.384296 0.597472 0.490222
O O1 0.049100 0.560958 0.556842
O O2 0.078769 0.686001 0.634392
O O3 0.865351 0.636930 0.576309
O O4 0.057795 0.613554 0.066262
O O5 0.862076 0.513525 0.737375
O O6 0.741221 0.402696 0.469494
O O7 0.676813 0.912345 0.690543
O O8 0.487566 0.935958 0.784314
O O9 0.626545 0.045591 0.781580
O O10 0.698862 0.953327 0.214039
O O11 0.783719 0.250000 0.580707
O O12 0.588809 0.178866 0.558746
O O13 0.718196 0.250000 0.018920
#
# Coordination Sequence:
#
# PCOD8077262 Si02
#       7
#     4   4   4   2   4   2   4
#     4  12  22  39  59  90 127 158 205 249 306 372
#     4  11  21  36  63  90 121 157 204 258 305 351
#     4  10  24  40  64  90 127 165 209 254 307 364
#     4  12  24  40  66  90 126 156 210 254 318 374
#     4  11  23  39  61  90 123 167 203 246 305 371
#     4  12  24  40  60  94 124 164 198 256 324 358
#     4  10  22  42  63  94 124 161 208 263 306 364
#
# _framework density 22.779145
#
# number of rings (size 3 to 8) (size 9 to 14) (size 15 to 20)
#    0.000    1.000    3.333    4.000    0.000    8.667 
#    0.000    1.667    0.000    0.000    0.000    0.000 
#    0.000    0.000    0.000    0.000    0.000    0.000 
#
# Total GULP energy -297427.169732 kJ/mol
# GULP energy per Si atom -12392.798739 kJ/mol
# Density = 2.272730 g / cm^3
# Si number density = 22.779145 Si / 1000 Ang^3
#
#
#
# Elastic Constant Matrix: (Units=GPa)
#
#
# Indices 1 2 3 4 5 6 
#
# 1 92.2903 16.7547 40.1084 0.0000 8.3406 0.0000
# 2 16.7547 77.6609 3.1796 0.0000 15.5031 0.0000
# 3 40.1084 3.1796 95.2536 0.0000 2.1923 0.0000
# 4 0.0000 0.0000 0.0000 17.4705 0.0000 4.9612
# 5 8.3406 15.5031 2.1923 0.0000 36.0854 0.0000
# 6 0.0000 0.0000 0.0000 4.9612 0.0000 -5.9403
#
#
#
# Elastic Compliance Matrix: (Units=1/GPa)
#
#
# Indices 1 2 3 4 5 6 
#
# 1 0.013935 -0.002404 -0.005745 0.000000 -0.001839 0.000000
# 2 -0.002404 0.014510 0.000660 0.000000 -0.005718 0.000000
# 3 -0.005745 0.000660 0.012889 0.000000 0.000261 0.000000
# 4 0.000000 0.000000 0.000000 0.046266 0.000000 0.038640
# 5 -0.001839 -0.005718 0.000261 0.000000 0.030578 0.000000
# 6 0.000000 0.000000 0.000000 0.038640 0.000000 -0.136070
#
#
# Mechanical properties :
#
#
# Convention : Reuss Voigt Hill
#
# Bulk Modulus (GPa) = 37.94374 42.81001 40.37687
# Shear Modulus (GPa) = 851.53098 23.20059 437.36579
#
# Velocity S-wave (km/s) = 19.35541 3.19486 13.87154
# Velocity P-wave (km/s) = 22.72009 5.69595 16.56271
#
# Compressibility (1/GPa) = 0.02635481
#
# Stress axis : x y z
#
# Youngs Moduli (GPa) = 71.76345 68.91984 77.58401
#
# Poissons Ratio (x) = 0.16568 0.44571
# Poissons Ratio (y) = 0.17252 -0.05117
# Poissons Ratio (z) = 0.41227 -0.04545
#
# Static dielectric constant tensor:
#      x y z
#    x 4.448930 0.000000 0.047370 
#    y 0.000000 4.277850 0.000000 
#    z 0.047370 0.000000 3.850890 
# 
# 
# High freq. dielectric constant tensor:
#      x y z
#    x 1.909120 0.000000 -0.003840 
#    y 0.000000 1.871260 0.000000 
#    z -0.003840 0.000000 1.895020 
# 
# From -- ./inp_files/4962.got.cif
#   From: 2010.06.25/outbox.cif.g09.slc.cpg/sg11_3_cif.got.tgz:4962.got - 2010.06.27 23:14:04.
