data_PCOD8077457
_publ_section_title
;
Structure prediction by ZEFSAII (Michael W. Deem and Ramdas Pophale) SiO2 
 PCOD8077457
Probable space group: P 21/M
;
_chemical_formula_sum "Si O2"
_cell_formula_units_Z 32
_cell_length_a 25.074845
_cell_length_b 8.542527
_cell_length_c 19.495893
_cell_angle_alpha 90.000000
_cell_angle_beta 21.564683
_cell_angle_gamma 90.000000
_cell_volume 1534.920181
_symmetry_space_group_name_H-M "P 21/M"
_symmetry_group_IT_number 11
_symmetry_cell_setting 'monoclinic'
loop_
_space_group_symop_operation_xyz
x,y,z
-x,1/2+y,-z
-x,-y,-z
x,1/2-y,z
loop_
_atom_site_type_symbol
_atom_site_label
_atom_site_fract_x
_atom_site_fract_y
_atom_site_fract_z
Si Si1 0.303270 0.069211 0.414112
Si Si2 0.936346 0.931183 0.507114
Si Si3 0.974436 0.068002 0.835117
Si Si4 0.518915 0.570232 0.262018
Si Si5 0.150827 0.070601 0.145841
Si Si6 0.645484 0.432820 0.794113
Si Si7 0.417807 0.566288 0.532794
Si Si8 0.887142 0.934181 0.081823
O O1 0.310686 0.250000 0.384469
O O2 0.143348 0.021799 0.630346
O O3 0.411185 0.037391 0.347711
O O4 0.346079 0.971197 0.296273
O O5 0.907920 0.750000 0.551627
O O6 0.783321 0.005793 0.670937
O O7 0.000000 0.000000 0.500000
O O8 0.053173 0.956450 0.307829
O O9 0.950944 0.250000 0.846101
O O10 0.885329 0.960821 0.889664
O O11 0.908665 0.029537 0.986890
O O12 0.476777 0.750000 0.298686
O O13 0.510060 0.533502 0.353666
O O14 0.680787 0.533986 0.042409
O O15 0.114454 0.250000 0.207718
O O16 0.641308 0.250000 0.808648
O O17 0.500000 0.500000 0.000000
O O18 0.500000 0.500000 0.500000
O O19 0.387388 0.750000 0.579226
O O20 0.270554 0.470103 0.699717
O O21 0.908889 0.750000 0.043976
O O22 0.000000 0.000000 0.000000
#
# Coordination Sequence:
#
# PCOD8077457 Si02
#       8
#     4   4   4   4   4   4   4   4
#     4  11  24  42  66  97 132 169 218 270 326 392
#     4  12  26  46  70 100 136 176 223 271 324 387
#     4  11  23  41  66  95 128 168 217 272 329 394
#     4  10  24  42  63  93 130 172 219 268 325 392
#     4  11  23  42  67  97 131 171 219 268 326 389
#     4  12  26  46  72 100 135 176 218 268 329 391
#     4  11  23  42  66  95 131 173 221 272 333 397
#     4  12  25  41  63  93 129 170 219 275 334 394
#
# _framework density 20.847988999999998
#
# number of rings (size 3 to 8) (size 9 to 14) (size 15 to 20)
#    0.000    0.750    1.250    6.375    1.750    6.500 
#    0.000    0.000    0.000    0.000    0.000    0.000 
#    0.000    0.000    0.000    0.000    0.000    0.000 
#
# Total GULP energy -397023.850932 kJ/mol
# GULP energy per Si atom -12406.995342 kJ/mol
# Density = 2.080054 g / cm^3
# Si number density = 20.847989 Si / 1000 Ang^3
#
#
#
# Elastic Constant Matrix: (Units=GPa)
#
#
# Indices 1 2 3 4 5 6 
#
# 1 117.0820 31.3278 25.6888 0.0000 -8.3714 0.0000
# 2 31.3278 115.3068 42.6452 0.0000 -6.7218 0.0000
# 3 25.6888 42.6452 111.2915 0.0000 -4.9430 0.0000
# 4 0.0000 0.0000 0.0000 35.2481 0.0000 -0.4243
# 5 -8.3714 -6.7218 -4.9430 0.0000 39.0685 0.0000
# 6 0.0000 0.0000 0.0000 -0.4243 0.0000 41.8127
#
#
#
# Elastic Compliance Matrix: (Units=1/GPa)
#
#
# Indices 1 2 3 4 5 6 
#
# 1 0.009479 -0.001984 -0.001360 0.000000 0.001518 0.000000
# 2 -0.001984 0.010581 -0.003555 0.000000 0.000946 0.000000
# 3 -0.001360 -0.003555 0.010681 0.000000 0.000448 0.000000
# 4 0.000000 0.000000 0.000000 0.028374 0.000000 0.000288
# 5 0.001518 0.000946 0.000448 0.000000 0.026141 0.000000
# 6 0.000000 0.000000 0.000000 0.000288 0.000000 0.023919
#
#
# Mechanical properties :
#
#
# Convention : Reuss Voigt Hill
#
# Bulk Modulus (GPa) = 59.01820 60.33376 59.67598
# Shear Modulus (GPa) = 38.87401 39.49377 39.18389
#
# Velocity S-wave (km/s) = 4.32283 4.35716 4.34003
# Velocity P-wave (km/s) = 7.29973 7.36992 7.33491
#
# Compressibility (1/GPa) = 0.01694392
#
# Stress axis : x y z
#
# Youngs Moduli (GPa) = 105.49856 94.50656 93.62032
#
# Poissons Ratio (x) = 0.18747 0.12736
# Poissons Ratio (y) = 0.20928 0.33279
# Poissons Ratio (z) = 0.14352 0.33594
#
# Static dielectric constant tensor:
#      x y z
#    x 3.765620 0.000000 0.017120 
#    y 0.000000 3.922720 0.000000 
#    z 0.017120 0.000000 3.927660 
# 
# 
# High freq. dielectric constant tensor:
#      x y z
#    x 1.828970 0.000000 -0.001910 
#    y 0.000000 1.827950 0.000000 
#    z -0.001910 0.000000 1.831140 
# 
# From -- ./inp_files/66963.got.cif
#   From: 2010.06.25/outbox.cif.g09.slc.cpg/sg11_34_cif.got.tgz:66963.got - 2010.06.27 23:14:04.
