data_PCOD8077800
_publ_section_title
;
Structure prediction by ZEFSAII (Michael W. Deem and Ramdas Pophale) SiO2 
 PCOD8077800
Probable space group: P 21/M
;
_chemical_formula_sum "Si O2"
_cell_formula_units_Z 28
_cell_length_a 5.292535
_cell_length_b 29.094504
_cell_length_c 9.479124
_cell_angle_alpha 90.000000
_cell_angle_beta 105.550708
_cell_angle_gamma 90.000000
_cell_volume 1406.198537
_symmetry_space_group_name_H-M "P 21/M"
_symmetry_group_IT_number 11
_symmetry_cell_setting 'monoclinic'
loop_
_space_group_symop_operation_xyz
x,y,z
-x,1/2+y,-z
-x,-y,-z
x,1/2-y,z
loop_
_atom_site_type_symbol
_atom_site_label
_atom_site_fract_x
_atom_site_fract_y
_atom_site_fract_z
Si Si1 0.094868 0.700865 0.522968
Si Si2 0.935089 0.449211 0.943000
Si Si3 0.830169 0.896394 0.775295
Si Si4 0.024670 0.395454 0.518581
Si Si5 0.602376 0.035419 0.399574
Si Si6 0.337820 0.450783 0.759681
Si Si7 0.684809 0.799469 0.714620
O O1 0.056581 0.750000 0.435237
O O2 0.396580 0.696250 0.608692
O O3 0.029273 0.655101 0.421321
O O4 0.902857 0.701615 0.626875
O O5 0.636101 0.445548 0.850766
O O6 0.136063 0.435136 0.850044
O O7 0.000000 0.500000 0.000000
O O8 0.969895 0.414201 0.077418
O O9 0.978753 0.889868 0.650240
O O10 0.604727 0.933725 0.715309
O O11 0.727449 0.845997 0.812584
O O12 0.294693 0.415668 0.621611
O O13 0.800565 0.432811 0.517278
O O14 0.500000 0.000000 0.500000
O O15 0.730764 0.003241 0.296928
O O16 0.705867 0.750000 0.801313
#
# Coordination Sequence:
#
# PCOD8077800 Si02
#       7
#     4   4   4   4   4   4   4
#     4   9  18  33  57  87 116 141 185 245 300 342
#     4  12  26  41  56  82 120 161 194 238 287 346
#     4  11  23  37  63  85 117 154 203 240 293 348
#     4  11  23  38  62  87 118 153 201 244 295 349
#     4  12  22  37  58  90 118 157 201 245 288 344
#     4  12  26  40  57  82 124 159 193 237 289 347
#     4   9  18  34  56  87 115 142 186 249 299 339
#
# _framework density 19.911839000000001
#
# number of rings (size 3 to 8) (size 9 to 14) (size 15 to 20)
#    0.000    1.143    4.286    2.571    2.000    0.000 
#    0.000    0.000    0.000    1.714    0.000    0.000 
#    0.000    0.000    0.000    0.000    0.000    0.000 
#
# Total GULP energy -346877.795655 kJ/mol
# GULP energy per Si atom -12388.492702 kJ/mol
# Density = 1.986652 g / cm^3
# Si number density = 19.911839 Si / 1000 Ang^3
#
#
#
# Elastic Constant Matrix: (Units=GPa)
#
#
# Indices 1 2 3 4 5 6 
#
# 1 122.1277 32.8340 26.3899 0.0000 23.8398 0.0000
# 2 32.8340 220.5877 59.0135 0.0000 24.8600 0.0000
# 3 26.3899 59.0135 79.9581 0.0000 17.7517 0.0000
# 4 0.0000 0.0000 0.0000 14.3350 0.0000 8.9475
# 5 23.8398 24.8600 17.7517 0.0000 34.2102 0.0000
# 6 0.0000 0.0000 0.0000 8.9475 0.0000 27.0442
#
#
#
# Elastic Compliance Matrix: (Units=1/GPa)
#
#
# Indices 1 2 3 4 5 6 
#
# 1 0.009756 -0.000360 -0.001698 0.000000 -0.005655 0.000000
# 2 -0.000360 0.005812 -0.003717 0.000000 -0.002043 0.000000
# 3 -0.001698 -0.003717 0.016894 0.000000 -0.004882 0.000000
# 4 0.000000 0.000000 0.000000 0.087914 0.000000 -0.029086
# 5 -0.005655 -0.002043 -0.004882 0.000000 0.037190 0.000000
# 6 0.000000 0.000000 0.000000 -0.029086 0.000000 0.046600
#
#
# Mechanical properties :
#
#
# Convention : Reuss Voigt Hill
#
# Bulk Modulus (GPa) = 47.82225 73.23870 60.53048
# Shear Modulus (GPa) = 22.45303 35.41360 28.93332
#
# Velocity S-wave (km/s) = 3.36165 4.22183 3.81605
# Velocity P-wave (km/s) = 6.25594 7.78630 7.06269
#
# Compressibility (1/GPa) = 0.02091077
#
# Stress axis : x y z
#
# Youngs Moduli (GPa) = 102.50108 172.06972 59.19245
#
# Poissons Ratio (x) = 0.06202 0.10053
# Poissons Ratio (y) = 0.03695 0.22000
# Poissons Ratio (z) = 0.17408 0.63952
#
# Static dielectric constant tensor:
#      x y z
#    x 3.666030 0.000000 0.057470 
#    y 0.000000 4.722490 0.000000 
#    z 0.057470 0.000000 3.490100 
# 
# 
# High freq. dielectric constant tensor:
#      x y z
#    x 1.787880 0.000000 0.014680 
#    y 0.000000 1.801810 0.000000 
#    z 0.014680 0.000000 1.726890 
# 
# From -- ./inp_files/3218.got.cif
#   From: 2010.06.25/outbox.cif.g09.slc.cpg/sg11_2_cif.got.tgz:3218.got - 2010.06.27 23:14:04.
