data_PCOD8077552
_publ_section_title
;
Structure prediction by ZEFSAII (Michael W. Deem and Ramdas Pophale) SiO2 
 PCOD8077552
Probable space group: P 21/M
;
_chemical_formula_sum "Si O2"
_cell_formula_units_Z 32
_cell_length_a 10.804665
_cell_length_b 22.548579
_cell_length_c 16.178170
_cell_angle_alpha 90.000000
_cell_angle_beta 23.356294
_cell_angle_gamma 90.000000
_cell_volume 1562.592663
_symmetry_space_group_name_H-M "P 21/M"
_symmetry_group_IT_number 11
_symmetry_cell_setting 'monoclinic'
loop_
_space_group_symop_operation_xyz
x,y,z
-x,1/2+y,-z
-x,-y,-z
x,1/2-y,z
loop_
_atom_site_type_symbol
_atom_site_label
_atom_site_fract_x
_atom_site_fract_y
_atom_site_fract_z
Si Si1 0.478484 0.921407 0.938534
Si Si2 0.860875 0.873266 0.269014
Si Si3 0.456341 0.471734 0.636945
Si Si4 0.936119 0.931606 0.517216
Si Si5 0.418779 0.400133 0.824310
Si Si6 0.857388 0.545739 0.855455
Si Si7 0.970382 0.817420 0.036739
Si Si8 0.502972 0.100574 0.356631
O O1 0.689210 0.904433 0.731435
O O2 0.688154 0.912722 0.891215
O O3 0.191264 0.875785 0.113273
O O4 0.354294 0.987945 0.005379
O O5 0.796408 0.935821 0.261796
O O6 0.861659 0.821979 0.199187
O O7 0.601844 0.861441 0.498541
O O8 0.467921 0.449099 0.723290
O O9 0.334516 0.539459 0.712859
O O10 0.792490 0.467994 0.387187
O O11 0.801861 0.921878 0.507504
O O12 0.255324 0.893791 0.326979
O O13 0.000000 0.000000 0.500000
O O14 0.314704 0.337950 0.847146
O O15 0.147321 0.419151 0.054777
O O16 0.057848 0.750000 0.962715
O O17 0.266575 0.860142 0.839900
#
# Coordination Sequence:
#
# PCOD8077552 Si02
#       8
#     4   4   4   4   4   4   4   4
#     4  11  20  33  55  91 137 166 184 234 305 384
#     4  11  24  38  62  93 127 163 201 254 316 369
#     4  11  22  34  56  98 133 158 198 237 317 394
#     4  12  20  36  58 101 137 159 194 238 317 396
#     4  11  23  38  63  88 129 170 198 254 309 369
#     4  11  20  34  56  93 137 164 189 234 306 392
#     4  11  28  48  62  83 117 166 226 270 299 345
#     4  12  22  38  67  94 127 164 201 251 312 380
#
# _framework density 20.478784999999998
#
# number of rings (size 3 to 8) (size 9 to 14) (size 15 to 20)
#    0.000    0.750    6.250    1.875    1.750    1.500 
#    0.000    0.625    0.000    2.250    0.000    0.000 
#    0.000    0.000    0.000    0.000    0.000    0.000 
#
# Total GULP energy -396819.541086 kJ/mol
# GULP energy per Si atom -12400.610659 kJ/mol
# Density = 2.043217 g / cm^3
# Si number density = 20.478785 Si / 1000 Ang^3
#
#
#
# Elastic Constant Matrix: (Units=GPa)
#
#
# Indices 1 2 3 4 5 6 
#
# 1 71.1285 22.5497 19.7128 0.0000 11.8604 0.0000
# 2 22.5497 82.4485 33.4224 0.0000 -0.7936 0.0000
# 3 19.7128 33.4224 90.2534 0.0000 11.1035 0.0000
# 4 0.0000 0.0000 0.0000 15.3421 0.0000 1.4019
# 5 11.8604 -0.7936 11.1035 0.0000 49.5261 0.0000
# 6 0.0000 0.0000 0.0000 1.4019 0.0000 11.6158
#
#
#
# Elastic Compliance Matrix: (Units=1/GPa)
#
#
# Indices 1 2 3 4 5 6 
#
# 1 0.016341 -0.003807 -0.001718 0.000000 -0.003589 0.000000
# 2 -0.003807 0.015261 -0.005103 0.000000 0.002300 0.000000
# 3 -0.001718 -0.005103 0.013681 0.000000 -0.002738 0.000000
# 4 0.000000 0.000000 0.000000 0.065907 0.000000 -0.007954
# 5 -0.003589 0.002300 -0.002738 0.000000 0.021702 0.000000
# 6 0.000000 0.000000 0.000000 -0.007954 0.000000 0.087049
#
#
# Mechanical properties :
#
#
# Convention : Reuss Voigt Hill
#
# Bulk Modulus (GPa) = 41.61906 43.91114 42.76510
# Shear Modulus (GPa) = 20.06376 26.50650 23.28513
#
# Velocity S-wave (km/s) = 3.13347 3.60160 3.37566
# Velocity P-wave (km/s) = 5.78434 6.22769 6.01011
#
# Compressibility (1/GPa) = 0.02402745
#
# Stress axis : x y z
#
# Youngs Moduli (GPa) = 61.19717 65.52743 73.09149
#
# Poissons Ratio (x) = 0.24949 0.12554
# Poissons Ratio (y) = 0.23301 0.37297
# Poissons Ratio (z) = 0.10511 0.33437
#
# Static dielectric constant tensor:
#      x y z
#    x 4.145260 0.000000 0.023260 
#    y 0.000000 3.072950 0.000000 
#    z 0.023260 0.000000 3.871910 
# 
# 
# High freq. dielectric constant tensor:
#      x y z
#    x 1.829650 0.000000 0.003670 
#    y 0.000000 1.718930 0.000000 
#    z 0.003670 0.000000 1.819290 
# 
# From -- ./inp_files/59747.got.cif
#   From: 2010.06.25/outbox.cif.g09.slc.cpg/sg11_30_cif.got.tgz:59747.got - 2010.06.27 23:14:04.
