data_PCOD8077253
_publ_section_title
;
Structure prediction by ZEFSAII (Michael W. Deem and Ramdas Pophale) SiO2 
 PCOD8077253
Probable space group: P 21/M
;
_chemical_formula_sum "Si O2"
_cell_formula_units_Z 26
_cell_length_a 11.885486
_cell_length_b 20.912230
_cell_length_c 8.671932
_cell_angle_alpha 90.000000
_cell_angle_beta 144.569588
_cell_angle_gamma 90.000000
_cell_volume 1249.530203
_symmetry_space_group_name_H-M "P 21/M"
_symmetry_group_IT_number 11
_symmetry_cell_setting 'monoclinic'
loop_
_space_group_symop_operation_xyz
x,y,z
-x,1/2+y,-z
-x,-y,-z
x,1/2-y,z
loop_
_atom_site_type_symbol
_atom_site_label
_atom_site_fract_x
_atom_site_fract_y
_atom_site_fract_z
Si Si1 0.598162 0.147969 0.411806
Si Si2 0.481230 0.431871 0.553080
Si Si3 0.697168 0.250000 0.890219
Si Si4 0.219159 0.610860 0.906437
Si Si5 0.906835 0.957308 0.761664
Si Si6 0.670396 0.043004 0.259966
Si Si7 0.101366 0.750000 0.196368
Si Si8 0.647243 0.750000 0.739323
O O1 0.605256 0.116524 0.588717
O O2 0.562051 0.097288 0.238254
O O3 0.798009 0.187669 0.613730
O O4 0.405580 0.191060 0.207926
O O5 0.500000 0.500000 0.500000
O O6 0.256207 0.414514 0.332939
O O7 0.588235 0.429415 0.835755
O O8 0.861484 0.250000 0.943947
O O9 0.484991 0.250000 0.566630
O O10 0.732669 0.187070 0.036764
O O11 0.188272 0.581735 0.701032
O O12 0.047315 0.592128 0.832332
O O13 0.811068 0.003214 0.527809
O O14 0.000000 0.000000 0.000000
O O15 0.500000 0.000000 0.000000
O O16 0.873236 0.750000 0.961250
#
# Coordination Sequence:
#
# PCOD8077253 Si02
#       8
#     4   4   2   4   4   4   2   2
#     4  10  22  42  67 100 132 181 230 280 340 406
#     4  12  20  41  65 100 135 174 226 284 340 401
#     4  10  24  42  66  99 136 185 225 290 341 406
#     4  12  24  45  66  99 142 182 231 280 352 417
#     4  12  26  41  73 105 131 188 237 283 340 417
#     4  12  25  46  69 101 148 179 218 294 364 417
#     4  10  22  43  67 100 134 178 245 287 323 403
#     4  10  22  41  73  97 132 179 240 285 324 409
#
# _framework density 20.80782
#
# number of rings (size 3 to 8) (size 9 to 14) (size 15 to 20)
#    0.000    0.923    7.692    0.462    2.154    1.231 
#    2.769    0.000    0.000    0.000    0.000    0.000 
#    0.000    0.000    0.000    0.000    0.000    0.000 
#
# Total GULP energy -322095.465177 kJ/mol
# GULP energy per Si atom -12388.287122 kJ/mol
# Density = 2.076046 g / cm^3
# Si number density = 20.807820 Si / 1000 Ang^3
#
#
#
# Elastic Constant Matrix: (Units=GPa)
#
#
# Indices 1 2 3 4 5 6 
#
# 1 118.8288 46.9337 55.3538 0.0000 19.3632 0.0000
# 2 46.9337 137.9149 57.3125 0.0000 -1.0244 0.0000
# 3 55.3538 57.3125 114.3014 0.0000 14.5551 0.0000
# 4 0.0000 0.0000 0.0000 25.2705 0.0000 -13.1135
# 5 19.3632 -1.0244 14.5551 0.0000 45.8499 0.0000
# 6 0.0000 0.0000 0.0000 -13.1135 0.0000 29.9861
#
#
#
# Elastic Compliance Matrix: (Units=1/GPa)
#
#
# Indices 1 2 3 4 5 6 
#
# 1 0.011866 -0.002372 -0.004077 0.000000 -0.003770 0.000000
# 2 -0.002372 0.009767 -0.004069 0.000000 0.002512 0.000000
# 3 -0.004077 -0.004069 0.013085 0.000000 -0.002523 0.000000
# 4 0.000000 0.000000 0.000000 0.051188 0.000000 0.022386
# 5 -0.003770 0.002512 -0.002523 0.000000 0.024259 0.000000
# 6 0.000000 0.000000 0.000000 0.022386 0.000000 0.043138
#
#
# Mechanical properties :
#
#
# Convention : Reuss Voigt Hill
#
# Bulk Modulus (GPa) = 73.08510 76.69391 74.88951
# Shear Modulus (GPa) = 27.94859 34.31764 31.13311
#
# Velocity S-wave (km/s) = 3.66891 4.06552 3.87230
# Velocity P-wave (km/s) = 7.29027 7.67960 7.48746
#
# Compressibility (1/GPa) = 0.01368268
#
# Stress axis : x y z
#
# Youngs Moduli (GPa) = 84.27624 102.38063 76.42547
#
# Poissons Ratio (x) = 0.24282 0.31159
# Poissons Ratio (y) = 0.19988 0.31096
# Poissons Ratio (z) = 0.34360 0.41657
#
# Static dielectric constant tensor:
#      x y z
#    x 4.070740 0.000000 0.169330 
#    y 0.000000 3.578810 0.000000 
#    z 0.169330 0.000000 3.654910 
# 
# 
# High freq. dielectric constant tensor:
#      x y z
#    x 1.817320 0.000000 0.002300 
#    y 0.000000 1.829800 0.000000 
#    z 0.002300 0.000000 1.798470 
# 
# From -- ./inp_files/19484.got.cif
#   From: 2010.06.25/outbox.cif.g09.slc.cpg/sg11_10_cif.got.tgz:19484.got - 2010.06.27 23:14:04.
