data_PCOD8077516
_publ_section_title
;
Structure prediction by ZEFSAII (Michael W. Deem and Ramdas Pophale) SiO2 
 PCOD8077516
Probable space group: P 21/M
;
_chemical_formula_sum "Si O2"
_cell_formula_units_Z 28
_cell_length_a 14.798280
_cell_length_b 18.250966
_cell_length_c 6.509883
_cell_angle_alpha 90.000000
_cell_angle_beta 54.659797
_cell_angle_gamma 90.000000
_cell_volume 1434.226482
_symmetry_space_group_name_H-M "P 21/M"
_symmetry_group_IT_number 11
_symmetry_cell_setting 'monoclinic'
loop_
_space_group_symop_operation_xyz
x,y,z
-x,1/2+y,-z
-x,-y,-z
x,1/2-y,z
loop_
_atom_site_type_symbol
_atom_site_label
_atom_site_fract_x
_atom_site_fract_y
_atom_site_fract_z
Si Si1 0.402993 0.165193 0.939387
Si Si2 0.136407 0.066451 0.821744
Si Si3 0.006076 0.927026 0.363440
Si Si4 0.234233 0.546203 0.008065
Si Si5 0.851170 0.832393 0.842076
Si Si6 0.333943 0.035811 0.269346
Si Si7 0.566021 0.062959 0.527775
O O1 0.429626 0.250000 0.966436
O O2 0.492787 0.136335 0.653973
O O3 0.280334 0.157661 0.011324
O O4 0.411501 0.106535 0.115620
O O5 0.026704 0.054314 0.829791
O O6 0.239442 0.069973 0.533228
O O7 0.118746 0.141890 0.968256
O O8 0.160344 0.007182 0.964678
O O9 0.919646 0.869951 0.569719
O O10 0.135444 0.898247 0.209303
O O11 0.000000 0.000000 0.500000
O O12 0.286666 0.500234 0.124067
O O13 0.328193 0.586166 0.749585
O O14 0.888883 0.750000 0.776412
O O15 0.400058 0.971629 0.297950
O O16 0.500000 0.000000 0.500000
#
# Coordination Sequence:
#
# PCOD8077516 Si02
#       7
#     4   4   4   4   4   4   4
#     4  11  21  40  60  87 123 157 197 252 303 359
#     4  11  19  35  61  91 121 149 197 241 305 348
#     4  12  21  37  63  90 122 152 202 246 294 351
#     4  11  22  36  60  95 115 152 201 249 295 350
#     4  11  24  39  58  89 127 157 195 245 306 365
#     4  11  20  38  62  91 122 153 199 253 301 353
#     4  11  23  38  63  88 121 159 208 246 304 355
#
# _framework density 19.52272
#
# number of rings (size 3 to 8) (size 9 to 14) (size 15 to 20)
#    0.000    0.857    7.143    1.714    0.000    1.143 
#    0.000    1.429    0.000    2.571    0.000    0.000 
#    0.000    0.000    0.000    0.000    0.000    0.000 
#
# Total GULP energy -346953.874348 kJ/mol
# GULP energy per Si atom -12391.209798 kJ/mol
# Density = 1.947829 g / cm^3
# Si number density = 19.522720 Si / 1000 Ang^3
#
#
#
# Elastic Constant Matrix: (Units=GPa)
#
#
# Indices 1 2 3 4 5 6 
#
# 1 92.4643 41.9771 53.4406 0.0000 -4.9782 0.0000
# 2 41.9771 82.6069 38.4400 0.0000 -5.1958 0.0000
# 3 53.4406 38.4400 111.6069 0.0000 -7.1396 0.0000
# 4 0.0000 0.0000 0.0000 28.2159 0.0000 -2.3239
# 5 -4.9782 -5.1958 -7.1396 0.0000 43.2016 0.0000
# 6 0.0000 0.0000 0.0000 -2.3239 0.0000 17.9133
#
#
#
# Elastic Compliance Matrix: (Units=1/GPa)
#
#
# Indices 1 2 3 4 5 6 
#
# 1 0.016990 -0.005763 -0.006134 0.000000 0.000251 0.000000
# 2 -0.005763 0.016408 -0.002838 0.000000 0.000840 0.000000
# 3 -0.006134 -0.002838 0.012945 0.000000 0.001091 0.000000
# 4 0.000000 0.000000 0.000000 0.035824 0.000000 0.004647
# 5 0.000251 0.000840 0.001091 0.000000 0.023458 0.000000
# 6 0.000000 0.000000 0.000000 0.004647 0.000000 0.056427
#
#
# Mechanical properties :
#
#
# Convention : Reuss Voigt Hill
#
# Bulk Modulus (GPa) = 59.27171 61.59928 60.43550
# Shear Modulus (GPa) = 25.36192 28.05418 26.70805
#
# Velocity S-wave (km/s) = 3.60821 3.79489 3.70273
# Velocity P-wave (km/s) = 6.91268 7.12901 7.02168
#
# Compressibility (1/GPa) = 0.01687145
#
# Stress axis : x y z
#
# Youngs Moduli (GPa) = 58.85676 60.94750 77.25276
#
# Poissons Ratio (x) = 0.35127 0.47390
# Poissons Ratio (y) = 0.33922 0.21922
# Poissons Ratio (z) = 0.36105 0.17295
#
# Static dielectric constant tensor:
#      x y z
#    x 4.236980 0.000000 0.237390 
#    y 0.000000 8.506310 0.000000 
#    z 0.237390 0.000000 4.900970 
# 
# 
# High freq. dielectric constant tensor:
#      x y z
#    x 1.765010 0.000000 -0.007610 
#    y 0.000000 1.717340 0.000000 
#    z -0.007610 0.000000 1.785780 
# 
# From -- ./inp_files/6771.got.cif
#   From: 2010.06.25/outbox.cif.g09.slc.cpg/sg11_4_cif.got.tgz:6771.got - 2010.06.27 23:14:04.
