data_PCOD8077103
_publ_section_title
;
Structure prediction by ZEFSAII (Michael W. Deem and Ramdas Pophale) SiO2 
 PCOD8077103
Probable space group: P 21/M
;
_chemical_formula_sum "Si O2"
_cell_formula_units_Z 24
_cell_length_a 11.007214
_cell_length_b 8.851843
_cell_length_c 23.219323
_cell_angle_alpha 90.000000
_cell_angle_beta 148.927059
_cell_angle_gamma 90.000000
_cell_volume 1167.666522
_symmetry_space_group_name_H-M "P 21/M"
_symmetry_group_IT_number 11
_symmetry_cell_setting 'monoclinic'
loop_
_space_group_symop_operation_xyz
x,y,z
-x,1/2+y,-z
-x,-y,-z
x,1/2-y,z
loop_
_atom_site_type_symbol
_atom_site_label
_atom_site_fract_x
_atom_site_fract_y
_atom_site_fract_z
Si Si1 0.802839 0.415800 0.383928
Si Si2 0.397297 0.929047 0.513861
Si Si3 0.337630 0.081411 0.267250
Si Si4 0.479137 0.572682 0.054884
Si Si5 0.130547 0.424265 0.698980
Si Si6 0.063601 0.070515 0.962996
O O1 0.904298 0.250000 0.412857
O O2 0.560461 0.405226 0.317816
O O3 0.729049 0.495239 0.294856
O O4 0.000000 0.500000 0.500000
O O5 0.391915 0.750000 0.508483
O O6 0.566596 0.983986 0.633738
O O7 0.132127 0.992201 0.409974
O O8 0.500000 0.000000 0.500000
O O9 0.224375 0.250000 0.227764
O O10 0.151687 0.963043 0.167144
O O11 0.418376 0.750000 0.024221
O O12 0.738042 0.547517 0.187285
O O13 0.500000 0.500000 0.000000
O O14 0.292369 0.497728 0.023350
O O15 0.124204 0.250000 0.680766
O O16 0.097432 0.250000 0.984315
O O17 0.000000 0.000000 0.000000
#
# Coordination Sequence:
#
# PCOD8077103 Si02
#       6
#     4   4   4   4   4   4
#     4  11  21  36  61  92 126 162 202 251 311 379
#     4  10  22  40  60  89 126 163 204 255 313 374
#     4  10  22  41  64  92 128 165 205 262 318 379
#     4  11  25  45  70  99 133 174 222 274 328 390
#     4  10  22  42  64  90 126 163 205 259 314 374
#     4  12  26  45  69  97 132 174 223 277 330 392
#
# _framework density 20.553813999999999
#
# number of rings (size 3 to 8) (size 9 to 14) (size 15 to 20)
#    0.000    1.333    1.667    3.500    2.333    6.667 
#    0.000    0.000    0.000    0.000    0.000    0.000 
#    0.000    0.000    0.000    0.000    0.000    0.000 
#
# Total GULP energy -297482.439121 kJ/mol
# GULP energy per Si atom -12395.101630 kJ/mol
# Density = 2.050703 g / cm^3
# Si number density = 20.553814 Si / 1000 Ang^3
#
#
#
# Elastic Constant Matrix: (Units=GPa)
#
#
# Indices 1 2 3 4 5 6 
#
# 1 134.3689 51.1722 49.6147 0.0000 -27.2734 0.0000
# 2 51.1722 102.5710 55.9599 0.0000 -11.2279 0.0000
# 3 49.6147 55.9599 129.5547 0.0000 -17.9897 0.0000
# 4 0.0000 0.0000 0.0000 32.4159 0.0000 -2.8293
# 5 -27.2734 -11.2279 -17.9897 0.0000 34.6497 0.0000
# 6 0.0000 0.0000 0.0000 -2.8293 0.0000 38.4056
#
#
#
# Elastic Compliance Matrix: (Units=1/GPa)
#
#
# Indices 1 2 3 4 5 6 
#
# 1 0.010785 -0.003808 -0.001593 0.000000 0.006428 0.000000
# 2 -0.003808 0.014160 -0.004782 0.000000 -0.000892 0.000000
# 3 -0.001593 -0.004782 0.010782 0.000000 0.002795 0.000000
# 4 0.000000 0.000000 0.000000 0.031049 0.000000 0.002287
# 5 0.006428 -0.000892 0.002795 0.000000 0.035082 0.000000
# 6 0.000000 0.000000 0.000000 0.002287 0.000000 0.026206
#
#
# Mechanical properties :
#
#
# Convention : Reuss Voigt Hill
#
# Bulk Modulus (GPa) = 65.09398 75.55425 70.32411
# Shear Modulus (GPa) = 32.56222 35.07742 33.81982
#
# Velocity S-wave (km/s) = 3.98457 4.13560 4.06079
# Velocity P-wave (km/s) = 7.27378 7.72291 7.50170
#
# Compressibility (1/GPa) = 0.01536240
#
# Stress axis : x y z
#
# Youngs Moduli (GPa) = 92.71791 70.61919 92.74406
#
# Poissons Ratio (x) = 0.26892 0.14773
# Poissons Ratio (y) = 0.35307 0.44350
# Poissons Ratio (z) = 0.14769 0.33770
#
# Static dielectric constant tensor:
#      x y z
#    x 4.094120 0.000000 0.212980 
#    y 0.000000 3.838560 0.000000 
#    z 0.212980 0.000000 4.173630 
# 
# 
# High freq. dielectric constant tensor:
#      x y z
#    x 1.809330 0.000000 -0.006230 
#    y 0.000000 1.803990 0.000000 
#    z -0.006230 0.000000 1.820340 
# 
# From -- ./inp_files/68462.got.cif
#   From: 2010.06.25/outbox.cif.g09.slc.cpg/sg11_35_cif.got.tgz:68462.got - 2010.06.27 23:14:04.
