data_PCOD8077094
_publ_section_title
;
Structure prediction by ZEFSAII (Michael W. Deem and Ramdas Pophale) SiO2 
 PCOD8077094
Probable space group: P 21/M
;
_chemical_formula_sum "Si O2"
_cell_formula_units_Z 28
_cell_length_a 7.145098
_cell_length_b 17.003303
_cell_length_c 12.798434
_cell_angle_alpha 90.000000
_cell_angle_beta 65.047308
_cell_angle_gamma 90.000000
_cell_volume 1409.746616
_symmetry_space_group_name_H-M "P 21/M"
_symmetry_group_IT_number 11
_symmetry_cell_setting 'monoclinic'
loop_
_space_group_symop_operation_xyz
x,y,z
-x,1/2+y,-z
-x,-y,-z
x,1/2-y,z
loop_
_atom_site_type_symbol
_atom_site_label
_atom_site_fract_x
_atom_site_fract_y
_atom_site_fract_z
Si Si1 0.458198 0.082213 0.257886
Si Si2 0.438782 0.067272 0.873224
Si Si3 0.982750 0.911787 0.546112
Si Si4 0.370459 0.844725 0.579464
Si Si5 0.096271 0.158478 0.855718
Si Si6 0.690926 0.416532 0.004463
Si Si7 0.806855 0.841321 0.391297
O O1 0.219828 0.102548 0.335267
O O2 0.610176 0.117898 0.309882
O O3 0.477805 0.986638 0.243148
O O4 0.535131 0.119826 0.129128
O O5 0.312803 0.141106 0.860509
O O6 0.618759 0.103360 0.903411
O O7 0.298547 0.011220 0.981634
O O8 0.965600 0.858086 0.447308
O O9 0.178176 0.884704 0.566886
O O10 0.000000 0.000000 0.500000
O O11 0.346109 0.750000 0.591381
O O12 0.576469 0.872222 0.470039
O O13 0.052600 0.250000 0.865242
O O14 0.107437 0.121365 0.736246
O O15 0.918166 0.117599 0.964626
O O16 0.789458 0.750000 0.376095
#
# Coordination Sequence:
#
# PCOD8077094 Si02
#       7
#     4   4   4   4   4   4   4
#     4   9  22  39  59  87 116 150 196 242 287 347
#     4   9  21  39  61  82 118 156 189 235 298 346
#     4  11  24  34  61  92 115 153 204 242 285 350
#     4  10  22  40  59  81 116 157 191 239 300 344
#     4  11  23  37  61  89 115 153 196 240 293 353
#     4   9  21  39  61  83 116 154 190 240 294 347
#     4   9  22  40  56  82 121 153 189 241 293 348
#
# _framework density 19.861725
#
# number of rings (size 3 to 8) (size 9 to 14) (size 15 to 20)
#    0.857    1.429    0.000    0.857    6.000    4.000 
#    0.000    2.857    0.000    0.000    0.000    0.000 
#    0.000    0.000    0.000    0.000    0.000    0.000 
#
# Total GULP energy -346982.132067 kJ/mol
# GULP energy per Si atom -12392.219002 kJ/mol
# Density = 1.981652 g / cm^3
# Si number density = 19.861725 Si / 1000 Ang^3
#
#
#
# Elastic Constant Matrix: (Units=GPa)
#
#
# Indices 1 2 3 4 5 6 
#
# 1 116.6605 25.0078 34.1347 0.0000 14.7395 0.0000
# 2 25.0078 35.7489 20.0878 0.0000 3.2915 0.0000
# 3 34.1347 20.0878 97.5362 0.0000 5.8720 0.0000
# 4 0.0000 0.0000 0.0000 23.1956 0.0000 5.5169
# 5 14.7395 3.2915 5.8720 0.0000 25.0791 0.0000
# 6 0.0000 0.0000 0.0000 5.5169 0.0000 31.5713
#
#
#
# Elastic Compliance Matrix: (Units=1/GPa)
#
#
# Indices 1 2 3 4 5 6 
#
# 1 0.011222 -0.006036 -0.002368 0.000000 -0.005249 0.000000
# 2 -0.006036 0.035057 -0.005116 0.000000 0.000145 0.000000
# 3 -0.002368 -0.005116 0.012183 0.000000 -0.000789 0.000000
# 4 0.000000 0.000000 0.000000 0.044981 0.000000 -0.007860
# 5 -0.005249 0.000145 -0.000789 0.000000 0.043124 0.000000
# 6 0.000000 0.000000 0.000000 -0.007860 0.000000 0.033048
#
#
# Mechanical properties :
#
#
# Convention : Reuss Voigt Hill
#
# Bulk Modulus (GPa) = 31.82665 45.37848 38.60257
# Shear Modulus (GPa) = 23.02772 27.35022 25.18897
#
# Velocity S-wave (km/s) = 3.40869 3.71486 3.56507
# Velocity P-wave (km/s) = 5.61704 6.42628 6.03524
#
# Compressibility (1/GPa) = 0.03142021
#
# Stress axis : x y z
#
# Youngs Moduli (GPa) = 89.11149 28.52494 82.08429
#
# Poissons Ratio (x) = 0.17218 0.19439
# Poissons Ratio (y) = 0.53790 0.41997
# Poissons Ratio (z) = 0.21103 0.14594
#
# Static dielectric constant tensor:
#      x y z
#    x 3.568950 0.000000 0.102340 
#    y 0.000000 3.382890 0.000000 
#    z 0.102340 0.000000 3.793420 
# 
# 
# High freq. dielectric constant tensor:
#      x y z
#    x 1.774570 0.000000 0.005110 
#    y 0.000000 1.755010 0.000000 
#    z 0.005110 0.000000 1.779060 
# 
# From -- ./inp_files/45888.got.cif
#   From: 2010.06.25/outbox.cif.g09.slc.cpg/sg11_23_cif.got.tgz:45888.got - 2010.06.27 23:14:04.
