data_PCOD8077305
_publ_section_title
;
Structure prediction by ZEFSAII (Michael W. Deem and Ramdas Pophale) SiO2 
 PCOD8077305
Probable space group: P 21/M
;
_chemical_formula_sum "Si O2"
_cell_formula_units_Z 24
_cell_length_a 14.606304
_cell_length_b 16.639289
_cell_length_c 7.913075
_cell_angle_alpha 90.000000
_cell_angle_beta 144.074309
_cell_angle_gamma 90.000000
_cell_volume 1128.399171
_symmetry_space_group_name_H-M "P 21/M"
_symmetry_group_IT_number 11
_symmetry_cell_setting 'monoclinic'
loop_
_space_group_symop_operation_xyz
x,y,z
-x,1/2+y,-z
-x,-y,-z
x,1/2-y,z
loop_
_atom_site_type_symbol
_atom_site_label
_atom_site_fract_x
_atom_site_fract_y
_atom_site_fract_z
Si Si1 0.247283 0.413929 0.009757
Si Si2 0.957832 0.250000 0.931440
Si Si3 0.335167 0.250000 0.003868
Si Si4 0.701982 0.750000 0.447280
Si Si5 0.956361 0.067438 0.791800
Si Si6 0.658147 0.480539 0.142188
Si Si7 0.486392 0.377728 0.627589
Si Si8 0.637266 0.250000 0.629266
O O1 0.253339 0.319135 0.990758
O O2 0.379738 0.436212 0.349686
O O3 0.275927 0.444584 0.863042
O O4 0.080694 0.444156 0.827314
O O5 0.954231 0.163197 0.830934
O O6 0.816183 0.250000 0.848865
O O7 0.114117 0.250000 0.269058
O O8 0.523361 0.250000 0.297563
O O9 0.318802 0.250000 0.781879
O O10 0.631616 0.828633 0.429459
O O11 0.783643 0.048845 0.465851
O O12 0.000000 0.000000 0.000000
O O13 0.500000 0.500000 0.000000
O O14 0.616957 0.417395 0.937209
O O15 0.600625 0.327861 0.681841
#
# Coordination Sequence:
#
# PCOD8077305 Si02
#       8
#     4   2   2   2   4   4   4   2
#     4  11  23  46  69 100 147 189 235 300 364 427
#     4  12  27  45  75  99 144 190 240 293 361 418
#     4  10  23  40  76 100 139 185 250 290 363 428
#     4  11  22  43  71 100 141 186 238 295 362 432
#     4  12  29  48  73 106 150 191 248 297 363 439
#     4  12  27  42  72 106 140 191 240 303 364 429
#     4  10  22  43  68 101 139 184 240 293 362 428
#     4   9  24  40  68 103 136 185 234 306 354 424
#
# _framework density 21.269068999999998
#
# number of rings (size 3 to 8) (size 9 to 14) (size 15 to 20)
#    0.000    1.000    1.667    4.000   11.667    2.000 
#    0.000    0.000    0.000    0.000    0.000    0.000 
#    0.000    0.000    0.000    0.000    0.000    0.000 
#
# Total GULP energy -297340.713891 kJ/mol
# GULP energy per Si atom -12389.196412 kJ/mol
# Density = 2.122066 g / cm^3
# Si number density = 21.269069 Si / 1000 Ang^3
#
#
#
# Elastic Constant Matrix: (Units=GPa)
#
#
# Indices 1 2 3 4 5 6 
#
# 1 129.6482 30.3637 57.4159 0.0000 15.2110 0.0000
# 2 30.3637 103.6272 50.8732 0.0000 -3.2784 0.0000
# 3 57.4159 50.8732 155.2996 0.0000 -5.8781 0.0000
# 4 0.0000 0.0000 0.0000 -25.4519 0.0000 19.3037
# 5 15.2110 -3.2784 -5.8781 0.0000 50.5322 0.0000
# 6 0.0000 0.0000 0.0000 19.3037 0.0000 9.9480
#
#
#
# Elastic Compliance Matrix: (Units=1/GPa)
#
#
# Indices 1 2 3 4 5 6 
#
# 1 0.009925 -0.001373 -0.003351 0.000000 -0.003467 0.000000
# 2 -0.001373 0.011694 -0.003293 0.000000 0.000789 0.000000
# 3 -0.003351 -0.003293 0.008826 0.000000 0.001822 0.000000
# 4 0.000000 0.000000 0.000000 -0.015896 0.000000 0.030845
# 5 -0.003467 0.000789 0.001822 0.000000 0.021096 0.000000
# 6 0.000000 0.000000 0.000000 0.030845 0.000000 0.040669
#
#
# Mechanical properties :
#
#
# Convention : Reuss Voigt Hill
#
# Bulk Modulus (GPa) = 69.39178 73.98672 71.68925
# Shear Modulus (GPa) = 51.46539 23.66714 37.56626
#
# Velocity S-wave (km/s) = 4.92441 3.33941 4.20722
# Velocity P-wave (km/s) = 8.06409 7.05198 7.57496
#
# Compressibility (1/GPa) = 0.01441093
#
# Stress axis : x y z
#
# Youngs Moduli (GPa) = 100.75101 85.51430 113.30338
#
# Poissons Ratio (x) = 0.11739 0.37969
# Poissons Ratio (y) = 0.13831 0.37314
# Poissons Ratio (z) = 0.33762 0.28163
#
# Static dielectric constant tensor:
#      x y z
#    x 4.137650 0.000000 -0.515820 
#    y 0.000000 4.119270 0.000000 
#    z -0.515820 0.000000 5.185220 
# 
# 
# High freq. dielectric constant tensor:
#      x y z
#    x 1.848950 0.000000 0.000000 
#    y 0.000000 1.841170 0.000000 
#    z 0.000000 0.000000 1.841550 
# 
# From -- ./inp_files/22855.got.cif
#   From: 2010.06.25/outbox.cif.g09.slc.cpg/sg11_12_cif.got.tgz:22855.got - 2010.06.27 23:14:04.
