data_PCOD8077037
_publ_section_title
;
Structure prediction by ZEFSAII (Michael W. Deem and Ramdas Pophale) SiO2 
 PCOD8077037
Probable space group: P 21/M
;
_chemical_formula_sum "Si O2"
_cell_formula_units_Z 28
_cell_length_a 28.539528
_cell_length_b 8.480087
_cell_length_c 8.895887
_cell_angle_alpha 90.000000
_cell_angle_beta 38.988594
_cell_angle_gamma 90.000000
_cell_volume 1354.569740
_symmetry_space_group_name_H-M "P 21/M"
_symmetry_group_IT_number 11
_symmetry_cell_setting 'monoclinic'
loop_
_space_group_symop_operation_xyz
x,y,z
-x,1/2+y,-z
-x,-y,-z
x,1/2-y,z
loop_
_atom_site_type_symbol
_atom_site_label
_atom_site_fract_x
_atom_site_fract_y
_atom_site_fract_z
Si Si1 0.860260 0.566572 0.497349
Si Si2 0.283017 0.934376 0.641431
Si Si3 0.572853 0.436950 0.897996
Si Si4 0.132794 0.931368 0.844015
Si Si5 0.571115 0.066112 0.239295
Si Si6 0.287084 0.067351 0.957035
Si Si7 0.994223 0.433633 0.348525
O O1 0.859195 0.750000 0.455780
O O2 0.864161 0.460196 0.340490
O O3 0.931434 0.532567 0.421275
O O4 0.787010 0.516606 0.770883
O O5 0.288966 0.750000 0.665409
O O6 0.355292 0.996307 0.372399
O O7 0.212627 0.972557 0.713558
O O8 0.274915 0.032331 0.813108
O O9 0.571083 0.250000 0.905317
O O10 0.500000 0.500000 0.000000
O O11 0.577178 0.506289 0.056386
O O12 0.110979 0.750000 0.928371
O O13 0.072323 0.044546 0.069783
O O14 0.559830 0.250000 0.254073
O O15 0.500000 0.000000 0.500000
O O16 0.644682 0.032048 0.150081
O O17 0.305280 0.250000 0.934279
O O18 0.972888 0.250000 0.404475
O O19 0.000000 0.500000 0.500000
#
# Coordination Sequence:
#
# PCOD8077037 Si02
#       7
#     4   4   4   4   4   4   4
#     4  11  24  42  63  90 124 162 204 251 303 362
#     4  10  22  40  62  87 118 157 200 245 298 358
#     4  10  22  39  59  86 117 153 195 241 292 349
#     4  11  23  41  65  92 122 160 205 252 305 363
#     4  11  23  40  62  88 121 158 200 247 299 359
#     4  11  24  40  61  90 122 157 200 248 300 355
#     4  12  25  42  64  91 124 161 203 252 306 366
#
# _framework density 20.670770000000001
#
# number of rings (size 3 to 8) (size 9 to 14) (size 15 to 20)
#    0.000    1.143    0.000    6.000    0.000   10.857 
#    0.000    0.000    0.000    0.000    0.000    0.000 
#    0.000    0.000    0.000    0.000    0.000    0.000 
#
# Total GULP energy -347407.773299 kJ/mol
# GULP energy per Si atom -12407.420475 kJ/mol
# Density = 2.062372 g / cm^3
# Si number density = 20.670770 Si / 1000 Ang^3
#
#
#
# Elastic Constant Matrix: (Units=GPa)
#
#
# Indices 1 2 3 4 5 6 
#
# 1 139.9051 10.3662 53.0795 0.0000 2.9015 0.0000
# 2 10.3662 44.7300 23.3654 0.0000 0.4717 0.0000
# 3 53.0795 23.3654 158.3837 0.0000 1.4601 0.0000
# 4 0.0000 0.0000 0.0000 34.4851 0.0000 0.9950
# 5 2.9015 0.4717 1.4601 0.0000 47.9265 0.0000
# 6 0.0000 0.0000 0.0000 0.9950 0.0000 35.0124
#
#
#
# Elastic Compliance Matrix: (Units=1/GPa)
#
#
# Indices 1 2 3 4 5 6 
#
# 1 0.008207 -0.000502 -0.002673 0.000000 -0.000411 0.000000
# 2 -0.000502 0.024254 -0.003409 0.000000 -0.000104 0.000000
# 3 -0.002673 -0.003409 0.007713 0.000000 -0.000040 0.000000
# 4 0.000000 0.000000 0.000000 0.029022 0.000000 -0.000825
# 5 -0.000411 -0.000104 -0.000040 0.000000 0.020892 0.000000
# 6 0.000000 0.000000 0.000000 -0.000825 0.000000 0.028585
#
#
# Mechanical properties :
#
#
# Convention : Reuss Voigt Hill
#
# Bulk Modulus (GPa) = 37.02631 57.40457 47.21544
# Shear Modulus (GPa) = 35.50049 40.56531 38.03290
#
# Velocity S-wave (km/s) = 4.14868 4.43476 4.29410
# Velocity P-wave (km/s) = 6.39531 7.35214 6.89035
#
# Compressibility (1/GPa) = 0.02700783
#
# Stress axis : x y z
#
# Youngs Moduli (GPa) = 121.84080 41.22953 129.65446
#
# Poissons Ratio (x) = 0.02068 0.34654
# Poissons Ratio (y) = 0.06111 0.44200
# Poissons Ratio (z) = 0.32566 0.14055
#
# Static dielectric constant tensor:
#      x y z
#    x 3.053470 0.000000 -0.085490 
#    y 0.000000 3.728230 0.000000 
#    z -0.085490 0.000000 4.026340 
# 
# 
# High freq. dielectric constant tensor:
#      x y z
#    x 1.826250 0.000000 0.001040 
#    y 0.000000 1.808560 0.000000 
#    z 0.001040 0.000000 1.828510 
# 
# From -- ./inp_files/28353.got.cif
#   From: 2010.06.25/outbox.cif.g09.slc.cpg/sg11_15_cif.got.tgz:28353.got - 2010.06.27 23:14:04.
