data_PCOD8077420
_publ_section_title
;
Structure prediction by ZEFSAII (Michael W. Deem and Ramdas Pophale) SiO2 
 PCOD8077420
Probable space group: P 21/M
;
_chemical_formula_sum "Si O2"
_cell_formula_units_Z 32
_cell_length_a 11.319768
_cell_length_b 18.079707
_cell_length_c 14.715430
_cell_angle_alpha 90.000000
_cell_angle_beta 150.937791
_cell_angle_gamma 90.000000
_cell_volume 1462.927104
_symmetry_space_group_name_H-M "P 21/M"
_symmetry_group_IT_number 11
_symmetry_cell_setting 'monoclinic'
loop_
_space_group_symop_operation_xyz
x,y,z
-x,1/2+y,-z
-x,-y,-z
x,1/2-y,z
loop_
_atom_site_type_symbol
_atom_site_label
_atom_site_fract_x
_atom_site_fract_y
_atom_site_fract_z
Si Si1 0.352623 0.591602 0.812283
Si Si2 0.596257 0.587171 0.788205
Si Si3 0.161761 0.162322 0.525315
Si Si4 0.109293 0.531477 0.920562
Si Si5 0.540002 0.167359 0.635672
Si Si6 0.411300 0.425701 0.851428
Si Si7 0.033255 0.331989 0.071977
Si Si8 0.670549 0.059196 0.570349
O O1 0.467338 0.613857 0.793176
O O2 0.276444 0.504970 0.760113
O O3 0.117541 0.640788 0.674580
O O4 0.563556 0.606770 0.029542
O O5 0.774026 0.653707 0.878435
O O6 0.387232 0.573436 0.573494
O O7 0.749770 0.510584 0.902297
O O8 0.191233 0.250000 0.551879
O O9 0.312175 0.131592 0.538452
O O10 0.267564 0.129431 0.689893
O O11 0.938079 0.600156 0.837479
O O12 0.947432 0.469230 0.762032
O O13 0.306535 0.563838 0.985177
O O14 0.468791 0.250000 0.561074
O O15 0.619066 0.132222 0.594037
O O16 0.760354 0.164222 0.853965
O O17 0.081715 0.250000 0.146854
O O18 0.500000 0.000000 0.500000
#
# Coordination Sequence:
#
# PCOD8077420 Si02
#       8
#     4   4   4   4   4   4   4   4
#     4  10  25  43  67  95 129 173 222 269 319 388
#     4  11  24  42  66  92 129 172 213 264 320 384
#     4  11  24  44  70  96 133 174 215 276 330 382
#     4  11  22  41  65  94 130 161 218 270 323 381
#     4  10  23  43  66  98 135 169 215 272 328 384
#     4  10  23  43  70  97 127 169 222 272 325 382
#     4  11  21  39  65  91 129 170 204 264 332 384
#     4  12  24  37  67 100 128 171 214 263 325 393
#
# _framework density 21.873954000000001
#
# number of rings (size 3 to 8) (size 9 to 14) (size 15 to 20)
#    0.000    1.250    3.750    1.500    3.500    4.500 
#    0.000    0.000    0.000    0.000    0.000    0.000 
#    0.000    0.000    0.000    0.000    0.000    0.000 
#
# Total GULP energy -396771.325956 kJ/mol
# GULP energy per Si atom -12399.103936 kJ/mol
# Density = 2.182417 g / cm^3
# Si number density = 21.873954 Si / 1000 Ang^3
#
#
#
# Elastic Constant Matrix: (Units=GPa)
#
#
# Indices 1 2 3 4 5 6 
#
# 1 79.3624 23.1687 29.6338 0.0000 -7.8722 0.0000
# 2 23.1687 92.0069 24.4230 0.0000 -1.6902 0.0000
# 3 29.6338 24.4230 74.6835 0.0000 -7.2570 0.0000
# 4 0.0000 0.0000 0.0000 26.5492 0.0000 6.1341
# 5 -7.8722 -1.6902 -7.2570 0.0000 38.2273 0.0000
# 6 0.0000 0.0000 0.0000 6.1341 0.0000 27.1934
#
#
#
# Elastic Compliance Matrix: (Units=1/GPa)
#
#
# Indices 1 2 3 4 5 6 
#
# 1 0.015444 -0.002495 -0.005108 0.000000 0.002100 0.000000
# 2 -0.002495 0.012307 -0.003089 0.000000 -0.000556 0.000000
# 3 -0.005108 -0.003089 0.016618 0.000000 0.001966 0.000000
# 4 0.000000 0.000000 0.000000 0.039737 0.000000 -0.008964
# 5 0.002100 -0.000556 0.001966 0.000000 0.026941 0.000000
# 6 0.000000 0.000000 0.000000 -0.008964 0.000000 0.038795
#
#
# Mechanical properties :
#
#
# Convention : Reuss Voigt Hill
#
# Bulk Modulus (GPa) = 43.50526 44.50043 44.00285
# Shear Modulus (GPa) = 27.95061 29.64916 28.79988
#
# Velocity S-wave (km/s) = 3.57852 3.68564 3.63247
# Velocity P-wave (km/s) = 6.08331 6.20485 6.14438
#
# Compressibility (1/GPa) = 0.02298573
#
# Stress axis : x y z
#
# Youngs Moduli (GPa) = 64.74811 81.25728 60.17601
#
# Poissons Ratio (x) = 0.20270 0.30740
# Poissons Ratio (y) = 0.16152 0.18587
# Poissons Ratio (z) = 0.33076 0.25098
#
# Static dielectric constant tensor:
#      x y z
#    x 3.318030 0.000000 0.866740 
#    y 0.000000 4.061820 0.000000 
#    z 0.866740 0.000000 3.070120 
# 
# 
# High freq. dielectric constant tensor:
#      x y z
#    x 1.860300 0.000000 0.000640 
#    y 0.000000 1.847120 0.000000 
#    z 0.000640 0.000000 1.865460 
# 
# From -- ./inp_files/50743.got.cif
#   From: 2010.06.25/outbox.cif.g09.slc.cpg/sg11_26_cif.got.tgz:50743.got - 2010.06.27 23:14:04.
