data_PCOD8077976
_publ_section_title
;
Structure prediction by ZEFSAII (Michael W. Deem and Ramdas Pophale) SiO2 
 PCOD8077976
Probable space group: P 21/M
;
_chemical_formula_sum "Si O2"
_cell_formula_units_Z 32
_cell_length_a 16.313380
_cell_length_b 9.514806
_cell_length_c 15.991504
_cell_angle_alpha 90.000000
_cell_angle_beta 51.636953
_cell_angle_gamma 90.000000
_cell_volume 1946.261892
_symmetry_space_group_name_H-M "P 21/M"
_symmetry_group_IT_number 11
_symmetry_cell_setting 'monoclinic'
loop_
_space_group_symop_operation_xyz
x,y,z
-x,1/2+y,-z
-x,-y,-z
x,1/2-y,z
loop_
_atom_site_type_symbol
_atom_site_label
_atom_site_fract_x
_atom_site_fract_y
_atom_site_fract_z
Si Si1 0.355949 0.410117 0.055773
Si Si2 0.431106 0.086981 0.607736
Si Si3 0.513789 0.911935 0.866137
Si Si4 0.092445 0.591769 0.626695
Si Si5 0.141366 0.412538 0.262776
Si Si6 0.733499 0.591175 0.418473
Si Si7 0.544890 0.914227 0.657724
Si Si8 0.895461 0.411267 0.567005
O O1 0.384833 0.250000 0.017222
O O2 0.400004 0.452826 0.119404
O O3 0.230545 0.432082 0.136042
O O4 0.406635 0.503818 0.951209
O O5 0.466865 0.250000 0.590689
O O6 0.313091 0.078465 0.646214
O O7 0.500000 0.000000 0.500000
O O8 0.446935 0.008994 0.686742
O O9 0.482879 0.750000 0.890531
O O10 0.559951 0.949082 0.745901
O O11 0.094851 0.750000 0.659277
O O12 0.160744 0.498894 0.646094
O O13 0.147612 0.583092 0.500305
O O14 0.971496 0.539495 0.701540
O O15 0.135264 0.250000 0.296800
O O16 0.176729 0.509601 0.319262
O O17 0.765626 0.750000 0.418412
O O18 0.649333 0.541038 0.541538
O O19 0.519788 0.750000 0.657753
O O20 0.914618 0.250000 0.582354
O O21 0.000000 0.500000 0.500000
#
# Coordination Sequence:
#
# PCOD8077976 Si02
#       8
#     4   4   4   4   4   4   4   4
#     4   9  18  32  49  66  89 122 154 189 231 267
#     4   9  17  30  46  66  91 119 150 183 222 270
#     4   9  18  32  48  68  92 117 151 192 228 270
#     4   9  18  29  40  62  90 116 150 185 217 260
#     4   9  18  31  46  62  86 120 154 187 226 268
#     4   9  18  29  44  66  92 121 150 178 216 269
#     4   9  18  31  47  68  92 120 152 183 225 274
#     4   9  17  28  40  58  84 114 150 187 219 257
#
# _framework density 16.441775
#
# number of rings (size 3 to 8) (size 9 to 14) (size 15 to 20)
#    0.000    3.000    0.000    2.250    1.750    6.000 
#    0.000    0.000    0.000    0.000    0.000    0.875 
#    0.000    0.000    0.000    0.000    0.000    0.000 
#
# Total GULP energy -396529.295845 kJ/mol
# GULP energy per Si atom -12391.540495 kJ/mol
# Density = 1.640435 g / cm^3
# Si number density = 16.441775 Si / 1000 Ang^3
#
#
#
# Elastic Constant Matrix: (Units=GPa)
#
#
# Indices 1 2 3 4 5 6 
#
# 1 73.0638 35.9912 23.3154 0.0000 -8.0235 0.0000
# 2 35.9912 67.0761 18.2348 0.0000 -5.3404 0.0000
# 3 23.3154 18.2348 49.5348 0.0000 -7.8981 0.0000
# 4 0.0000 0.0000 0.0000 24.3223 0.0000 0.9787
# 5 -8.0235 -5.3404 -7.8981 0.0000 20.3099 0.0000
# 6 0.0000 0.0000 0.0000 0.9787 0.0000 28.9486
#
#
#
# Elastic Compliance Matrix: (Units=1/GPa)
#
#
# Indices 1 2 3 4 5 6 
#
# 1 0.020365 -0.009108 -0.005684 0.000000 0.003440 0.000000
# 2 -0.009108 0.020726 -0.003249 0.000000 0.000588 0.000000
# 3 -0.005684 -0.003249 0.025123 0.000000 0.006670 0.000000
# 4 0.000000 0.000000 0.000000 0.041170 0.000000 -0.001392
# 5 0.003440 0.000588 0.006670 0.000000 0.053344 0.000000
# 6 0.000000 0.000000 0.000000 -0.001392 0.000000 0.034591
#
#
# Mechanical properties :
#
#
# Convention : Reuss Voigt Hill
#
# Bulk Modulus (GPa) = 33.18806 38.30638 35.74722
# Shear Modulus (GPa) = 20.70866 22.19172 21.45019
#
# Velocity S-wave (km/s) = 3.55281 3.67783 3.61586
# Velocity P-wave (km/s) = 6.08761 6.43304 6.26271
#
# Compressibility (1/GPa) = 0.03013132
#
# Stress axis : x y z
#
# Youngs Moduli (GPa) = 49.10399 48.24947 39.80463
#
# Poissons Ratio (x) = 0.43946 0.22626
# Poissons Ratio (y) = 0.44725 0.12931
# Poissons Ratio (z) = 0.27911 0.15675
#
# Static dielectric constant tensor:
#      x y z
#    x 3.182580 0.000000 0.116510 
#    y 0.000000 3.345510 0.000000 
#    z 0.116510 0.000000 3.026110 
# 
# 
# High freq. dielectric constant tensor:
#      x y z
#    x 1.616360 0.000000 -0.003260 
#    y 0.000000 1.641430 0.000000 
#    z -0.003260 0.000000 1.593260 
# 
# From -- ./inp_files/60686.got.cif
#   From: 2010.06.25/outbox.cif.g09.slc.cpg/sg11_31_cif.got.tgz:60686.got - 2010.06.27 23:14:04.
