data_PCOD8077640
_publ_section_title
;
Structure prediction by ZEFSAII (Michael W. Deem and Ramdas Pophale) SiO2 
 PCOD8077640
Probable space group: P 21/M
;
_chemical_formula_sum "Si O2"
_cell_formula_units_Z 32
_cell_length_a 8.177972
_cell_length_b 24.210890
_cell_length_c 14.171907
_cell_angle_alpha 90.000000
_cell_angle_beta 32.799371
_cell_angle_gamma 90.000000
_cell_volume 1519.996848
_symmetry_space_group_name_H-M "P 21/M"
_symmetry_group_IT_number 11
_symmetry_cell_setting 'monoclinic'
loop_
_space_group_symop_operation_xyz
x,y,z
-x,1/2+y,-z
-x,-y,-z
x,1/2-y,z
loop_
_atom_site_type_symbol
_atom_site_label
_atom_site_fract_x
_atom_site_fract_y
_atom_site_fract_z
Si Si1 0.391166 0.119640 0.555206
Si Si2 0.651688 0.610408 0.063314
Si Si3 0.950396 0.001132 0.911661
Si Si4 0.761734 0.313753 0.234986
Si Si5 0.396951 0.125258 0.266068
Si Si6 0.248632 0.886666 0.083424
Si Si7 0.416246 0.030098 0.391128
Si Si8 0.734859 0.086385 0.568879
O O1 0.585123 0.168228 0.414519
O O2 0.277623 0.072564 0.534987
O O3 0.617294 0.096541 0.522126
O O4 0.082274 0.142034 0.752817
O O5 0.387510 0.624740 0.118636
O O6 0.516359 0.604630 0.233707
O O7 0.769444 0.552374 0.967731
O O8 0.924198 0.654019 0.933233
O O9 0.288351 0.997765 0.705285
O O10 0.787784 0.051239 0.938207
O O11 0.000000 0.000000 0.000000
O O12 0.846142 0.250000 0.200271
O O13 0.523104 0.324655 0.267308
O O14 0.515835 0.066611 0.250969
O O15 0.034224 0.121911 0.442676
O O16 0.522657 0.140256 0.101992
O O17 0.197596 0.980174 0.462082
#
# Coordination Sequence:
#
# PCOD8077640 Si02
#       8
#     4   4   4   4   4   4   4   4
#     4  11  23  41  63  94 131 171 214 258 310 380
#     4  12  23  41  63  95 131 170 215 260 314 376
#     4  12  19  37  60  94 137 177 210 250 309 383
#     4  11  25  49  72  90 120 162 214 278 331 372
#     4  11  23  41  63  95 129 170 215 262 310 377
#     4  12  24  38  64  97 134 173 208 254 315 385
#     4  11  21  36  60  93 138 177 209 248 310 378
#     4  12  23  39  64  96 136 171 208 255 315 387
#
# _framework density 21.052676999999999
#
# number of rings (size 3 to 8) (size 9 to 14) (size 15 to 20)
#    0.000    0.500    6.250    4.125    0.000    1.000 
#    0.000    7.500    0.000    0.000    0.000    0.000 
#    0.000    0.000    0.000    0.000    0.000    0.000 
#
# Total GULP energy -396571.699009 kJ/mol
# GULP energy per Si atom -12392.865594 kJ/mol
# Density = 2.100476 g / cm^3
# Si number density = 21.052677 Si / 1000 Ang^3
#
#
#
# Elastic Constant Matrix: (Units=GPa)
#
#
# Indices 1 2 3 4 5 6 
#
# 1 92.8800 26.5503 34.0428 0.0000 -1.2553 0.0000
# 2 26.5503 79.0803 48.6777 0.0000 1.3240 0.0000
# 3 34.0428 48.6777 120.1945 0.0000 -8.9290 0.0000
# 4 0.0000 0.0000 0.0000 10.4749 0.0000 -1.9481
# 5 -1.2553 1.3240 -8.9290 0.0000 39.1926 0.0000
# 6 0.0000 0.0000 0.0000 -1.9481 0.0000 16.9520
#
#
#
# Elastic Compliance Matrix: (Units=1/GPa)
#
#
# Indices 1 2 3 4 5 6 
#
# 1 0.012423 -0.002665 -0.002444 0.000000 -0.000069 0.000000
# 2 -0.002665 0.017598 -0.006533 0.000000 -0.002168 0.000000
# 3 -0.002444 -0.006533 0.011870 0.000000 0.002847 0.000000
# 4 0.000000 0.000000 0.000000 0.097551 0.000000 0.011210
# 5 -0.000069 -0.002168 0.002847 0.000000 0.026235 0.000000
# 6 0.000000 0.000000 0.000000 0.011210 0.000000 0.060278
#
#
# Mechanical properties :
#
#
# Convention : Reuss Voigt Hill
#
# Bulk Modulus (GPa) = 53.74831 56.74406 55.24618
# Shear Modulus (GPa) = 19.57387 25.51617 22.54502
#
# Velocity S-wave (km/s) = 3.05250 3.48518 3.27599
# Velocity P-wave (km/s) = 6.16518 6.57322 6.37247
#
# Compressibility (1/GPa) = 0.01860524
#
# Stress axis : x y z
#
# Youngs Moduli (GPa) = 80.49284 56.82461 84.24915
#
# Poissons Ratio (x) = 0.15145 0.20594
# Poissons Ratio (y) = 0.21453 0.55042
# Poissons Ratio (z) = 0.19676 0.37125
#
# Static dielectric constant tensor:
#      x y z
#    x 3.873170 0.000000 0.035920 
#    y 0.000000 3.373290 0.000000 
#    z 0.035920 0.000000 4.108600 
# 
# 
# High freq. dielectric constant tensor:
#      x y z
#    x 1.837780 0.000000 0.000870 
#    y 0.000000 1.768300 0.000000 
#    z 0.000870 0.000000 1.843070 
# 
# From -- ./inp_files/48449.got.cif
#   From: 2010.06.25/outbox.cif.g09.slc.cpg/sg11_25_cif.got.tgz:48449.got - 2010.06.27 23:14:04.
