data_PCOD8077095
_publ_section_title
;
Structure prediction by ZEFSAII (Michael W. Deem and Ramdas Pophale) SiO2 
 PCOD8077095
Probable space group: P 21/M
;
_chemical_formula_sum "Si O2"
_cell_formula_units_Z 24
_cell_length_a 14.784883
_cell_length_b 8.644837
_cell_length_c 9.405436
_cell_angle_alpha 90.000000
_cell_angle_beta 80.270717
_cell_angle_gamma 90.000000
_cell_volume 1184.846036
_symmetry_space_group_name_H-M "P 21/M"
_symmetry_group_IT_number 11
_symmetry_cell_setting 'monoclinic'
loop_
_space_group_symop_operation_xyz
x,y,z
-x,1/2+y,-z
-x,-y,-z
x,1/2-y,z
loop_
_atom_site_type_symbol
_atom_site_label
_atom_site_fract_x
_atom_site_fract_y
_atom_site_fract_z
Si Si1 0.083125 0.066534 0.068517
Si Si2 0.919526 0.068233 0.615736
Si Si3 0.572681 0.424084 0.581769
Si Si4 0.549448 0.921562 0.115394
Si Si5 0.744048 0.933399 0.161239
Si Si6 0.239254 0.431316 0.521896
O O1 0.075946 0.250000 0.071618
O O2 0.079464 0.005411 0.228926
O O3 0.178243 0.011905 0.969968
O O4 0.000000 0.000000 0.000000
O O5 0.933245 0.250000 0.629201
O O6 0.825582 0.031340 0.561361
O O7 0.000000 0.000000 0.500000
O O8 0.500000 0.500000 0.500000
O O9 0.598908 0.250000 0.524924
O O10 0.528044 0.419178 0.746418
O O11 0.659340 0.536738 0.561713
O O12 0.577024 0.750000 0.060288
O O13 0.644889 0.003720 0.140350
O O14 0.500000 0.000000 0.000000
O O15 0.735920 0.750000 0.172001
O O16 0.770152 0.990870 0.312869
O O17 0.215823 0.250000 0.513401
#
# Coordination Sequence:
#
# PCOD8077095 Si02
#       6
#     4   4   4   4   4   4
#     4  11  23  42  68  96 128 169 212 260 320 381
#     4  12  26  45  67  97 130 164 211 263 319 385
#     4  11  22  39  62  91 126 166 214 264 315 375
#     4  10  22  40  59  87 123 164 211 261 310 368
#     4   9  20  40  63  88 122 164 208 255 313 375
#     4  11  22  41  67  94 127 167 210 263 320 378
#
# _framework density 20.255797999999999
#
# number of rings (size 3 to 8) (size 9 to 14) (size 15 to 20)
#    0.000    1.333    1.667    4.000    2.333    2.667 
#    0.000    3.333    0.000    0.000    0.000    0.000 
#    0.000    0.000    0.000    0.000    0.000    0.000 
#
# Total GULP energy -297606.413779 kJ/mol
# GULP energy per Si atom -12400.267241 kJ/mol
# Density = 2.020970 g / cm^3
# Si number density = 20.255798 Si / 1000 Ang^3
#
#
#
# Elastic Constant Matrix: (Units=GPa)
#
#
# Indices 1 2 3 4 5 6 
#
# 1 136.4063 23.9576 76.1318 0.0000 3.2215 0.0000
# 2 23.9576 78.3739 45.7216 0.0000 -0.6276 0.0000
# 3 76.1318 45.7216 152.9549 0.0000 10.7820 0.0000
# 4 0.0000 0.0000 0.0000 34.1252 0.0000 3.4429
# 5 3.2215 -0.6276 10.7820 0.0000 44.6645 0.0000
# 6 0.0000 0.0000 0.0000 3.4429 0.0000 36.4379
#
#
#
# Elastic Compliance Matrix: (Units=1/GPa)
#
#
# Indices 1 2 3 4 5 6 
#
# 1 0.010163 -0.000160 -0.005045 0.000000 0.000483 0.000000
# 2 -0.000160 0.015538 -0.004661 0.000000 0.001355 0.000000
# 3 -0.005045 -0.004661 0.010602 0.000000 -0.002261 0.000000
# 4 0.000000 0.000000 0.000000 0.029586 0.000000 -0.002795
# 5 0.000483 0.001355 -0.002261 0.000000 0.022919 0.000000
# 6 0.000000 0.000000 0.000000 -0.002795 0.000000 0.027708
#
#
# Mechanical properties :
#
#
# Convention : Reuss Voigt Hill
#
# Bulk Modulus (GPa) = 60.34248 73.26192 66.80220
# Shear Modulus (GPa) = 35.26819 37.84047 36.55433
#
# Velocity S-wave (km/s) = 4.17722 4.32688 4.25271
# Velocity P-wave (km/s) = 7.28838 7.82364 7.56075
#
# Compressibility (1/GPa) = 0.01657207
#
# Stress axis : x y z
#
# Youngs Moduli (GPa) = 98.39173 64.35863 94.32620
#
# Poissons Ratio (x) = 0.01028 0.47588
# Poissons Ratio (y) = 0.01572 0.43962
# Poissons Ratio (z) = 0.49639 0.29995
#
# Static dielectric constant tensor:
#      x y z
#    x 3.795470 0.000000 -0.054470 
#    y 0.000000 3.766800 0.000000 
#    z -0.054470 0.000000 3.672160 
# 
# 
# High freq. dielectric constant tensor:
#      x y z
#    x 1.809240 0.000000 0.001130 
#    y 0.000000 1.782370 0.000000 
#    z 0.001130 0.000000 1.803740 
# 
# From -- ./inp_files/20393.got.cif
#   From: 2010.06.25/outbox.cif.g09.slc.cpg/sg11_11_cif.got.tgz:20393.got - 2010.06.27 23:14:04.
