data_PCOD8077732
_publ_section_title
;
Structure prediction by ZEFSAII (Michael W. Deem and Ramdas Pophale) SiO2 
 PCOD8077732
Probable space group: P 21/M
;
_chemical_formula_sum "Si O2"
_cell_formula_units_Z 32
_cell_length_a 14.034563
_cell_length_b 17.356590
_cell_length_c 11.526851
_cell_angle_alpha 90.000000
_cell_angle_beta 147.017121
_cell_angle_gamma 90.000000
_cell_volume 1528.561236
_symmetry_space_group_name_H-M "P 21/M"
_symmetry_group_IT_number 11
_symmetry_cell_setting 'monoclinic'
loop_
_space_group_symop_operation_xyz
x,y,z
-x,1/2+y,-z
-x,-y,-z
x,1/2-y,z
loop_
_atom_site_type_symbol
_atom_site_label
_atom_site_fract_x
_atom_site_fract_y
_atom_site_fract_z
Si Si1 0.536078 0.338404 0.504434
Si Si2 0.863232 0.030469 0.451911
Si Si3 0.748636 0.837807 0.601827
Si Si4 0.102384 0.606453 0.059238
Si Si5 0.568584 0.931057 0.223314
Si Si6 0.059708 0.452077 0.883909
Si Si7 0.577373 0.582450 0.833171
Si Si8 0.615912 0.341053 0.157382
O O1 0.515590 0.250000 0.444997
O O2 0.370097 0.364984 0.411341
O O3 0.542385 0.392027 0.397497
O O4 0.714123 0.348503 0.760121
O O5 0.805840 0.119309 0.373175
O O6 0.931441 0.019650 0.651737
O O7 0.687502 0.979901 0.254734
O O8 0.000000 0.000000 0.500000
O O9 0.707008 0.750000 0.529228
O O10 0.701122 0.887615 0.442544
O O11 0.953333 0.847335 0.838329
O O12 0.132883 0.523407 0.032956
O O13 0.048018 0.601999 0.138912
O O14 0.448084 0.991431 0.170111
O O15 0.451315 0.869013 0.036707
O O16 0.218850 0.404232 0.988936
O O17 0.524982 0.635082 0.888896
O O18 0.643739 0.250000 0.184715
#
# Coordination Sequence:
#
# PCOD8077732 Si02
#       8
#     4   4   4   4   4   4   4   4
#     4  11  24  40  61  93 131 172 215 265 331 389
#     4  11  22  41  66  95 125 165 216 271 324 389
#     4  11  23  41  62  91 130 170 212 262 323 385
#     4  11  22  39  62  92 130 168 213 265 317 383
#     4  11  22  41  66  90 121 169 216 266 319 390
#     4  11  22  37  63  96 124 162 219 266 314 381
#     4  11  22  40  67  93 125 169 215 269 323 388
#     4  11  24  43  65  93 128 168 216 272 336 394
#
# _framework density 20.934719000000001
#
# number of rings (size 3 to 8) (size 9 to 14) (size 15 to 20)
#    0.000    1.000    2.500    6.375    1.750    1.000 
#    0.000    4.375    0.000    0.000    0.000    0.000 
#    0.000    0.000    0.000    0.000    0.000    0.000 
#
# Total GULP energy -396941.421014 kJ/mol
# GULP energy per Si atom -12404.419407 kJ/mol
# Density = 2.088707 g / cm^3
# Si number density = 20.934719 Si / 1000 Ang^3
#
#
#
# Elastic Constant Matrix: (Units=GPa)
#
#
# Indices 1 2 3 4 5 6 
#
# 1 73.3724 37.9817 27.1857 0.0000 4.8271 0.0000
# 2 37.9817 109.6178 27.3452 0.0000 -3.2741 0.0000
# 3 27.1857 27.3452 97.9597 0.0000 -0.9724 0.0000
# 4 0.0000 0.0000 0.0000 34.9663 0.0000 -2.5857
# 5 4.8271 -3.2741 -0.9724 0.0000 38.6106 0.0000
# 6 0.0000 0.0000 0.0000 -2.5857 0.0000 26.1219
#
#
#
# Elastic Compliance Matrix: (Units=1/GPa)
#
#
# Indices 1 2 3 4 5 6 
#
# 1 0.017909 -0.005419 -0.003485 0.000000 -0.002786 0.000000
# 2 -0.005419 0.011468 -0.001681 0.000000 0.001608 0.000000
# 3 -0.003485 -0.001681 0.011651 0.000000 0.000587 0.000000
# 4 0.000000 0.000000 0.000000 0.028810 0.000000 0.002852
# 5 -0.002786 0.001608 0.000587 0.000000 0.026399 0.000000
# 6 0.000000 0.000000 0.000000 0.002852 0.000000 0.038564
#
#
# Mechanical properties :
#
#
# Convention : Reuss Voigt Hill
#
# Bulk Modulus (GPa) = 50.36178 51.77503 51.06840
# Shear Modulus (GPa) = 30.75217 32.50225 31.62721
#
# Velocity S-wave (km/s) = 3.83685 3.94452 3.89106
# Velocity P-wave (km/s) = 6.61343 6.74767 6.68088
#
# Compressibility (1/GPa) = 0.01985633
#
# Stress axis : x y z
#
# Youngs Moduli (GPa) = 55.83815 87.20114 85.83257
#
# Poissons Ratio (x) = 0.47256 0.29912
# Poissons Ratio (y) = 0.30260 0.14431
# Poissons Ratio (z) = 0.19459 0.14661
#
# Static dielectric constant tensor:
#      x y z
#    x 3.769170 0.000000 -0.005620 
#    y 0.000000 3.649530 0.000000 
#    z -0.005620 0.000000 3.791520 
# 
# 
# High freq. dielectric constant tensor:
#      x y z
#    x 1.822550 0.000000 -0.001280 
#    y 0.000000 1.809200 0.000000 
#    z -0.001280 0.000000 1.828860 
# 
# From -- ./inp_files/40038.got.cif
#   From: 2010.06.25/outbox.cif.g09.slc.cpg/sg11_21_cif.got.tgz:40038.got - 2010.06.27 23:14:04.
