data_PCOD8077165
_publ_section_title
;
Structure prediction by ZEFSAII (Michael W. Deem and Ramdas Pophale) SiO2 
 PCOD8077165
Probable space group: P 21/M
;
_chemical_formula_sum "Si O2"
_cell_formula_units_Z 20
_cell_length_a 9.931564
_cell_length_b 18.828739
_cell_length_c 5.158808
_cell_angle_alpha 90.000000
_cell_angle_beta 75.867344
_cell_angle_gamma 90.000000
_cell_volume 935.492746
_symmetry_space_group_name_H-M "P 21/M"
_symmetry_group_IT_number 11
_symmetry_cell_setting 'monoclinic'
loop_
_space_group_symop_operation_xyz
x,y,z
-x,1/2+y,-z
-x,-y,-z
x,1/2-y,z
loop_
_atom_site_type_symbol
_atom_site_label
_atom_site_fract_x
_atom_site_fract_y
_atom_site_fract_z
Si Si1 0.886458 0.168998 0.551605
Si Si2 0.673599 0.546694 0.277360
Si Si3 0.804900 0.670648 0.469584
Si Si4 0.439918 0.101815 0.178440
Si Si5 0.250166 0.892022 0.888786
O O1 0.851092 0.250000 0.642362
O O2 0.819433 0.152603 0.306497
O O3 0.051351 0.157076 0.448333
O O4 0.830313 0.118459 0.804584
O O5 0.785075 0.611615 0.252728
O O6 0.583343 0.542099 0.585333
O O7 0.756907 0.474929 0.182320
O O8 0.569078 0.563318 0.092437
O O9 0.801307 0.750000 0.350952
O O10 0.677796 0.662645 0.735410
O O11 0.592232 0.134999 0.143992
#
# Coordination Sequence:
#
# PCOD8077165 Si02
#       5
#     4   4   4   4   4
#     4  11  26  43  61  91 131 169 206 262 320 369
#     4  10  22  40  69  95 125 163 213 258 317 364
#     4   9  24  43  63  89 129 170 211 256 313 377
#     4  10  22  41  64  96 122 167 207 258 313 373
#     4  12  23  42  68  94 130 161 211 265 313 376
#
# _framework density 21.379106
#
# number of rings (size 3 to 8) (size 9 to 14) (size 15 to 20)
#    1.200    0.400    0.000    4.200    2.800    4.000 
#    0.000    0.000    0.000    0.000    0.000    0.000 
#    0.000    0.000    0.000    0.000    0.000    0.000 
#
# Total GULP energy -247922.056538 kJ/mol
# GULP energy per Si atom -12396.102827 kJ/mol
# Density = 2.133045 g / cm^3
# Si number density = 21.379106 Si / 1000 Ang^3
#
#
#
# Elastic Constant Matrix: (Units=GPa)
#
#
# Indices 1 2 3 4 5 6 
#
# 1 154.8683 50.9582 54.6062 0.0000 6.1059 0.0000
# 2 50.9582 71.1706 23.8253 0.0000 -0.4987 0.0000
# 3 54.6062 23.8253 94.7816 0.0000 18.2172 0.0000
# 4 0.0000 0.0000 0.0000 19.9265 0.0000 -3.1701
# 5 6.1059 -0.4987 18.2172 0.0000 38.2094 0.0000
# 6 0.0000 0.0000 0.0000 -3.1701 0.0000 24.1391
#
#
#
# Elastic Compliance Matrix: (Units=1/GPa)
#
#
# Indices 1 2 3 4 5 6 
#
# 1 0.009797 -0.005563 -0.004327 0.000000 0.000425 0.000000
# 2 -0.005563 0.018677 -0.001880 0.000000 0.002029 0.000000
# 3 -0.004327 -0.001880 0.014739 0.000000 -0.006360 0.000000
# 4 0.000000 0.000000 0.000000 0.051255 0.000000 0.006731
# 5 0.000425 0.002029 -0.006360 0.000000 0.029162 0.000000
# 6 0.000000 0.000000 0.000000 0.006731 0.000000 0.042311
#
#
# Mechanical properties :
#
#
# Convention : Reuss Voigt Hill
#
# Bulk Modulus (GPa) = 50.83356 64.39999 57.61678
# Shear Modulus (GPa) = 25.50517 29.21705 27.36111
#
# Velocity S-wave (km/s) = 3.45772 3.70079 3.58132
# Velocity P-wave (km/s) = 6.30634 6.96056 6.64151
#
# Compressibility (1/GPa) = 0.01967204
#
# Stress axis : x y z
#
# Youngs Moduli (GPa) = 102.07680 53.54119 67.84842
#
# Poissons Ratio (x) = 0.29783 0.29361
# Poissons Ratio (y) = 0.56782 0.12756
# Poissons Ratio (z) = 0.44173 0.10066
#
# Static dielectric constant tensor:
#      x y z
#    x 3.886150 0.000000 0.044990 
#    y 0.000000 3.843580 0.000000 
#    z 0.044990 0.000000 3.665390 
# 
# 
# High freq. dielectric constant tensor:
#      x y z
#    x 1.849000 0.000000 0.008220 
#    y 0.000000 1.833890 0.000000 
#    z 0.008220 0.000000 1.833600 
# 
# From -- ./inp_files/2365.got.cif
#   From: 2010.06.25/outbox.cif.g09.slc.cpg/sg11_2_cif.got.tgz:2365.got - 2010.06.27 23:14:04.
