data_PCOD8077401
_publ_section_title
;
Structure prediction by ZEFSAII (Michael W. Deem and Ramdas Pophale) SiO2 
 PCOD8077401
Probable space group: P 21/M
;
_chemical_formula_sum "Si O2"
_cell_formula_units_Z 32
_cell_length_a 11.841130
_cell_length_b 8.699706
_cell_length_c 27.982545
_cell_angle_alpha 90.000000
_cell_angle_beta 146.602578
_cell_angle_gamma 90.000000
_cell_volume 1586.709522
_symmetry_space_group_name_H-M "P 21/M"
_symmetry_group_IT_number 11
_symmetry_cell_setting 'monoclinic'
loop_
_space_group_symop_operation_xyz
x,y,z
-x,1/2+y,-z
-x,-y,-z
x,1/2-y,z
loop_
_atom_site_type_symbol
_atom_site_label
_atom_site_fract_x
_atom_site_fract_y
_atom_site_fract_z
Si Si1 0.150139 0.570543 0.758130
Si Si2 0.875467 0.572646 0.751059
Si Si3 0.713619 0.931136 0.355619
Si Si4 0.598131 0.429160 0.413547
Si Si5 0.955705 0.930698 0.094940
Si Si6 0.320340 0.567512 0.158600
Si Si7 0.411218 0.931374 0.085603
Si Si8 0.050453 0.431108 0.411181
O O1 0.199879 0.750000 0.772851
O O2 0.988226 0.531023 0.741946
O O3 0.056143 0.510582 0.675124
O O4 0.358698 0.482849 0.843631
O O5 0.906491 0.750000 0.776165
O O6 0.637866 0.532783 0.659254
O O7 0.969641 0.469144 0.825818
O O8 0.749709 0.750000 0.361844
O O9 0.518716 0.992203 0.256973
O O10 0.677406 0.969258 0.397732
O O11 0.910801 0.022698 0.406844
O O12 0.631414 0.250000 0.414413
O O13 0.731048 0.482630 0.506291
O O14 0.933855 0.750000 0.082174
O O15 0.118011 0.997275 0.113460
O O16 0.734863 0.005548 0.007604
O O17 0.317541 0.750000 0.158620
O O18 0.332010 0.503640 0.108753
O O19 0.403622 0.750000 0.082582
O O20 0.088233 0.250000 0.423223
#
# Coordination Sequence:
#
# PCOD8077401 Si02
#       8
#     4   4   4   4   4   4   4   4
#     4  10  23  43  63  85 116 155 201 250 295 344
#     4  10  23  43  63  85 116 155 201 250 295 344
#     4  11  20  37  62  89 122 156 194 241 292 353
#     4  11  23  39  61  90 121 156 196 242 296 354
#     4  11  22  39  62  91 122 156 195 240 294 353
#     4   9  19  35  59  89 121 153 189 236 292 349
#     4  11  22  39  62  91 122 156 195 240 294 353
#     4  11  23  39  61  90 121 156 196 242 296 354
#
# _framework density 20.167522000000002
#
# number of rings (size 3 to 8) (size 9 to 14) (size 15 to 20)
#    0.000    1.500    2.500    2.625    0.000    2.500 
#    0.000    1.875    0.000    0.000    0.000    0.000 
#    0.000    0.000    0.000    0.000    0.000    0.000 
#
# Total GULP energy -396975.974411 kJ/mol
# GULP energy per Si atom -12405.499200 kJ/mol
# Density = 2.012162 g / cm^3
# Si number density = 20.167522 Si / 1000 Ang^3
#
#
#
# Elastic Constant Matrix: (Units=GPa)
#
#
# Indices 1 2 3 4 5 6 
#
# 1 105.5979 28.3664 42.8277 0.0000 16.3028 0.0000
# 2 28.3664 54.8161 42.0443 0.0000 5.0733 0.0000
# 3 42.8277 42.0443 158.4464 0.0000 15.7962 0.0000
# 4 0.0000 0.0000 0.0000 33.6660 0.0000 -1.6455
# 5 16.3028 5.0733 15.7962 0.0000 13.4853 0.0000
# 6 0.0000 0.0000 0.0000 -1.6455 0.0000 22.3355
#
#
#
# Elastic Compliance Matrix: (Units=1/GPa)
#
#
# Indices 1 2 3 4 5 6 
#
# 1 0.013173 -0.004868 -0.000978 0.000000 -0.012949 0.000000
# 2 -0.004868 0.024738 -0.005556 0.000000 0.003087 0.000000
# 3 -0.000978 -0.005556 0.008745 0.000000 -0.006971 0.000000
# 4 0.000000 0.000000 0.000000 0.029811 0.000000 0.002196
# 5 -0.012949 0.003087 -0.006971 0.000000 0.096813 0.000000
# 6 0.000000 0.000000 0.000000 0.002196 0.000000 0.044934
#
#
# Mechanical properties :
#
#
# Convention : Reuss Voigt Hill
#
# Bulk Modulus (GPa) = 41.92667 60.59301 51.25984
# Shear Modulus (GPa) = 20.08277 27.60549 23.84413
#
# Velocity S-wave (km/s) = 3.15905 3.70376 3.44219
# Velocity P-wave (km/s) = 5.84298 6.95705 6.42421
#
# Compressibility (1/GPa) = 0.02385117
#
# Stress axis : x y z
#
# Youngs Moduli (GPa) = 75.91047 40.42351 114.35188
#
# Poissons Ratio (x) = 0.19680 0.11183
# Poissons Ratio (y) = 0.36957 0.63536
# Poissons Ratio (z) = 0.07424 0.22460
#
# Static dielectric constant tensor:
#      x y z
#    x 3.635690 0.000000 0.026830 
#    y 0.000000 3.470340 0.000000 
#    z 0.026830 0.000000 3.864580 
# 
# 
# High freq. dielectric constant tensor:
#      x y z
#    x 1.780860 0.000000 0.002070 
#    y 0.000000 1.778280 0.000000 
#    z 0.002070 0.000000 1.805570 
# 
# From -- ./inp_files/73136.got.cif
#   From: 2010.06.25/outbox.cif.g09.slc.cpg/sg11_37_cif.got.tgz:73136.got - 2010.06.27 23:14:04.
