data_PCOD8077599
_publ_section_title
;
Structure prediction by ZEFSAII (Michael W. Deem and Ramdas Pophale) SiO2 
 PCOD8077599
Probable space group: P 21/M
;
_chemical_formula_sum "Si O2"
_cell_formula_units_Z 32
_cell_length_a 12.829801
_cell_length_b 9.074410
_cell_length_c 21.528853
_cell_angle_alpha 90.000000
_cell_angle_beta 51.807446
_cell_angle_gamma 90.000000
_cell_volume 1969.913175
_symmetry_space_group_name_H-M "P 21/M"
_symmetry_group_IT_number 11
_symmetry_cell_setting 'monoclinic'
loop_
_space_group_symop_operation_xyz
x,y,z
-x,1/2+y,-z
-x,-y,-z
x,1/2-y,z
loop_
_atom_site_type_symbol
_atom_site_label
_atom_site_fract_x
_atom_site_fract_y
_atom_site_fract_z
Si Si1 0.606506 0.080023 0.502562
Si Si2 0.694501 0.420871 0.910635
Si Si3 0.213442 0.581997 0.671562
Si Si4 0.512109 0.076325 0.090949
Si Si5 0.917944 0.425735 0.084351
Si Si6 0.617630 0.075125 0.182056
Si Si7 0.996605 0.422683 0.822026
Si Si8 0.477415 0.921308 0.651957
O O1 0.567571 0.250000 0.521914
O O2 0.748057 0.060987 0.415575
O O3 0.500000 0.000000 0.500000
O O4 0.599101 0.008171 0.573965
O O5 0.669286 0.250000 0.907891
O O6 0.627362 0.507824 0.878660
O O7 0.848677 0.460118 0.854658
O O8 0.628710 0.468890 0.000259
O O9 0.167835 0.750000 0.700893
O O10 0.094765 0.470373 0.730462
O O11 0.338287 0.545000 0.669470
O O12 0.494060 0.250000 0.100960
O O13 0.550770 0.011600 0.144239
O O14 0.929995 0.250000 0.075910
O O15 0.767612 0.481936 0.132426
O O16 0.973081 0.480398 0.129305
O O17 0.000000 0.500000 0.000000
O O18 0.621725 0.250000 0.178324
O O19 0.533435 0.022965 0.273011
O O20 0.012879 0.250000 0.831128
O O21 0.512005 0.750000 0.635357
#
# Coordination Sequence:
#
# PCOD8077599 Si02
#       8
#     4   4   4   4   4   4   4   4
#     4   9  17  28  43  64  92 125 158 191 230 273
#     4   9  19  34  48  67  95 121 154 203 246 274
#     4   9  17  30  45  65  95 128 157 190 232 277
#     4   9  17  32  53  69  85 119 163 197 234 284
#     4  11  21  34  48  66  97 130 159 191 232 282
#     4   9  17  31  49  68  95 126 154 192 239 282
#     4  11  21  32  48  70  96 127 160 194 236 282
#     4   9  16  29  46  66  94 127 156 187 234 282
#
# _framework density 16.24437
#
# number of rings (size 3 to 8) (size 9 to 14) (size 15 to 20)
#    0.000    2.500    1.250    2.625    0.000    5.500 
#    0.000    4.375    0.000    0.000    0.000    0.875 
#    0.000    0.000    0.000    0.000    0.000    0.000 
#
# Total GULP energy -396707.824790 kJ/mol
# GULP energy per Si atom -12397.119525 kJ/mol
# Density = 1.620740 g / cm^3
# Si number density = 16.244370 Si / 1000 Ang^3
#
#
#
# Elastic Constant Matrix: (Units=GPa)
#
#
# Indices 1 2 3 4 5 6 
#
# 1 81.8097 36.5834 53.3016 0.0000 4.1896 0.0000
# 2 36.5834 61.5353 48.5524 0.0000 -0.9103 0.0000
# 3 53.3016 48.5524 131.9874 0.0000 6.9347 0.0000
# 4 0.0000 0.0000 0.0000 30.9610 0.0000 -1.2295
# 5 4.1896 -0.9103 6.9347 0.0000 17.4231 0.0000
# 6 0.0000 0.0000 0.0000 -1.2295 0.0000 22.1548
#
#
#
# Elastic Compliance Matrix: (Units=1/GPa)
#
#
# Indices 1 2 3 4 5 6 
#
# 1 0.018783 -0.007543 -0.004650 0.000000 -0.003060 0.000000
# 2 -0.007543 0.026300 -0.006941 0.000000 0.005951 0.000000
# 3 -0.004650 -0.006941 0.012223 0.000000 -0.004110 0.000000
# 4 0.000000 0.000000 0.000000 0.032370 0.000000 0.001796
# 5 -0.003060 0.005951 -0.004110 0.000000 0.060078 0.000000
# 6 0.000000 0.000000 0.000000 0.001796 0.000000 0.045237
#
#
# Mechanical properties :
#
#
# Convention : Reuss Voigt Hill
#
# Bulk Modulus (GPa) = 52.52531 61.35636 56.94083
# Shear Modulus (GPa) = 20.86776 23.23410 22.05093
#
# Velocity S-wave (km/s) = 3.58804 3.78602 3.68836
# Velocity P-wave (km/s) = 7.04060 7.54750 7.29845
#
# Compressibility (1/GPa) = 0.01903844
#
# Stress axis : x y z
#
# Youngs Moduli (GPa) = 53.24048 38.02292 81.81032
#
# Poissons Ratio (x) = 0.28681 0.38039
# Poissons Ratio (y) = 0.40160 0.56785
# Poissons Ratio (z) = 0.24755 0.26392
#
# Static dielectric constant tensor:
#      x y z
#    x 2.879140 0.000000 0.033710 
#    y 0.000000 3.214680 0.000000 
#    z 0.033710 0.000000 3.038340 
# 
# 
# High freq. dielectric constant tensor:
#      x y z
#    x 1.586970 0.000000 0.003500 
#    y 0.000000 1.620650 0.000000 
#    z 0.003500 0.000000 1.634250 
# 
# From -- ./inp_files/64198.got.cif
#   From: 2010.06.25/outbox.cif.g09.slc.cpg/sg11_33_cif.got.tgz:64198.got - 2010.06.27 23:14:04.
