data_PCOD8077596
_publ_section_title
;
Structure prediction by ZEFSAII (Michael W. Deem and Ramdas Pophale) SiO2 
 PCOD8077596
Probable space group: P 21/M
;
_chemical_formula_sum "Si O2"
_cell_formula_units_Z 28
_cell_length_a 20.054539
_cell_length_b 9.128145
_cell_length_c 25.776245
_cell_angle_alpha 90.000000
_cell_angle_beta 160.857720
_cell_angle_gamma 90.000000
_cell_volume 1547.306305
_symmetry_space_group_name_H-M "P 21/M"
_symmetry_group_IT_number 11
_symmetry_cell_setting 'monoclinic'
loop_
_space_group_symop_operation_xyz
x,y,z
-x,1/2+y,-z
-x,-y,-z
x,1/2-y,z
loop_
_atom_site_type_symbol
_atom_site_label
_atom_site_fract_x
_atom_site_fract_y
_atom_site_fract_z
Si Si1 0.947951 0.413093 0.383972
Si Si2 0.030506 0.419975 0.161379
Si Si3 0.725271 0.583231 0.554916
Si Si4 0.771790 0.076274 0.484949
Si Si5 0.433730 0.923107 0.170963
Si Si6 0.304602 0.088239 0.729290
Si Si7 0.634150 0.418484 0.640342
O O1 0.899977 0.250000 0.327865
O O2 0.027558 0.513732 0.395706
O O3 0.115266 0.406578 0.551410
O O4 0.740736 0.480275 0.256012
O O5 0.048336 0.250000 0.160999
O O6 0.134620 0.455140 0.292852
O O7 0.142301 0.507657 0.196692
O O8 0.797979 0.471453 0.992263
O O9 0.767030 0.750000 0.567126
O O10 0.783371 0.469050 0.553335
O O11 0.484605 0.566142 0.392191
O O12 0.769681 0.250000 0.477607
O O13 0.566326 0.010289 0.310030
O O14 0.468541 0.750000 0.205692
O O15 0.501246 0.964896 0.161732
O O16 0.343865 0.250000 0.781210
O O17 0.500000 0.500000 0.500000
O O18 0.654881 0.250000 0.639531
#
# Coordination Sequence:
#
# PCOD8077596 Si02
#       7
#     4   4   4   4   4   4   4
#     4   9  16  27  44  65  92 125 158 195 238 280
#     4   9  18  33  54  76  97 125 160 197 240 288
#     4   9  18  33  51  71  96 126 159 195 238 286
#     4  11  21  31  47  72  99 127 161 200 239 281
#     4   9  18  33  51  72 100 130 157 193 243 290
#     4   8  14  25  43  67  93 121 155 193 233 280
#     4   9  17  30  50  73  96 124 160 200 238 280
#
# _framework density 18.095965
#
# number of rings (size 3 to 8) (size 9 to 14) (size 15 to 20)
#    0.000    2.857    0.000    3.857    0.000    6.857 
#    0.000    0.714    0.000    0.857    0.000    0.000 
#    0.000    0.000    0.000    0.000    0.000    0.000 
#
# Total GULP energy -347053.649879 kJ/mol
# GULP energy per Si atom -12394.773210 kJ/mol
# Density = 1.805478 g / cm^3
# Si number density = 18.095965 Si / 1000 Ang^3
#
#
#
# Elastic Constant Matrix: (Units=GPa)
#
#
# Indices 1 2 3 4 5 6 
#
# 1 52.2920 24.9854 -9.0995 0.0000 -2.9747 0.0000
# 2 24.9854 85.0842 1.2041 0.0000 -3.6046 0.0000
# 3 -9.0995 1.2041 9.4921 0.0000 -2.2014 0.0000
# 4 0.0000 0.0000 0.0000 20.7385 0.0000 6.2595
# 5 -2.9747 -3.6046 -2.2014 0.0000 12.2917 0.0000
# 6 0.0000 0.0000 0.0000 6.2595 0.0000 35.7804
#
#
#
# Elastic Compliance Matrix: (Units=1/GPa)
#
#
# Indices 1 2 3 4 5 6 
#
# 1 0.029319 -0.008623 0.031571 0.000000 0.010221 0.000000
# 2 -0.008623 0.014442 -0.010016 0.000000 0.000354 0.000000
# 3 0.031571 -0.010016 0.143957 0.000000 0.030486 0.000000
# 4 0.000000 0.000000 0.000000 0.050908 0.000000 -0.008906
# 5 0.010221 0.000354 0.030486 0.000000 0.089393 0.000000
# 6 0.000000 0.000000 0.000000 -0.008906 0.000000 0.029506
#
#
# Mechanical properties :
#
#
# Convention : Reuss Voigt Hill
#
# Bulk Modulus (GPa) = 4.68211 20.11646 12.39928
# Shear Modulus (GPa) = 12.41137 22.41400 17.41269
#
# Velocity S-wave (km/s) = 2.62174 3.52322 3.10537
# Velocity P-wave (km/s) = 3.42895 5.26227 4.44124
#
# Compressibility (1/GPa) = 0.21357909
#
# Stress axis : x y z
#
# Youngs Moduli (GPa) = 34.10781 69.24192 6.94653
#
# Poissons Ratio (x) = 0.59710 -0.21931
# Poissons Ratio (y) = 0.29412 0.06958
# Poissons Ratio (z) = -1.07680 0.69356
#
# Static dielectric constant tensor:
#      x y z
#    x 3.764030 0.000000 0.700540 
#    y 0.000000 3.484480 0.000000 
#    z 0.700540 0.000000 3.311190 
# 
# 
# High freq. dielectric constant tensor:
#      x y z
#    x 1.700090 0.000000 0.033490 
#    y 0.000000 1.703060 0.000000 
#    z 0.033490 0.000000 1.658860 
# 
# From -- ./inp_files/42345.got.cif
#   From: 2010.06.25/outbox.cif.g09.slc.cpg/sg11_22_cif.got.tgz:42345.got - 2010.06.27 23:14:04.
