data_PCOD8077961
_publ_section_title
;
Structure prediction by ZEFSAII (Michael W. Deem and Ramdas Pophale) SiO2 
 PCOD8077961
Probable space group: P 21/M
;
_chemical_formula_sum "Si O2"
_cell_formula_units_Z 32
_cell_length_a 24.793777
_cell_length_b 9.820256
_cell_length_c 9.497341
_cell_angle_alpha 90.000000
_cell_angle_beta 125.070209
_cell_angle_gamma 90.000000
_cell_volume 1892.600419
_symmetry_space_group_name_H-M "P 21/M"
_symmetry_group_IT_number 11
_symmetry_cell_setting 'monoclinic'
loop_
_space_group_symop_operation_xyz
x,y,z
-x,1/2+y,-z
-x,-y,-z
x,1/2-y,z
loop_
_atom_site_type_symbol
_atom_site_label
_atom_site_fract_x
_atom_site_fract_y
_atom_site_fract_z
Si Si1 0.060545 0.593161 0.427616
Si Si2 0.060545 0.906839 0.754020
Si Si3 0.549321 0.908198 0.487348
Si Si4 0.188105 0.906970 0.117978
Si Si5 0.696731 0.599281 0.712386
Si Si6 0.696731 0.599281 0.377808
Si Si7 0.811895 0.406970 0.553662
Si Si8 0.450679 0.091802 0.839386
O O1 0.042192 0.750000 0.369581
O O2 0.077258 0.569552 0.615887
O O3 0.123357 0.546540 0.432231
O O4 0.000000 0.500000 0.287730
O O5 0.042192 0.750000 0.756996
O O6 0.123357 0.953460 0.937840
O O7 0.533167 0.750000 0.489091
O O8 0.623389 0.941686 0.652261
O O9 0.541704 0.945309 0.312556
O O10 0.500000 0.000000 0.500000
O O11 0.204589 0.750000 0.113796
O O12 0.175694 0.935741 0.263541
O O13 0.249731 0.992391 0.150026
O O14 0.714887 0.750000 0.796342
O O15 0.696917 0.600869 0.545376
O O16 0.714888 0.750000 0.348321
O O17 0.750269 0.492391 0.400835
O O18 0.623389 0.558314 0.217907
O O19 0.795411 0.250000 0.500029
O O20 0.466833 0.250000 0.889591
O O21 0.500000 0.000000 0.000000
#
# Coordination Sequence:
#
# PCOD8077961 Si02
#       8
#     4   4   4   4   4   4   4   4
#     4   9  18  32  47  63  87 118 147 176 215 262
#     4   9  18  32  47  63  87 118 147 176 215 262
#     4   9  18  32  49  70  96 125 158 195 234 278
#     4   9  17  29  46  68  90 112 144 184 221 260
#     4   8  15  29  47  66  90 119 149 183 224 268
#     4   8  15  29  47  66  90 119 149 183 224 268
#     4   9  17  29  46  68  90 112 144 184 221 260
#     4   9  18  32  49  70  96 125 158 195 234 278
#
# _framework density 16.907954
#
# number of rings (size 3 to 8) (size 9 to 14) (size 15 to 20)
#    0.000    3.250    0.000    1.500    0.000    3.000 
#    0.000    3.750    0.000    4.500    0.000    0.000 
#    0.000    0.000    0.000    0.000    0.000    0.000 
#
# Total GULP energy -396726.928096 kJ/mol
# GULP energy per Si atom -12397.716503 kJ/mol
# Density = 1.686947 g / cm^3
# Si number density = 16.907954 Si / 1000 Ang^3
#
#
#
# Elastic Constant Matrix: (Units=GPa)
#
#
# Indices 1 2 3 4 5 6 
#
# 1 128.5363 80.0822 53.0724 0.0000 29.6726 0.0000
# 2 80.0822 96.6548 63.9539 0.0000 28.3751 0.0000
# 3 53.0724 63.9539 93.6586 0.0000 31.6891 0.0000
# 4 0.0000 0.0000 0.0000 29.2199 0.0000 9.2589
# 5 29.6726 28.3751 31.6891 0.0000 25.7513 0.0000
# 6 0.0000 0.0000 0.0000 9.2589 0.0000 34.4826
#
#
#
# Elastic Compliance Matrix: (Units=1/GPa)
#
#
# Indices 1 2 3 4 5 6 
#
# 1 0.016800 -0.012976 0.001804 0.000000 -0.007280 0.000000
# 2 -0.012976 0.030036 -0.012024 0.000000 -0.003348 0.000000
# 3 0.001804 -0.012024 0.024135 0.000000 -0.018529 0.000000
# 4 0.000000 0.000000 0.000000 0.037406 0.000000 -0.010044
# 5 -0.007280 -0.003348 -0.018529 0.000000 0.073712 0.000000
# 6 0.000000 0.000000 0.000000 -0.010044 0.000000 0.031697
#
#
# Mechanical properties :
#
#
# Convention : Reuss Voigt Hill
#
# Bulk Modulus (GPa) = 40.68636 79.22963 59.95799
# Shear Modulus (GPa) = 18.63094 26.00683 22.31889
#
# Velocity S-wave (km/s) = 3.32310 3.92617 3.63715
# Velocity P-wave (km/s) = 6.23215 8.21670 7.29225
#
# Compressibility (1/GPa) = 0.02457826
#
# Stress axis : x y z
#
# Youngs Moduli (GPa) = 59.52371 33.29355 41.43391
#
# Poissons Ratio (x) = 0.43201 -0.07473
# Poissons Ratio (y) = 0.77236 0.49821
# Poissons Ratio (z) = -0.10736 0.40033
#
# Static dielectric constant tensor:
#      x y z
#    x 3.177900 0.000000 0.212520 
#    y 0.000000 3.417900 0.000000 
#    z 0.212520 0.000000 3.057100 
# 
# 
# High freq. dielectric constant tensor:
#      x y z
#    x 1.645230 0.000000 0.016980 
#    y 0.000000 1.653890 0.000000 
#    z 0.016980 0.000000 1.635580 
# 
# From -- ./inp_files/27510.got.cif
#   From: 2010.06.25/outbox.cif.g09.slc.cpg/sg11_14_cif.got.tgz:27510.got - 2010.06.27 23:14:04.
