data_PCOD8077530
_publ_section_title
;
Structure prediction by ZEFSAII (Michael W. Deem and Ramdas Pophale) SiO2 
 PCOD8077530
Probable space group: P 21/M
;
_chemical_formula_sum "Si O2"
_cell_formula_units_Z 32
_cell_length_a 13.308877
_cell_length_b 9.126836
_cell_length_c 23.725521
_cell_angle_alpha 90.000000
_cell_angle_beta 44.655297
_cell_angle_gamma 90.000000
_cell_volume 2025.507391
_symmetry_space_group_name_H-M "P 21/M"
_symmetry_group_IT_number 11
_symmetry_cell_setting 'monoclinic'
loop_
_space_group_symop_operation_xyz
x,y,z
-x,1/2+y,-z
-x,-y,-z
x,1/2-y,z
loop_
_atom_site_type_symbol
_atom_site_label
_atom_site_fract_x
_atom_site_fract_y
_atom_site_fract_z
Si Si1 0.019626 0.912756 0.908933
Si Si2 0.295187 0.080344 0.940336
Si Si3 0.616317 0.580582 0.490656
Si Si4 0.183072 0.921836 0.661047
Si Si5 0.095317 0.414123 0.167945
Si Si6 0.405709 0.917976 0.666952
Si Si7 0.631129 0.424223 0.978018
Si Si8 0.302945 0.080847 0.812492
O O1 0.065901 0.750000 0.910146
O O2 0.998904 0.914181 0.850415
O O3 0.140668 0.026835 0.876342
O O4 0.872423 0.960759 0.997623
O O5 0.309303 0.250000 0.954369
O O6 0.365253 0.054573 0.850879
O O7 0.369826 0.977743 0.956754
O O8 0.500000 0.500000 0.500000
O O9 0.622556 0.750000 0.471255
O O10 0.769255 0.505967 0.415432
O O11 0.564268 0.562435 0.576333
O O12 0.206981 0.750000 0.642188
O O13 0.282705 0.975960 0.673385
O O14 0.016226 0.959455 0.738366
O O15 0.156607 0.250000 0.154160
O O16 0.225029 0.528184 0.112265
O O17 0.373439 0.750000 0.694061
O O18 0.403577 0.002676 0.726896
O O19 0.616824 0.250000 0.981647
O O20 0.500000 0.500000 0.000000
O O21 0.301260 0.250000 0.797935
#
# Coordination Sequence:
#
# PCOD8077530 Si02
#       8
#     4   4   4   4   4   4   4   4
#     4   9  16  29  44  57  86 123 149 180 224 265
#     4   9  20  35  46  62  88 117 148 186 228 265
#     4   9  17  27  39  56  81 116 157 194 226 262
#     4   9  16  28  44  61  86 119 152 188 229 264
#     4   9  17  31  48  67  92 121 150 185 228 270
#     4   9  17  29  40  55  85 125 157 184 227 266
#     4  11  22  36  54  72  89 114 146 184 229 275
#     4  11  20  27  41  64  89 117 154 193 221 256
#
# _framework density 15.798512000000001
#
# number of rings (size 3 to 8) (size 9 to 14) (size 15 to 20)
#    0.000    2.500    1.250    3.750    0.000    6.000 
#    0.000    0.000    0.000    0.000    0.000    0.000 
#    0.000    1.000    0.000    3.250    0.000    4.750 
#
# Total GULP energy -396609.186664 kJ/mol
# GULP energy per Si atom -12394.037083 kJ/mol
# Density = 1.576255 g / cm^3
# Si number density = 15.798512 Si / 1000 Ang^3
#
#
#
# Elastic Constant Matrix: (Units=GPa)
#
#
# Indices 1 2 3 4 5 6 
#
# 1 48.0477 39.3141 41.5041 0.0000 0.0374 0.0000
# 2 39.3141 99.5946 59.7812 0.0000 4.9146 0.0000
# 3 41.5041 59.7812 111.5767 0.0000 11.7742 0.0000
# 4 0.0000 0.0000 0.0000 30.9285 0.0000 0.3016
# 5 0.0374 4.9146 11.7742 0.0000 12.3823 0.0000
# 6 0.0000 0.0000 0.0000 0.3016 0.0000 19.8264
#
#
#
# Elastic Compliance Matrix: (Units=1/GPa)
#
#
# Indices 1 2 3 4 5 6 
#
# 1 0.037230 -0.009134 -0.010366 0.000000 0.013369 0.000000
# 2 -0.009134 0.017080 -0.005603 0.000000 -0.001423 0.000000
# 3 -0.010366 -0.005603 0.017320 0.000000 -0.014214 0.000000
# 4 0.000000 0.000000 0.000000 0.032337 0.000000 -0.000492
# 5 0.013369 -0.001423 -0.014214 0.000000 0.094801 0.000000
# 6 0.000000 0.000000 0.000000 -0.000492 0.000000 0.050445
#
#
# Mechanical properties :
#
#
# Convention : Reuss Voigt Hill
#
# Bulk Modulus (GPa) = 46.67600 60.04642 53.36121
# Shear Modulus (GPa) = 16.30995 20.53542 18.42268
#
# Velocity S-wave (km/s) = 3.21654 3.60923 3.41853
# Velocity P-wave (km/s) = 6.58814 7.44707 7.03073
#
# Compressibility (1/GPa) = 0.02142429
#
# Stress axis : x y z
#
# Youngs Moduli (GPa) = 26.86009 58.54844 57.73542
#
# Poissons Ratio (x) = 0.53478 0.59847
# Poissons Ratio (y) = 0.24534 0.32351
# Poissons Ratio (z) = 0.27842 0.32806
#
# Static dielectric constant tensor:
#      x y z
#    x 2.557940 0.000000 0.107250 
#    y 0.000000 3.074880 0.000000 
#    z 0.107250 0.000000 3.542670 
# 
# 
# High freq. dielectric constant tensor:
#      x y z
#    x 1.541350 0.000000 0.009110 
#    y 0.000000 1.612750 0.000000 
#    z 0.009110 0.000000 1.616650 
# 
# From -- ./inp_files/59864.got.cif
#   From: 2010.06.25/outbox.cif.g09.slc.cpg/sg11_30_cif.got.tgz:59864.got - 2010.06.27 23:14:04.
