data_PCOD8077379
_publ_section_title
;
Structure prediction by ZEFSAII (Michael W. Deem and Ramdas Pophale) SiO2 
 PCOD8077379
Probable space group: P 21/M
;
_chemical_formula_sum "Si O2"
_cell_formula_units_Z 32
_cell_length_a 15.608228
_cell_length_b 8.833616
_cell_length_c 24.088390
_cell_angle_alpha 90.000000
_cell_angle_beta 151.984361
_cell_angle_gamma 90.000000
_cell_volume 1560.026776
_symmetry_space_group_name_H-M "P 21/M"
_symmetry_group_IT_number 11
_symmetry_cell_setting 'monoclinic'
loop_
_space_group_symop_operation_xyz
x,y,z
-x,1/2+y,-z
-x,-y,-z
x,1/2-y,z
loop_
_atom_site_type_symbol
_atom_site_label
_atom_site_fract_x
_atom_site_fract_y
_atom_site_fract_z
Si Si1 0.811893 0.926725 0.409818
Si Si2 0.388553 0.427128 0.986041
Si Si3 0.974194 0.078957 0.723325
Si Si4 0.182750 0.577872 0.083204
Si Si5 0.412715 0.576511 0.322924
Si Si6 0.551752 0.069181 0.860017
Si Si7 0.682809 0.572618 0.628187
Si Si8 0.233013 0.578075 0.501808
O O1 0.830096 0.750000 0.411087
O O2 0.639385 0.987657 0.275866
O O3 0.783735 0.961218 0.457981
O O4 0.000000 0.000000 0.500000
O O5 0.431800 0.250000 0.013586
O O6 0.180395 0.462139 0.853691
O O7 0.500000 0.500000 0.000000
O O8 0.437074 0.500421 0.072660
O O9 0.926024 0.250000 0.715206
O O10 0.941312 0.064932 0.638340
O O11 0.852736 0.957709 0.685782
O O12 0.127385 0.750000 0.041362
O O13 0.336594 0.562127 0.217761
O O14 0.276964 0.512646 0.080652
O O15 0.000000 0.500000 0.000000
O O16 0.458908 0.750000 0.364045
O O17 0.270799 0.507481 0.286251
O O18 0.590999 0.472682 0.432451
O O19 0.555465 0.250000 0.865163
O O20 0.500000 0.500000 0.500000
O O21 0.656576 0.750000 0.621143
O O22 0.254627 0.750000 0.536111
#
# Coordination Sequence:
#
# PCOD8077379 Si02
#       8
#     4   4   4   4   4   4   4   4
#     4  11  24  43  67  96 130 165 207 263 326 386
#     4  11  26  47  70  96 128 170 219 274 328 383
#     4  10  24  44  64  91 129 170 214 266 322 380
#     4  10  23  42  64  92 128 172 213 261 320 379
#     4  11  22  40  62  89 128 169 210 260 321 379
#     4  10  23  46  68  93 133 173 214 266 323 384
#     4  12  24  38  60  92 128 168 210 258 313 378
#     4  11  22  39  65  95 127 165 211 260 321 387
#
# _framework density 20.512468999999999
#
# number of rings (size 3 to 8) (size 9 to 14) (size 15 to 20)
#    0.000    1.250    2.500    2.625    3.500    4.000 
#    0.000    0.000    0.000    0.000    0.000    0.000 
#    0.000    0.000    0.000    0.000    0.000    0.000 
#
# Total GULP energy -396825.330872 kJ/mol
# GULP energy per Si atom -12400.791590 kJ/mol
# Density = 2.046578 g / cm^3
# Si number density = 20.512469 Si / 1000 Ang^3
#
#
#
# Elastic Constant Matrix: (Units=GPa)
#
#
# Indices 1 2 3 4 5 6 
#
# 1 150.4250 47.6331 65.4366 0.0000 -2.1528 0.0000
# 2 47.6331 84.8543 44.1900 0.0000 2.5510 0.0000
# 3 65.4366 44.1900 116.1451 0.0000 5.4749 0.0000
# 4 0.0000 0.0000 0.0000 30.5081 0.0000 0.7845
# 5 -2.1528 2.5510 5.4749 0.0000 34.3954 0.0000
# 6 0.0000 0.0000 0.0000 0.7845 0.0000 42.4420
#
#
#
# Elastic Compliance Matrix: (Units=1/GPa)
#
#
# Indices 1 2 3 4 5 6 
#
# 1 0.009514 -0.003189 -0.004218 0.000000 0.001503 0.000000
# 2 -0.003189 0.015768 -0.004169 0.000000 -0.000705 0.000000
# 3 -0.004218 -0.004169 0.012665 0.000000 -0.001971 0.000000
# 4 0.000000 0.000000 0.000000 0.032794 0.000000 -0.000606
# 5 0.001503 -0.000705 -0.001971 0.000000 0.029534 0.000000
# 6 0.000000 0.000000 0.000000 -0.000606 0.000000 0.023573
#
#
# Mechanical properties :
#
#
# Convention : Reuss Voigt Hill
#
# Bulk Modulus (GPa) = 67.59121 73.99375 70.79248
# Shear Modulus (GPa) = 32.90975 34.41342 33.66158
#
# Velocity S-wave (km/s) = 4.00981 4.10040 4.05536
# Velocity P-wave (km/s) = 7.37977 7.65301 7.51763
#
# Compressibility (1/GPa) = 0.01479482
#
# Stress axis : x y z
#
# Youngs Moduli (GPa) = 105.10804 63.42120 78.95664
#
# Poissons Ratio (x) = 0.20228 0.33301
# Poissons Ratio (y) = 0.33524 0.32916
# Poissons Ratio (z) = 0.44330 0.26440
#
# Static dielectric constant tensor:
#      x y z
#    x 149.192640 0.000000 136.732620 
#    y 0.000000 3.842350 0.000000 
#    z 136.732620 0.000000 133.002120 
# 
# 
# High freq. dielectric constant tensor:
#      x y z
#    x 1.815290 0.000000 -0.004680 
#    y 0.000000 1.803280 0.000000 
#    z -0.004680 0.000000 1.804310 
# 
# From -- ./inp_files/69131.got.cif
#   From: 2010.06.25/outbox.cif.g09.slc.cpg/sg11_35_cif.got.tgz:69131.got - 2010.06.27 23:14:04.
