data_PCOD8077786
_publ_section_title
;
Structure prediction by ZEFSAII (Michael W. Deem and Ramdas Pophale) SiO2 
 PCOD8077786
Probable space group: P 21/M
;
_chemical_formula_sum "Si O2"
_cell_formula_units_Z 28
_cell_length_a 9.394175
_cell_length_b 9.075901
_cell_length_c 26.246987
_cell_angle_alpha 90.000000
_cell_angle_beta 140.156794
_cell_angle_gamma 90.000000
_cell_volume 1433.755285
_symmetry_space_group_name_H-M "P 21/M"
_symmetry_group_IT_number 11
_symmetry_cell_setting 'monoclinic'
loop_
_space_group_symop_operation_xyz
x,y,z
-x,1/2+y,-z
-x,-y,-z
x,1/2-y,z
loop_
_atom_site_type_symbol
_atom_site_label
_atom_site_fract_x
_atom_site_fract_y
_atom_site_fract_z
Si Si1 0.293991 0.076459 0.917392
Si Si2 0.811628 0.577315 0.226090
Si Si3 0.926720 0.579914 0.428406
Si Si4 0.398556 0.915420 0.518868
Si Si5 0.299369 0.586765 0.331865
Si Si6 0.402548 0.574993 0.737152
Si Si7 0.815040 0.416188 0.816387
O O1 0.317226 0.250000 0.929161
O O2 0.288241 0.033515 0.856313
O O3 0.069377 0.026112 0.885197
O O4 0.500000 0.000000 0.000000
O O5 0.772360 0.750000 0.227096
O O6 0.696599 0.477403 0.236688
O O7 0.072852 0.539532 0.297951
O O8 0.860878 0.750000 0.421872
O O9 0.722706 0.498551 0.345189
O O10 0.000000 0.500000 0.500000
O O11 0.132834 0.573487 0.445981
O O12 0.480848 0.750000 0.537124
O O13 0.500000 0.000000 0.500000
O O14 0.498472 0.979861 0.598626
O O15 0.363304 0.750000 0.368183
O O16 0.272490 0.584003 0.264742
O O17 0.385164 0.750000 0.727942
O O18 0.660900 0.524812 0.807120
O O19 0.801304 0.250000 0.834988
#
# Coordination Sequence:
#
# PCOD8077786 Si02
#       7
#     4   4   4   4   4   4   4
#     4   9  19  37  63  91 116 144 180 221 272 330
#     4   9  19  37  58  81 111 148 184 222 273 331
#     4  11  24  40  56  77 108 148 190 234 283 333
#     4  11  23  35  50  74 103 136 178 226 276 324
#     4   9  18  34  56  77  99 134 182 226 268 322
#     4  12  24  36  54  83 113 145 188 233 276 326
#     4   9  19  37  59  81 108 145 180 216 268 328
#
# _framework density 19.529136000000001
#
# number of rings (size 3 to 8) (size 9 to 14) (size 15 to 20)
#    0.000    2.000    0.000    5.571    0.000   10.286 
#    0.000    3.571    0.000    0.000    0.000    0.000 
#    0.000    0.000    0.000    0.000    0.000    0.000 
#
# Total GULP energy -347191.673364 kJ/mol
# GULP energy per Si atom -12399.702620 kJ/mol
# Density = 1.948469 g / cm^3
# Si number density = 19.529136 Si / 1000 Ang^3
#
#
#
# Elastic Constant Matrix: (Units=GPa)
#
#
# Indices 1 2 3 4 5 6 
#
# 1 94.7012 46.5138 22.5209 0.0000 15.4154 0.0000
# 2 46.5138 117.1273 41.9612 0.0000 9.9121 0.0000
# 3 22.5209 41.9612 88.8602 0.0000 17.1497 0.0000
# 4 0.0000 0.0000 0.0000 35.9633 0.0000 -0.0999
# 5 15.4154 9.9121 17.1497 0.0000 25.3866 0.0000
# 6 0.0000 0.0000 0.0000 -0.0999 0.0000 30.5540
#
#
#
# Elastic Compliance Matrix: (Units=1/GPa)
#
#
# Indices 1 2 3 4 5 6 
#
# 1 0.014113 -0.005079 0.000107 0.000000 -0.006659 0.000000
# 2 -0.005079 0.012120 -0.004735 0.000000 0.001551 0.000000
# 3 0.000107 -0.004735 0.015085 0.000000 -0.008407 0.000000
# 4 0.000000 0.000000 0.000000 0.027806 0.000000 0.000091
# 5 -0.006659 0.001551 -0.008407 0.000000 0.048508 0.000000
# 6 0.000000 0.000000 0.000000 0.000091 0.000000 0.032729
#
#
# Mechanical properties :
#
#
# Convention : Reuss Voigt Hill
#
# Bulk Modulus (GPa) = 45.65710 58.07564 51.86637
# Shear Modulus (GPa) = 28.23626 31.02696 29.63161
#
# Velocity S-wave (km/s) = 3.80656 3.99024 3.89948
# Velocity P-wave (km/s) = 6.53832 7.14366 6.84768
#
# Compressibility (1/GPa) = 0.02190240
#
# Stress axis : x y z
#
# Youngs Moduli (GPa) = 70.85785 82.50832 66.29064
#
# Poissons Ratio (x) = 0.41908 -0.00708
# Poissons Ratio (y) = 0.35991 0.31391
# Poissons Ratio (z) = -0.00757 0.39070
#
# Static dielectric constant tensor:
#      x y z
#    x 3.757680 0.000000 0.127620 
#    y 0.000000 3.488980 0.000000 
#    z 0.127620 0.000000 -1.678640 
# 
# 
# High freq. dielectric constant tensor:
#      x y z
#    x 1.770180 0.000000 0.011090 
#    y 0.000000 1.755970 0.000000 
#    z 0.011090 0.000000 1.748090 
# 
# From -- ./inp_files/28342.got.cif
#   From: 2010.06.25/outbox.cif.g09.slc.cpg/sg11_15_cif.got.tgz:28342.got - 2010.06.27 23:14:04.
