data_PCOD8077221
_publ_section_title
;
Structure prediction by ZEFSAII (Michael W. Deem and Ramdas Pophale) SiO2 
 PCOD8077221
Probable space group: P 21/M
;
_chemical_formula_sum "Si O2"
_cell_formula_units_Z 32
_cell_length_a 11.713076
_cell_length_b 9.028237
_cell_length_c 15.024576
_cell_angle_alpha 90.000000
_cell_angle_beta 93.123631
_cell_angle_gamma 90.000000
_cell_volume 1586.464718
_symmetry_space_group_name_H-M "P 21/M"
_symmetry_group_IT_number 11
_symmetry_cell_setting 'monoclinic'
loop_
_space_group_symop_operation_xyz
x,y,z
-x,1/2+y,-z
-x,-y,-z
x,1/2-y,z
loop_
_atom_site_type_symbol
_atom_site_label
_atom_site_fract_x
_atom_site_fract_y
_atom_site_fract_z
Si Si1 0.308228 0.581292 0.573892
Si Si2 0.576029 0.425825 0.079577
Si Si3 0.925641 0.575078 0.420450
Si Si4 0.686489 0.080130 0.624093
Si Si5 0.826285 0.424128 0.039642
Si Si6 0.908280 0.580317 0.683861
Si Si7 0.069338 0.417974 0.112980
Si Si8 0.498170 0.922950 0.725807
O O1 0.264328 0.750000 0.585418
O O2 0.206062 0.466280 0.578525
O O3 0.365609 0.565676 0.478063
O O4 0.396458 0.537951 0.654286
O O5 0.567628 0.250000 0.068045
O O6 0.707361 0.482966 0.076261
O O7 0.532841 0.474322 0.175594
O O8 0.500000 0.500000 0.000000
O O9 0.940416 0.750000 0.424735
O O10 0.000000 0.500000 0.500000
O O11 0.975105 0.508948 0.330515
O O12 0.708961 0.250000 0.650413
O O13 0.805865 0.993874 0.625315
O O14 0.607669 0.011638 0.696919
O O15 0.817675 0.250000 0.032905
O O16 0.937148 0.474398 0.102115
O O17 0.843276 0.486514 0.941364
O O18 0.920986 0.750000 0.652975
O O19 0.882727 0.569101 0.786569
O O20 0.073533 0.250000 0.078002
O O21 0.527879 0.750000 0.724268
#
# Coordination Sequence:
#
# PCOD8077221 Si02
#       8
#     4   4   4   4   4   4   4   4
#     4  10  22  41  65  90 121 162 202 251 306 361
#     4  10  23  41  62  87 118 158 202 249 302 363
#     4  12  24  39  60  89 124 161 201 243 296 356
#     4  11  23  39  61  90 125 160 204 254 302 358
#     4   9  19  38  61  86 117 152 195 247 302 353
#     4  11  23  38  61  89 122 161 201 247 299 361
#     4   9  20  37  61  89 116 153 197 241 296 361
#     4  10  23  42  65  89 118 161 209 251 304 367
#
# _framework density 20.170634
#
# number of rings (size 3 to 8) (size 9 to 14) (size 15 to 20)
#    0.000    1.750    1.250    2.250    3.500    3.000 
#    0.000    0.000    0.000    0.000    0.000    0.000 
#    0.000    0.000    0.000    0.000    0.000    0.000 
#
# Total GULP energy -396803.603893 kJ/mol
# GULP energy per Si atom -12400.112622 kJ/mol
# Density = 2.012473 g / cm^3
# Si number density = 20.170634 Si / 1000 Ang^3
#
#
#
# Elastic Constant Matrix: (Units=GPa)
#
#
# Indices 1 2 3 4 5 6 
#
# 1 98.7464 41.5146 43.7862 0.0000 -19.9064 0.0000
# 2 41.5146 84.9318 32.5061 0.0000 -8.3319 0.0000
# 3 43.7862 32.5061 114.0968 0.0000 -8.9509 0.0000
# 4 0.0000 0.0000 0.0000 31.6886 0.0000 -3.3291
# 5 -19.9064 -8.3319 -8.9509 0.0000 33.4353 0.0000
# 6 0.0000 0.0000 0.0000 -3.3291 0.0000 35.3281
#
#
#
# Elastic Compliance Matrix: (Units=1/GPa)
#
#
# Indices 1 2 3 4 5 6 
#
# 1 0.015502 -0.005426 -0.003866 0.000000 0.006842 0.000000
# 2 -0.005426 0.015295 -0.002277 0.000000 -0.000029 0.000000
# 3 -0.003866 -0.002277 0.010901 0.000000 0.000049 0.000000
# 4 0.000000 0.000000 0.000000 0.031873 0.000000 0.003003
# 5 0.006842 -0.000029 0.000049 0.000000 0.033988 0.000000
# 6 0.000000 0.000000 0.000000 0.003003 0.000000 0.028589
#
#
# Mechanical properties :
#
#
# Convention : Reuss Voigt Hill
#
# Bulk Modulus (GPa) = 53.88532 59.26543 56.57538
# Shear Modulus (GPa) = 30.21611 32.08826 31.15219
#
# Velocity S-wave (km/s) = 3.87463 3.99286 3.93419
# Velocity P-wave (km/s) = 6.84030 7.12061 6.98186
#
# Compressibility (1/GPa) = 0.01855793
#
# Stress axis : x y z
#
# Youngs Moduli (GPa) = 64.50765 65.37914 91.73521
#
# Poissons Ratio (x) = 0.35477 0.35468
# Poissons Ratio (y) = 0.35004 0.20892
# Poissons Ratio (z) = 0.24941 0.14890
#
# Static dielectric constant tensor:
#      x y z
#    x 3.835070 0.000000 -0.162550 
#    y 0.000000 3.658250 0.000000 
#    z -0.162550 0.000000 3.769120 
# 
# 
# High freq. dielectric constant tensor:
#      x y z
#    x 1.788600 0.000000 -0.006170 
#    y 0.000000 1.783220 0.000000 
#    z -0.006170 0.000000 1.793760 
# 
# From -- ./inp_files/49311.got.cif
#   From: 2010.06.25/outbox.cif.g09.slc.cpg/sg11_25_cif.got.tgz:49311.got - 2010.06.27 23:14:04.
