data_PCOD8077661
_publ_section_title
;
Structure prediction by ZEFSAII (Michael W. Deem and Ramdas Pophale) SiO2 
 PCOD8077661
Probable space group: P 21/M
;
_chemical_formula_sum "Si O2"
_cell_formula_units_Z 28
_cell_length_a 9.955362
_cell_length_b 8.553592
_cell_length_c 26.105077
_cell_angle_alpha 90.000000
_cell_angle_beta 40.320510
_cell_angle_gamma 90.000000
_cell_volume 1438.391023
_symmetry_space_group_name_H-M "P 21/M"
_symmetry_group_IT_number 11
_symmetry_cell_setting 'monoclinic'
loop_
_space_group_symop_operation_xyz
x,y,z
-x,1/2+y,-z
-x,-y,-z
x,1/2-y,z
loop_
_atom_site_type_symbol
_atom_site_label
_atom_site_fract_x
_atom_site_fract_y
_atom_site_fract_z
Si Si1 0.983309 0.434347 0.832646
Si Si2 0.358998 0.567008 0.996437
Si Si3 0.348509 0.934443 0.586431
Si Si4 0.066477 0.932409 0.331737
Si Si5 0.572464 0.935051 0.328782
Si Si6 0.843881 0.933070 0.587222
Si Si7 0.671132 0.067368 0.838107
O O1 0.988082 0.250000 0.824288
O O2 0.219446 0.495805 0.760725
O O3 0.844180 0.504986 0.826592
O O4 0.878835 0.478121 0.918379
O O5 0.385608 0.750000 0.986306
O O6 0.440493 0.498913 0.918446
O O7 0.500000 0.500000 0.000000
O O8 0.318779 0.750000 0.588667
O O9 0.500000 0.000000 0.500000
O O10 0.449885 0.974543 0.611355
O O11 0.130981 0.023703 0.645170
O O12 0.058557 0.750000 0.348734
O O13 0.268331 0.971557 0.238145
O O14 0.064908 0.035983 0.383061
O O15 0.574903 0.750000 0.337783
O O16 0.376792 0.980521 0.351116
O O17 0.817104 0.750000 0.585794
O O18 0.000000 0.000000 0.500000
O O19 0.661977 0.250000 0.849631
#
# Coordination Sequence:
#
# PCOD8077661 Si02
#       7
#     4   4   4   4   4   4   4
#     4   8  15  30  52  80 113 148 184 225 277 331
#     4   9  16  27  46  77 114 151 185 225 275 331
#     4  12  24  38  57  85 115 146 185 235 291 340
#     4  11  22  40  62  84 113 151 192 237 288 344
#     4  11  21  39  62  84 113 152 191 235 286 341
#     4  12  26  44  61  84 113 148 193 239 289 348
#     4   9  17  32  53  81 114 148 185 229 281 336
#
# _framework density 19.466194000000002
#
# number of rings (size 3 to 8) (size 9 to 14) (size 15 to 20)
#    0.000    1.714    1.429    5.571    0.000    1.143 
#    0.000    2.143    0.000    0.857    0.000    0.000 
#    0.000    0.000    0.000    0.000    0.000    0.000 
#
# Total GULP energy -347089.582404 kJ/mol
# GULP energy per Si atom -12396.056514 kJ/mol
# Density = 1.942189 g / cm^3
# Si number density = 19.466194 Si / 1000 Ang^3
#
#
#
# Elastic Constant Matrix: (Units=GPa)
#
#
# Indices 1 2 3 4 5 6 
#
# 1 47.3410 14.8504 17.2200 0.0000 0.0045 0.0000
# 2 14.8504 62.9938 60.0661 0.0000 7.2181 0.0000
# 3 17.2200 60.0661 144.3240 0.0000 3.0629 0.0000
# 4 0.0000 0.0000 0.0000 31.4124 0.0000 1.7171
# 5 0.0045 7.2181 3.0629 0.0000 25.5581 0.0000
# 6 0.0000 0.0000 0.0000 1.7171 0.0000 28.0276
#
#
#
# Elastic Compliance Matrix: (Units=1/GPa)
#
#
# Indices 1 2 3 4 5 6 
#
# 1 0.022918 -0.004863 -0.000742 0.000000 0.001458 0.000000
# 2 -0.004863 0.028347 -0.011076 0.000000 -0.006678 0.000000
# 3 -0.000742 -0.011076 0.011590 0.000000 0.001739 0.000000
# 4 0.000000 0.000000 0.000000 0.031942 0.000000 -0.001957
# 5 0.001458 -0.006678 0.001739 0.000000 0.040804 0.000000
# 6 0.000000 0.000000 0.000000 -0.001957 0.000000 0.035799
#
#
# Mechanical properties :
#
#
# Convention : Reuss Voigt Hill
#
# Bulk Modulus (GPa) = 33.90399 48.77020 41.33709
# Shear Modulus (GPa) = 23.30000 27.83444 25.56722
#
# Velocity S-wave (km/s) = 3.46345 3.78549 3.62804
# Velocity P-wave (km/s) = 5.78348 6.64941 6.23151
#
# Compressibility (1/GPa) = 0.02949506
#
# Stress axis : x y z
#
# Youngs Moduli (GPa) = 43.63312 35.27685 86.28070
#
# Poissons Ratio (x) = 0.17155 0.06398
# Poissons Ratio (y) = 0.21218 0.95563
# Poissons Ratio (z) = 0.03236 0.39072
#
# Static dielectric constant tensor:
#      x y z
#    x 3.217270 0.000000 -0.010010 
#    y 0.000000 3.520050 0.000000 
#    z -0.010010 0.000000 4.196000 
# 
# 
# High freq. dielectric constant tensor:
#      x y z
#    x 1.712660 0.000000 0.005440 
#    y 0.000000 1.753750 0.000000 
#    z 0.005440 0.000000 1.785320 
# 
# From -- ./inp_files/70775.got.cif
#   From: 2010.06.25/outbox.cif.g09.slc.cpg/sg11_36_cif.got.tgz:70775.got - 2010.06.27 23:14:04.
