data_PCOD8077571
_publ_section_title
;
Structure prediction by ZEFSAII (Michael W. Deem and Ramdas Pophale) SiO2 
 PCOD8077571
Probable space group: P 21/M
;
_chemical_formula_sum "Si O2"
_cell_formula_units_Z 32
_cell_length_a 19.923680
_cell_length_b 17.028088
_cell_length_c 10.061924
_cell_angle_alpha 90.000000
_cell_angle_beta 150.742342
_cell_angle_gamma 90.000000
_cell_volume 1668.370310
_symmetry_space_group_name_H-M "P 21/M"
_symmetry_group_IT_number 11
_symmetry_cell_setting 'monoclinic'
loop_
_space_group_symop_operation_xyz
x,y,z
-x,1/2+y,-z
-x,-y,-z
x,1/2-y,z
loop_
_atom_site_type_symbol
_atom_site_label
_atom_site_fract_x
_atom_site_fract_y
_atom_site_fract_z
Si Si1 0.002993 0.340634 0.881817
Si Si2 0.674211 0.157013 0.950052
Si Si3 0.209047 0.085747 0.436965
Si Si4 0.968018 0.343032 0.530185
Si Si5 0.262826 0.659557 0.226591
Si Si6 0.497674 0.158001 0.886960
Si Si7 0.947782 0.659644 0.605232
Si Si8 0.282020 0.594146 0.537750
O O1 0.043921 0.250000 0.976814
O O2 0.035859 0.368153 0.787171
O O3 0.840924 0.348873 0.629136
O O4 0.088080 0.396602 0.124418
O O5 0.689273 0.250000 0.969269
O O6 0.657567 0.128455 0.768286
O O7 0.548546 0.131637 0.827504
O O8 0.814396 0.121339 0.254487
O O9 0.338901 0.137610 0.621531
O O10 0.159574 0.107330 0.499268
O O11 0.241605 0.994954 0.491661
O O12 0.954628 0.250000 0.502149
O O13 0.057960 0.370051 0.558321
O O14 0.298788 0.750000 0.318433
O O15 0.314711 0.607413 0.438903
O O16 0.100002 0.649275 0.926227
O O17 0.520932 0.250000 0.948587
O O18 0.581145 0.112165 0.143769
O O19 0.901781 0.750000 0.537537
#
# Coordination Sequence:
#
# PCOD8077571 Si02
#       8
#     4   4   4   4   4   4   4   4
#     4  11  20  36  60  84 109 145 196 236 271 327
#     4   8  15  31  56  84 105 135 191 243 271 312
#     4  12  25  37  52  86 126 151 174 228 296 337
#     4   8  15  30  56  85 106 135 190 244 269 312
#     4   9  17  32  58  85 108 141 192 240 272 317
#     4  11  22  40  62  80 106 149 195 231 275 338
#     4   9  17  33  56  82 114 147 184 231 283 328
#     4  12  23  37  56  85 117 150 190 230 273 332
#
# _framework density 19.180392999999999
#
# number of rings (size 3 to 8) (size 9 to 14) (size 15 to 20)
#    0.000    2.000    2.500    4.500    0.000    0.000 
#    0.000    3.750    0.000    3.000    0.000    0.000 
#    0.000    0.000    0.000    0.000    0.000    0.000 
#
# Total GULP energy -396744.650033 kJ/mol
# GULP energy per Si atom -12398.270314 kJ/mol
# Density = 1.913674 g / cm^3
# Si number density = 19.180393 Si / 1000 Ang^3
#
#
#
# Elastic Constant Matrix: (Units=GPa)
#
#
# Indices 1 2 3 4 5 6 
#
# 1 151.3810 19.7249 36.0599 0.0000 -9.1775 0.0000
# 2 19.7249 42.4484 2.6085 0.0000 -7.1409 0.0000
# 3 36.0599 2.6085 46.8901 0.0000 -0.6898 0.0000
# 4 0.0000 0.0000 0.0000 21.5159 0.0000 2.8245
# 5 -9.1775 -7.1409 -0.6898 0.0000 25.8827 0.0000
# 6 0.0000 0.0000 0.0000 2.8245 0.0000 7.1680
#
#
#
# Elastic Compliance Matrix: (Units=1/GPa)
#
#
# Indices 1 2 3 4 5 6 
#
# 1 0.008701 -0.003309 -0.006478 0.000000 0.002000 0.000000
# 2 -0.003309 0.026039 0.001185 0.000000 0.006042 0.000000
# 3 -0.006478 0.001185 0.026224 0.000000 -0.001271 0.000000
# 4 0.000000 0.000000 0.000000 0.049013 0.000000 -0.019313
# 5 0.002000 0.006042 -0.001271 0.000000 0.040978 0.000000
# 6 0.000000 0.000000 0.000000 -0.019313 0.000000 0.147119
#
#
# Mechanical properties :
#
#
# Convention : Reuss Voigt Hill
#
# Bulk Modulus (GPa) = 22.85180 39.72292 31.28736
# Shear Modulus (GPa) = 15.15770 23.06839 19.11304
#
# Velocity S-wave (km/s) = 2.81422 3.47177 3.16015
# Velocity P-wave (km/s) = 4.74340 6.06845 5.44637
#
# Compressibility (1/GPa) = 0.04376023
#
# Stress axis : x y z
#
# Youngs Moduli (GPa) = 114.92464 38.40357 38.13343
#
# Poissons Ratio (x) = 0.12707 0.24703
# Poissons Ratio (y) = 0.38027 -0.04518
# Poissons Ratio (z) = 0.74450 -0.04550
#
# Static dielectric constant tensor:
#      x y z
#    x 4.041190 0.000000 -0.161120 
#    y 0.000000 3.189220 0.000000 
#    z -0.161120 0.000000 3.341700 
# 
# 
# High freq. dielectric constant tensor:
#      x y z
#    x 1.767040 0.000000 -0.013170 
#    y 0.000000 1.717150 0.000000 
#    z -0.013170 0.000000 1.718910 
# 
# From -- ./inp_files/44350.got.cif
#   From: 2010.06.25/outbox.cif.g09.slc.cpg/sg11_23_cif.got.tgz:44350.got - 2010.06.27 23:14:04.
