data_PCOD8077525
_publ_section_title
;
Structure prediction by ZEFSAII (Michael W. Deem and Ramdas Pophale) SiO2 
 PCOD8077525
Probable space group: P 21/M
;
_chemical_formula_sum "Si O2"
_cell_formula_units_Z 32
_cell_length_a 11.419723
_cell_length_b 19.633604
_cell_length_c 8.786872
_cell_angle_alpha 90.000000
_cell_angle_beta 125.335818
_cell_angle_gamma 90.000000
_cell_volume 1607.166684
_symmetry_space_group_name_H-M "P 21/M"
_symmetry_group_IT_number 11
_symmetry_cell_setting 'monoclinic'
loop_
_space_group_symop_operation_xyz
x,y,z
-x,1/2+y,-z
-x,-y,-z
x,1/2-y,z
loop_
_atom_site_type_symbol
_atom_site_label
_atom_site_fract_x
_atom_site_fract_y
_atom_site_fract_z
Si Si1 0.243485 0.411025 0.252572
Si Si2 0.611086 0.560715 0.350320
Si Si3 0.988478 0.095533 0.606027
Si Si4 0.291578 0.951647 0.146206
Si Si5 0.027171 0.945396 0.750684
Si Si6 0.691815 0.086141 0.493230
Si Si7 0.422556 0.325075 0.201740
Si Si8 0.264070 0.327450 0.778911
O O1 0.380889 0.417906 0.467417
O O2 0.250078 0.469682 0.131157
O O3 0.275536 0.341777 0.184712
O O4 0.096789 0.413965 0.235844
O O5 0.444959 0.555969 0.177860
O O6 0.691332 0.487352 0.405610
O O7 0.695211 0.616532 0.315990
O O8 0.985453 0.087425 0.422901
O O9 0.834092 0.124904 0.541693
O O10 0.111166 0.150698 0.736308
O O11 0.017217 0.026916 0.725183
O O12 0.294889 0.917318 0.314440
O O13 0.173835 0.920905 0.942760
O O14 0.549574 0.124005 0.336024
O O15 0.472787 0.250000 0.285699
O O16 0.387941 0.329247 0.997708
O O17 0.253139 0.250000 0.704176
#
# Coordination Sequence:
#
# PCOD8077525 Si02
#       8
#     4   4   4   4   4   4   4   4
#     4  11  19  40  61  91 126 158 202 254 309 367
#     4  11  20  40  64  92 122 158 208 263 305 361
#     4  11  22  40  60  90 128 161 203 251 310 369
#     4  11  21  35  62  98 125 155 198 264 312 357
#     4  11  22  36  61  99 125 158 200 255 314 363
#     4  11  22  39  64  95 127 156 207 261 313 365
#     4  11  25  42  63  91 126 167 208 255 316 377
#     4  11  26  44  62  87 123 170 211 251 313 379
#
# _framework density 19.910813999999998
#
# number of rings (size 3 to 8) (size 9 to 14) (size 15 to 20)
#    0.000    1.000    6.250    2.625    3.500    1.500 
#    0.000    0.000    0.000    1.500    0.000    0.000 
#    0.000    0.000    0.000    0.000    0.000    0.000 
#
# Total GULP energy -396634.451928 kJ/mol
# GULP energy per Si atom -12394.826623 kJ/mol
# Density = 1.986550 g / cm^3
# Si number density = 19.910814 Si / 1000 Ang^3
#
#
#
# Elastic Constant Matrix: (Units=GPa)
#
#
# Indices 1 2 3 4 5 6 
#
# 1 108.7341 29.4526 27.2046 0.0000 16.9557 0.0000
# 2 29.4526 85.3888 32.9310 0.0000 -7.6327 0.0000
# 3 27.2046 32.9310 98.6009 0.0000 19.1127 0.0000
# 4 0.0000 0.0000 0.0000 17.5420 0.0000 -1.3195
# 5 16.9557 -7.6327 19.1127 0.0000 27.5955 0.0000
# 6 0.0000 0.0000 0.0000 -1.3195 0.0000 22.5881
#
#
#
# Elastic Compliance Matrix: (Units=1/GPa)
#
#
# Indices 1 2 3 4 5 6 
#
# 1 0.011860 -0.004879 0.000036 0.000000 -0.008662 0.000000
# 2 -0.004879 0.017120 -0.006781 0.000000 0.012430 0.000000
# 3 0.000036 -0.006781 0.014744 0.000000 -0.012110 0.000000
# 4 0.000000 0.000000 0.000000 0.057258 0.000000 0.003345
# 5 -0.008662 0.012430 -0.012110 0.000000 0.053385 0.000000
# 6 0.000000 0.000000 0.000000 0.003345 0.000000 0.044467
#
#
# Mechanical properties :
#
#
# Convention : Reuss Voigt Hill
#
# Bulk Modulus (GPa) = 48.83649 52.43334 50.63492
# Shear Modulus (GPa) = 21.84297 27.08749 24.46523
#
# Velocity S-wave (km/s) = 3.31575 3.69242 3.50914
# Velocity P-wave (km/s) = 6.26417 6.67607 6.47340
#
# Compressibility (1/GPa) = 0.02047649
#
# Stress axis : x y z
#
# Youngs Moduli (GPa) = 84.31744 58.41010 67.82429
#
# Poissons Ratio (x) = 0.28498 -0.00246
# Poissons Ratio (y) = 0.41139 0.45993
# Poissons Ratio (z) = -0.00306 0.39609
#
# Static dielectric constant tensor:
#      x y z
#    x 3.676160 0.000000 0.150480 
#    y 0.000000 3.451350 0.000000 
#    z 0.150480 0.000000 3.701820 
# 
# 
# High freq. dielectric constant tensor:
#      x y z
#    x 1.784060 0.000000 0.007550 
#    y 0.000000 1.736230 0.000000 
#    z 0.007550 0.000000 1.790230 
# 
# From -- ./inp_files/19435.got.cif
#   From: 2010.06.25/outbox.cif.g09.slc.cpg/sg11_10_cif.got.tgz:19435.got - 2010.06.27 23:14:04.
