data_PCOD8077821
_publ_section_title
;
Structure prediction by ZEFSAII (Michael W. Deem and Ramdas Pophale) SiO2 
 PCOD8077821
Probable space group: P 21/M
;
_chemical_formula_sum "Si O2"
_cell_formula_units_Z 24
_cell_length_a 19.773687
_cell_length_b 13.792555
_cell_length_c 10.167304
_cell_angle_alpha 90.000000
_cell_angle_beta 151.539279
_cell_angle_gamma 90.000000
_cell_volume 1321.454737
_symmetry_space_group_name_H-M "P 21/M"
_symmetry_group_IT_number 11
_symmetry_cell_setting 'monoclinic'
loop_
_space_group_symop_operation_xyz
x,y,z
-x,1/2+y,-z
-x,-y,-z
x,1/2-y,z
loop_
_atom_site_type_symbol
_atom_site_label
_atom_site_fract_x
_atom_site_fract_y
_atom_site_fract_z
Si Si1 0.338135 0.048288 0.366020
Si Si2 0.237853 0.250000 0.271319
Si Si3 0.741723 0.750000 0.165933
Si Si4 0.629826 0.551298 0.887860
Si Si5 0.956669 0.042563 0.065320
Si Si6 0.971042 0.750000 0.330085
Si Si7 0.073731 0.250000 0.261422
Si Si8 0.903017 0.454672 0.446356
O O1 0.334974 0.154405 0.426627
O O2 0.338819 0.064288 0.211840
O O3 0.474566 0.990570 0.650223
O O4 0.203973 0.984554 0.176897
O O5 0.160912 0.250000 0.277482
O O6 0.118265 0.250000 0.955432
O O7 0.868677 0.750000 0.279333
O O8 0.809784 0.750000 0.425392
O O9 0.643525 0.655638 0.980516
O O10 0.739457 0.475035 0.136387
O O11 0.969862 0.158206 0.090589
O O12 0.062418 0.999252 0.353595
O O13 0.000000 0.000000 0.000000
O O14 0.075536 0.840433 0.513710
O O15 0.000000 0.500000 0.500000
#
# Coordination Sequence:
#
# PCOD8077821 Si02
#       8
#     4   2   2   4   4   2   2   4
#     4  11  23  40  64  92 131 164 206 262 317 380
#     4  12  20  43  61  89 121 176 201 243 334 377
#     4  12  20  39  61  93 121 172 204 257 324 360
#     4  11  23  39  64  95 129 162 207 265 317 370
#     4  12  22  40  63  94 123 162 215 258 300 374
#     4  12  20  35  67  85 127 166 212 259 302 374
#     4  12  24  35  67  95 123 164 213 259 308 371
#     4  12  20  38  61  93 121 162 216 258 301 366
#
# _framework density 18.161802000000002
#
# number of rings (size 3 to 8) (size 9 to 14) (size 15 to 20)
#    0.000    0.333   10.000    0.000    0.000    1.333 
#    0.000    5.000    0.000    2.000    0.000    0.000 
#    0.000    0.000    0.000    0.000    0.000    0.000 
#
# Total GULP energy -297719.351158 kJ/mol
# GULP energy per Si atom -12404.972965 kJ/mol
# Density = 1.812047 g / cm^3
# Si number density = 18.161802 Si / 1000 Ang^3
#
#
#
# Elastic Constant Matrix: (Units=GPa)
#
#
# Indices 1 2 3 4 5 6 
#
# 1 90.6269 44.2405 55.2350 0.0000 -8.6907 0.0000
# 2 44.2405 191.3600 66.3181 0.0000 7.2389 0.0000
# 3 55.2350 66.3181 133.3739 0.0000 0.5481 0.0000
# 4 0.0000 0.0000 0.0000 75.4925 0.0000 -21.6683
# 5 -8.6907 7.2389 0.5481 0.0000 37.1368 0.0000
# 6 0.0000 0.0000 0.0000 -21.6683 0.0000 34.4484
#
#
#
# Elastic Compliance Matrix: (Units=1/GPa)
#
#
# Indices 1 2 3 4 5 6 
#
# 1 0.015762 -0.001851 -0.005624 0.000000 0.004132 0.000000
# 2 -0.001851 0.006584 -0.002500 0.000000 -0.001680 0.000000
# 3 -0.005624 -0.002500 0.011074 0.000000 -0.000992 0.000000
# 4 0.000000 0.000000 0.000000 0.016165 0.000000 0.010168
# 5 0.004132 -0.001680 -0.000992 0.000000 0.028237 0.000000
# 6 0.000000 0.000000 0.000000 0.010168 0.000000 0.035425
#
#
# Mechanical properties :
#
#
# Convention : Reuss Voigt Hill
#
# Bulk Modulus (GPa) = 74.24489 82.99420 78.61955
# Shear Modulus (GPa) = 36.31446 46.05334 41.18390
#
# Velocity S-wave (km/s) = 4.47642 5.04106 4.76711
# Velocity P-wave (km/s) = 8.22717 8.92633 8.58387
#
# Compressibility (1/GPa) = 0.01346894
#
# Stress axis : x y z
#
# Youngs Moduli (GPa) = 63.44374 151.88998 90.30107
#
# Poissons Ratio (x) = 0.28119 0.50786
# Poissons Ratio (y) = 0.11745 0.22576
# Poissons Ratio (z) = 0.35681 0.37974
#
# Static dielectric constant tensor:
#      x y z
#    x 3.352680 0.000000 -0.114580 
#    y 0.000000 4.089170 0.000000 
#    z -0.114580 0.000000 3.393200 
# 
# 
# High freq. dielectric constant tensor:
#      x y z
#    x 1.700870 0.000000 -0.013480 
#    y 0.000000 1.724370 0.000000 
#    z -0.013480 0.000000 1.701850 
# 
# From -- ./inp_files/25015.got.cif
#   From: 2010.06.25/outbox.cif.g09.slc.cpg/sg11_13_cif.got.tgz:25015.got - 2010.06.27 23:14:04.
