data_PCOD8077370
_publ_section_title
;
Structure prediction by ZEFSAII (Michael W. Deem and Ramdas Pophale) SiO2 
 PCOD8077370
Probable space group: P 21/M
;
_chemical_formula_sum "Si O2"
_cell_formula_units_Z 28
_cell_length_a 11.677890
_cell_length_b 8.790487
_cell_length_c 15.033408
_cell_angle_alpha 90.000000
_cell_angle_beta 118.991317
_cell_angle_gamma 90.000000
_cell_volume 1349.865491
_symmetry_space_group_name_H-M "P 21/M"
_symmetry_group_IT_number 11
_symmetry_cell_setting 'monoclinic'
loop_
_space_group_symop_operation_xyz
x,y,z
-x,1/2+y,-z
-x,-y,-z
x,1/2-y,z
loop_
_atom_site_type_symbol
_atom_site_label
_atom_site_fract_x
_atom_site_fract_y
_atom_site_fract_z
Si Si1 0.749204 0.580382 0.697399
Si Si2 0.119108 0.428738 0.989031
Si Si3 0.959506 0.420423 0.212386
Si Si4 0.070642 0.073467 0.612394
Si Si5 0.353803 0.924452 0.175314
Si Si6 0.374347 0.926731 0.496576
Si Si7 0.636444 0.922427 0.325404
O O1 0.686760 0.750000 0.676603
O O2 0.666755 0.469108 0.729555
O O3 0.746793 0.510783 0.597066
O O4 0.899594 0.588037 0.782733
O O5 0.098722 0.250000 0.983316
O O6 0.127090 0.484202 0.889577
O O7 0.261774 0.468761 0.081630
O O8 0.000000 0.500000 0.000000
O O9 0.902241 0.250000 0.202421
O O10 0.976375 0.497084 0.314507
O O11 0.031311 0.250000 0.597733
O O12 0.227620 0.051424 0.674088
O O13 0.000000 0.000000 0.500000
O O14 0.312153 0.750000 0.144243
O O15 0.509368 0.948880 0.213470
O O16 0.368254 0.750000 0.474813
O O17 0.500000 0.000000 0.500000
O O18 0.367722 0.955437 0.598166
O O19 0.629717 0.750000 0.361025
#
# Coordination Sequence:
#
# PCOD8077370 Si02
#       7
#     4   4   4   4   4   4   4
#     4  11  22  36  57  87 124 161 204 257 312 373
#     4  12  24  40  64  95 131 168 210 263 320 382
#     4  11  24  42  65  93 126 166 214 264 317 377
#     4  11  24  44  68  95 128 168 216 265 316 377
#     4  11  22  38  62  90 124 164 206 255 316 378
#     4  12  23  34  54  84 121 160 203 252 311 380
#     4  10  23  42  62  87 124 166 209 261 318 377
#
# _framework density 20.742806999999999
#
# number of rings (size 3 to 8) (size 9 to 14) (size 15 to 20)
#    0.000    0.857    2.857    5.143    0.000    6.857 
#    0.000    0.714    0.000    0.000    0.000    0.000 
#    0.000    0.000    0.000    0.000    0.000    0.000 
#
# Total GULP energy -347161.784172 kJ/mol
# GULP energy per Si atom -12398.635149 kJ/mol
# Density = 2.069560 g / cm^3
# Si number density = 20.742807 Si / 1000 Ang^3
#
#
#
# Elastic Constant Matrix: (Units=GPa)
#
#
# Indices 1 2 3 4 5 6 
#
# 1 77.7139 33.3089 30.2140 0.0000 13.7344 0.0000
# 2 33.3089 153.2870 51.3539 0.0000 1.0808 0.0000
# 3 30.2140 51.3539 126.2497 0.0000 6.6061 0.0000
# 4 0.0000 0.0000 0.0000 39.6841 0.0000 -0.3209
# 5 13.7344 1.0808 6.6061 0.0000 33.7891 0.0000
# 6 0.0000 0.0000 0.0000 -0.3209 0.0000 24.8692
#
#
#
# Elastic Compliance Matrix: (Units=1/GPa)
#
#
# Indices 1 2 3 4 5 6 
#
# 1 0.015990 -0.002610 -0.002454 0.000000 -0.005936 0.000000
# 2 -0.002610 0.007984 -0.002692 0.000000 0.001332 0.000000
# 3 -0.002454 -0.002692 0.009645 0.000000 -0.000802 0.000000
# 4 0.000000 0.000000 0.000000 0.025202 0.000000 0.000325
# 5 -0.005936 0.001332 -0.000802 0.000000 0.032122 0.000000
# 6 0.000000 0.000000 0.000000 0.000325 0.000000 0.040215
#
#
# Mechanical properties :
#
#
# Convention : Reuss Voigt Hill
#
# Bulk Modulus (GPa) = 55.23488 65.22270 60.22879
# Shear Modulus (GPa) = 32.74256 35.82672 34.28464
#
# Velocity S-wave (km/s) = 3.97735 4.16045 4.06993
# Velocity P-wave (km/s) = 6.91221 7.38857 7.15436
#
# Compressibility (1/GPa) = 0.01810450
#
# Stress axis : x y z
#
# Youngs Moduli (GPa) = 62.53965 125.25715 103.67750
#
# Poissons Ratio (x) = 0.32698 0.25445
# Poissons Ratio (y) = 0.16326 0.27914
# Poissons Ratio (z) = 0.15349 0.33724
#
# Static dielectric constant tensor:
#      x y z
#    x 3.691820 0.000000 0.173790 
#    y 0.000000 3.905370 0.000000 
#    z 0.173790 0.000000 3.998350 
# 
# 
# High freq. dielectric constant tensor:
#      x y z
#    x 1.793620 0.000000 0.019860 
#    y 0.000000 1.826230 0.000000 
#    z 0.019860 0.000000 1.814450 
# 
# From -- ./inp_files/49462.got.cif
#   From: 2010.06.25/outbox.cif.g09.slc.cpg/sg11_25_cif.got.tgz:49462.got - 2010.06.27 23:14:04.
