data_PCOD8077317
_publ_section_title
;
Structure prediction by ZEFSAII (Michael W. Deem and Ramdas Pophale) SiO2 
 PCOD8077317
Probable space group: P 21/M
;
_chemical_formula_sum "Si O2"
_cell_formula_units_Z 20
_cell_length_a 11.509839
_cell_length_b 13.811289
_cell_length_c 12.212486
_cell_angle_alpha 90.000000
_cell_angle_beta 25.263853
_cell_angle_gamma 90.000000
_cell_volume 828.550792
_symmetry_space_group_name_H-M "P 21/M"
_symmetry_group_IT_number 11
_symmetry_cell_setting 'monoclinic'
loop_
_space_group_symop_operation_xyz
x,y,z
-x,1/2+y,-z
-x,-y,-z
x,1/2-y,z
loop_
_atom_site_type_symbol
_atom_site_label
_atom_site_fract_x
_atom_site_fract_y
_atom_site_fract_z
Si Si1 0.134761 0.356837 0.690618
Si Si2 0.395296 0.551931 0.450809
Si Si3 0.367680 0.639715 0.029892
Si Si4 0.020484 0.359157 0.028979
Si Si5 0.725994 0.033280 0.679229
O O1 0.272657 0.250000 0.568112
O O2 0.371714 0.436512 0.490275
O O3 0.956504 0.365867 0.953970
O O4 0.940083 0.371612 0.751570
O O5 0.245840 0.582098 0.464127
O O6 0.241165 0.605160 0.680868
O O7 0.712832 0.576826 0.173006
O O8 0.472253 0.750000 0.923614
O O9 0.545986 0.562823 0.811123
O O10 0.401092 0.612280 0.129711
O O11 0.086244 0.250000 0.008835
O O12 0.000000 0.000000 0.500000
#
# Coordination Sequence:
#
# PCOD8077317 Si02
#       5
#     4   4   4   4   4
#     4  10  22  44  71 101 136 176 232 285 340 411
#     4  12  24  45  72  99 140 184 226 284 352 402
#     4  10  23  44  69  97 131 181 228 283 347 402
#     4  11  26  45  69 104 140 182 231 282 343 417
#     4  11  24  43  66  96 137 174 230 285 333 414
#
# _framework density 24.138532000000001
#
# number of rings (size 3 to 8) (size 9 to 14) (size 15 to 20)
#    0.000    1.200    2.000    3.000    2.800    4.800 
#    0.000    7.000    0.000    0.000    0.000    0.000 
#    0.000    0.000    0.000    0.000    0.000    0.000 
#
# Total GULP energy -247969.902169 kJ/mol
# GULP energy per Si atom -12398.495108 kJ/mol
# Density = 2.408359 g / cm^3
# Si number density = 24.138532 Si / 1000 Ang^3
#
#
#
# Elastic Constant Matrix: (Units=GPa)
#
#
# Indices 1 2 3 4 5 6 
#
# 1 93.9885 28.1155 6.5298 0.0000 23.5945 0.0000
# 2 28.1155 158.8818 18.4309 0.0000 -1.7592 0.0000
# 3 6.5298 18.4309 65.0775 0.0000 8.7465 0.0000
# 4 0.0000 0.0000 0.0000 1.8968 0.0000 -2.7085
# 5 23.5945 -1.7592 8.7465 0.0000 40.5396 0.0000
# 6 0.0000 0.0000 0.0000 -2.7085 0.0000 31.5050
#
#
#
# Elastic Compliance Matrix: (Units=1/GPa)
#
#
# Indices 1 2 3 4 5 6 
#
# 1 0.013361 -0.002504 0.000441 0.000000 -0.007980 0.000000
# 2 -0.002504 0.006996 -0.002026 0.000000 0.002198 0.000000
# 3 0.000441 -0.002026 0.016418 0.000000 -0.003887 0.000000
# 4 0.000000 0.000000 0.000000 0.600990 0.000000 0.051667
# 5 -0.007980 0.002198 -0.003887 0.000000 0.030246 0.000000
# 6 0.000000 0.000000 0.000000 0.051667 0.000000 0.036183
#
#
# Mechanical properties :
#
#
# Convention : Reuss Voigt Hill
#
# Bulk Modulus (GPa) = 34.96652 47.12225 41.04438
# Shear Modulus (GPa) = 6.92613 32.44637 19.68625
#
# Velocity S-wave (km/s) = 1.69575 3.67027 2.85889
# Velocity P-wave (km/s) = 4.28384 6.12578 5.28566
#
# Compressibility (1/GPa) = 0.02859879
#
# Stress axis : x y z
#
# Youngs Moduli (GPa) = 74.84301 142.93075 60.90827
#
# Poissons Ratio (x) = 0.35789 -0.02686
# Poissons Ratio (y) = 0.18740 0.12338
# Poissons Ratio (z) = -0.03301 0.28953
#
# Static dielectric constant tensor:
#      x y z
#    x 6.857890 0.000000 -1.613620 
#    y 0.000000 4.600290 0.000000 
#    z -1.613620 0.000000 6.170310 
# 
# 
# High freq. dielectric constant tensor:
#      x y z
#    x 1.972470 0.000000 0.017790 
#    y 0.000000 1.962320 0.000000 
#    z 0.017790 0.000000 1.947540 
# 
# From -- ./inp_files/4128.got.cif
#   From: 2010.06.25/outbox.cif.g09.slc.cpg/sg11_3_cif.got.tgz:4128.got - 2010.06.27 23:14:04.
