data_PCOD8077845
_publ_section_title
;
Structure prediction by ZEFSAII (Michael W. Deem and Ramdas Pophale) SiO2 
 PCOD8077845
Probable space group: P 21/M
;
_chemical_formula_sum "Si O2"
_cell_formula_units_Z 20
_cell_length_a 24.691415
_cell_length_b 8.493177
_cell_length_c 9.550224
_cell_angle_alpha 90.000000
_cell_angle_beta 152.189477
_cell_angle_gamma 90.000000
_cell_volume 934.387594
_symmetry_space_group_name_H-M "P 21/M"
_symmetry_group_IT_number 11
_symmetry_cell_setting 'monoclinic'
loop_
_space_group_symop_operation_xyz
x,y,z
-x,1/2+y,-z
-x,-y,-z
x,1/2-y,z
loop_
_atom_site_type_symbol
_atom_site_label
_atom_site_fract_x
_atom_site_fract_y
_atom_site_fract_z
Si Si1 0.787047 0.934874 0.363415
Si Si2 0.968256 0.066001 0.579101
Si Si3 0.155232 0.567011 0.212606
Si Si4 0.589988 0.433836 0.315004
Si Si5 0.537962 0.065994 0.733380
O O1 0.797432 0.750000 0.406565
O O2 0.849030 0.987483 0.361254
O O3 0.852647 0.016665 0.643511
O O4 0.652948 0.982528 0.053645
O O5 0.946672 0.250000 0.514796
O O6 0.000000 0.000000 0.500000
O O7 0.068458 0.033033 0.920138
O O8 0.122305 0.750000 0.124495
O O9 0.282303 0.529858 0.446187
O O10 0.569033 0.250000 0.290991
O O11 0.569810 0.527408 0.412377
O O12 0.500000 0.500000 0.000000
O O13 0.562553 0.250000 0.781934
O O14 0.500000 0.000000 0.500000
#
# Coordination Sequence:
#
# PCOD8077845 Si02
#       5
#     4   4   4   4   4
#     4  12  25  45  71  99 133 175 225 274 330 395
#     4  12  27  47  70  98 134 174 221 276 336 396
#     4  11  24  44  70 100 135 176 222 273 328 392
#     4  11  23  41  68 100 137 175 220 271 326 390
#     4  12  26  44  67  98 138 179 222 273 332 394
#
# _framework density 21.404395000000001
#
# number of rings (size 3 to 8) (size 9 to 14) (size 15 to 20)
#    0.000    0.400    2.000    7.200    2.800    2.400 
#    0.000    0.000    0.000    0.000    0.000    0.000 
#    0.000    0.000    0.000    0.000    0.000    0.000 
#
# Total GULP energy -248147.734054 kJ/mol
# GULP energy per Si atom -12407.386703 kJ/mol
# Density = 2.135568 g / cm^3
# Si number density = 21.404395 Si / 1000 Ang^3
#
#
#
# Elastic Constant Matrix: (Units=GPa)
#
#
# Indices 1 2 3 4 5 6 
#
# 1 137.8842 33.3928 14.6355 0.0000 -11.1743 0.0000
# 2 33.3928 84.7681 20.5996 0.0000 12.9037 0.0000
# 3 14.6355 20.5996 67.2492 0.0000 -9.8227 0.0000
# 4 0.0000 0.0000 0.0000 40.3370 0.0000 -2.2652
# 5 -11.1743 12.9037 -9.8227 0.0000 38.8040 0.0000
# 6 0.0000 0.0000 0.0000 -2.2652 0.0000 43.8763
#
#
#
# Elastic Compliance Matrix: (Units=1/GPa)
#
#
# Indices 1 2 3 4 5 6 
#
# 1 0.008507 -0.003888 -0.000118 0.000000 0.003713 0.000000
# 2 -0.003888 0.015727 -0.005087 0.000000 -0.007637 0.000000
# 3 -0.000118 -0.005087 0.017337 0.000000 0.006046 0.000000
# 4 0.000000 0.000000 0.000000 0.024863 0.000000 0.001284
# 5 0.003713 -0.007637 0.006046 0.000000 0.030910 0.000000
# 6 0.000000 0.000000 0.000000 0.001284 0.000000 0.022858
#
#
# Mechanical properties :
#
#
# Convention : Reuss Voigt Hill
#
# Bulk Modulus (GPa) = 42.76101 47.46193 45.11147
# Shear Modulus (GPa) = 34.20359 39.35503 36.77931
#
# Velocity S-wave (km/s) = 4.00180 4.29259 4.14974
# Velocity P-wave (km/s) = 6.43223 6.84036 6.63943
#
# Compressibility (1/GPa) = 0.02338579
#
# Stress axis : x y z
#
# Youngs Moduli (GPa) = 117.54417 63.58448 57.67967
#
# Poissons Ratio (x) = 0.24720 0.00682
# Poissons Ratio (y) = 0.45698 0.29341
# Poissons Ratio (z) = 0.01390 0.32345
#
# Static dielectric constant tensor:
#      x y z
#    x 3.991900 0.000000 -0.075090 
#    y 0.000000 3.959110 0.000000 
#    z -0.075090 0.000000 3.625330 
# 
# 
# High freq. dielectric constant tensor:
#      x y z
#    x 1.863490 0.000000 0.002690 
#    y 0.000000 1.856610 0.000000 
#    z 0.002690 0.000000 1.843330 
# 
# From -- ./inp_files/15939.got.cif
#   From: 2010.06.25/outbox.cif.g09.slc.cpg/sg11_8_cif.got.tgz:15939.got - 2010.06.27 23:14:04.
