data_PCOD8077974
_publ_section_title
;
Structure prediction by ZEFSAII (Michael W. Deem and Ramdas Pophale) SiO2 
 PCOD8077974
Probable space group: P 21/M
;
_chemical_formula_sum "Si O2"
_cell_formula_units_Z 32
_cell_length_a 22.507164
_cell_length_b 16.548370
_cell_length_c 14.151086
_cell_angle_alpha 90.000000
_cell_angle_beta 19.434211
_cell_angle_gamma 90.000000
_cell_volume 1753.679575
_symmetry_space_group_name_H-M "P 21/M"
_symmetry_group_IT_number 11
_symmetry_cell_setting 'monoclinic'
loop_
_space_group_symop_operation_xyz
x,y,z
-x,1/2+y,-z
-x,-y,-z
x,1/2-y,z
loop_
_atom_site_type_symbol
_atom_site_label
_atom_site_fract_x
_atom_site_fract_y
_atom_site_fract_z
Si Si1 0.204454 0.160154 0.601184
Si Si2 0.806886 0.944163 0.699460
Si Si3 0.193001 0.555924 0.120435
Si Si4 0.797531 0.503659 0.509061
Si Si5 0.797520 0.003631 0.098124
Si Si6 0.572401 0.417927 0.700918
Si Si7 0.427571 0.082116 0.418462
Si Si8 0.795372 0.160152 0.214546
O O1 0.238944 0.250000 0.508080
O O2 0.254673 0.094500 0.446335
O O3 0.323464 0.150278 0.516904
O O4 0.999859 0.149529 0.939765
O O5 0.773983 0.000559 0.657087
O O6 0.999904 0.897533 0.397822
O O7 0.823783 0.000226 0.764099
O O8 0.631928 0.887438 0.973657
O O9 0.225669 0.499328 0.979835
O O10 0.368064 0.612657 0.869275
O O11 0.670314 0.436185 0.653451
O O12 0.000051 0.483742 0.174690
O O13 0.745366 0.094506 0.209961
O O14 0.670064 0.936207 0.335642
O O15 0.571816 0.500023 0.642129
O O16 0.676131 0.349720 0.487525
O O17 0.760994 0.250000 0.224708
#
# Coordination Sequence:
#
# PCOD8077974 Si02
#       8
#     4   4   4   4   4   4   4   4
#     4   9  17  29  45  66  90 113 140 179 228 276
#     4   9  17  28  43  65  91 118 150 185 217 253
#     4   9  17  28  43  65  91 118 150 185 217 253
#     4   9  16  27  45  68  91 115 146 185 227 266
#     4   9  16  27  45  68  91 115 146 185 227 266
#     4   9  16  27  45  66  88 113 143 181 224 266
#     4   9  16  27  45  66  88 113 143 181 224 266
#     4   9  17  29  45  66  90 113 140 179 228 276
#
# _framework density 18.247347999999999
#
# number of rings (size 3 to 8) (size 9 to 14) (size 15 to 20)
#    0.000    3.000    0.000    1.500    0.000    3.000 
#    0.000    1.250    0.000    2.250    0.000    1.750 
#    0.000   10.000    0.000    0.000    0.000    0.000 
#
# Total GULP energy -396445.196217 kJ/mol
# GULP energy per Si atom -12388.912382 kJ/mol
# Density = 1.820582 g / cm^3
# Si number density = 18.247348 Si / 1000 Ang^3
#
#
#
# Elastic Constant Matrix: (Units=GPa)
#
#
# Indices 1 2 3 4 5 6 
#
# 1 99.5837 15.1066 51.1915 0.0000 14.8220 0.0000
# 2 15.1066 38.0194 16.0669 0.0000 -0.2013 0.0000
# 3 51.1915 16.0669 108.1030 0.0000 -17.1858 0.0000
# 4 0.0000 0.0000 0.0000 12.9549 0.0000 -0.4827
# 5 14.8220 -0.2013 -17.1858 0.0000 20.9829 0.0000
# 6 0.0000 0.0000 0.0000 -0.4827 0.0000 11.8234
#
#
#
# Elastic Compliance Matrix: (Units=1/GPa)
#
#
# Indices 1 2 3 4 5 6 
#
# 1 0.021799 -0.002800 -0.014209 0.000000 -0.027063 0.000000
# 2 -0.002800 0.028666 -0.002962 0.000000 -0.000173 0.000000
# 3 -0.014209 -0.002962 0.020706 0.000000 0.026968 0.000000
# 4 0.000000 0.000000 0.000000 0.077309 0.000000 0.003157
# 5 -0.027063 -0.000173 0.026968 0.000000 0.088860 0.000000
# 6 0.000000 0.000000 0.000000 0.003157 0.000000 0.084707
#
#
# Mechanical properties :
#
#
# Convention : Reuss Voigt Hill
#
# Bulk Modulus (GPa) = 32.02151 45.60399 38.81275
# Shear Modulus (GPa) = 13.42650 20.04165 16.73407
#
# Velocity S-wave (km/s) = 2.71552 3.31770 3.03160
# Velocity P-wave (km/s) = 5.23629 6.30259 5.79402
#
# Compressibility (1/GPa) = 0.03122901
#
# Stress axis : x y z
#
# Youngs Moduli (GPa) = 45.87445 34.88481 48.29443
#
# Poissons Ratio (x) = 0.09768 0.68620
# Poissons Ratio (y) = 0.12846 0.14305
# Poissons Ratio (z) = 0.65182 0.10333
#
# Static dielectric constant tensor:
#      x y z
#    x 3.471610 0.000000 -0.224320 
#    y 0.000000 2.805360 0.000000 
#    z -0.224320 0.000000 3.997760 
# 
# 
# High freq. dielectric constant tensor:
#      x y z
#    x 1.713910 0.000000 -0.006620 
#    y 0.000000 1.631470 0.000000 
#    z -0.006620 0.000000 1.729410 
# 
# From -- ./inp_files/55934.got.cif
#   From: 2010.06.25/outbox.cif.g09.slc.cpg/sg11_28_cif.got.tgz:55934.got - 2010.06.27 23:14:04.
