data_PCOD8077131
_publ_section_title
;
Structure prediction by ZEFSAII (Michael W. Deem and Ramdas Pophale) SiO2 
 PCOD8077131
Probable space group: P 21/M
;
_chemical_formula_sum "Si O2"
_cell_formula_units_Z 28
_cell_length_a 27.558601
_cell_length_b 8.814564
_cell_length_c 10.172096
_cell_angle_alpha 90.000000
_cell_angle_beta 34.557867
_cell_angle_gamma 90.000000
_cell_volume 1401.631961
_symmetry_space_group_name_H-M "P 21/M"
_symmetry_group_IT_number 11
_symmetry_cell_setting 'monoclinic'
loop_
_space_group_symop_operation_xyz
x,y,z
-x,1/2+y,-z
-x,-y,-z
x,1/2-y,z
loop_
_atom_site_type_symbol
_atom_site_label
_atom_site_fract_x
_atom_site_fract_y
_atom_site_fract_z
Si Si1 0.556363 0.571378 0.487546
Si Si2 0.993064 0.427660 0.873457
Si Si3 0.195987 0.926309 0.783948
Si Si4 0.157510 0.573922 0.408274
Si Si5 0.265563 0.925331 0.913358
Si Si6 0.275795 0.074068 0.360826
Si Si7 0.473788 0.427311 0.922135
O O1 0.500000 0.500000 0.500000
O O2 0.542193 0.750000 0.520161
O O3 0.654380 0.533254 0.238953
O O4 0.531613 0.503163 0.682671
O O5 0.003866 0.250000 0.865399
O O6 0.067259 0.488781 0.613522
O O7 0.000000 0.500000 0.000000
O O8 0.902815 0.472077 0.010957
O O9 0.210611 0.750000 0.719378
O O10 0.222592 0.967893 0.871668
O O11 0.254827 0.023567 0.555506
O O12 0.140419 0.750000 0.469617
O O13 0.220351 0.520605 0.382742
O O14 0.196893 0.539319 0.178808
O O15 0.295016 0.750000 0.851787
O O16 0.253419 0.250000 0.394192
O O17 0.374895 0.041556 0.110776
O O18 0.494478 0.250000 0.880873
O O19 0.500000 0.500000 0.000000
#
# Coordination Sequence:
#
# PCOD8077131 Si02
#       7
#     4   4   4   4   4   4   4
#     4  12  25  42  65  92 124 166 211 258 314 373
#     4  11  22  38  62  92 124 160 205 251 301 362
#     4  10  22  40  63  89 122 162 202 249 308 365
#     4  11  23  39  62  90 121 159 202 250 306 363
#     4  10  23  43  64  90 124 162 205 254 310 372
#     4  11  23  38  60  89 119 156 205 254 300 360
#     4  11  24  41  62  92 126 162 207 258 314 373
#
# _framework density 19.976714999999999
#
# number of rings (size 3 to 8) (size 9 to 14) (size 15 to 20)
#    0.000    1.143    1.429    4.714    0.000    9.714 
#    0.000    0.000    0.000    0.000    0.000    0.000 
#    0.000    0.000    0.000    0.000    0.000    0.000 
#
# Total GULP energy -347409.366373 kJ/mol
# GULP energy per Si atom -12407.477370 kJ/mol
# Density = 1.993125 g / cm^3
# Si number density = 19.976715 Si / 1000 Ang^3
#
#
#
# Elastic Constant Matrix: (Units=GPa)
#
#
# Indices 1 2 3 4 5 6 
#
# 1 96.8822 35.5697 22.7599 0.0000 4.6953 0.0000
# 2 35.5697 102.1274 47.4455 0.0000 -5.2772 0.0000
# 3 22.7599 47.4455 93.3653 0.0000 5.1312 0.0000
# 4 0.0000 0.0000 0.0000 38.8848 0.0000 -2.1484
# 5 4.6953 -5.2772 5.1312 0.0000 40.4671 0.0000
# 6 0.0000 0.0000 0.0000 -2.1484 0.0000 26.6274
#
#
#
# Elastic Compliance Matrix: (Units=1/GPa)
#
#
# Indices 1 2 3 4 5 6 
#
# 1 0.012037 -0.003885 -0.000862 0.000000 -0.001794 0.000000
# 2 -0.003885 0.014331 -0.006508 0.000000 0.003145 0.000000
# 3 -0.000862 -0.006508 0.014369 0.000000 -0.002571 0.000000
# 4 0.000000 0.000000 0.000000 0.025832 0.000000 0.002084
# 5 -0.001794 0.003145 -0.002571 0.000000 0.025656 0.000000
# 6 0.000000 0.000000 0.000000 0.002084 0.000000 0.037724
#
#
# Mechanical properties :
#
#
# Convention : Reuss Voigt Hill
#
# Bulk Modulus (GPa) = 54.86088 55.99166 55.42627
# Shear Modulus (GPa) = 31.53885 33.63583 32.58734
#
# Velocity S-wave (km/s) = 3.97770 4.10781 4.04328
# Velocity P-wave (km/s) = 6.97267 7.11253 7.04295
#
# Compressibility (1/GPa) = 0.01822792
#
# Stress axis : x y z
#
# Youngs Moduli (GPa) = 83.07375 69.77960 69.59294
#
# Poissons Ratio (x) = 0.27109 0.05996
# Poissons Ratio (y) = 0.32274 0.45293
# Poissons Ratio (z) = 0.07158 0.45415
#
# Static dielectric constant tensor:
#      x y z
#    x 3.290750 0.000000 0.863690 
#    y 0.000000 3.696140 0.000000 
#    z 0.863690 0.000000 1.530710 
# 
# 
# High freq. dielectric constant tensor:
#      x y z
#    x 1.788900 0.000000 -0.001810 
#    y 0.000000 1.788090 0.000000 
#    z -0.001810 0.000000 1.795140 
# 
# From -- ./inp_files/28390.got.cif
#   From: 2010.06.25/outbox.cif.g09.slc.cpg/sg11_15_cif.got.tgz:28390.got - 2010.06.27 23:14:04.
