data_PCOD8077302
_publ_section_title
;
Structure prediction by ZEFSAII (Michael W. Deem and Ramdas Pophale) SiO2 
 PCOD8077302
Probable space group: P 21/M
;
_chemical_formula_sum "Si O2"
_cell_formula_units_Z 18
_cell_length_a 12.976561
_cell_length_b 10.746933
_cell_length_c 18.090830
_cell_angle_alpha 90.000000
_cell_angle_beta 159.872176
_cell_angle_gamma 90.000000
_cell_volume 868.174710
_symmetry_space_group_name_H-M "P 21/M"
_symmetry_group_IT_number 11
_symmetry_cell_setting 'monoclinic'
loop_
_space_group_symop_operation_xyz
x,y,z
-x,1/2+y,-z
-x,-y,-z
x,1/2-y,z
loop_
_atom_site_type_symbol
_atom_site_label
_atom_site_fract_x
_atom_site_fract_y
_atom_site_fract_z
Si Si1 0.631266 0.459964 0.167976
Si Si2 0.282865 0.111777 0.634920
Si Si3 0.325176 0.750000 0.316967
Si Si4 0.799982 0.750000 0.068542
Si Si5 0.579151 0.250000 0.459190
Si Si6 0.348610 0.993669 0.240324
O O1 0.700715 0.578256 0.267059
O O2 0.950231 0.391689 0.375221
O O3 0.500000 0.500000 0.000000
O O4 0.398517 0.372233 0.054126
O O5 0.408796 0.250000 0.711621
O O6 0.501274 0.020004 0.738285
O O7 0.523623 0.750000 0.524602
O O8 0.427852 0.873774 0.343313
O O9 0.967867 0.750000 0.100464
O O10 0.059584 0.750000 0.305910
O O11 0.456781 0.375349 0.342813
O O12 0.000000 0.000000 0.000000
#
# Coordination Sequence:
#
# PCOD8077302 Si02
#       6
#     4   4   2   2   2   4
#     4  11  24  45  70 100 137 183 231 286 351 413
#     4  11  25  44  70 103 139 178 233 291 344 418
#     4  10  23  42  68  97 140 171 232 280 341 416
#     4  10  22  43  67 100 131 177 231 277 347 413
#     4  10  25  41  69  99 133 186 229 281 338 423
#     4  12  23  45  67 102 140 181 225 288 351 409
#
# _framework density 20.733153999999999
#
# number of rings (size 3 to 8) (size 9 to 14) (size 15 to 20)
#    0.667    0.444    2.222    4.000    1.556    0.889 
#    6.000    0.000    0.000    0.000    0.000    0.000 
#    0.000    0.000    0.000    0.000    0.000    0.000 
#
# Total GULP energy -223103.363282 kJ/mol
# GULP energy per Si atom -12394.631293 kJ/mol
# Density = 2.068596 g / cm^3
# Si number density = 20.733154 Si / 1000 Ang^3
#
#
#
# Elastic Constant Matrix: (Units=GPa)
#
#
# Indices 1 2 3 4 5 6 
#
# 1 107.3493 42.1569 33.6428 0.0000 -8.9777 0.0000
# 2 42.1569 160.1277 40.2923 0.0000 -11.7102 0.0000
# 3 33.6428 40.2923 125.0741 0.0000 -1.5513 0.0000
# 4 0.0000 0.0000 0.0000 39.5019 0.0000 13.7029
# 5 -8.9777 -11.7102 -1.5513 0.0000 43.4683 0.0000
# 6 0.0000 0.0000 0.0000 13.7029 0.0000 48.2865
#
#
#
# Elastic Compliance Matrix: (Units=1/GPa)
#
#
# Indices 1 2 3 4 5 6 
#
# 1 0.011021 -0.002224 -0.002228 0.000000 0.001597 0.000000
# 2 -0.002224 0.007381 -0.001761 0.000000 0.001466 0.000000
# 3 -0.002228 -0.001761 0.009154 0.000000 -0.000608 0.000000
# 4 0.000000 0.000000 0.000000 0.028079 0.000000 -0.007969
# 5 0.001597 0.001466 -0.000608 0.000000 0.023709 0.000000
# 6 0.000000 0.000000 0.000000 -0.007969 0.000000 0.022971
#
#
# Mechanical properties :
#
#
# Convention : Reuss Voigt Hill
#
# Bulk Modulus (GPa) = 66.09732 69.41502 67.75617
# Shear Modulus (GPa) = 41.74146 44.68193 43.21170
#
# Velocity S-wave (km/s) = 4.49182 4.64734 4.57024
# Velocity P-wave (km/s) = 7.67145 7.89619 7.78463
#
# Compressibility (1/GPa) = 0.01512921
#
# Stress axis : x y z
#
# Youngs Moduli (GPa) = 90.73903 135.48403 109.23626
#
# Poissons Ratio (x) = 0.30131 0.24339
# Poissons Ratio (y) = 0.20180 0.19241
# Poissons Ratio (z) = 0.20218 0.23864
#
# Static dielectric constant tensor:
#      x y z
#    x 3.811340 0.000000 -0.013650 
#    y 0.000000 3.736710 0.000000 
#    z -0.013650 0.000000 3.616880 
# 
# 
# High freq. dielectric constant tensor:
#      x y z
#    x 1.814650 0.000000 0.004580 
#    y 0.000000 1.824390 0.000000 
#    z 0.004580 0.000000 1.810780 
# 
# From -- ./inp_files/65331.got.cif
#   From: 2010.06.25/outbox.cif.g09.slc.cpg/sg11_33_cif.got.tgz:65331.got - 2010.06.27 23:14:04.
