data_PCOD8077652
_publ_section_title
;
Structure prediction by ZEFSAII (Michael W. Deem and Ramdas Pophale) SiO2 
 PCOD8077652
Probable space group: P 21/M
;
_chemical_formula_sum "Si O2"
_cell_formula_units_Z 28
_cell_length_a 11.422712
_cell_length_b 15.025544
_cell_length_c 9.071745
_cell_angle_alpha 90.000000
_cell_angle_beta 121.825011
_cell_angle_gamma 90.000000
_cell_volume 1322.929677
_symmetry_space_group_name_H-M "P 21/M"
_symmetry_group_IT_number 11
_symmetry_cell_setting 'monoclinic'
loop_
_space_group_symop_operation_xyz
x,y,z
-x,1/2+y,-z
-x,-y,-z
x,1/2-y,z
loop_
_atom_site_type_symbol
_atom_site_label
_atom_site_fract_x
_atom_site_fract_y
_atom_site_fract_z
Si Si1 0.244516 0.149935 0.281516
Si Si2 0.552407 0.349886 0.402227
Si Si3 0.048933 0.441645 0.668856
Si Si4 0.811450 0.490313 0.955849
Si Si5 0.499088 0.989042 0.171012
Si Si6 0.838906 0.147634 0.735399
Si Si7 0.731597 0.852234 0.377292
O O1 0.205109 0.250000 0.205890
O O2 0.409999 0.137469 0.395352
O O3 0.194135 0.130029 0.415135
O O4 0.171374 0.084027 0.118703
O O5 0.564285 0.250000 0.344132
O O6 0.560312 0.419030 0.274188
O O7 0.677649 0.368398 0.596735
O O8 0.168350 0.376461 0.690717
O O9 0.000000 0.500000 0.500000
O O10 0.924283 0.382390 0.648187
O O11 0.109915 0.504916 0.836960
O O12 0.652496 0.467905 0.872465
O O13 0.880282 0.412256 0.903964
O O14 0.591935 0.907121 0.279805
O O15 0.500000 0.000000 0.000000
O O16 0.871570 0.250000 0.793830
O O17 0.688642 0.750000 0.334027
#
# Coordination Sequence:
#
# PCOD8077652 Si02
#       7
#     4   4   4   4   4   4   4
#     4   9  19  37  65  96 122 155 203 261 320 373
#     4   9  19  37  62  91 122 159 203 254 311 372
#     4  12  25  43  64  87 126 168 214 258 311 368
#     4  11  23  41  66  92 122 161 211 262 311 369
#     4  11  21  37  61  96 128 159 202 257 321 381
#     4  11  24  42  64  90 124 168 212 252 302 370
#     4  11  23  40  63  94 130 164 201 255 319 378
#
# _framework density 21.165147000000001
#
# number of rings (size 3 to 8) (size 9 to 14) (size 15 to 20)
#    0.000    1.429    1.429    4.286    0.000    5.714 
#    0.000    2.857    0.000    0.000    0.000    0.000 
#    0.000    0.000    0.000    0.000    0.000    0.000 
#
# Total GULP energy -347308.494023 kJ/mol
# GULP energy per Si atom -12403.874787 kJ/mol
# Density = 2.111697 g / cm^3
# Si number density = 21.165147 Si / 1000 Ang^3
#
#
#
# Elastic Constant Matrix: (Units=GPa)
#
#
# Indices 1 2 3 4 5 6 
#
# 1 86.7204 47.1950 32.1870 0.0000 -13.1792 0.0000
# 2 47.1950 143.9739 78.6585 0.0000 -16.2373 0.0000
# 3 32.1870 78.6585 130.6743 0.0000 -17.8313 0.0000
# 4 0.0000 0.0000 0.0000 17.1445 0.0000 -9.1693
# 5 -13.1792 -16.2373 -17.8313 0.0000 36.5258 0.0000
# 6 0.0000 0.0000 0.0000 -9.1693 0.0000 29.8679
#
#
#
# Elastic Compliance Matrix: (Units=1/GPa)
#
#
# Indices 1 2 3 4 5 6 
#
# 1 0.014441 -0.003982 -0.000740 0.000000 0.003079 0.000000
# 2 -0.003982 0.011543 -0.005853 0.000000 0.000837 0.000000
# 3 -0.000740 -0.005853 0.011749 0.000000 0.002867 0.000000
# 4 0.000000 0.000000 0.000000 0.069786 0.000000 0.021424
# 5 0.003079 0.000837 0.002867 0.000000 0.030261 0.000000
# 6 0.000000 0.000000 0.000000 0.021424 0.000000 0.040058
#
#
# Mechanical properties :
#
#
# Convention : Reuss Voigt Hill
#
# Bulk Modulus (GPa) = 60.30259 75.27219 67.78739
# Shear Modulus (GPa) = 24.44787 30.26285 27.35536
#
# Velocity S-wave (km/s) = 3.40236 3.78543 3.59900
# Velocity P-wave (km/s) = 6.63235 7.39915 7.02622
#
# Compressibility (1/GPa) = 0.01658304
#
# Stress axis : x y z
#
# Youngs Moduli (GPa) = 69.24665 86.62892 85.11068
#
# Poissons Ratio (x) = 0.34500 0.06295
# Poissons Ratio (y) = 0.27577 0.49818
# Poissons Ratio (z) = 0.05122 0.50707
#
# Static dielectric constant tensor:
#      x y z
#    x 4.110480 0.000000 -0.108900 
#    y 0.000000 3.840400 0.000000 
#    z -0.108900 0.000000 3.633690 
# 
# 
# High freq. dielectric constant tensor:
#      x y z
#    x 1.840540 0.000000 -0.002250 
#    y 0.000000 1.834530 0.000000 
#    z -0.002250 0.000000 1.826150 
# 
# From -- ./inp_files/17962.got.cif
#   From: 2010.06.25/outbox.cif.g09.slc.cpg/sg11_9_cif.got.tgz:17962.got - 2010.06.27 23:14:04.
