data_PCOD8077922
_publ_section_title
;
Structure prediction by ZEFSAII (Michael W. Deem and Ramdas Pophale) SiO2 
 PCOD8077922
Probable space group: P 21/M
;
_chemical_formula_sum "Si O2"
_cell_formula_units_Z 16
_cell_length_a 8.702155
_cell_length_b 16.531112
_cell_length_c 10.017004
_cell_angle_alpha 90.000000
_cell_angle_beta 150.258693
_cell_angle_gamma 90.000000
_cell_volume 714.862684
_symmetry_space_group_name_H-M "P 21/M"
_symmetry_group_IT_number 11
_symmetry_cell_setting 'monoclinic'
loop_
_space_group_symop_operation_xyz
x,y,z
-x,1/2+y,-z
-x,-y,-z
x,1/2-y,z
loop_
_atom_site_type_symbol
_atom_site_label
_atom_site_fract_x
_atom_site_fract_y
_atom_site_fract_z
Si Si1 0.864549 0.343931 0.783570
Si Si2 0.459309 0.899720 0.716768
Si Si3 0.494832 0.912818 0.247836
Si Si4 0.847214 0.342820 0.252431
O O1 0.895261 0.250000 0.841378
O O2 0.613302 0.357403 0.478574
O O3 0.768366 0.391631 0.843727
O O4 0.189654 0.379692 0.978066
O O5 0.228189 0.863873 0.652054
O O6 0.403147 0.994819 0.661881
O O7 0.790973 0.857293 0.500092
O O8 0.361613 0.898412 0.000021
O O9 0.769828 0.250000 0.162692
#
# Coordination Sequence:
#
# PCOD8077922 Si02
#       4
#     4   4   4   4
#     4  12  24  42  66  96 130 170 214 264 318 378
#     4  12  25  44  67  96 130 170 214 264 319 380
#     4  12  25  44  67  96 130 170 214 264 319 380
#     4  12  24  42  66  96 130 170 214 264 318 378
#
# _framework density 22.381920000000001
#
# number of rings (size 3 to 8) (size 9 to 14) (size 15 to 20)
#    0.000    0.000    0.000   12.000    0.000    0.000 
#    0.000    0.000    0.000    0.000    0.000    0.000 
#    0.000    0.000    0.000    0.000    0.000    0.000 
#
# Total GULP energy -198626.492598 kJ/mol
# GULP energy per Si atom -12414.155787 kJ/mol
# Density = 2.233098 g / cm^3
# Si number density = 22.381920 Si / 1000 Ang^3
#
#
#
# Elastic Constant Matrix: (Units=GPa)
#
#
# Indices 1 2 3 4 5 6 
#
# 1 87.6453 28.4565 17.9303 0.0000 3.5796 0.0000
# 2 28.4565 96.2473 15.7936 0.0000 1.0799 0.0000
# 3 17.9303 15.7936 91.1621 0.0000 -0.5992 0.0000
# 4 0.0000 0.0000 0.0000 31.9566 0.0000 0.3187
# 5 3.5796 1.0799 -0.5992 0.0000 36.1444 0.0000
# 6 0.0000 0.0000 0.0000 0.3187 0.0000 35.3274
#
#
#
# Elastic Compliance Matrix: (Units=1/GPa)
#
#
# Indices 1 2 3 4 5 6 
#
# 1 0.012999 -0.003508 -0.001957 0.000000 -0.001215 0.000000
# 2 -0.003508 0.011645 -0.001328 0.000000 -0.000022 0.000000
# 3 -0.001957 -0.001328 0.011587 0.000000 0.000426 0.000000
# 4 0.000000 0.000000 0.000000 0.031295 0.000000 -0.000282
# 5 -0.001215 -0.000022 0.000426 0.000000 0.027795 0.000000
# 6 0.000000 0.000000 0.000000 -0.000282 0.000000 0.028309
#
#
# Mechanical properties :
#
#
# Convention : Reuss Voigt Hill
#
# Bulk Modulus (GPa) = 44.15908 44.37950 44.26929
# Shear Modulus (GPa) = 34.53880 34.87728 34.70804
#
# Velocity S-wave (km/s) = 3.93256 3.95179 3.94219
# Velocity P-wave (km/s) = 6.35553 6.37914 6.36735
#
# Compressibility (1/GPa) = 0.02264540
#
# Stress axis : x y z
#
# Youngs Moduli (GPa) = 76.93089 85.87139 86.30253
#
# Poissons Ratio (x) = 0.30128 0.16888
# Poissons Ratio (y) = 0.26991 0.11458
# Poissons Ratio (z) = 0.15054 0.11400
#
# Static dielectric constant tensor:
#      x y z
#    x 4.013930 0.000000 0.028990 
#    y 0.000000 4.121430 0.000000 
#    z 0.028990 0.000000 3.980280 
# 
# 
# High freq. dielectric constant tensor:
#      x y z
#    x 1.894060 0.000000 0.000590 
#    y 0.000000 1.896490 0.000000 
#    z 0.000590 0.000000 1.890850 
# 
# From -- ./inp_files/1679.got.cif
#   From: 2010.06.25/outbox.cif.g09.slc.cpg/sg11_1_cif.got.tgz:1679.got - 2010.06.27 23:14:04.
