data_PCOD8077175
_publ_section_title
;
Structure prediction by ZEFSAII (Michael W. Deem and Ramdas Pophale) SiO2 
 PCOD8077175
Probable space group: P 21/M
;
_chemical_formula_sum "Si O2"
_cell_formula_units_Z 32
_cell_length_a 16.764396
_cell_length_b 14.478132
_cell_length_c 11.519421
_cell_angle_alpha 90.000000
_cell_angle_beta 35.462607
_cell_angle_gamma 90.000000
_cell_volume 1622.136871
_symmetry_space_group_name_H-M "P 21/M"
_symmetry_group_IT_number 11
_symmetry_cell_setting 'monoclinic'
loop_
_space_group_symop_operation_xyz
x,y,z
-x,1/2+y,-z
-x,-y,-z
x,1/2-y,z
loop_
_atom_site_type_symbol
_atom_site_label
_atom_site_fract_x
_atom_site_fract_y
_atom_site_fract_z
Si Si1 0.871099 0.859442 0.597960
Si Si2 0.726151 0.859323 0.535690
Si Si3 0.905569 0.356299 0.348462
Si Si4 0.836016 0.140471 0.682600
Si Si5 0.413255 0.641400 0.870354
Si Si6 0.359264 0.991080 0.733171
Si Si7 0.847236 0.495411 0.225338
Si Si8 0.215496 0.356890 0.046965
O O1 0.871893 0.750000 0.599241
O O2 0.791831 0.895452 0.578383
O O3 0.796462 0.892303 0.805228
O O4 0.029027 0.896384 0.407662
O O5 0.746433 0.750000 0.494636
O O6 0.565939 0.887280 0.728486
O O7 0.800653 0.908210 0.339100
O O8 0.866303 0.250000 0.375998
O O9 0.842745 0.395408 0.542959
O O10 0.832046 0.413014 0.334855
O O11 0.070034 0.368987 0.154313
O O12 0.843106 0.250000 0.672461
O O13 0.695324 0.104318 0.905700
O O14 0.400667 0.750000 0.869614
O O15 0.370659 0.598386 0.799306
O O16 0.242149 0.971005 0.779632
O O17 0.500000 0.000000 0.500000
O O18 0.328703 0.082324 0.846144
O O19 0.000000 0.500000 0.000000
O O20 0.262646 0.250000 0.986608
#
# Coordination Sequence:
#
# PCOD8077175 Si02
#       8
#     4   4   4   4   4   4   4   4
#     4   8  16  34  62  93 113 139 194 245 287 349
#     4  10  22  41  62  85 118 156 193 238 293 350
#     4   9  19  39  64  90 119 150 190 244 297 343
#     4   8  16  34  62  91 115 144 188 240 296 350
#     4  10  22  41  62  84 118 159 190 235 300 349
#     4  12  25  42  57  84 121 155 204 245 278 344
#     4  12  25  40  59  88 117 153 206 246 279 338
#     4   9  19  39  66  88 115 156 193 236 296 351
#
# _framework density 19.727065
#
# number of rings (size 3 to 8) (size 9 to 14) (size 15 to 20)
#    0.000    2.250    2.500    1.500    1.750    3.000 
#    2.250    3.750    0.000    0.000    0.000    0.000 
#    0.000    0.000    0.000    0.000    0.000    0.000 
#
# Total GULP energy -396766.000969 kJ/mol
# GULP energy per Si atom -12398.937530 kJ/mol
# Density = 1.968217 g / cm^3
# Si number density = 19.727065 Si / 1000 Ang^3
#
#
#
# Elastic Constant Matrix: (Units=GPa)
#
#
# Indices 1 2 3 4 5 6 
#
# 1 143.8912 38.8303 67.1797 0.0000 -3.4487 0.0000
# 2 38.8303 55.9636 44.4998 0.0000 -2.0716 0.0000
# 3 67.1797 44.4998 173.6300 0.0000 -5.0274 0.0000
# 4 0.0000 0.0000 0.0000 26.1645 0.0000 2.7912
# 5 -3.4487 -2.0716 -5.0274 0.0000 25.7225 0.0000
# 6 0.0000 0.0000 0.0000 2.7912 0.0000 23.9445
#
#
#
# Elastic Compliance Matrix: (Units=1/GPa)
#
#
# Indices 1 2 3 4 5 6 
#
# 1 0.009314 -0.004510 -0.002436 0.000000 0.000409 0.000000
# 2 -0.004510 0.024639 -0.004555 0.000000 0.000489 0.000000
# 3 -0.002436 -0.004555 0.007894 0.000000 0.000849 0.000000
# 4 0.000000 0.000000 0.000000 0.038701 0.000000 -0.004511
# 5 0.000409 0.000489 0.000849 0.000000 0.039137 0.000000
# 6 0.000000 0.000000 0.000000 -0.004511 0.000000 0.042289
#
#
# Mechanical properties :
#
#
# Convention : Reuss Voigt Hill
#
# Bulk Modulus (GPa) = 53.06943 74.94494 64.00719
# Shear Modulus (GPa) = 26.14275 30.03130 28.08702
#
# Velocity S-wave (km/s) = 3.64431 3.90595 3.77740
# Velocity P-wave (km/s) = 6.68343 7.64299 7.17926
#
# Compressibility (1/GPa) = 0.01884324
#
# Stress axis : x y z
#
# Youngs Moduli (GPa) = 107.36604 40.58663 126.67970
#
# Poissons Ratio (x) = 0.18306 0.30857
# Poissons Ratio (y) = 0.48427 0.57707
# Poissons Ratio (z) = 0.26153 0.18489
#
# Static dielectric constant tensor:
#      x y z
#    x 3.725740 0.000000 0.024860 
#    y 0.000000 3.451580 0.000000 
#    z 0.024860 0.000000 3.926590 
# 
# 
# High freq. dielectric constant tensor:
#      x y z
#    x 1.768880 0.000000 0.007140 
#    y 0.000000 1.764590 0.000000 
#    z 0.007140 0.000000 1.771510 
# 
# From -- ./inp_files/41633.got.cif
#   From: 2010.06.25/outbox.cif.g09.slc.cpg/sg11_21_cif.got.tgz:41633.got - 2010.06.27 23:14:04.
