data_PCOD8077283
_publ_section_title
;
Structure prediction by ZEFSAII (Michael W. Deem and Ramdas Pophale) SiO2 
 PCOD8077283
Probable space group: P 21/M
;
_chemical_formula_sum "Si O2"
_cell_formula_units_Z 32
_cell_length_a 22.217494
_cell_length_b 13.939343
_cell_length_c 15.008516
_cell_angle_alpha 90.000000
_cell_angle_beta 19.300542
_cell_angle_gamma 90.000000
_cell_volume 1536.304265
_symmetry_space_group_name_H-M "P 21/M"
_symmetry_group_IT_number 11
_symmetry_cell_setting 'monoclinic'
loop_
_space_group_symop_operation_xyz
x,y,z
-x,1/2+y,-z
-x,-y,-z
x,1/2-y,z
loop_
_atom_site_type_symbol
_atom_site_label
_atom_site_fract_x
_atom_site_fract_y
_atom_site_fract_z
Si Si1 0.153175 0.638607 0.844653
Si Si2 0.648013 0.638540 0.854620
Si Si3 0.309535 0.473874 0.724842
Si Si4 0.121726 0.526024 0.412661
Si Si5 0.820041 0.636025 0.929934
Si Si6 0.500743 0.362084 0.749089
Si Si7 0.478366 0.861106 0.902691
Si Si8 0.259588 0.361114 0.621264
O O1 0.172131 0.750000 0.846616
O O2 0.194705 0.572353 0.872287
O O3 0.298306 0.608366 0.565086
O O4 0.954021 0.615327 0.086386
O O5 0.708546 0.750000 0.773254
O O6 0.828266 0.572594 0.605155
O O7 0.534418 0.615157 0.925413
O O8 0.524364 0.608312 0.112685
O O9 0.500000 0.500000 0.500000
O O10 0.344755 0.421790 0.581912
O O11 0.203646 0.401746 0.937048
O O12 0.000000 0.500000 0.500000
O O13 0.014856 0.597783 0.626169
O O14 0.301747 0.578172 0.124938
O O15 0.826540 0.750000 0.923145
O O16 0.658888 0.594900 0.091108
O O17 0.477859 0.250000 0.772212
O O18 0.430942 0.750000 0.957670
O O19 0.640607 0.891581 0.609486
O O20 0.292049 0.250000 0.596424
#
# Coordination Sequence:
#
# PCOD8077283 Si02
#       8
#     4   4   4   4   4   4   4   4
#     4  10  22  42  67  96 131 174 219 271 332 390
#     4  10  22  42  67  96 131 174 219 271 332 390
#     4  12  25  40  68  97 132 175 220 269 329 391
#     4  12  25  40  68  97 132 175 220 269 329 391
#     4  11  24  43  64  96 137 175 221 272 326 390
#     4   9  18  37  65  94 129 167 212 270 323 384
#     4  10  24  45  67  94 133 173 217 274 330 389
#     4  10  24  45  67  94 133 173 217 274 330 389
#
# _framework density 20.829207
#
# number of rings (size 3 to 8) (size 9 to 14) (size 15 to 20)
#    0.000    1.500    2.500    1.500    5.250    2.000 
#    0.000    2.500    0.000    0.000    0.000    0.000 
#    0.000    0.000    0.000    0.000    0.000    0.000 
#
# Total GULP energy -396871.518951 kJ/mol
# GULP energy per Si atom -12402.234967 kJ/mol
# Density = 2.078180 g / cm^3
# Si number density = 20.829207 Si / 1000 Ang^3
#
#
#
# Elastic Constant Matrix: (Units=GPa)
#
#
# Indices 1 2 3 4 5 6 
#
# 1 138.5134 70.1316 60.7764 0.0000 -0.4848 0.0000
# 2 70.1316 102.3645 69.8063 0.0000 -0.8650 0.0000
# 3 60.7764 69.8063 137.4441 0.0000 -1.6029 0.0000
# 4 0.0000 0.0000 0.0000 37.1447 0.0000 -2.8743
# 5 -0.4848 -0.8650 -1.6029 0.0000 37.0398 0.0000
# 6 0.0000 0.0000 0.0000 -2.8743 0.0000 39.0324
#
#
#
# Elastic Compliance Matrix: (Units=1/GPa)
#
#
# Indices 1 2 3 4 5 6 
#
# 1 0.011287 -0.006623 -0.001628 0.000000 -0.000077 0.000000
# 2 -0.006623 0.018832 -0.006635 0.000000 0.000066 0.000000
# 3 -0.001628 -0.006635 0.011369 0.000000 0.000316 0.000000
# 4 0.000000 0.000000 0.000000 0.027076 0.000000 0.001994
# 5 -0.000077 0.000066 0.000316 0.000000 0.027012 0.000000
# 6 0.000000 0.000000 0.000000 0.001994 0.000000 0.025767
#
#
# Mechanical properties :
#
#
# Convention : Reuss Voigt Hill
#
# Bulk Modulus (GPa) = 85.35772 86.63897 85.99834
# Shear Modulus (GPa) = 32.25368 34.48391 33.36880
#
# Velocity S-wave (km/s) = 3.93935 4.07327 4.00687
# Velocity P-wave (km/s) = 7.85876 7.98794 7.92361
#
# Compressibility (1/GPa) = 0.01171540
#
# Stress axis : x y z
#
# Youngs Moduli (GPa) = 88.59646 53.10086 87.95787
#
# Poissons Ratio (x) = 0.35171 0.14319
# Poissons Ratio (y) = 0.58682 0.58360
# Poissons Ratio (z) = 0.14423 0.35232
#
# Static dielectric constant tensor:
#      x y z
#    x 3.892390 0.000000 0.227880 
#    y 0.000000 4.022620 0.000000 
#    z 0.227880 0.000000 4.043670 
# 
# 
# High freq. dielectric constant tensor:
#      x y z
#    x 1.811760 0.000000 0.002330 
#    y 0.000000 1.835130 0.000000 
#    z 0.002330 0.000000 1.812980 
# 
# From -- ./inp_files/54979.got.cif
#   From: 2010.06.25/outbox.cif.g09.slc.cpg/sg11_28_cif.got.tgz:54979.got - 2010.06.27 23:14:04.
