data_PCOD8077263
_publ_section_title
;
Structure prediction by ZEFSAII (Michael W. Deem and Ramdas Pophale) SiO2 
 PCOD8077263
Probable space group: P 21/M
;
_chemical_formula_sum "Si O2"
_cell_formula_units_Z 28
_cell_length_a 8.816157
_cell_length_b 20.097301
_cell_length_c 13.241412
_cell_angle_alpha 90.000000
_cell_angle_beta 33.065741
_cell_angle_gamma 90.000000
_cell_volume 1280.048663
_symmetry_space_group_name_H-M "P 21/M"
_symmetry_group_IT_number 11
_symmetry_cell_setting 'monoclinic'
loop_
_space_group_symop_operation_xyz
x,y,z
-x,1/2+y,-z
-x,-y,-z
x,1/2-y,z
loop_
_atom_site_type_symbol
_atom_site_label
_atom_site_fract_x
_atom_site_fract_y
_atom_site_fract_z
Si Si1 0.043534 0.876255 0.511114
Si Si2 0.129259 0.060968 0.188570
Si Si3 0.606997 0.675773 0.243412
Si Si4 0.259607 0.583177 0.179666
Si Si5 0.971406 0.425702 0.061317
Si Si6 0.814523 0.675395 0.344339
Si Si7 0.496380 0.674068 0.723346
O O1 0.280279 0.821522 0.399648
O O2 0.136927 0.920112 0.362251
O O3 0.022521 0.920490 0.623046
O O4 0.750769 0.839697 0.656937
O O5 0.916951 0.069322 0.212323
O O6 0.210616 0.984714 0.149060
O O7 0.413740 0.102048 0.007761
O O8 0.726137 0.750000 0.152803
O O9 0.654183 0.655523 0.332892
O O10 0.744263 0.616348 0.103559
O O11 0.098462 0.636324 0.202144
O O12 0.742184 0.381846 0.128483
O O13 0.000000 0.500000 0.000000
O O14 0.921695 0.750000 0.281301
O O15 0.593142 0.664093 0.555483
O O16 0.387081 0.750000 0.802352
#
# Coordination Sequence:
#
# PCOD8077263 Si02
#       7
#     4   4   4   4   4   4   4
#     4  11  23  42  71  99 131 174 219 273 333 389
#     4  11  24  41  66  95 135 175 218 271 330 395
#     4  11  23  42  66  96 136 174 219 276 331 389
#     4  10  22  42  63  97 134 170 218 274 329 393
#     4  12  26  43  66  98 137 177 222 275 329 394
#     4   9  20  40  66  92 127 171 220 275 329 388
#     4  10  23  44  68  97 131 172 223 271 326 397
#
# _framework density 21.874167
#
# number of rings (size 3 to 8) (size 9 to 14) (size 15 to 20)
#    0.000    1.429    1.429    3.000    6.000    2.857 
#    0.000    7.857    0.000    0.000    0.000    0.000 
#    0.000    0.000    0.000    0.000    0.000    0.000 
#
# Total GULP energy -347073.525513 kJ/mol
# GULP energy per Si atom -12395.483054 kJ/mol
# Density = 2.182438 g / cm^3
# Si number density = 21.874167 Si / 1000 Ang^3
#
#
#
# Elastic Constant Matrix: (Units=GPa)
#
#
# Indices 1 2 3 4 5 6 
#
# 1 137.6556 45.0226 33.4895 0.0000 -9.8059 0.0000
# 2 45.0226 118.1355 40.8835 0.0000 -12.0103 0.0000
# 3 33.4895 40.8835 76.3955 0.0000 -18.5727 0.0000
# 4 0.0000 0.0000 0.0000 34.2175 0.0000 -3.9264
# 5 -9.8059 -12.0103 -18.5727 0.0000 35.1375 0.0000
# 6 0.0000 0.0000 0.0000 -3.9264 0.0000 24.6183
#
#
#
# Elastic Compliance Matrix: (Units=1/GPa)
#
#
# Indices 1 2 3 4 5 6 
#
# 1 0.008673 -0.002435 -0.002424 0.000000 0.000307 0.000000
# 2 -0.002435 0.011088 -0.004716 0.000000 0.000618 0.000000
# 3 -0.002424 -0.004716 0.018497 0.000000 0.007488 0.000000
# 4 0.000000 0.000000 0.000000 0.029770 0.000000 0.004748
# 5 0.000307 0.000618 0.007488 0.000000 0.032714 0.000000
# 6 0.000000 0.000000 0.000000 0.004748 0.000000 0.041377
#
#
# Mechanical properties :
#
#
# Convention : Reuss Voigt Hill
#
# Bulk Modulus (GPa) = 52.33809 63.44200 57.89004
# Shear Modulus (GPa) = 29.82618 32.98073 31.40345
#
# Velocity S-wave (km/s) = 3.69661 3.88719 3.79310
# Velocity P-wave (km/s) = 6.49606 7.01520 6.76062
#
# Compressibility (1/GPa) = 0.01910655
#
# Stress axis : x y z
#
# Youngs Moduli (GPa) = 115.30659 90.18929 54.06350
#
# Poissons Ratio (x) = 0.21962 0.13105
# Poissons Ratio (y) = 0.28078 0.25497
# Poissons Ratio (z) = 0.27951 0.42534
#
# Static dielectric constant tensor:
#      x y z
#    x 4.118180 0.000000 0.033360 
#    y 0.000000 3.837300 0.000000 
#    z 0.033360 0.000000 3.865780 
# 
# 
# High freq. dielectric constant tensor:
#      x y z
#    x 1.878440 0.000000 -0.000870 
#    y 0.000000 1.853690 0.000000 
#    z -0.000870 0.000000 1.851190 
# 
# From -- ./inp_files/48315.got.cif
#   From: 2010.06.25/outbox.cif.g09.slc.cpg/sg11_25_cif.got.tgz:48315.got - 2010.06.27 23:14:04.
