data_PCOD8077946
_publ_section_title
;
Structure prediction by ZEFSAII (Michael W. Deem and Ramdas Pophale) SiO2 
 PCOD8077946
Probable space group: P 21/M
;
_chemical_formula_sum "Si O2"
_cell_formula_units_Z 24
_cell_length_a 9.723378
_cell_length_b 9.418077
_cell_length_c 21.245863
_cell_angle_alpha 90.000000
_cell_angle_beta 46.647133
_cell_angle_gamma 90.000000
_cell_volume 1414.723620
_symmetry_space_group_name_H-M "P 21/M"
_symmetry_group_IT_number 11
_symmetry_cell_setting 'monoclinic'
loop_
_space_group_symop_operation_xyz
x,y,z
-x,1/2+y,-z
-x,-y,-z
x,1/2-y,z
loop_
_atom_site_type_symbol
_atom_site_label
_atom_site_fract_x
_atom_site_fract_y
_atom_site_fract_z
Si Si1 0.992642 0.416677 0.066634
Si Si2 0.541953 0.410130 0.581405
Si Si3 0.307457 0.083323 0.066634
Si Si4 0.976459 0.592318 0.740035
Si Si5 0.786167 0.910130 0.418595
Si Si6 0.696565 0.407682 0.259965
O O1 0.000638 0.250000 0.050500
O O2 0.169916 0.464040 0.053389
O O3 0.796484 0.455863 0.163728
O O4 0.000000 0.500000 0.000000
O O5 0.608143 0.250000 0.575627
O O6 0.377705 0.408898 0.581530
O O7 0.719409 0.500000 0.500000
O O8 0.467384 0.482006 0.669318
O O9 0.347862 0.250000 0.050500
O O10 0.212333 0.044138 0.163728
O O11 0.500000 0.000000 0.000000
O O12 0.949624 0.750000 0.719387
O O13 0.024663 0.482005 0.669318
O O14 0.146198 0.598592 0.735868
O O15 0.835022 0.750000 0.424374
O O16 0.607787 0.250000 0.280612
#
# Coordination Sequence:
#
# PCOD8077946 Si02
#       6
#     4   4   4   4   4   4
#     4   9  18  31  46  65  89 117 149 185 224 264
#     4   9  15  21  31  49  73 102 135 168 204 249
#     4   9  18  31  46  65  89 117 149 185 224 264
#     4   8  14  25  38  52  75 106 137 171 211 252
#     4   9  15  21  31  49  73 102 135 168 204 249
#     4   8  14  25  38  52  75 106 137 171 211 252
#
# _framework density 16.964445000000001
#
# number of rings (size 3 to 8) (size 9 to 14) (size 15 to 20)
#    0.000    3.333    0.000    3.000    0.000    6.000 
#    0.000    3.333    0.000    0.000    0.000    0.000 
#    0.000    1.333    0.000    4.333    0.000    9.667 
#
# Total GULP energy -297461.280266 kJ/mol
# GULP energy per Si atom -12394.220011 kJ/mol
# Density = 1.692583 g / cm^3
# Si number density = 16.964445 Si / 1000 Ang^3
#
#
#
# Elastic Constant Matrix: (Units=GPa)
#
#
# Indices 1 2 3 4 5 6 
#
# 1 22.4440 25.3453 32.4730 0.0000 0.4906 0.0000
# 2 25.3453 129.0416 102.0046 0.0000 0.8558 0.0000
# 3 32.4730 102.0046 172.7556 0.0000 1.1878 0.0000
# 4 0.0000 0.0000 0.0000 40.0562 0.0000 0.2725
# 5 0.4906 0.8558 1.1878 0.0000 16.9603 0.0000
# 6 0.0000 0.0000 0.0000 0.2725 0.0000 15.6470
#
#
#
# Elastic Compliance Matrix: (Units=1/GPa)
#
#
# Indices 1 2 3 4 5 6 
#
# 1 0.063360 -0.005680 -0.008549 0.000000 -0.000947 0.000000
# 2 -0.005680 0.015042 -0.007813 0.000000 -0.000048 0.000000
# 3 -0.008549 -0.007813 0.012010 0.000000 -0.000200 0.000000
# 4 0.000000 0.000000 0.000000 0.024968 0.000000 -0.000435
# 5 -0.000947 -0.000048 -0.000200 0.000000 0.059005 0.000000
# 6 0.000000 0.000000 0.000000 -0.000435 0.000000 0.063918
#
#
# Mechanical properties :
#
#
# Convention : Reuss Voigt Hill
#
# Bulk Modulus (GPa) = 21.58603 71.54299 46.56451
# Shear Modulus (GPa) = 16.78800 25.49390 21.14095
#
# Velocity S-wave (km/s) = 3.14920 3.88078 3.53397
# Velocity P-wave (km/s) = 5.09659 7.89585 6.64529
#
# Compressibility (1/GPa) = 0.04632627
#
# Stress axis : x y z
#
# Youngs Moduli (GPa) = 15.78273 66.48134 83.26094
#
# Poissons Ratio (x) = 0.37764 0.71183
# Poissons Ratio (y) = 0.08965 0.65056
# Poissons Ratio (z) = 0.13493 0.51945
#
# Static dielectric constant tensor:
#      x y z
#    x 2.478520 0.000000 0.011300 
#    y 0.000000 3.424730 0.000000 
#    z 0.011300 0.000000 3.490300 
# 
# 
# High freq. dielectric constant tensor:
#      x y z
#    x 1.568440 0.000000 0.001160 
#    y 0.000000 1.660370 0.000000 
#    z 0.001160 0.000000 1.672440 
# 
# From -- ./inp_files/25938.got.cif
#   From: 2010.06.25/outbox.cif.g09.slc.cpg/sg11_13_cif.got.tgz:25938.got - 2010.06.27 23:14:04.
