data_PCOD8077678
_publ_section_title
;
Structure prediction by ZEFSAII (Michael W. Deem and Ramdas Pophale) SiO2 
 PCOD8077678
Probable space group: P 21/M
;
_chemical_formula_sum "Si O2"
_cell_formula_units_Z 32
_cell_length_a 22.918458
_cell_length_b 14.162489
_cell_length_c 19.324973
_cell_angle_alpha 90.000000
_cell_angle_beta 163.225351
_cell_angle_gamma 90.000000
_cell_volume 1810.308262
_symmetry_space_group_name_H-M "P 21/M"
_symmetry_group_IT_number 11
_symmetry_cell_setting 'monoclinic'
loop_
_space_group_symop_operation_xyz
x,y,z
-x,1/2+y,-z
-x,-y,-z
x,1/2-y,z
loop_
_atom_site_type_symbol
_atom_site_label
_atom_site_fract_x
_atom_site_fract_y
_atom_site_fract_z
Si Si1 0.142022 0.640097 0.069168
Si Si2 0.212236 0.359902 0.639374
Si Si3 0.554618 0.857907 0.609277
Si Si4 0.357979 0.859902 0.930832
Si Si5 0.287761 0.140098 0.360623
Si Si6 0.337312 0.526006 0.174626
Si Si7 0.162689 0.526005 0.825376
Si Si8 0.945384 0.642093 0.390724
O O1 0.140687 0.750000 0.047639
O O2 0.321597 0.618762 0.327061
O O3 0.174653 0.582437 0.035857
O O4 0.934165 0.607784 0.868346
O O5 0.173203 0.250000 0.580139
O O6 0.189246 0.381221 0.694698
O O7 0.047743 0.417560 0.408938
O O8 0.434163 0.392215 0.868344
O O9 0.581739 0.750000 0.663523
O O10 0.689252 0.881218 0.694705
O O11 0.627097 0.922186 0.754204
O O12 0.359309 0.750000 0.952357
O O13 0.325347 0.917563 0.964142
O O14 0.178406 0.881237 0.672942
O O15 0.326795 0.250000 0.419860
O O16 0.452256 0.082441 0.591061
O O17 0.250002 0.512178 0.000002
O O18 0.127099 0.422185 0.754206
O O19 0.918255 0.750000 0.336471
#
# Coordination Sequence:
#
# PCOD8077678 Si02
#       8
#     4   4   4   4   4   4   4   4
#     4   9  18  34  56  77  96 124 164 208 249 288
#     4   9  18  34  56  77  96 124 164 208 249 288
#     4   9  19  35  53  73  96 127 171 212 240 277
#     4   9  18  34  56  77  96 124 164 208 249 288
#     4   9  18  34  56  77  96 124 164 208 249 288
#     4  11  22  32  47  75 107 135 161 193 242 302
#     4  11  22  32  47  75 107 135 161 193 242 302
#     4   9  19  35  53  73  96 127 171 212 240 277
#
# _framework density 17.676546999999999
#
# number of rings (size 3 to 8) (size 9 to 14) (size 15 to 20)
#    0.000    2.500    0.000    5.250    0.000    7.500 
#    0.000    2.500    0.000    0.000    0.000   10.500 
#    0.000    0.000    0.000    0.000    0.000    0.000 
#
# Total GULP energy -396876.655504 kJ/mol
# GULP energy per Si atom -12402.395484 kJ/mol
# Density = 1.763631 g / cm^3
# Si number density = 17.676547 Si / 1000 Ang^3
#
#
#
# Elastic Constant Matrix: (Units=GPa)
#
#
# Indices 1 2 3 4 5 6 
#
# 1 116.7059 70.2044 102.6243 0.0000 -3.8992 0.0000
# 2 70.2044 94.1026 65.2851 0.0000 -10.7889 0.0000
# 3 102.6243 65.2851 121.5625 0.0000 14.4311 0.0000
# 4 0.0000 0.0000 0.0000 11.3981 0.0000 -4.9905
# 5 -3.8992 -10.7889 14.4311 0.0000 46.3188 0.0000
# 6 0.0000 0.0000 0.0000 -4.9905 0.0000 13.6707
#
#
#
# Elastic Compliance Matrix: (Units=1/GPa)
#
#
# Indices 1 2 3 4 5 6 
#
# 1 0.043678 -0.007152 -0.034549 0.000000 0.012775 0.000000
# 2 -0.007152 0.020651 -0.005765 0.000000 0.006004 0.000000
# 3 -0.034549 -0.005765 0.042568 0.000000 -0.017514 0.000000
# 4 0.000000 0.000000 0.000000 0.104424 0.000000 0.038120
# 5 0.012775 0.006004 -0.017514 0.000000 0.029520 0.000000
# 6 0.000000 0.000000 0.000000 0.038120 0.000000 0.087065
#
#
# Mechanical properties :
#
#
# Convention : Reuss Voigt Hill
#
# Bulk Modulus (GPa) = 83.58356 89.84429 86.71392
# Shear Modulus (GPa) = 11.71435 20.56134 16.13785
#
# Velocity S-wave (km/s) = 2.57710 3.41427 3.02479
# Velocity P-wave (km/s) = 7.49953 8.15354 7.83336
#
# Compressibility (1/GPa) = 0.01196408
#
# Stress axis : x y z
#
# Youngs Moduli (GPa) = 22.89477 48.42467 23.49165
#
# Poissons Ratio (x) = 0.34634 0.81161
# Poissons Ratio (y) = 0.16374 0.13544
# Poissons Ratio (z) = 0.79099 0.27919
#
# Static dielectric constant tensor:
#      x y z
#    x 3.143290 0.000000 0.334240 
#    y 0.000000 3.345620 0.000000 
#    z 0.334240 0.000000 3.295970 
# 
# 
# High freq. dielectric constant tensor:
#      x y z
#    x 1.665850 0.000000 0.020060 
#    y 0.000000 1.696470 0.000000 
#    z 0.020060 0.000000 1.675020 
# 
# From -- ./inp_files/61632.got.cif
#   From: 2010.06.25/outbox.cif.g09.slc.cpg/sg11_31_cif.got.tgz:61632.got - 2010.06.27 23:14:04.
