data_PCOD8077589
_publ_section_title
;
Structure prediction by ZEFSAII (Michael W. Deem and Ramdas Pophale) SiO2 
 PCOD8077589
Probable space group: P 21/M
;
_chemical_formula_sum "Si O2"
_cell_formula_units_Z 32
_cell_length_a 11.542820
_cell_length_b 17.480366
_cell_length_c 14.002850
_cell_angle_alpha 90.000000
_cell_angle_beta 32.497593
_cell_angle_gamma 90.000000
_cell_volume 1517.982503
_symmetry_space_group_name_H-M "P 21/M"
_symmetry_group_IT_number 11
_symmetry_cell_setting 'monoclinic'
loop_
_space_group_symop_operation_xyz
x,y,z
-x,1/2+y,-z
-x,-y,-z
x,1/2-y,z
loop_
_atom_site_type_symbol
_atom_site_label
_atom_site_fract_x
_atom_site_fract_y
_atom_site_fract_z
Si Si1 0.474311 0.161063 0.358447
Si Si2 0.770836 0.910645 0.129969
Si Si3 0.755351 0.909410 0.804165
Si Si4 0.994441 0.662872 0.811747
Si Si5 0.447509 0.586828 0.507554
Si Si6 0.914512 0.839886 0.503032
Si Si7 0.254197 0.914982 0.141370
Si Si8 0.158283 0.930296 0.994909
O O1 0.503440 0.250000 0.324291
O O2 0.437907 0.141269 0.494555
O O3 0.273937 0.130941 0.436233
O O4 0.694672 0.122751 0.172525
O O5 0.538944 0.893057 0.338478
O O6 0.919278 0.928525 0.118494
O O7 0.857282 0.841122 0.005584
O O8 0.750680 0.983377 0.073323
O O9 0.892321 0.885384 0.616817
O O10 0.838803 0.859400 0.833839
O O11 0.789935 0.998777 0.796181
O O12 0.503825 0.891654 0.964250
O O13 0.076955 0.750000 0.742360
O O14 0.192199 0.603206 0.680504
O O15 0.500000 0.500000 0.500000
O O16 0.901192 0.750000 0.532825
O O17 0.141379 0.859156 0.295677
O O18 0.154805 0.901190 0.105742
#
# Coordination Sequence:
#
# PCOD8077589 Si02
#       8
#     4   4   4   4   4   4   4   4
#     4  11  23  40  66 100 135 170 218 281 341 394
#     4  11  23  40  69  99 129 177 220 272 341 409
#     4  11  25  45  69  96 134 177 225 282 331 394
#     4  12  27  45  66  99 141 180 225 279 343 409
#     4  12  24  42  71  98 134 178 222 277 336 412
#     4  11  25  43  67  98 134 175 219 274 340 398
#     4  11  24  43  72 101 126 175 235 278 325 404
#     4  11  20  42  69  98 132 170 223 276 339 401
#
# _framework density 21.080611999999999
#
# number of rings (size 3 to 8) (size 9 to 14) (size 15 to 20)
#    0.000    0.750    5.000    2.625    1.750    3.500 
#    0.000    0.000    0.000    0.000    0.000    0.000 
#    0.000    0.000    0.000    0.000    0.000    0.000 
#
# Total GULP energy -396969.499515 kJ/mol
# GULP energy per Si atom -12405.296860 kJ/mol
# Density = 2.103263 g / cm^3
# Si number density = 21.080612 Si / 1000 Ang^3
#
#
#
# Elastic Constant Matrix: (Units=GPa)
#
#
# Indices 1 2 3 4 5 6 
#
# 1 107.5832 22.9687 32.2870 0.0000 12.6873 0.0000
# 2 22.9687 77.4525 25.1114 0.0000 -2.5952 0.0000
# 3 32.2870 25.1114 116.7198 0.0000 22.5382 0.0000
# 4 0.0000 0.0000 0.0000 31.3925 0.0000 1.0930
# 5 12.6873 -2.5952 22.5382 0.0000 28.2446 0.0000
# 6 0.0000 0.0000 0.0000 1.0930 0.0000 20.8127
#
#
#
# Elastic Compliance Matrix: (Units=1/GPa)
#
#
# Indices 1 2 3 4 5 6 
#
# 1 0.010841 -0.002803 -0.001662 0.000000 -0.003801 0.000000
# 2 -0.002803 0.015066 -0.003518 0.000000 0.005451 0.000000
# 3 -0.001662 -0.003518 0.011470 0.000000 -0.008729 0.000000
# 4 0.000000 0.000000 0.000000 0.031913 0.000000 -0.001676
# 5 -0.003801 0.005451 -0.008729 0.000000 0.044579 0.000000
# 6 0.000000 0.000000 0.000000 -0.001676 0.000000 0.048136
#
#
# Mechanical properties :
#
#
# Convention : Reuss Voigt Hill
#
# Bulk Modulus (GPa) = 46.70868 51.38775 49.04822
# Shear Modulus (GPa) = 27.01137 30.84919 28.93028
#
# Velocity S-wave (km/s) = 3.58346 3.82958 3.70856
# Velocity P-wave (km/s) = 6.27111 6.63204 6.45410
#
# Compressibility (1/GPa) = 0.02140930
#
# Stress axis : x y z
#
# Youngs Moduli (GPa) = 92.24576 66.37507 87.18605
#
# Poissons Ratio (x) = 0.18608 0.14487
# Poissons Ratio (y) = 0.25861 0.30676
# Poissons Ratio (z) = 0.15327 0.23354
#
# Static dielectric constant tensor:
#      x y z
#    x 3.943760 0.000000 0.044810 
#    y 0.000000 3.720530 0.000000 
#    z 0.044810 0.000000 3.864770 
# 
# 
# High freq. dielectric constant tensor:
#      x y z
#    x 1.832670 0.000000 0.008120 
#    y 0.000000 1.819690 0.000000 
#    z 0.008120 0.000000 1.832510 
# 
# From -- ./inp_files/50639.got.cif
#   From: 2010.06.25/outbox.cif.g09.slc.cpg/sg11_26_cif.got.tgz:50639.got - 2010.06.27 23:14:04.
