data_PCOD8077188
_publ_section_title
;
Structure prediction by ZEFSAII (Michael W. Deem and Ramdas Pophale) SiO2 
 PCOD8077188
Probable space group: P 21/M
;
_chemical_formula_sum "Si O2"
_cell_formula_units_Z 28
_cell_length_a 14.528881
_cell_length_b 8.669296
_cell_length_c 12.604569
_cell_angle_alpha 90.000000
_cell_angle_beta 119.801263
_cell_angle_gamma 90.000000
_cell_volume 1377.656266
_symmetry_space_group_name_H-M "P 21/M"
_symmetry_group_IT_number 11
_symmetry_cell_setting 'monoclinic'
loop_
_space_group_symop_operation_xyz
x,y,z
-x,1/2+y,-z
-x,-y,-z
x,1/2-y,z
loop_
_atom_site_type_symbol
_atom_site_label
_atom_site_fract_x
_atom_site_fract_y
_atom_site_fract_z
Si Si1 0.886479 0.932934 0.960388
Si Si2 0.578842 0.074633 0.963268
Si Si3 0.285925 0.432854 0.304475
Si Si4 0.291140 0.432532 0.544121
Si Si5 0.110625 0.066926 0.600268
Si Si6 0.819074 0.074387 0.141963
Si Si7 0.482601 0.430497 0.284682
O O1 0.890133 0.750000 0.958391
O O2 0.852833 0.985674 0.056719
O O3 0.803341 0.000023 0.825914
O O4 0.000000 0.000000 0.000000
O O5 0.544821 0.250000 0.917869
O O6 0.579129 0.973541 0.857613
O O7 0.693201 0.069373 0.082793
O O8 0.500000 0.000000 0.000000
O O9 0.277369 0.250000 0.298114
O O10 0.267578 0.498677 0.412519
O O11 0.404229 0.481753 0.335024
O O12 0.287116 0.250000 0.539271
O O13 0.202967 0.496738 0.574919
O O14 0.407172 0.480947 0.647911
O O15 0.106916 0.250000 0.595615
O O16 0.129781 0.010602 0.729650
O O17 0.000000 0.000000 0.500000
O O18 0.860902 0.250000 0.160882
O O19 0.506348 0.250000 0.300660
#
# Coordination Sequence:
#
# PCOD8077188 Si02
#       7
#     4   4   4   4   4   4   4
#     4  11  23  41  66  96 129 166 209 259 317 378
#     4  11  23  38  61  91 125 165 208 258 311 372
#     4   9  20  39  63  91 127 166 203 252 311 372
#     4  10  22  41  63  90 125 168 210 255 314 373
#     4  11  25  43  66  92 124 165 211 262 316 375
#     4  11  24  43  65  91 126 165 211 262 314 374
#     4  11  21  37  61  92 127 164 206 255 311 374
#
# _framework density 20.324372
#
# number of rings (size 3 to 8) (size 9 to 14) (size 15 to 20)
#    0.000    1.429    1.429    3.429    2.000    5.143 
#    0.000    2.143    0.000    0.000    0.000    0.000 
#    0.000    0.000    0.000    0.000    0.000    0.000 
#
# Total GULP energy -347289.991590 kJ/mol
# GULP energy per Si atom -12403.213985 kJ/mol
# Density = 2.027811 g / cm^3
# Si number density = 20.324372 Si / 1000 Ang^3
#
#
#
# Elastic Constant Matrix: (Units=GPa)
#
#
# Indices 1 2 3 4 5 6 
#
# 1 99.7602 30.8632 41.1150 0.0000 16.1434 0.0000
# 2 30.8632 50.4756 22.5090 0.0000 0.5014 0.0000
# 3 41.1150 22.5090 136.3355 0.0000 3.1667 0.0000
# 4 0.0000 0.0000 0.0000 29.2649 0.0000 1.7466
# 5 16.1434 0.5014 3.1667 0.0000 34.2398 0.0000
# 6 0.0000 0.0000 0.0000 1.7466 0.0000 31.2773
#
#
#
# Elastic Compliance Matrix: (Units=1/GPa)
#
#
# Indices 1 2 3 4 5 6 
#
# 1 0.014662 -0.007552 -0.003023 0.000000 -0.006523 0.000000
# 2 -0.007552 0.025276 -0.001974 0.000000 0.003373 0.000000
# 3 -0.003023 -0.001974 0.008557 0.000000 0.000663 0.000000
# 4 0.000000 0.000000 0.000000 0.034285 0.000000 -0.001915
# 5 -0.006523 0.003373 0.000663 0.000000 0.032170 0.000000
# 6 0.000000 0.000000 0.000000 -0.001915 0.000000 0.032079
#
#
# Mechanical properties :
#
#
# Convention : Reuss Voigt Hill
#
# Bulk Modulus (GPa) = 42.74142 52.83842 47.78992
# Shear Modulus (GPa) = 27.78911 31.76200 29.77555
#
# Velocity S-wave (km/s) = 3.70169 3.95746 3.83171
# Velocity P-wave (km/s) = 6.27258 6.85098 6.56815
#
# Compressibility (1/GPa) = 0.02339651
#
# Stress axis : x y z
#
# Youngs Moduli (GPa) = 68.20376 39.56326 116.86216
#
# Poissons Ratio (x) = 0.29878 0.35331
# Poissons Ratio (y) = 0.51508 0.23068
# Poissons Ratio (z) = 0.20620 0.07810
#
# Static dielectric constant tensor:
#      x y z
#    x 3.808290 0.000000 -0.199350 
#    y 0.000000 3.646260 0.000000 
#    z -0.199350 0.000000 3.894540 
# 
# 
# High freq. dielectric constant tensor:
#      x y z
#    x 1.808290 0.000000 -0.002900 
#    y 0.000000 1.785940 0.000000 
#    z -0.002900 0.000000 1.807740 
# 
# From -- ./inp_files/37850.got.cif
#   From: 2010.06.25/outbox.cif.g09.slc.cpg/sg11_19_cif.got.tgz:37850.got - 2010.06.27 23:14:04.
