data_PCOD8077655
_publ_section_title
;
Structure prediction by ZEFSAII (Michael W. Deem and Ramdas Pophale) SiO2 
 PCOD8077655
Probable space group: P 21/M
;
_chemical_formula_sum "Si O2"
_cell_formula_units_Z 24
_cell_length_a 7.300260
_cell_length_b 21.287350
_cell_length_c 7.731940
_cell_angle_alpha 90.000000
_cell_angle_beta 123.074426
_cell_angle_gamma 90.000000
_cell_volume 1006.868904
_symmetry_space_group_name_H-M "P 21/M"
_symmetry_group_IT_number 11
_symmetry_cell_setting 'monoclinic'
loop_
_space_group_symop_operation_xyz
x,y,z
-x,1/2+y,-z
-x,-y,-z
x,1/2-y,z
loop_
_atom_site_type_symbol
_atom_site_label
_atom_site_fract_x
_atom_site_fract_y
_atom_site_fract_z
Si Si1 0.309147 0.393767 0.994074
Si Si2 0.833728 0.030356 0.065841
Si Si3 0.515696 0.119502 0.747390
Si Si4 0.271263 0.028446 0.417656
Si Si5 0.886495 0.177685 0.734388
Si Si6 0.750778 0.087044 0.376945
O O1 0.253916 0.464554 0.906368
O O2 0.424788 0.359911 0.887647
O O3 0.095238 0.354103 0.939453
O O4 0.485452 0.399603 0.242052
O O5 0.831815 0.081496 0.221918
O O6 0.101218 0.030565 0.161205
O O7 0.680914 0.058927 0.838891
O O8 0.309318 0.097218 0.523353
O O9 0.663681 0.172889 0.733368
O O10 0.500000 0.000000 0.500000
O O11 0.167406 0.977669 0.494221
O O12 0.939504 0.250000 0.730003
O O13 0.860594 0.144966 0.534172
#
# Coordination Sequence:
#
# PCOD8077655 Si02
#       6
#     4   4   4   4   4   4
#     4  11  22  41  68  96 126 159 200 263 324 374
#     4  11  21  37  65 102 130 148 198 262 335 380
#     4  11  23  39  64  96 127 158 202 261 319 374
#     4  12  20  31  61 100 128 156 192 252 327 376
#     4  12  28  44  60  86 126 177 220 248 294 374
#     4  11  21  39  64  94 126 157 200 259 318 371
#
# _framework density 23.836271
#
# number of rings (size 3 to 8) (size 9 to 14) (size 15 to 20)
#    0.000    0.667    6.667    2.500    2.333    2.667 
#    0.000    2.500    0.000    0.000    0.000    0.000 
#    0.000    0.000    0.000    0.000    0.000    0.000 
#
# Total GULP energy -297457.809184 kJ/mol
# GULP energy per Si atom -12394.075383 kJ/mol
# Density = 2.378202 g / cm^3
# Si number density = 23.836271 Si / 1000 Ang^3
#
#
#
# Elastic Constant Matrix: (Units=GPa)
#
#
# Indices 1 2 3 4 5 6 
#
# 1 47.2276 13.0046 8.4398 0.0000 12.2263 0.0000
# 2 13.0046 98.2546 18.9775 0.0000 9.6359 0.0000
# 3 8.4398 18.9775 97.6438 0.0000 30.2438 0.0000
# 4 0.0000 0.0000 0.0000 18.6297 0.0000 3.5785
# 5 12.2263 9.6359 30.2438 0.0000 44.5394 0.0000
# 6 0.0000 0.0000 0.0000 3.5785 0.0000 22.0897
#
#
#
# Elastic Compliance Matrix: (Units=1/GPa)
#
#
# Indices 1 2 3 4 5 6 
#
# 1 0.023399 -0.002569 0.000372 0.000000 -0.006120 0.000000
# 2 -0.002569 0.010902 -0.001753 0.000000 -0.000463 0.000000
# 3 0.000372 -0.001753 0.013251 0.000000 -0.008721 0.000000
# 4 0.000000 0.000000 0.000000 0.055402 0.000000 -0.008975
# 5 -0.006120 -0.000463 -0.008721 0.000000 0.030154 0.000000
# 6 0.000000 0.000000 0.000000 -0.008975 0.000000 0.046724
#
#
# Mechanical properties :
#
#
# Convention : Reuss Voigt Hill
#
# Bulk Modulus (GPa) = 25.21905 35.99664 30.60785
# Shear Modulus (GPa) = 24.88200 30.56537 27.72368
#
# Velocity S-wave (km/s) = 3.23440 3.58481 3.41411
# Velocity P-wave (km/s) = 4.95496 5.68057 5.33013
#
# Compressibility (1/GPa) = 0.03965256
#
# Stress axis : x y z
#
# Youngs Moduli (GPa) = 42.73642 91.72896 75.46561
#
# Poissons Ratio (x) = 0.23563 -0.02811
# Poissons Ratio (y) = 0.10978 0.13232
# Poissons Ratio (z) = -0.01592 0.16084
#
# Static dielectric constant tensor:
#      x y z
#    x 4.439410 0.000000 0.479790 
#    y 0.000000 3.500440 0.000000 
#    z 0.479790 0.000000 5.114690 
# 
# 
# High freq. dielectric constant tensor:
#      x y z
#    x 1.966050 0.000000 0.013020 
#    y 0.000000 1.871490 0.000000 
#    z 0.013020 0.000000 1.971350 
# 
# From -- ./inp_files/14851.got.cif
#   From: 2010.06.25/outbox.cif.g09.slc.cpg/sg11_8_cif.got.tgz:14851.got - 2010.06.27 23:14:04.
