data_PCOD8077411
_publ_section_title
;
Structure prediction by ZEFSAII (Michael W. Deem and Ramdas Pophale) SiO2 
 PCOD8077411
Probable space group: P 21/M
;
_chemical_formula_sum "Si O2"
_cell_formula_units_Z 32
_cell_length_a 11.532483
_cell_length_b 17.209106
_cell_length_c 13.452667
_cell_angle_alpha 90.000000
_cell_angle_beta 34.081183
_cell_angle_gamma 90.000000
_cell_volume 1496.105045
_symmetry_space_group_name_H-M "P 21/M"
_symmetry_group_IT_number 11
_symmetry_cell_setting 'monoclinic'
loop_
_space_group_symop_operation_xyz
x,y,z
-x,1/2+y,-z
-x,-y,-z
x,1/2-y,z
loop_
_atom_site_type_symbol
_atom_site_label
_atom_site_fract_x
_atom_site_fract_y
_atom_site_fract_z
Si Si1 0.546030 0.839867 0.232144
Si Si2 0.259017 0.840133 0.749329
Si Si3 0.683914 0.840147 0.350850
Si Si4 0.922089 0.590659 0.862496
Si Si5 0.225555 0.907324 0.322052
Si Si6 0.610567 0.161651 0.986768
Si Si7 0.190244 0.423627 0.280617
Si Si8 0.108690 0.919433 0.054726
O O1 0.481173 0.750000 0.281137
O O2 0.609694 0.869686 0.295882
O O3 0.351424 0.890166 0.333324
O O4 0.736005 0.851471 0.021896
O O5 0.213200 0.750000 0.802941
O O6 0.502386 0.854561 0.559614
O O7 0.136710 0.866909 0.737500
O O8 0.178241 0.889870 0.898261
O O9 0.745729 0.750000 0.301124
O O10 0.882783 0.887815 0.245088
O O11 0.920567 0.571997 0.747272
O O12 0.897513 0.512163 0.943693
O O13 0.289066 0.845369 0.193397
O O14 0.981165 0.900337 0.516066
O O15 0.286231 0.992699 0.239308
O O16 0.630096 0.250000 0.009152
O O17 0.726599 0.106693 0.981001
O O18 0.369461 0.139855 0.154799
#
# Coordination Sequence:
#
# PCOD8077411 Si02
#       8
#     4   4   4   4   4   4   4   4
#     4  11  22  40  69  97 127 167 213 270 326 379
#     4  11  24  43  67  96 129 168 215 270 323 379
#     4  10  23  43  65  93 128 166 211 266 323 377
#     4  12  23  42  68  99 127 171 217 266 327 384
#     4  11  23  44  68  95 132 171 215 270 327 384
#     4  12  25  42  67  96 131 177 219 263 324 392
#     4  11  25  45  67  96 134 171 215 274 325 382
#     4  12  25  44  64  94 134 173 215 262 320 390
#
# _framework density 21.388871000000002
#
# number of rings (size 3 to 8) (size 9 to 14) (size 15 to 20)
#    0.000    0.750    3.750    4.125    0.000    3.000 
#    2.250    0.000    0.000    0.000    0.000    0.000 
#    0.000    0.000    0.000    0.000    0.000    0.000 
#
# Total GULP energy -397054.295048 kJ/mol
# GULP energy per Si atom -12407.946720 kJ/mol
# Density = 2.134019 g / cm^3
# Si number density = 21.388871 Si / 1000 Ang^3
#
#
#
# Elastic Constant Matrix: (Units=GPa)
#
#
# Indices 1 2 3 4 5 6 
#
# 1 83.0144 14.9391 23.3370 0.0000 -13.2861 0.0000
# 2 14.9391 58.0239 28.4692 0.0000 0.0567 0.0000
# 3 23.3370 28.4692 104.2003 0.0000 -5.8883 0.0000
# 4 0.0000 0.0000 0.0000 15.4194 0.0000 -3.4522
# 5 -13.2861 0.0567 -5.8883 0.0000 28.2035 0.0000
# 6 0.0000 0.0000 0.0000 -3.4522 0.0000 28.6702
#
#
#
# Elastic Compliance Matrix: (Units=1/GPa)
#
#
# Indices 1 2 3 4 5 6 
#
# 1 0.014098 -0.002608 -0.002094 0.000000 0.006209 0.000000
# 2 -0.002608 0.020424 -0.005128 0.000000 -0.002341 0.000000
# 3 -0.002094 -0.005128 0.011548 0.000000 0.001435 0.000000
# 4 0.000000 0.000000 0.000000 0.066650 0.000000 0.008026
# 5 0.006209 -0.002341 0.001435 0.000000 0.038686 0.000000
# 6 0.000000 0.000000 0.000000 0.008026 0.000000 0.035846
#
#
# Mechanical properties :
#
#
# Convention : Reuss Voigt Hill
#
# Bulk Modulus (GPa) = 37.86578 42.08103 39.97341
# Shear Modulus (GPa) = 23.17855 26.35816 24.76836
#
# Velocity S-wave (km/s) = 3.29549 3.51427 3.40663
# Velocity P-wave (km/s) = 5.67647 6.01529 5.84833
#
# Compressibility (1/GPa) = 0.02640907
#
# Stress axis : x y z
#
# Youngs Moduli (GPa) = 70.93255 48.96122 86.59451
#
# Poissons Ratio (x) = 0.12771 0.18132
# Poissons Ratio (y) = 0.18502 0.44408
# Poissons Ratio (z) = 0.14852 0.25109
#
# Static dielectric constant tensor:
#      x y z
#    x 3.911040 0.000000 -0.064610 
#    y 0.000000 3.801650 0.000000 
#    z -0.064610 0.000000 3.823990 
# 
# 
# High freq. dielectric constant tensor:
#      x y z
#    x 1.844050 0.000000 -0.003840 
#    y 0.000000 1.839760 0.000000 
#    z -0.003840 0.000000 1.845670 
# 
# From -- ./inp_files/50683.got.cif
#   From: 2010.06.25/outbox.cif.g09.slc.cpg/sg11_26_cif.got.tgz:50683.got - 2010.06.27 23:14:04.
