data_PCOD8077166
_publ_section_title
;
Structure prediction by ZEFSAII (Michael W. Deem and Ramdas Pophale) SiO2 
 PCOD8077166
Probable space group: P 21/M
;
_chemical_formula_sum "Si O2"
_cell_formula_units_Z 32
_cell_length_a 12.287542
_cell_length_b 8.502237
_cell_length_c 16.132019
_cell_angle_alpha 90.000000
_cell_angle_beta 99.321630
_cell_angle_gamma 90.000000
_cell_volume 1663.082249
_symmetry_space_group_name_H-M "P 21/M"
_symmetry_group_IT_number 11
_symmetry_cell_setting 'monoclinic'
loop_
_space_group_symop_operation_xyz
x,y,z
-x,1/2+y,-z
-x,-y,-z
x,1/2-y,z
loop_
_atom_site_type_symbol
_atom_site_label
_atom_site_fract_x
_atom_site_fract_y
_atom_site_fract_z
Si Si1 0.605248 0.066463 0.860052
Si Si2 0.528272 0.566617 0.591981
Si Si3 0.970453 0.570547 0.765544
Si Si4 0.914495 0.431462 0.927128
Si Si5 0.731648 0.935951 0.720999
Si Si6 0.268759 0.432819 0.991562
Si Si7 0.592964 0.066835 0.261539
Si Si8 0.207018 0.432677 0.797916
O O1 0.612049 0.250000 0.879494
O O2 0.699523 0.020502 0.803668
O O3 0.613853 0.969968 0.949836
O O4 0.483845 0.028280 0.811104
O O5 0.500000 0.500000 0.500000
O O6 0.532954 0.750000 0.581477
O O7 0.647414 0.506054 0.639267
O O8 0.435085 0.517414 0.647451
O O9 0.004715 0.750000 0.752885
O O10 0.078280 0.465397 0.762236
O O11 0.927759 0.548182 0.852685
O O12 0.856554 0.523684 0.702981
O O13 0.938004 0.250000 0.905403
O O14 0.798198 0.449722 0.956831
O O15 0.000000 0.500000 0.000000
O O16 0.719779 0.750000 0.735939
O O17 0.235985 0.250000 0.995418
O O18 0.247810 0.487198 0.894495
O O19 0.569147 0.250000 0.245808
O O20 0.720361 0.026237 0.259953
O O21 0.228792 0.250000 0.788889
#
# Coordination Sequence:
#
# PCOD8077166 Si02
#       8
#     4   4   4   4   4   4   4   4
#     4  11  21  33  54  80 107 142 190 240 285 326
#     4   9  19  37  63  93 116 139 169 215 271 334
#     4  11  21  34  55  77 108 151 189 230 281 329
#     4  12  22  32  48  73 104 143 194 245 286 324
#     4   9  19  35  55  82 116 147 180 222 278 332
#     4  11  22  35  50  72 107 148 190 240 289 328
#     4  10  22  41  60  79 111 147 183 222 277 340
#     4  11  24  38  54  77 109 148 195 238 276 326
#
# _framework density 19.241382999999999
#
# number of rings (size 3 to 8) (size 9 to 14) (size 15 to 20)
#    0.000    1.500    2.500    4.500    0.000    5.000 
#    0.000    0.000    0.000    0.750    0.000    0.000 
#    0.000    0.000    0.000    0.000    0.000    0.000 
#
# Total GULP energy -396514.764043 kJ/mol
# GULP energy per Si atom -12391.086376 kJ/mol
# Density = 1.919759 g / cm^3
# Si number density = 19.241383 Si / 1000 Ang^3
#
#
#
# Elastic Constant Matrix: (Units=GPa)
#
#
# Indices 1 2 3 4 5 6 
#
# 1 116.0753 26.1889 55.8541 0.0000 -3.5856 0.0000
# 2 26.1889 60.0851 27.7911 0.0000 4.0150 0.0000
# 3 55.8541 27.7911 103.9996 0.0000 12.4781 0.0000
# 4 0.0000 0.0000 0.0000 25.6128 0.0000 1.0329
# 5 -3.5856 4.0150 12.4781 0.0000 21.4944 0.0000
# 6 0.0000 0.0000 0.0000 1.0329 0.0000 30.9143
#
#
#
# Elastic Compliance Matrix: (Units=1/GPa)
#
#
# Indices 1 2 3 4 5 6 
#
# 1 0.012784 -0.002821 -0.006913 0.000000 0.006672 0.000000
# 2 -0.002821 0.019621 -0.003474 0.000000 -0.002119 0.000000
# 3 -0.006913 -0.003474 0.015389 0.000000 -0.009438 0.000000
# 4 0.000000 0.000000 0.000000 0.039096 0.000000 -0.001306
# 5 0.006672 -0.002119 -0.009438 0.000000 0.053511 0.000000
# 6 0.000000 0.000000 0.000000 -0.001306 0.000000 0.032391
#
#
# Mechanical properties :
#
#
# Convention : Reuss Voigt Hill
#
# Bulk Modulus (GPa) = 46.77525 55.53647 51.15586
# Shear Modulus (GPa) = 24.23277 26.95937 25.59607
#
# Velocity S-wave (km/s) = 3.55267 3.74721 3.65123
# Velocity P-wave (km/s) = 6.41803 6.90274 6.66479
#
# Compressibility (1/GPa) = 0.02137883
#
# Stress axis : x y z
#
# Youngs Moduli (GPa) = 78.22385 50.96605 64.98326
#
# Poissons Ratio (x) = 0.14376 0.44920
# Poissons Ratio (y) = 0.22064 0.22576
# Poissons Ratio (z) = 0.54072 0.17706
#
# Static dielectric constant tensor:
#      x y z
#    x 4.091060 0.000000 1.217130 
#    y 0.000000 1.216170 0.000000 
#    z 1.217130 0.000000 6.039050 
# 
# 
# High freq. dielectric constant tensor:
#      x y z
#    x 1.757540 0.000000 0.016340 
#    y 0.000000 1.751040 0.000000 
#    z 0.016340 0.000000 1.708780 
# 
# From -- ./inp_files/42787.got.cif
#   From: 2010.06.25/outbox.cif.g09.slc.cpg/sg11_22_cif.got.tgz:42787.got - 2010.06.27 23:14:04.
