data_PCOD8077304
_publ_section_title
;
Structure prediction by ZEFSAII (Michael W. Deem and Ramdas Pophale) SiO2 
 PCOD8077304
Probable space group: P 21/M
;
_chemical_formula_sum "Si O2"
_cell_formula_units_Z 22
_cell_length_a 8.573379
_cell_length_b 14.484912
_cell_length_c 9.031137
_cell_angle_alpha 90.000000
_cell_angle_beta 77.341583
_cell_angle_gamma 90.000000
_cell_volume 1094.268452
_symmetry_space_group_name_H-M "P 21/M"
_symmetry_group_IT_number 11
_symmetry_cell_setting 'monoclinic'
loop_
_space_group_symop_operation_xyz
x,y,z
-x,1/2+y,-z
-x,-y,-z
x,1/2-y,z
loop_
_atom_site_type_symbol
_atom_site_label
_atom_site_fract_x
_atom_site_fract_y
_atom_site_fract_z
Si Si1 0.222083 0.750000 0.416549
Si Si2 0.748101 0.750000 0.650462
Si Si3 0.805780 0.391048 0.068489
Si Si4 0.367073 0.750000 0.695066
Si Si5 0.349029 0.750000 0.093609
Si Si6 0.299250 0.250000 0.008990
Si Si7 0.853070 0.908480 0.120266
Si Si8 0.955843 0.600557 0.442908
O O1 0.335141 0.750000 0.531064
O O2 0.360360 0.750000 0.265660
O O3 0.116306 0.658949 0.423108
O O4 0.557002 0.750000 0.676356
O O5 0.818646 0.655877 0.562919
O O6 0.797814 0.750000 0.815237
O O7 0.724553 0.338878 0.221980
O O8 0.762274 0.497726 0.095420
O O9 0.743539 0.343530 0.932191
O O10 0.998116 0.386911 0.019871
O O11 0.517544 0.750000 0.976513
O O12 0.275054 0.334104 0.901974
O O13 0.900035 0.907094 0.283666
O O14 0.000000 0.500000 0.500000
#
# Coordination Sequence:
#
# PCOD8077304 Si02
#       8
#     2   2   4   2   2   2   4   4
#     4  11  23  39  69  89 129 175 211 262 324 387
#     4  11  27  42  68  95 134 168 217 265 330 384
#     4  10  22  43  67  92 130 166 220 262 315 386
#     4  11  23  45  63  97 134 174 207 268 329 381
#     4  11  22  43  63  94 129 168 210 272 326 380
#     4  12  25  41  67  97 134 165 213 271 325 378
#     4  11  24  41  69  97 124 174 218 264 315 389
#     4  11  25  45  64  97 129 171 221 266 315 388
#
# _framework density 20.104756999999999
#
# number of rings (size 3 to 8) (size 9 to 14) (size 15 to 20)
#    0.000    1.091    3.636    3.273   12.727    0.727 
#    3.273    1.818    0.000    0.000    0.000    0.000 
#    0.000    0.000    0.000    0.000    0.000    0.000 
#
# Total GULP energy -272573.202508 kJ/mol
# GULP energy per Si atom -12389.691023 kJ/mol
# Density = 2.005900 g / cm^3
# Si number density = 20.104757 Si / 1000 Ang^3
#
#
#
# Elastic Constant Matrix: (Units=GPa)
#
#
# Indices 1 2 3 4 5 6 
#
# 1 79.8755 61.3541 42.1293 0.0000 -1.2190 0.0000
# 2 61.3541 186.3993 59.3562 0.0000 3.3938 0.0000
# 3 42.1293 59.3562 149.6132 0.0000 9.4430 0.0000
# 4 0.0000 0.0000 0.0000 -2.6154 0.0000 7.0462
# 5 -1.2190 3.3938 9.4430 0.0000 33.0953 0.0000
# 6 0.0000 0.0000 0.0000 7.0462 0.0000 -2.8945
#
#
#
# Elastic Compliance Matrix: (Units=1/GPa)
#
#
# Indices 1 2 3 4 5 6 
#
# 1 0.018071 -0.004949 -0.003258 0.000000 0.002103 0.000000
# 2 -0.004949 0.007496 -0.001548 0.000000 -0.000509 0.000000
# 3 -0.003258 -0.001548 0.008364 0.000000 -0.002348 0.000000
# 4 0.000000 0.000000 0.000000 0.068789 0.000000 0.167454
# 5 0.002103 -0.000509 -0.002348 0.000000 0.031015 0.000000
# 6 0.000000 0.000000 0.000000 0.167454 0.000000 0.062156
#
#
# Mechanical properties :
#
#
# Convention : Reuss Voigt Hill
#
# Bulk Modulus (GPa) = 69.34456 82.39634 75.87045
# Shear Modulus (GPa) = 22.70566 22.38696 22.54631
#
# Velocity S-wave (km/s) = 3.36425 3.34056 3.35243
# Velocity P-wave (km/s) = 7.04680 7.48008 7.26667
#
# Compressibility (1/GPa) = 0.01442074
#
# Stress axis : x y z
#
# Youngs Moduli (GPa) = 55.33587 133.40223 119.56447
#
# Poissons Ratio (x) = 0.66023 0.38953
# Poissons Ratio (y) = 0.27386 0.18511
# Poissons Ratio (z) = 0.18028 0.20653
#
# Static dielectric constant tensor:
#      x y z
#    x 3.469630 0.000000 -0.040200 
#    y 0.000000 3.876850 0.000000 
#    z -0.040200 0.000000 3.828710 
# 
# 
# High freq. dielectric constant tensor:
#      x y z
#    x 1.777120 0.000000 0.000570 
#    y 0.000000 1.793860 0.000000 
#    z 0.000570 0.000000 1.802730 
# 
# From -- ./inp_files/12426.got.cif
#   From: 2010.06.25/outbox.cif.g09.slc.cpg/sg11_7_cif.got.tgz:12426.got - 2010.06.27 23:14:04.
