data_PCOD8077759
_publ_section_title
;
Structure prediction by ZEFSAII (Michael W. Deem and Ramdas Pophale) SiO2 
 PCOD8077759
Probable space group: P 21/M
;
_chemical_formula_sum "Si O2"
_cell_formula_units_Z 24
_cell_length_a 8.414885
_cell_length_b 13.560610
_cell_length_c 19.190926
_cell_angle_alpha 90.000000
_cell_angle_beta 29.350279
_cell_angle_gamma 90.000000
_cell_volume 1073.371757
_symmetry_space_group_name_H-M "P 21/M"
_symmetry_group_IT_number 11
_symmetry_cell_setting 'monoclinic'
loop_
_space_group_symop_operation_xyz
x,y,z
-x,1/2+y,-z
-x,-y,-z
x,1/2-y,z
loop_
_atom_site_type_symbol
_atom_site_label
_atom_site_fract_x
_atom_site_fract_y
_atom_site_fract_z
Si Si1 0.197119 0.539954 0.573259
Si Si2 0.678368 0.750000 0.053567
Si Si3 0.372682 0.750000 0.019153
Si Si4 0.963695 0.250000 0.307157
Si Si5 0.486669 0.534597 0.678827
Si Si6 0.525073 0.456007 0.818631
Si Si7 0.799831 0.462070 0.931165
Si Si8 0.341524 0.750000 0.727820
O O1 0.500000 0.500000 0.500000
O O2 0.138776 0.655236 0.608783
O O3 0.257581 0.521406 0.467948
O O4 0.879819 0.477482 0.715717
O O5 0.559916 0.841699 0.143816
O O6 0.521416 0.750000 0.038238
O O7 0.064082 0.750000 0.893369
O O8 0.650402 0.750000 0.853658
O O9 0.145949 0.845461 0.097924
O O10 0.785210 0.250000 0.302114
O O11 0.507615 0.487245 0.745950
O O12 0.559310 0.651897 0.654790
O O13 0.124037 0.520241 0.784928
O O14 0.264331 0.516991 0.963046
O O15 0.500000 0.500000 0.000000
#
# Coordination Sequence:
#
# PCOD8077759 Si02
#       8
#     4   2   2   2   4   4   4   2
#     4  12  26  46  73 100 138 184 236 287 338 416
#     4  11  24  40  75 100 145 183 226 289 352 402
#     4  11  22  39  75 105 134 183 239 284 338 406
#     4  11  22  44  73 104 133 183 240 283 342 410
#     4  12  27  45  70 106 146 180 227 291 352 414
#     4  12  26  46  68 105 143 181 228 290 351 409
#     4  12  22  43  71 103 131 180 239 281 329 410
#     4  11  22  43  73 103 136 189 227 280 360 408
#
# _framework density 22.359445999999998
#
# number of rings (size 3 to 8) (size 9 to 14) (size 15 to 20)
#    0.000    0.333    6.667    3.000    0.000    4.667 
#    0.000    0.000    0.000    0.000    0.000    0.000 
#    0.000    0.000    0.000    0.000    0.000    0.000 
#
# Total GULP energy -297719.847933 kJ/mol
# GULP energy per Si atom -12404.993664 kJ/mol
# Density = 2.230855 g / cm^3
# Si number density = 22.359446 Si / 1000 Ang^3
#
#
#
# Elastic Constant Matrix: (Units=GPa)
#
#
# Indices 1 2 3 4 5 6 
#
# 1 42.4283 36.0222 3.1341 0.0000 9.3626 0.0000
# 2 36.0222 202.7227 52.8551 0.0000 20.2322 0.0000
# 3 3.1341 52.8551 93.4050 0.0000 14.0509 0.0000
# 4 0.0000 0.0000 0.0000 40.7984 0.0000 9.9070
# 5 9.3626 20.2322 14.0509 0.0000 38.1787 0.0000
# 6 0.0000 0.0000 0.0000 9.9070 0.0000 27.2220
#
#
#
# Elastic Compliance Matrix: (Units=1/GPa)
#
#
# Indices 1 2 3 4 5 6 
#
# 1 0.029111 -0.005390 0.002877 0.000000 -0.005341 0.000000
# 2 -0.005390 0.006928 -0.003584 0.000000 -0.001030 0.000000
# 3 0.002877 -0.003584 0.013188 0.000000 -0.003660 0.000000
# 4 0.000000 0.000000 0.000000 0.026887 0.000000 -0.009785
# 5 -0.005341 -0.001030 -0.003660 0.000000 0.029395 0.000000
# 6 0.000000 0.000000 0.000000 -0.009785 0.000000 0.040296
#
#
# Mechanical properties :
#
#
# Convention : Reuss Voigt Hill
#
# Bulk Modulus (GPa) = 27.00331 58.06430 42.53381
# Shear Modulus (GPa) = 29.35210 37.67613 33.51412
#
# Velocity S-wave (km/s) = 3.62710 4.10935 3.87574
# Velocity P-wave (km/s) = 5.44466 6.96711 6.25240
#
# Compressibility (1/GPa) = 0.03703249
#
# Stress axis : x y z
#
# Youngs Moduli (GPa) = 34.35087 144.34236 75.82419
#
# Poissons Ratio (x) = 0.77797 -0.21812
# Poissons Ratio (y) = 0.18514 0.27179
# Poissons Ratio (z) = -0.09881 0.51739
#
# Static dielectric constant tensor:
#      x y z
#    x 3.889970 0.000000 -0.017880 
#    y 0.000000 3.945460 0.000000 
#    z -0.017880 0.000000 4.399660 
# 
# 
# High freq. dielectric constant tensor:
#      x y z
#    x 1.874310 0.000000 0.011890 
#    y 0.000000 1.891940 0.000000 
#    z 0.011890 0.000000 1.884500 
# 
# From -- ./inp_files/58087.got.cif
#   From: 2010.06.25/outbox.cif.g09.slc.cpg/sg11_30_cif.got.tgz:58087.got - 2010.06.27 23:14:04.
