data_PCOD8077911
_publ_section_title
;
Structure prediction by ZEFSAII (Michael W. Deem and Ramdas Pophale) SiO2 
 PCOD8077911
Probable space group: P 21/M
;
_chemical_formula_sum "Si O2"
_cell_formula_units_Z 32
_cell_length_a 15.485593
_cell_length_b 19.574654
_cell_length_c 15.258806
_cell_angle_alpha 90.000000
_cell_angle_beta 18.511932
_cell_angle_gamma 90.000000
_cell_volume 1468.551374
_symmetry_space_group_name_H-M "P 21/M"
_symmetry_group_IT_number 11
_symmetry_cell_setting 'monoclinic'
loop_
_space_group_symop_operation_xyz
x,y,z
-x,1/2+y,-z
-x,-y,-z
x,1/2-y,z
loop_
_atom_site_type_symbol
_atom_site_label
_atom_site_fract_x
_atom_site_fract_y
_atom_site_fract_z
Si Si1 0.067636 0.951911 0.104254
Si Si2 0.081033 0.385899 0.108739
Si Si3 0.966100 0.410472 0.681242
Si Si4 0.907913 0.325111 0.571124
Si Si5 0.464802 0.006842 0.135449
Si Si6 0.457833 0.831596 0.451424
Si Si7 0.531011 0.933013 0.527448
Si Si8 0.374805 0.364458 0.000015
O O1 0.993310 0.896947 0.254335
O O2 0.850502 0.930842 0.240044
O O3 0.043305 0.032244 0.155794
O O4 0.365556 0.939034 0.777828
O O5 0.224870 0.347338 0.053303
O O6 0.786782 0.351595 0.378518
O O7 0.264639 0.366076 0.849506
O O8 0.224222 0.443497 0.388790
O O9 0.865868 0.350578 0.712539
O O10 0.737152 0.466552 0.915089
O O11 0.037893 0.250000 0.450439
O O12 0.131394 0.371801 0.305985
O O13 0.614659 0.315629 0.805114
O O14 0.437481 0.931045 0.198600
O O15 0.500000 0.000000 0.000000
O O16 0.482491 0.750000 0.436319
O O17 0.422701 0.865679 0.581053
O O18 0.500000 0.000000 0.500000
#
# Coordination Sequence:
#
# PCOD8077911 Si02
#       8
#     4   4   4   4   4   4   4   4
#     4  12  24  40  70 107 127 162 220 285 329 384
#     4  12  24  41  67 102 133 168 211 271 334 393
#     4  12  24  40  64  97 131 166 215 277 328 372
#     4  12  26  44  61  87 133 187 224 256 317 390
#     4  12  21  37  64  94 125 162 215 272 321 364
#     4  12  27  45  67  96 136 176 211 260 335 409
#     4  12  23  44  71  97 133 168 218 270 331 399
#     4  12  25  39  66  97 127 169 221 268 316 388
#
# _framework density 21.790179999999999
#
# number of rings (size 3 to 8) (size 9 to 14) (size 15 to 20)
#    0.000    0.000    6.250    4.500    1.750    3.000 
#    0.000    1.250    0.000    0.000    0.000    0.000 
#    0.000    0.000    0.000    0.000    0.000    0.000 
#
# Total GULP energy -396500.293274 kJ/mol
# GULP energy per Si atom -12390.634165 kJ/mol
# Density = 2.174058 g / cm^3
# Si number density = 21.790180 Si / 1000 Ang^3
#
#
#
# Elastic Constant Matrix: (Units=GPa)
#
#
# Indices 1 2 3 4 5 6 
#
# 1 114.1737 38.7503 22.6750 0.0000 -0.6766 0.0000
# 2 38.7503 94.3836 13.6087 0.0000 -7.9862 0.0000
# 3 22.6750 13.6087 101.0408 0.0000 -4.4429 0.0000
# 4 0.0000 0.0000 0.0000 20.9014 0.0000 -3.2151
# 5 -0.6766 -7.9862 -4.4429 0.0000 42.7023 0.0000
# 6 0.0000 0.0000 0.0000 -3.2151 0.0000 13.5237
#
#
#
# Elastic Compliance Matrix: (Units=1/GPa)
#
#
# Indices 1 2 3 4 5 6 
#
# 1 0.010518 -0.004120 -0.001840 0.000000 -0.000795 0.000000
# 2 -0.004120 0.012571 -0.000671 0.000000 0.002216 0.000000
# 3 -0.001840 -0.000671 0.010441 0.000000 0.000932 0.000000
# 4 0.000000 0.000000 0.000000 0.049660 0.000000 0.011806
# 5 -0.000795 0.002216 0.000932 0.000000 0.023917 0.000000
# 6 0.000000 0.000000 0.000000 0.011806 0.000000 0.076751
#
#
# Mechanical properties :
#
#
# Convention : Reuss Voigt Hill
#
# Bulk Modulus (GPa) = 49.34170 51.07400 50.20785
# Shear Modulus (GPa) = 24.52471 31.06309 27.79390
#
# Velocity S-wave (km/s) = 3.35848 3.77975 3.57532
# Velocity P-wave (km/s) = 6.14266 6.52216 6.33525
#
# Compressibility (1/GPa) = 0.02026683
#
# Stress axis : x y z
#
# Youngs Moduli (GPa) = 95.07753 79.54895 95.77303
#
# Poissons Ratio (x) = 0.32775 0.17626
# Poissons Ratio (y) = 0.39173 0.06427
# Poissons Ratio (z) = 0.17498 0.05338
#
# Static dielectric constant tensor:
#      x y z
#    x 4.276080 0.000000 -0.152830 
#    y 0.000000 3.601280 0.000000 
#    z -0.152830 0.000000 4.073510 
# 
# 
# High freq. dielectric constant tensor:
#      x y z
#    x 1.869360 0.000000 -0.009460 
#    y 0.000000 1.824990 0.000000 
#    z -0.009460 0.000000 1.872280 
# 
# From -- ./inp_files/52693.got.cif
#   From: 2010.06.25/outbox.cif.g09.slc.cpg/sg11_27_cif.got.tgz:52693.got - 2010.06.27 23:14:04.
