data_PCOD8077568
_publ_section_title
;
Structure prediction by ZEFSAII (Michael W. Deem and Ramdas Pophale) SiO2 
 PCOD8077568
Probable space group: P 21/M
;
_chemical_formula_sum "Si O2"
_cell_formula_units_Z 24
_cell_length_a 12.063142
_cell_length_b 21.040730
_cell_length_c 13.858319
_cell_angle_alpha 90.000000
_cell_angle_beta 159.213454
_cell_angle_gamma 90.000000
_cell_volume 1248.309935
_symmetry_space_group_name_H-M "P 21/M"
_symmetry_group_IT_number 11
_symmetry_cell_setting 'monoclinic'
loop_
_space_group_symop_operation_xyz
x,y,z
-x,1/2+y,-z
-x,-y,-z
x,1/2-y,z
loop_
_atom_site_type_symbol
_atom_site_label
_atom_site_fract_x
_atom_site_fract_y
_atom_site_fract_z
Si Si1 0.788556 0.379581 0.185099
Si Si2 0.408331 0.065697 0.036909
Si Si3 0.282876 0.886394 0.534049
Si Si4 0.362598 0.008285 0.283893
Si Si5 0.115783 0.750000 0.431273
Si Si6 0.381075 0.750000 0.858865
Si Si7 0.463630 0.065021 0.756615
O O1 0.532360 0.423807 0.030206
O O2 0.754106 0.308022 0.190351
O O3 0.127139 0.403763 0.489459
O O4 0.714108 0.386565 0.009610
O O5 0.577634 0.117271 0.244050
O O6 0.513401 0.998420 0.162215
O O7 0.033756 0.072353 0.731819
O O8 0.215853 0.812773 0.451064
O O9 0.539030 0.921704 0.675337
O O10 0.469089 0.951389 0.299834
O O11 0.500000 0.000000 0.500000
O O12 0.000000 0.000000 0.000000
O O13 0.275329 0.750000 0.663833
O O14 0.752383 0.750000 0.158599
#
# Coordination Sequence:
#
# PCOD8077568 Si02
#       7
#     4   4   4   4   2   2   4
#     4  12  21  37  55  88 124 165 192 229 290 363
#     4  11  20  36  55  91 122 158 186 239 294 365
#     4  11  21  36  62  88 120 155 198 244 307 360
#     4  11  23  42  63  86 112 151 202 264 316 339
#     4  12  20  40  56  89 124 159 196 238 286 372
#     4  12  24  36  60  81 132 173 192 226 284 366
#     4  11  23  36  60  86 117 154 202 246 299 358
#
# _framework density 19.225995000000001
#
# number of rings (size 3 to 8) (size 9 to 14) (size 15 to 20)
#    0.000    0.667    3.333    8.000    0.000    0.000 
#    0.000    0.000    0.000    6.000    0.000    0.000 
#    0.000    0.000    0.000    0.000    0.000    0.000 
#
# Total GULP energy -297524.750998 kJ/mol
# GULP energy per Si atom -12396.864625 kJ/mol
# Density = 1.918224 g / cm^3
# Si number density = 19.225995 Si / 1000 Ang^3
#
#
#
# Elastic Constant Matrix: (Units=GPa)
#
#
# Indices 1 2 3 4 5 6 
#
# 1 99.1656 43.4302 40.3655 0.0000 -14.4645 0.0000
# 2 43.4302 103.1753 51.6688 0.0000 9.3586 0.0000
# 3 40.3655 51.6688 151.7729 0.0000 -2.9043 0.0000
# 4 0.0000 0.0000 0.0000 29.0599 0.0000 4.9918
# 5 -14.4645 9.3586 -2.9043 0.0000 35.1279 0.0000
# 6 0.0000 0.0000 0.0000 4.9918 0.0000 35.9187
#
#
#
# Elastic Compliance Matrix: (Units=1/GPa)
#
#
# Indices 1 2 3 4 5 6 
#
# 1 0.014430 -0.005897 -0.001689 0.000000 0.007373 0.000000
# 2 -0.005897 0.014526 -0.003503 0.000000 -0.006588 0.000000
# 3 -0.001689 -0.003503 0.008248 0.000000 0.000920 0.000000
# 4 0.000000 0.000000 0.000000 0.035253 0.000000 -0.004899
# 5 0.007373 -0.006588 0.000920 0.000000 0.033334 0.000000
# 6 0.000000 0.000000 0.000000 -0.004899 0.000000 0.028522
#
#
# Mechanical properties :
#
#
# Convention : Reuss Voigt Hill
#
# Bulk Modulus (GPa) = 66.55056 69.44919 67.99987
# Shear Modulus (GPa) = 30.95974 34.59791 32.77882
#
# Velocity S-wave (km/s) = 4.01722 4.24670 4.13355
# Velocity P-wave (km/s) = 7.49716 7.76189 7.63067
#
# Compressibility (1/GPa) = 0.01502617
#
# Stress axis : x y z
#
# Youngs Moduli (GPa) = 69.30136 68.84090 121.23910
#
# Poissons Ratio (x) = 0.40595 0.20479
# Poissons Ratio (y) = 0.40866 0.42470
# Poissons Ratio (z) = 0.11706 0.24115
#
# Static dielectric constant tensor:
#      x y z
#    x 3.651070 0.000000 -0.230110 
#    y 0.000000 3.766870 0.000000 
#    z -0.230110 0.000000 3.725980 
# 
# 
# High freq. dielectric constant tensor:
#      x y z
#    x 1.726900 0.000000 -0.020880 
#    y 0.000000 1.745600 0.000000 
#    z -0.020880 0.000000 1.772430 
# 
# From -- ./inp_files/36549.got.cif
#   From: 2010.06.25/outbox.cif.g09.slc.cpg/sg11_19_cif.got.tgz:36549.got - 2010.06.27 23:14:04.
