data_PCOD8077804
_publ_section_title
;
Structure prediction by ZEFSAII (Michael W. Deem and Ramdas Pophale) SiO2 
 PCOD8077804
Probable space group: P 21/M
;
_chemical_formula_sum "Si O2"
_cell_formula_units_Z 32
_cell_length_a 12.187702
_cell_length_b 8.586267
_cell_length_c 15.052949
_cell_angle_alpha 90.000000
_cell_angle_beta 92.171589
_cell_angle_gamma 90.000000
_cell_volume 1574.112604
_symmetry_space_group_name_H-M "P 21/M"
_symmetry_group_IT_number 11
_symmetry_cell_setting 'monoclinic'
loop_
_space_group_symop_operation_xyz
x,y,z
-x,1/2+y,-z
-x,-y,-z
x,1/2-y,z
loop_
_atom_site_type_symbol
_atom_site_label
_atom_site_fract_x
_atom_site_fract_y
_atom_site_fract_z
Si Si1 0.331099 0.933693 0.525843
Si Si2 0.908514 0.435222 0.432382
Si Si3 0.525709 0.432071 0.630807
Si Si4 0.721341 0.927196 0.942434
Si Si5 0.700212 0.431801 0.128927
Si Si6 0.109816 0.433455 0.758883
Si Si7 0.964682 0.570807 0.905996
Si Si8 0.472083 0.570196 0.168890
O O1 0.325917 0.750000 0.526019
O O2 0.209074 0.999863 0.536715
O O3 0.380646 0.995827 0.433604
O O4 0.409020 0.987641 0.608531
O O5 0.912353 0.250000 0.431161
O O6 0.932188 0.499252 0.335288
O O7 0.000000 0.500000 0.500000
O O8 0.508763 0.250000 0.615714
O O9 0.562219 0.472631 0.731681
O O10 0.678370 0.750000 0.940172
O O11 0.833642 0.942353 0.890944
O O12 0.630877 0.038452 0.896900
O O13 0.743823 0.978704 0.043786
O O14 0.717743 0.250000 0.115254
O O15 0.772769 0.490155 0.213881
O O16 0.572934 0.465012 0.141564
O O17 0.125057 0.250000 0.752672
O O18 0.018429 0.473535 0.828828
O O19 0.003706 0.750000 0.902271
O O20 0.000000 0.500000 0.000000
O O21 0.506504 0.750000 0.161248
#
# Coordination Sequence:
#
# PCOD8077804 Si02
#       8
#     4   4   4   4   4   4   4   4
#     4   9  19  37  61  87 117 153 196 246 301 360
#     4  11  24  42  63  91 127 165 207 258 315 375
#     4   9  19  36  59  87 116 152 196 244 298 361
#     4  11  24  41  61  88 122 159 202 252 309 371
#     4  12  24  40  63  88 121 161 206 256 309 370
#     4  12  25  42  66  94 125 164 211 261 314 377
#     4  11  23  41  66  93 124 161 207 260 311 370
#     4  11  23  38  58  87 125 163 203 249 306 371
#
# _framework density 20.328914999999999
#
# number of rings (size 3 to 8) (size 9 to 14) (size 15 to 20)
#    0.000    1.250    1.250    4.875    0.000    6.500 
#    0.000    1.250    0.000    0.000    0.000    0.000 
#    0.000    0.000    0.000    0.000    0.000    0.000 
#
# Total GULP energy -396982.897028 kJ/mol
# GULP energy per Si atom -12405.715532 kJ/mol
# Density = 2.028265 g / cm^3
# Si number density = 20.328915 Si / 1000 Ang^3
#
#
#
# Elastic Constant Matrix: (Units=GPa)
#
#
# Indices 1 2 3 4 5 6 
#
# 1 114.3166 30.5764 53.4998 0.0000 0.0006 0.0000
# 2 30.5764 67.9369 26.9853 0.0000 -4.9797 0.0000
# 3 53.4998 26.9853 119.2008 0.0000 5.9262 0.0000
# 4 0.0000 0.0000 0.0000 30.9554 0.0000 5.1627
# 5 0.0006 -4.9797 5.9262 0.0000 32.2078 0.0000
# 6 0.0000 0.0000 0.0000 5.1627 0.0000 32.5519
#
#
#
# Elastic Compliance Matrix: (Units=1/GPa)
#
#
# Indices 1 2 3 4 5 6 
#
# 1 0.011796 -0.003493 -0.004518 0.000000 0.000291 0.000000
# 2 -0.003493 0.017543 -0.002562 0.000000 0.003184 0.000000
# 3 -0.004518 -0.002562 0.011118 0.000000 -0.002442 0.000000
# 4 0.000000 0.000000 0.000000 0.033182 0.000000 -0.005263
# 5 0.000291 0.003184 -0.002442 0.000000 0.031990 0.000000
# 6 0.000000 0.000000 0.000000 -0.005263 0.000000 0.031555
#
#
# Mechanical properties :
#
#
# Convention : Reuss Voigt Hill
#
# Bulk Modulus (GPa) = 51.78373 58.17525 54.97949
# Shear Modulus (GPa) = 30.34567 31.83586 31.09077
#
# Velocity S-wave (km/s) = 3.86778 3.96161 3.91498
# Velocity P-wave (km/s) = 6.74348 7.04308 6.89491
#
# Compressibility (1/GPa) = 0.01931109
#
# Stress axis : x y z
#
# Youngs Moduli (GPa) = 84.77119 57.00376 89.94093
#
# Poissons Ratio (x) = 0.19913 0.40637
# Poissons Ratio (y) = 0.29613 0.23041
# Poissons Ratio (z) = 0.38301 0.14603
#
# Static dielectric constant tensor:
#      x y z
#    x 3.978670 0.000000 -0.099260 
#    y 0.000000 3.690140 0.000000 
#    z -0.099260 0.000000 3.844130 
# 
# 
# High freq. dielectric constant tensor:
#      x y z
#    x 1.800200 0.000000 -0.006620 
#    y 0.000000 1.800370 0.000000 
#    z -0.006620 0.000000 1.799130 
# 
# From -- ./inp_files/49346.got.cif
#   From: 2010.06.25/outbox.cif.g09.slc.cpg/sg11_25_cif.got.tgz:49346.got - 2010.06.27 23:14:04.
