data_PCOD8077755
_publ_section_title
;
Structure prediction by ZEFSAII (Michael W. Deem and Ramdas Pophale) SiO2 
 PCOD8077755
Probable space group: P 21/M
;
_chemical_formula_sum "Si O2"
_cell_formula_units_Z 28
_cell_length_a 6.497436
_cell_length_b 19.013056
_cell_length_c 11.531101
_cell_angle_alpha 90.000000
_cell_angle_beta 96.310675
_cell_angle_gamma 90.000000
_cell_volume 1415.875601
_symmetry_space_group_name_H-M "P 21/M"
_symmetry_group_IT_number 11
_symmetry_cell_setting 'monoclinic'
loop_
_space_group_symop_operation_xyz
x,y,z
-x,1/2+y,-z
-x,-y,-z
x,1/2-y,z
loop_
_atom_site_type_symbol
_atom_site_label
_atom_site_fract_x
_atom_site_fract_y
_atom_site_fract_z
Si Si1 0.685134 0.037216 0.440956
Si Si2 0.717351 0.831613 0.959307
Si Si3 0.674723 0.668627 0.228875
Si Si4 0.431081 0.572710 0.805723
Si Si5 0.087498 0.572066 0.955575
Si Si6 0.997471 0.575206 0.357640
Si Si7 0.678261 0.432671 0.813473
O O1 0.584700 0.085542 0.334053
O O2 0.834837 0.085718 0.528779
O O3 0.500000 0.000000 0.500000
O O4 0.821276 0.979000 0.383881
O O5 0.741073 0.750000 0.935606
O O6 0.518797 0.858928 0.876289
O O7 0.913907 0.870779 0.917849
O O8 0.706246 0.847625 0.095253
O O9 0.627749 0.750000 0.250471
O O10 0.880436 0.647181 0.313974
O O11 0.478817 0.621934 0.258664
O O12 0.203701 0.557458 0.842412
O O13 0.571183 0.505388 0.841528
O O14 0.243212 0.603208 0.062828
O O15 0.000000 0.500000 0.000000
O O16 0.128863 0.547790 0.256569
#
# Coordination Sequence:
#
# PCOD8077755 Si02
#       7
#     4   4   4   4   4   4   4
#     4  11  23  40  65  94 125 158 211 268 309 364
#     4  11  25  40  59  92 134 170 202 248 313 382
#     4  11  23  40  60  91 133 169 206 256 313 376
#     4  12  23  38  64  93 127 161 205 260 313 369
#     4  12  22  35  63  95 126 161 207 257 314 374
#     4  11  22  39  64  93 125 161 209 260 320 362
#     4  12  21  37  63  97 123 157 210 263 314 368
#
# _framework density 19.775749999999999
#
# number of rings (size 3 to 8) (size 9 to 14) (size 15 to 20)
#    0.000    0.571    7.143    2.143    0.000    1.714 
#    0.000    0.714    0.000    4.286    0.000    0.000 
#    0.000    0.000    0.000    0.000    0.000    0.000 
#
# Total GULP energy -347195.509534 kJ/mol
# GULP energy per Si atom -12399.839626 kJ/mol
# Density = 1.973074 g / cm^3
# Si number density = 19.775750 Si / 1000 Ang^3
#
#
#
# Elastic Constant Matrix: (Units=GPa)
#
#
# Indices 1 2 3 4 5 6 
#
# 1 120.3509 48.5881 48.3323 0.0000 -10.1110 0.0000
# 2 48.5881 105.8698 31.1657 0.0000 2.0659 0.0000
# 3 48.3323 31.1657 122.8042 0.0000 7.7140 0.0000
# 4 0.0000 0.0000 0.0000 21.4896 0.0000 6.1501
# 5 -10.1110 2.0659 7.7140 0.0000 50.7916 0.0000
# 6 0.0000 0.0000 0.0000 6.1501 0.0000 30.7991
#
#
#
# Elastic Compliance Matrix: (Units=1/GPa)
#
#
# Indices 1 2 3 4 5 6 
#
# 1 0.011848 -0.004396 -0.003742 0.000000 0.003106 0.000000
# 2 -0.004396 0.011840 -0.001201 0.000000 -0.001174 0.000000
# 3 -0.003742 -0.001201 0.010060 0.000000 -0.002224 0.000000
# 4 0.000000 0.000000 0.000000 0.049354 0.000000 -0.009855
# 5 0.003106 -0.001174 -0.002224 0.000000 0.020692 0.000000
# 6 0.000000 0.000000 0.000000 -0.009855 0.000000 0.034436
#
#
# Mechanical properties :
#
#
# Convention : Reuss Voigt Hill
#
# Bulk Modulus (GPa) = 66.36124 67.24411 66.80267
# Shear Modulus (GPa) = 30.87710 35.34534 33.11122
#
# Velocity S-wave (km/s) = 3.95569 4.23224 4.09630
# Velocity P-wave (km/s) = 7.38194 7.61312 7.49842
#
# Compressibility (1/GPa) = 0.01506904
#
# Stress axis : x y z
#
# Youngs Moduli (GPa) = 84.40414 84.46226 99.40046
#
# Poissons Ratio (x) = 0.37133 0.37199
# Poissons Ratio (y) = 0.37107 0.11934
# Poissons Ratio (z) = 0.31587 0.10141
#
# Static dielectric constant tensor:
#      x y z
#    x 3.963950 0.000000 0.174550 
#    y 0.000000 3.257800 0.000000 
#    z 0.174550 0.000000 3.844970 
# 
# 
# High freq. dielectric constant tensor:
#      x y z
#    x 1.795670 0.000000 0.004830 
#    y 0.000000 1.732840 0.000000 
#    z 0.004830 0.000000 1.772530 
# 
# From -- ./inp_files/29890.got.cif
#   From: 2010.06.25/outbox.cif.g09.slc.cpg/sg11_15_cif.got.tgz:29890.got - 2010.06.27 23:14:04.
