data_PCOD8077630
_publ_section_title
;
Structure prediction by ZEFSAII (Michael W. Deem and Ramdas Pophale) SiO2 
 PCOD8077630
Probable space group: P 21/M
;
_chemical_formula_sum "Si O2"
_cell_formula_units_Z 28
_cell_length_a 12.279822
_cell_length_b 8.740436
_cell_length_c 14.798488
_cell_angle_alpha 90.000000
_cell_angle_beta 120.515987
_cell_angle_gamma 90.000000
_cell_volume 1368.332049
_symmetry_space_group_name_H-M "P 21/M"
_symmetry_group_IT_number 11
_symmetry_cell_setting 'monoclinic'
loop_
_space_group_symop_operation_xyz
x,y,z
-x,1/2+y,-z
-x,-y,-z
x,1/2-y,z
loop_
_atom_site_type_symbol
_atom_site_label
_atom_site_fract_x
_atom_site_fract_y
_atom_site_fract_z
Si Si1 0.881621 0.432525 0.176178
Si Si2 0.656315 0.569811 0.814611
Si Si3 0.486112 0.072449 0.592549
Si Si4 0.028352 0.585430 0.602651
Si Si5 0.135163 0.571406 0.208400
Si Si6 0.611453 0.068429 0.986514
Si Si7 0.764465 0.585449 0.584287
O O1 0.898547 0.250000 0.182087
O O2 0.884319 0.492516 0.282629
O O3 0.995616 0.502464 0.164617
O O4 0.747723 0.485889 0.081089
O O5 0.665931 0.750000 0.832782
O O6 0.556035 0.529778 0.694955
O O7 0.796168 0.504109 0.849624
O O8 0.600605 0.492939 0.880771
O O9 0.530370 0.250000 0.618185
O O10 0.333891 0.053201 0.539021
O O11 0.500000 0.000000 0.500000
O O12 0.086029 0.750000 0.600003
O O13 0.000000 0.500000 0.500000
O O14 0.897897 0.605210 0.597109
O O15 0.121500 0.750000 0.185448
O O16 0.229234 0.541635 0.333654
O O17 0.599340 0.250000 0.982247
O O18 0.500000 0.000000 0.000000
O O19 0.727706 0.750000 0.614817
#
# Coordination Sequence:
#
# PCOD8077630 Si02
#       7
#     4   4   4   4   4   4   4
#     4   9  21  42  65  87 121 164 202 252 316 375
#     4  12  25  41  62  90 128 171 212 262 317 378
#     4  11  21  35  58  89 124 164 205 251 306 370
#     4   9  18  34  55  83 115 152 195 240 293 357
#     4  11  21  35  61  94 124 155 202 256 310 377
#     4  11  25  47  70  92 121 162 213 266 315 375
#     4   9  19  35  54  79 120 163 196 242 306 367
#
# _framework density 20.462869999999999
#
# number of rings (size 3 to 8) (size 9 to 14) (size 15 to 20)
#    0.000    1.714    1.429    4.286    0.000    5.714 
#    0.000    2.857    0.000    0.000    0.000    0.000 
#    0.000    0.000    0.000    0.000    0.000    0.000 
#
# Total GULP energy -346924.820123 kJ/mol
# GULP energy per Si atom -12390.172147 kJ/mol
# Density = 2.041630 g / cm^3
# Si number density = 20.462870 Si / 1000 Ang^3
#
#
#
# Elastic Constant Matrix: (Units=GPa)
#
#
# Indices 1 2 3 4 5 6 
#
# 1 98.3336 43.1100 61.7256 0.0000 -4.1547 0.0000
# 2 43.1100 99.3588 34.0549 0.0000 -1.7585 0.0000
# 3 61.7256 34.0549 120.7079 0.0000 -0.6705 0.0000
# 4 0.0000 0.0000 0.0000 30.8960 0.0000 -2.7603
# 5 -4.1547 -1.7585 -0.6705 0.0000 36.6704 0.0000
# 6 0.0000 0.0000 0.0000 -2.7603 0.0000 32.8609
#
#
#
# Elastic Compliance Matrix: (Units=1/GPa)
#
#
# Indices 1 2 3 4 5 6 
#
# 1 0.016919 -0.004817 -0.007284 0.000000 0.001553 0.000000
# 2 -0.004817 0.012522 -0.001069 0.000000 0.000035 0.000000
# 3 -0.007284 -0.001069 0.012307 0.000000 -0.000652 0.000000
# 4 0.000000 0.000000 0.000000 0.032611 0.000000 0.002739
# 5 0.001553 0.000035 -0.000652 0.000000 0.027436 0.000000
# 6 0.000000 0.000000 0.000000 0.002739 0.000000 0.030661
#
#
# Mechanical properties :
#
#
# Convention : Reuss Voigt Hill
#
# Bulk Modulus (GPa) = 64.90390 66.24237 65.57314
# Shear Modulus (GPa) = 30.50020 32.05280 31.27650
#
# Velocity S-wave (km/s) = 3.86491 3.96206 3.91378
# Velocity P-wave (km/s) = 7.19051 7.30567 7.24832
#
# Compressibility (1/GPa) = 0.01540739
#
# Stress axis : x y z
#
# Youngs Moduli (GPa) = 59.10427 79.86200 81.25154
#
# Poissons Ratio (x) = 0.38468 0.59186
# Poissons Ratio (y) = 0.28469 0.08689
# Poissons Ratio (z) = 0.43053 0.08540
#
# Static dielectric constant tensor:
#      x y z
#    x 4.282330 0.000000 1.322220 
#    y 0.000000 3.937980 0.000000 
#    z 1.322220 0.000000 5.507810 
# 
# 
# High freq. dielectric constant tensor:
#      x y z
#    x 1.798130 0.000000 0.011970 
#    y 0.000000 1.800160 0.000000 
#    z 0.011970 0.000000 1.801580 
# 
# From -- ./inp_files/49469.got.cif
#   From: 2010.06.25/outbox.cif.g09.slc.cpg/sg11_25_cif.got.tgz:49469.got - 2010.06.27 23:14:04.
