data_PCOD8077562
_publ_section_title
;
Structure prediction by ZEFSAII (Michael W. Deem and Ramdas Pophale) SiO2 
 PCOD8077562
Probable space group: P 21/M
;
_chemical_formula_sum "Si O2"
_cell_formula_units_Z 24
_cell_length_a 30.054615
_cell_length_b 8.847175
_cell_length_c 15.013488
_cell_angle_alpha 90.000000
_cell_angle_beta 160.345442
_cell_angle_gamma 90.000000
_cell_volume 1342.724249
_symmetry_space_group_name_H-M "P 21/M"
_symmetry_group_IT_number 11
_symmetry_cell_setting 'monoclinic'
loop_
_space_group_symop_operation_xyz
x,y,z
-x,1/2+y,-z
-x,-y,-z
x,1/2-y,z
loop_
_atom_site_type_symbol
_atom_site_label
_atom_site_fract_x
_atom_site_fract_y
_atom_site_fract_z
Si Si1 0.386871 0.429213 0.226758
Si Si2 0.117062 0.571636 0.164872
Si Si3 0.541204 0.427670 0.349255
Si Si4 0.415528 0.928227 0.763054
Si Si5 0.115374 0.929373 0.774165
Si Si6 0.827731 0.070799 0.925393
O O1 0.500000 0.500000 0.500000
O O2 0.378195 0.250000 0.226583
O O3 0.420206 0.467969 0.186209
O O4 0.250925 0.509655 0.990602
O O5 0.102626 0.750000 0.143417
O O6 0.260896 0.521954 0.474107
O O7 0.101760 0.515942 0.032944
O O8 0.000000 0.500000 0.000000
O O9 0.561983 0.250000 0.382559
O O10 0.519038 0.486278 0.206626
O O11 0.678281 0.495463 0.646981
O O12 0.426116 0.750000 0.792648
O O13 0.500000 0.000000 0.000000
O O14 0.112788 0.750000 0.760712
O O15 0.097709 0.982339 0.844097
O O16 0.000000 0.000000 0.500000
O O17 0.821629 0.250000 0.912946
#
# Coordination Sequence:
#
# PCOD8077562 Si02
#       6
#     4   4   4   4   4   4
#     4  11  20  34  58  84 108 139 181 223 263 315
#     4   9  18  34  56  78 101 134 178 218 256 310
#     4   8  15  31  55  78 100 136 179 212 252 316
#     4   9  18  34  55  77 105 137 172 214 261 312
#     4  11  22  38  56  78 110 145 180 221 269 319
#     4   8  15  32  56  75  98 139 180 211 254 318
#
# _framework density 17.874109000000001
#
# number of rings (size 3 to 8) (size 9 to 14) (size 15 to 20)
#    0.000    2.667    1.667    3.000    0.000    0.667 
#    3.000    3.333    0.000    0.000    0.000    0.000 
#    0.000    0.000    0.000    0.000    0.000    0.000 
#
# Total GULP energy -297383.753864 kJ/mol
# GULP energy per Si atom -12390.989744 kJ/mol
# Density = 1.783343 g / cm^3
# Si number density = 17.874109 Si / 1000 Ang^3
#
#
#
# Elastic Constant Matrix: (Units=GPa)
#
#
# Indices 1 2 3 4 5 6 
#
# 1 174.1930 46.0882 101.7832 0.0000 -10.4512 0.0000
# 2 46.0882 49.6431 44.0458 0.0000 -2.4620 0.0000
# 3 101.7832 44.0458 143.4404 0.0000 -13.5562 0.0000
# 4 0.0000 0.0000 0.0000 32.9390 0.0000 0.9780
# 5 -10.4512 -2.4620 -13.5562 0.0000 33.7231 0.0000
# 6 0.0000 0.0000 0.0000 0.9780 0.0000 28.2687
#
#
#
# Elastic Compliance Matrix: (Units=1/GPa)
#
#
# Indices 1 2 3 4 5 6 
#
# 1 0.010438 -0.004310 -0.006036 0.000000 0.000494 0.000000
# 2 -0.004310 0.029535 -0.006168 0.000000 -0.001659 0.000000
# 3 -0.006036 -0.006168 0.013440 0.000000 0.003082 0.000000
# 4 0.000000 0.000000 0.000000 0.030390 0.000000 -0.001051
# 5 0.000494 -0.001659 0.003082 0.000000 0.030924 0.000000
# 6 0.000000 0.000000 0.000000 -0.001051 0.000000 0.035411
#
#
# Mechanical properties :
#
#
# Convention : Reuss Voigt Hill
#
# Bulk Modulus (GPa) = 49.05635 83.45677 66.25656
# Shear Modulus (GPa) = 26.32105 30.67680 28.49892
#
# Velocity S-wave (km/s) = 3.84158 4.14728 3.99736
# Velocity P-wave (km/s) = 6.86892 8.35021 7.64553
#
# Compressibility (1/GPa) = 0.02038472
#
# Stress axis : x y z
#
# Youngs Moduli (GPa) = 95.80434 33.85782 74.40468
#
# Poissons Ratio (x) = 0.14593 0.44914
# Poissons Ratio (y) = 0.41294 0.45890
# Poissons Ratio (z) = 0.57832 0.20882
#
# Static dielectric constant tensor:
#      x y z
#    x 3.720310 0.000000 -0.554560 
#    y 0.000000 3.054380 0.000000 
#    z -0.554560 0.000000 2.771920 
# 
# 
# High freq. dielectric constant tensor:
#      x y z
#    x 1.710460 0.000000 -0.004930 
#    y 0.000000 1.664990 0.000000 
#    z -0.004930 0.000000 1.679070 
# 
# From -- ./inp_files/20388.got.cif
#   From: 2010.06.25/outbox.cif.g09.slc.cpg/sg11_11_cif.got.tgz:20388.got - 2010.06.27 23:14:04.
