data_PCOD8077613
_publ_section_title
;
Structure prediction by ZEFSAII (Michael W. Deem and Ramdas Pophale) SiO2 
 PCOD8077613
Probable space group: P 21/M
;
_chemical_formula_sum "Si O2"
_cell_formula_units_Z 32
_cell_length_a 26.378806
_cell_length_b 8.722366
_cell_length_c 21.054960
_cell_angle_alpha 90.000000
_cell_angle_beta 158.866936
_cell_angle_gamma 90.000000
_cell_volume 1746.591943
_symmetry_space_group_name_H-M "P 21/M"
_symmetry_group_IT_number 11
_symmetry_cell_setting 'monoclinic'
loop_
_space_group_symop_operation_xyz
x,y,z
-x,1/2+y,-z
-x,-y,-z
x,1/2-y,z
loop_
_atom_site_type_symbol
_atom_site_label
_atom_site_fract_x
_atom_site_fract_y
_atom_site_fract_z
Si Si1 0.981483 0.070216 0.664515
Si Si2 0.414423 0.569185 0.457894
Si Si3 0.277947 0.068034 0.960090
Si Si4 0.392688 0.569944 0.218063
Si Si5 0.121845 0.073761 0.954427
Si Si6 0.885108 0.928049 0.910417
Si Si7 0.604133 0.931205 0.036310
Si Si8 0.698684 0.068275 0.273415
O O1 0.968324 0.250000 0.640120
O O2 0.836085 0.996796 0.469046
O O3 0.002369 0.027570 0.763369
O O4 0.116984 0.011695 0.782818
O O5 0.500000 0.500000 0.500000
O O6 0.431299 0.750000 0.475843
O O7 0.470823 0.505712 0.590690
O O8 0.254101 0.522979 0.264214
O O9 0.288725 0.250000 0.978696
O O10 0.333016 0.009143 0.956625
O O11 0.377921 0.995097 0.129995
O O12 0.414047 0.750000 0.240289
O O13 0.258013 0.531003 0.103981
O O14 0.168600 0.250000 0.997209
O O15 0.062543 0.050763 0.955748
O O16 0.860301 0.750000 0.865585
O O17 0.000000 0.000000 0.000000
O O18 0.617094 0.750000 0.057167
O O19 0.441432 0.984424 0.852514
O O20 0.697333 0.005206 0.200478
O O21 0.705959 0.250000 0.278879
#
# Coordination Sequence:
#
# PCOD8077613 Si02
#       8
#     4   4   4   4   4   4   4   4
#     4   8  15  30  52  74  97 130 175 215 255 312
#     4  12  23  38  61  86 111 146 190 234 278 333
#     4   9  18  34  52  73 103 138 172 216 265 314
#     4  11  21  34  56  84 111 140 180 227 276 329
#     4   9  18  35  57  77 106 146 183 222 273 329
#     4  11  23  39  58  83 116 151 188 234 284 334
#     4   9  18  32  50  73 102 135 171 211 259 314
#     4   9  17  31  51  73  99 134 173 211 255 313
#
# _framework density 18.321396
#
# number of rings (size 3 to 8) (size 9 to 14) (size 15 to 20)
#    0.000    2.250    1.250    3.375    0.000    1.500 
#    2.250    2.500    0.000    0.000    0.000    0.000 
#    0.000    0.000    0.000    0.000    0.000    0.000 
#
# Total GULP energy -396777.609339 kJ/mol
# GULP energy per Si atom -12399.300292 kJ/mol
# Density = 1.827970 g / cm^3
# Si number density = 18.321396 Si / 1000 Ang^3
#
#
#
# Elastic Constant Matrix: (Units=GPa)
#
#
# Indices 1 2 3 4 5 6 
#
# 1 144.2993 33.0508 76.3280 0.0000 -10.1309 0.0000
# 2 33.0508 65.6650 33.8745 0.0000 -6.9433 0.0000
# 3 76.3280 33.8745 152.5911 0.0000 -16.3504 0.0000
# 4 0.0000 0.0000 0.0000 25.7192 0.0000 -4.1909
# 5 -10.1309 -6.9433 -16.3504 0.0000 24.3144 0.0000
# 6 0.0000 0.0000 0.0000 -4.1909 0.0000 25.6682
#
#
#
# Elastic Compliance Matrix: (Units=1/GPa)
#
#
# Indices 1 2 3 4 5 6 
#
# 1 0.009842 -0.002700 -0.004275 0.000000 0.000455 0.000000
# 2 -0.002700 0.018084 -0.002404 0.000000 0.002422 0.000000
# 3 -0.004275 -0.002404 0.009657 0.000000 0.004026 0.000000
# 4 0.000000 0.000000 0.000000 0.039944 0.000000 0.006522
# 5 0.000455 0.002422 0.004026 0.000000 0.044717 0.000000
# 6 0.000000 0.000000 0.000000 0.006522 0.000000 0.040024
#
#
# Mechanical properties :
#
#
# Convention : Reuss Voigt Hill
#
# Bulk Modulus (GPa) = 53.12308 72.11803 62.62055
# Shear Modulus (GPa) = 26.69507 29.76050 28.22778
#
# Velocity S-wave (km/s) = 3.82126 4.03470 3.92943
# Velocity P-wave (km/s) = 6.96617 7.82006 7.40543
#
# Compressibility (1/GPa) = 0.01882421
#
# Stress axis : x y z
#
# Youngs Moduli (GPa) = 101.60972 55.29631 103.55297
#
# Poissons Ratio (x) = 0.14931 0.44266
# Poissons Ratio (y) = 0.27437 0.24898
# Poissons Ratio (z) = 0.43435 0.13295
#
# Static dielectric constant tensor:
#      x y z
#    x 3.377590 0.000000 -0.242000 
#    y 0.000000 3.239520 0.000000 
#    z -0.242000 0.000000 3.396940 
# 
# 
# High freq. dielectric constant tensor:
#      x y z
#    x 1.707150 0.000000 -0.012830 
#    y 0.000000 1.697750 0.000000 
#    z -0.012830 0.000000 1.712650 
# 
# From -- ./inp_files/67169.got.cif
#   From: 2010.06.25/outbox.cif.g09.slc.cpg/sg11_34_cif.got.tgz:67169.got - 2010.06.27 23:14:04.
