data_PCOD8077438
_publ_section_title
;
Structure prediction by ZEFSAII (Michael W. Deem and Ramdas Pophale) SiO2 
 PCOD8077438
Probable space group: P 21/M
;
_chemical_formula_sum "Si O2"
_cell_formula_units_Z 28
_cell_length_a 9.429254
_cell_length_b 14.161161
_cell_length_c 11.963337
_cell_angle_alpha 90.000000
_cell_angle_beta 55.816821
_cell_angle_gamma 90.000000
_cell_volume 1321.487242
_symmetry_space_group_name_H-M "P 21/M"
_symmetry_group_IT_number 11
_symmetry_cell_setting 'monoclinic'
loop_
_space_group_symop_operation_xyz
x,y,z
-x,1/2+y,-z
-x,-y,-z
x,1/2-y,z
loop_
_atom_site_type_symbol
_atom_site_label
_atom_site_fract_x
_atom_site_fract_y
_atom_site_fract_z
Si Si1 0.439769 0.538841 0.182672
Si Si2 0.606372 0.360449 0.022873
Si Si3 0.240922 0.641939 0.655931
Si Si4 0.290995 0.147521 0.811717
Si Si5 0.367497 0.139376 0.529881
Si Si6 0.175783 0.988182 0.485764
Si Si7 0.929405 0.395211 0.032439
O O1 0.459264 0.427428 0.143312
O O2 0.627575 0.576104 0.134817
O O3 0.312817 0.556438 0.340884
O O4 0.367266 0.602201 0.114191
O O5 0.548612 0.250000 0.051924
O O6 0.785871 0.373233 0.004936
O O7 0.237641 0.750000 0.618417
O O8 0.437548 0.607826 0.581974
O O9 0.147090 0.581686 0.602340
O O10 0.141947 0.630525 0.815078
O O11 0.383871 0.250000 0.776042
O O12 0.315082 0.104923 0.677060
O O13 0.093297 0.167120 0.928562
O O14 0.339945 0.250000 0.525676
O O15 0.242239 0.089354 0.497972
O O16 0.000000 0.000000 0.500000
O O17 0.000000 0.500000 0.000000
#
# Coordination Sequence:
#
# PCOD8077438 Si02
#       7
#     4   4   4   4   4   4   4
#     4  11  25  44  68  99 134 180 226 271 336 407
#     4  11  25  45  69  98 137 178 221 279 342 400
#     4  11  24  44  71 101 135 179 228 275 333 401
#     4  11  22  41  68 100 134 173 223 275 329 392
#     4  10  23  44  70  99 130 177 230 276 331 401
#     4  12  27  42  67  97 137 179 219 277 341 399
#     4  12  24  41  69 102 135 172 224 284 334 393
#
# _framework density 21.188247
#
# number of rings (size 3 to 8) (size 9 to 14) (size 15 to 20)
#    0.000    0.857    2.857    3.857    4.000    2.857 
#    0.000    1.429    0.000    0.000    0.000    0.000 
#    0.000    0.000    0.000    0.000    0.000    0.000 
#
# Total GULP energy -347276.198210 kJ/mol
# GULP energy per Si atom -12402.721365 kJ/mol
# Density = 2.114002 g / cm^3
# Si number density = 21.188247 Si / 1000 Ang^3
#
#
#
# Elastic Constant Matrix: (Units=GPa)
#
#
# Indices 1 2 3 4 5 6 
#
# 1 147.6738 51.9883 56.0367 0.0000 13.1527 0.0000
# 2 51.9883 122.7435 23.0385 0.0000 10.3920 0.0000
# 3 56.0367 23.0385 143.3238 0.0000 1.9743 0.0000
# 4 0.0000 0.0000 0.0000 28.3011 0.0000 -0.2493
# 5 13.1527 10.3920 1.9743 0.0000 35.0518 0.0000
# 6 0.0000 0.0000 0.0000 -0.2493 0.0000 25.3094
#
#
#
# Elastic Compliance Matrix: (Units=1/GPa)
#
#
# Indices 1 2 3 4 5 6 
#
# 1 0.009258 -0.003142 -0.003082 0.000000 -0.002369 0.000000
# 2 -0.003142 0.009677 -0.000304 0.000000 -0.001673 0.000000
# 3 -0.003082 -0.000304 0.008220 0.000000 0.000784 0.000000
# 4 0.000000 0.000000 0.000000 0.035337 0.000000 0.000348
# 5 -0.002369 -0.001673 0.000784 0.000000 0.029870 0.000000
# 6 0.000000 0.000000 0.000000 0.000348 0.000000 0.039514
#
#
# Mechanical properties :
#
#
# Convention : Reuss Voigt Hill
#
# Bulk Modulus (GPa) = 70.92807 75.09645 73.01226
# Shear Modulus (GPa) = 33.41500 36.57764 34.99632
#
# Velocity S-wave (km/s) = 3.97552 4.15941 4.06850
# Velocity P-wave (km/s) = 7.39060 7.65421 7.52356
#
# Compressibility (1/GPa) = 0.01409879
#
# Stress axis : x y z
#
# Youngs Moduli (GPa) = 108.00894 103.34129 121.65007
#
# Poissons Ratio (x) = 0.32474 0.37494
# Poissons Ratio (y) = 0.33941 0.03696
# Poissons Ratio (z) = 0.33290 0.03140
#
# Static dielectric constant tensor:
#      x y z
#    x 3.721340 0.000000 0.030290 
#    y 0.000000 4.411510 0.000000 
#    z 0.030290 0.000000 4.070110 
# 
# 
# High freq. dielectric constant tensor:
#      x y z
#    x 1.822540 0.000000 0.007650 
#    y 0.000000 1.849520 0.000000 
#    z 0.007650 0.000000 1.839540 
# 
# From -- ./inp_files/31796.got.cif
#   From: 2010.06.25/outbox.cif.g09.slc.cpg/sg11_16_cif.got.tgz:31796.got - 2010.06.27 23:14:04.
