data_PCOD8077913
_publ_section_title
;
Structure prediction by ZEFSAII (Michael W. Deem and Ramdas Pophale) SiO2 
 PCOD8077913
Probable space group: P 21/M
;
_chemical_formula_sum "Si O2"
_cell_formula_units_Z 20
_cell_length_a 8.490377
_cell_length_b 22.046577
_cell_length_c 9.862686
_cell_angle_alpha 90.000000
_cell_angle_beta 30.396134
_cell_angle_gamma 90.000000
_cell_volume 934.098974
_symmetry_space_group_name_H-M "P 21/M"
_symmetry_group_IT_number 11
_symmetry_cell_setting 'monoclinic'
loop_
_space_group_symop_operation_xyz
x,y,z
-x,1/2+y,-z
-x,-y,-z
x,1/2-y,z
loop_
_atom_site_type_symbol
_atom_site_label
_atom_site_fract_x
_atom_site_fract_y
_atom_site_fract_z
Si Si1 0.502072 0.750000 0.966640
Si Si2 0.022901 0.429046 0.486266
Si Si3 0.680436 0.121226 0.989031
Si Si4 0.693170 0.379027 0.484116
Si Si5 0.021933 0.072485 0.984653
Si Si6 0.772080 0.250000 0.534390
O O1 0.356783 0.693322 0.994574
O O2 0.873468 0.750000 0.678100
O O3 0.431613 0.750000 0.178415
O O4 0.963665 0.403427 0.380839
O O5 0.000000 0.500000 0.500000
O O6 0.364870 0.408956 0.278510
O O7 0.762656 0.403330 0.779716
O O8 0.952197 0.101746 0.890062
O O9 0.682880 0.306607 0.505972
O O10 0.367707 0.408428 0.770470
O O11 0.774287 0.399028 0.272118
O O12 0.000000 0.000000 0.000000
#
# Coordination Sequence:
#
# PCOD8077913 Si02
#       6
#     2   4   4   4   4   2
#     4  12  22  44  66  98 134 172 232 288 330 398
#     4  12  23  42  68  99 128 179 235 272 330 404
#     4  12  24  42  67  96 134 181 218 284 340 393
#     4  12  24  43  69  97 133 183 221 281 340 390
#     4  12  26  45  66 102 143 175 221 281 342 407
#     4  12  24  44  70  98 138 168 238 288 322 402
#
# _framework density 21.411007000000001
#
# number of rings (size 3 to 8) (size 9 to 14) (size 15 to 20)
#    0.000    0.000    4.000    7.200    0.000    1.600 
#    0.000    0.000    0.000    0.000    0.000    0.000 
#    0.000    0.000    0.000    0.000    0.000    0.000 
#
# Total GULP energy -248187.339910 kJ/mol
# GULP energy per Si atom -12409.366995 kJ/mol
# Density = 2.136227 g / cm^3
# Si number density = 21.411007 Si / 1000 Ang^3
#
#
#
# Elastic Constant Matrix: (Units=GPa)
#
#
# Indices 1 2 3 4 5 6 
#
# 1 77.1121 21.8060 10.9065 0.0000 2.8081 0.0000
# 2 21.8060 159.1237 36.2335 0.0000 7.2861 0.0000
# 3 10.9065 36.2335 94.7224 0.0000 -1.6455 0.0000
# 4 0.0000 0.0000 0.0000 27.7405 0.0000 -0.7305
# 5 2.8081 7.2861 -1.6455 0.0000 33.9674 0.0000
# 6 0.0000 0.0000 0.0000 -0.7305 0.0000 24.3000
#
#
#
# Elastic Compliance Matrix: (Units=1/GPa)
#
#
# Indices 1 2 3 4 5 6 
#
# 1 0.013588 -0.001605 -0.000965 0.000000 -0.000826 0.000000
# 2 -0.001605 0.007162 -0.002581 0.000000 -0.001529 0.000000
# 3 -0.000965 -0.002581 0.011677 0.000000 0.001199 0.000000
# 4 0.000000 0.000000 0.000000 0.036077 0.000000 0.001085
# 5 -0.000826 -0.001529 0.001199 0.000000 0.029894 0.000000
# 6 0.000000 0.000000 0.000000 0.001085 0.000000 0.041185
#
#
# Mechanical properties :
#
#
# Convention : Reuss Voigt Hill
#
# Bulk Modulus (GPa) = 45.19817 52.09447 48.64632
# Shear Modulus (GPa) = 31.79438 34.66907 33.23173
#
# Velocity S-wave (km/s) = 3.85769 4.02832 3.94393
# Velocity P-wave (km/s) = 6.40297 6.78380 6.59613
#
# Compressibility (1/GPa) = 0.02212479
#
# Stress axis : x y z
#
# Youngs Moduli (GPa) = 73.59186 139.62345 85.64138
#
# Poissons Ratio (x) = 0.22403 0.08266
# Poissons Ratio (y) = 0.11808 0.22108
# Poissons Ratio (z) = 0.07103 0.36044
#
# Static dielectric constant tensor:
#      x y z
#    x 4.230170 0.000000 -0.141520 
#    y 0.000000 4.034420 0.000000 
#    z -0.141520 0.000000 3.832640 
# 
# 
# High freq. dielectric constant tensor:
#      x y z
#    x 1.837080 0.000000 -0.002930 
#    y 0.000000 1.859620 0.000000 
#    z -0.002930 0.000000 1.855220 
# 
# From -- ./inp_files/10322.got.cif
#   From: 2010.06.25/outbox.cif.g09.slc.cpg/sg11_6_cif.got.tgz:10322.got - 2010.06.27 23:14:04.
