data_PCOD8077554
_publ_section_title
;
Structure prediction by ZEFSAII (Michael W. Deem and Ramdas Pophale) SiO2 
 PCOD8077554
Probable space group: P 21/M
;
_chemical_formula_sum "Si O2"
_cell_formula_units_Z 24
_cell_length_a 13.280524
_cell_length_b 19.261095
_cell_length_c 15.184554
_cell_angle_alpha 90.000000
_cell_angle_beta 19.502058
_cell_angle_gamma 90.000000
_cell_volume 1296.694086
_symmetry_space_group_name_H-M "P 21/M"
_symmetry_group_IT_number 11
_symmetry_cell_setting 'monoclinic'
loop_
_space_group_symop_operation_xyz
x,y,z
-x,1/2+y,-z
-x,-y,-z
x,1/2-y,z
loop_
_atom_site_type_symbol
_atom_site_label
_atom_site_fract_x
_atom_site_fract_y
_atom_site_fract_z
Si Si1 0.877876 0.111337 0.852485
Si Si2 0.861985 0.075828 0.214074
Si Si3 0.818437 0.551566 0.874363
Si Si4 0.187095 0.412440 0.773688
Si Si5 0.788723 0.668535 0.586418
Si Si6 0.885974 0.070876 0.551932
O O1 0.007201 0.124661 0.843297
O O2 0.109663 0.147471 0.594999
O O3 0.861961 0.030671 0.842116
O O4 0.549080 0.143791 0.116406
O O5 0.534272 0.111295 0.487726
O O6 0.036184 0.089282 0.161322
O O7 0.833444 0.994482 0.220756
O O8 0.042941 0.111181 0.984891
O O9 0.984141 0.581033 0.652366
O O10 0.471743 0.571345 0.156767
O O11 0.807942 0.750000 0.582886
O O12 0.012603 0.635128 0.472581
O O13 0.000000 0.000000 0.500000
#
# Coordination Sequence:
#
# PCOD8077554 Si02
#       6
#     4   4   4   4   4   4
#     4  11  20  36  56  80 111 148 179 223 281 337
#     4   9  17  29  46  80 113 133 170 213 267 321
#     4  11  20  33  57  84 110 145 184 228 287 329
#     4   9  17  29  49  75 110 142 162 211 267 320
#     4  12  25  38  54  80 112 148 189 230 272 336
#     4  12  21  36  56  80 111 149 189 232 280 334
#
# _framework density 18.508607000000001
#
# number of rings (size 3 to 8) (size 9 to 14) (size 15 to 20)
#    0.000    1.333    3.333    4.000    0.000    5.333 
#    0.000    0.000    0.000    0.000    0.000   23.333 
#    0.000    0.000    0.000    0.000    0.000    0.000 
#
# Total GULP energy -297688.106386 kJ/mol
# GULP energy per Si atom -12403.671099 kJ/mol
# Density = 1.846648 g / cm^3
# Si number density = 18.508607 Si / 1000 Ang^3
#
#
#
# Elastic Constant Matrix: (Units=GPa)
#
#
# Indices 1 2 3 4 5 6 
#
# 1 154.4632 30.0775 53.1537 0.0000 7.3935 0.0000
# 2 30.0775 65.4714 6.1356 0.0000 -2.8447 0.0000
# 3 53.1537 6.1356 131.4210 0.0000 2.6720 0.0000
# 4 0.0000 0.0000 0.0000 -9.9155 0.0000 -16.3479
# 5 7.3935 -2.8447 2.6720 0.0000 46.7910 0.0000
# 6 0.0000 0.0000 0.0000 -16.3479 0.0000 -0.2037
#
#
#
# Elastic Compliance Matrix: (Units=1/GPa)
#
#
# Indices 1 2 3 4 5 6 
#
# 1 0.008330 -0.003588 -0.003174 0.000000 -0.001353 0.000000
# 2 -0.003588 0.016931 0.000629 0.000000 0.001560 0.000000
# 3 -0.003174 0.000629 0.008863 0.000000 0.000034 0.000000
# 4 0.000000 0.000000 0.000000 0.000768 0.000000 -0.061636
# 5 -0.001353 0.001560 0.000034 0.000000 0.021678 0.000000
# 6 0.000000 0.000000 0.000000 -0.061636 0.000000 0.037384
#
#
# Mechanical properties :
#
#
# Convention : Reuss Voigt Hill
#
# Bulk Modulus (GPa) = 45.75065 58.89880 52.32473
# Shear Modulus (GPa) = 44.05064 24.80026 34.42545
#
# Velocity S-wave (km/s) = 4.88383 3.66448 4.31742
# Velocity P-wave (km/s) = 7.52161 7.05663 7.29282
#
# Compressibility (1/GPa) = 0.02185762
#
# Stress axis : x y z
#
# Youngs Moduli (GPa) = 120.05265 59.06315 112.83124
#
# Poissons Ratio (x) = 0.21192 0.35812
# Poissons Ratio (y) = 0.43075 -0.07097
# Poissons Ratio (z) = 0.38104 -0.03715
#
# Static dielectric constant tensor:
#      x y z
#    x 3.747930 0.000000 -0.021600 
#    y 0.000000 2.936850 0.000000 
#    z -0.021600 0.000000 3.730940 
# 
# 
# High freq. dielectric constant tensor:
#      x y z
#    x 1.738270 0.000000 0.003540 
#    y 0.000000 1.659010 0.000000 
#    z 0.003540 0.000000 1.742310 
# 
# From -- ./inp_files/40143.got.cif
#   From: 2010.06.25/outbox.cif.g09.slc.cpg/sg11_21_cif.got.tgz:40143.got - 2010.06.27 23:14:04.
