data_PCOD8077477
_publ_section_title
;
Structure prediction by ZEFSAII (Michael W. Deem and Ramdas Pophale) SiO2 
 PCOD8077477
Probable space group: P 21/M
;
_chemical_formula_sum "Si O2"
_cell_formula_units_Z 22
_cell_length_a 10.795104
_cell_length_b 13.042282
_cell_length_c 12.587851
_cell_angle_alpha 90.000000
_cell_angle_beta 146.367615
_cell_angle_gamma 90.000000
_cell_volume 981.598249
_symmetry_space_group_name_H-M "P 21/M"
_symmetry_group_IT_number 11
_symmetry_cell_setting 'monoclinic'
loop_
_space_group_symop_operation_xyz
x,y,z
-x,1/2+y,-z
-x,-y,-z
x,1/2-y,z
loop_
_atom_site_type_symbol
_atom_site_label
_atom_site_fract_x
_atom_site_fract_y
_atom_site_fract_z
Si Si1 0.651774 0.967579 0.927692
Si Si2 0.765209 0.250000 0.744248
Si Si3 0.239483 0.250000 0.053282
Si Si4 0.815431 0.415049 0.358294
Si Si5 0.480102 0.058296 0.594545
Si Si6 0.725052 0.250000 0.466470
Si Si7 0.021818 0.635975 0.744409
O O1 0.575810 0.983300 0.752010
O O2 0.424873 0.968877 0.835536
O O3 0.823235 0.056455 0.081572
O O4 0.761176 0.854188 0.018637
O O5 0.639641 0.154617 0.701987
O O6 0.805291 0.250000 0.644937
O O7 0.019191 0.250000 0.970262
O O8 0.456536 0.250000 0.282734
O O9 0.810638 0.349191 0.463243
O O10 0.879603 0.347243 0.302791
O O11 0.000000 0.500000 0.500000
O O12 0.227791 0.091672 0.439390
O O13 0.500000 0.000000 0.500000
O O14 0.023776 0.750000 0.798902
#
# Coordination Sequence:
#
# PCOD8077477 Si02
#       7
#     4   2   2   4   4   2   4
#     4  11  26  46  73 105 143 187 241 295 357 430
#     4  12  26  43  70 100 136 185 239 285 357 428
#     4  10  24  44  68 100 136 180 240 286 346 422
#     4  11  22  45  72  98 141 182 238 294 359 425
#     4  12  26  46  71 103 143 192 240 291 354 422
#     4  10  24  45  68  98 136 187 229 295 355 426
#     4  12  26  47  71 108 147 186 235 304 364 423
#
# _framework density 22.412427999999998
#
# number of rings (size 3 to 8) (size 9 to 14) (size 15 to 20)
#    0.000    0.727    3.636    3.818    3.818    4.364 
#    1.636    0.000    0.000    0.000    0.000    0.000 
#    0.000    0.000    0.000    0.000    0.000    0.000 
#
# Total GULP energy -272732.591213 kJ/mol
# GULP energy per Si atom -12396.935964 kJ/mol
# Density = 2.236142 g / cm^3
# Si number density = 22.412428 Si / 1000 Ang^3
#
#
#
# Elastic Constant Matrix: (Units=GPa)
#
#
# Indices 1 2 3 4 5 6 
#
# 1 118.8589 32.6922 48.7913 0.0000 18.0904 0.0000
# 2 32.6922 164.5048 59.3669 0.0000 11.7540 0.0000
# 3 48.7913 59.3669 105.1366 0.0000 33.3523 0.0000
# 4 0.0000 0.0000 0.0000 32.9902 0.0000 0.4085
# 5 18.0904 11.7540 33.3523 0.0000 45.9717 0.0000
# 6 0.0000 0.0000 0.0000 0.4085 0.0000 27.1136
#
#
#
# Elastic Compliance Matrix: (Units=1/GPa)
#
#
# Indices 1 2 3 4 5 6 
#
# 1 0.010441 -0.000456 -0.004314 0.000000 -0.000862 0.000000
# 2 -0.000456 0.007738 -0.004659 0.000000 0.001581 0.000000
# 3 -0.004314 -0.004659 0.017183 0.000000 -0.009577 0.000000
# 4 0.000000 0.000000 0.000000 0.030318 0.000000 -0.000457
# 5 -0.000862 0.001581 -0.009577 0.000000 0.028635 0.000000
# 6 0.000000 0.000000 0.000000 -0.000457 0.000000 0.036889
#
#
# Mechanical properties :
#
#
# Convention : Reuss Voigt Hill
#
# Bulk Modulus (GPa) = 60.59958 74.46678 67.53318
# Shear Modulus (GPa) = 32.14114 37.72509 34.93312
#
# Velocity S-wave (km/s) = 3.79103 4.10716 3.95226
# Velocity P-wave (km/s) = 6.80144 7.46924 7.14315
#
# Compressibility (1/GPa) = 0.01650176
#
# Stress axis : x y z
#
# Youngs Moduli (GPa) = 95.77560 129.23244 58.19861
#
# Poissons Ratio (x) = 0.05899 0.25108
# Poissons Ratio (y) = 0.04371 0.27116
# Poissons Ratio (z) = 0.41320 0.60212
#
# Static dielectric constant tensor:
#      x y z
#    x 4.619250 0.000000 0.326440 
#    y 0.000000 4.095880 0.000000 
#    z 0.326440 0.000000 4.056390 
# 
# 
# High freq. dielectric constant tensor:
#      x y z
#    x 1.886820 0.000000 0.022820 
#    y 0.000000 1.905540 0.000000 
#    z 0.022820 0.000000 1.882820 
# 
# From -- ./inp_files/50120.got.cif
#   From: 2010.06.25/outbox.cif.g09.slc.cpg/sg11_26_cif.got.tgz:50120.got - 2010.06.27 23:14:04.
