data_PCOD8077350
_publ_section_title
;
Structure prediction by ZEFSAII (Michael W. Deem and Ramdas Pophale) SiO2 
 PCOD8077350
Probable space group: P 21/M
;
_chemical_formula_sum "Si O2"
_cell_formula_units_Z 28
_cell_length_a 26.002555
_cell_length_b 8.860995
_cell_length_c 9.892912
_cell_angle_alpha 90.000000
_cell_angle_beta 38.917903
_cell_angle_gamma 90.000000
_cell_volume 1431.940197
_symmetry_space_group_name_H-M "P 21/M"
_symmetry_group_IT_number 11
_symmetry_cell_setting 'monoclinic'
loop_
_space_group_symop_operation_xyz
x,y,z
-x,1/2+y,-z
-x,-y,-z
x,1/2-y,z
loop_
_atom_site_type_symbol
_atom_site_label
_atom_site_fract_x
_atom_site_fract_y
_atom_site_fract_z
Si Si1 0.432406 0.571679 0.543128
Si Si2 0.990342 0.572631 0.165757
Si Si3 0.147042 0.071932 0.932312
Si Si4 0.190768 0.424337 0.377633
Si Si5 0.261470 0.074538 0.943082
Si Si6 0.257519 0.927394 0.489767
Si Si7 0.434116 0.572349 0.232000
O O1 0.500000 0.500000 0.500000
O O2 0.438433 0.750000 0.541653
O O3 0.343742 0.521394 0.774441
O O4 0.447966 0.517600 0.357383
O O5 0.002496 0.750000 0.126742
O O6 0.903276 0.530350 0.407942
O O7 0.000000 0.500000 0.000000
O O8 0.058542 0.505601 0.127595
O O9 0.135004 0.250000 0.953823
O O10 0.203666 0.019074 0.939987
O O11 0.186865 0.017935 0.711143
O O12 0.206473 0.250000 0.382015
O O13 0.250110 0.526921 0.348222
O O14 0.212567 0.459275 0.179189
O O15 0.284297 0.250000 0.881077
O O16 0.244565 0.750000 0.536583
O O17 0.344812 0.981146 0.367343
O O18 0.442784 0.750000 0.202090
O O19 0.500000 0.500000 0.000000
#
# Coordination Sequence:
#
# PCOD8077350 Si02
#       7
#     4   4   4   4   4   4   4
#     4  11  24  43  64  91 124 161 201 249 304 363
#     4  11  22  37  60  90 124 160 205 255 303 358
#     4  11  22  38  63  90 120 162 204 248 304 363
#     4  10  23  41  61  89 123 160 203 251 304 359
#     4  10  23  43  64  89 122 162 205 248 302 367
#     4  11  22  39  62  90 121 158 206 253 298 358
#     4  10  24  42  62  91 124 157 201 250 302 358
#
# _framework density 19.553889999999999
#
# number of rings (size 3 to 8) (size 9 to 14) (size 15 to 20)
#    0.000    1.429    2.857    1.714    2.000    4.571 
#    0.000    0.000    0.000    0.000    0.000    0.000 
#    0.000    0.000    0.000    0.000    0.000    0.000 
#
# Total GULP energy -347362.383981 kJ/mol
# GULP energy per Si atom -12405.799428 kJ/mol
# Density = 1.950938 g / cm^3
# Si number density = 19.553890 Si / 1000 Ang^3
#
#
#
# Elastic Constant Matrix: (Units=GPa)
#
#
# Indices 1 2 3 4 5 6 
#
# 1 145.4354 46.1285 53.5209 0.0000 -14.1841 0.0000
# 2 46.1285 64.2768 40.1284 0.0000 -9.6740 0.0000
# 3 53.5209 40.1284 127.5154 0.0000 -5.8231 0.0000
# 4 0.0000 0.0000 0.0000 30.4831 0.0000 -4.0552
# 5 -14.1841 -9.6740 -5.8231 0.0000 30.1812 0.0000
# 6 0.0000 0.0000 0.0000 -4.0552 0.0000 37.6885
#
#
#
# Elastic Compliance Matrix: (Units=1/GPa)
#
#
# Indices 1 2 3 4 5 6 
#
# 1 0.009568 -0.005056 -0.002314 0.000000 0.002430 0.000000
# 2 -0.005056 0.022836 -0.004881 0.000000 0.004002 0.000000
# 3 -0.002314 -0.004881 0.010319 0.000000 -0.000661 0.000000
# 4 0.000000 0.000000 0.000000 0.033281 0.000000 0.003581
# 5 0.002430 0.004002 -0.000661 0.000000 0.035430 0.000000
# 6 0.000000 0.000000 0.000000 0.003581 0.000000 0.026919
#
#
# Mechanical properties :
#
#
# Convention : Reuss Voigt Hill
#
# Bulk Modulus (GPa) = 54.88349 68.53145 61.70747
# Shear Modulus (GPa) = 29.59799 32.83388 31.21594
#
# Velocity S-wave (km/s) = 3.89480 4.10219 3.99984
# Velocity P-wave (km/s) = 6.95376 7.58688 7.27721
#
# Compressibility (1/GPa) = 0.01822041
#
# Stress axis : x y z
#
# Youngs Moduli (GPa) = 104.51392 43.79006 96.90597
#
# Poissons Ratio (x) = 0.22142 0.22422
# Poissons Ratio (y) = 0.52847 0.47304
# Poissons Ratio (z) = 0.24182 0.21376
#
# Static dielectric constant tensor:
#      x y z
#    x 3.873490 0.000000 -0.089450 
#    y 0.000000 3.587250 0.000000 
#    z -0.089450 0.000000 3.679070 
# 
# 
# High freq. dielectric constant tensor:
#      x y z
#    x 1.778310 0.000000 -0.003550 
#    y 0.000000 1.763220 0.000000 
#    z -0.003550 0.000000 1.763600 
# 
# From -- ./inp_files/28393.got.cif
#   From: 2010.06.25/outbox.cif.g09.slc.cpg/sg11_15_cif.got.tgz:28393.got - 2010.06.27 23:14:04.
