data_PCOD8077928
_publ_section_title
;
Structure prediction by ZEFSAII (Michael W. Deem and Ramdas Pophale) SiO2 
 PCOD8077928
Probable space group: P 21/M
;
_chemical_formula_sum "Si O2"
_cell_formula_units_Z 28
_cell_length_a 9.846380
_cell_length_b 9.583590
_cell_length_c 21.980704
_cell_angle_alpha 90.000000
_cell_angle_beta 125.339410
_cell_angle_gamma 90.000000
_cell_volume 1691.991339
_symmetry_space_group_name_H-M "P 21/M"
_symmetry_group_IT_number 11
_symmetry_cell_setting 'monoclinic'
loop_
_space_group_symop_operation_xyz
x,y,z
-x,1/2+y,-z
-x,-y,-z
x,1/2-y,z
loop_
_atom_site_type_symbol
_atom_site_label
_atom_site_fract_x
_atom_site_fract_y
_atom_site_fract_z
Si Si1 0.610110 0.085371 0.574910
Si Si2 0.020290 0.584869 0.311580
Si Si3 0.574766 0.415514 0.703649
Si Si4 0.060849 0.584069 0.187722
Si Si5 0.501714 0.909888 0.092290
Si Si6 0.670564 0.583731 0.259666
Si Si7 0.740888 0.910120 0.040578
O O1 0.580078 0.250000 0.558346
O O2 0.803314 0.045148 0.612046
O O3 0.558875 0.036369 0.629613
O O4 0.500000 0.000000 0.500000
O O5 0.007624 0.750000 0.303527
O O6 0.011185 0.522913 0.241018
O O7 0.861762 0.527515 0.308915
O O8 0.570883 0.250000 0.704187
O O9 0.751011 0.465855 0.778500
O O10 0.424162 0.477173 0.705427
O O11 0.052033 0.750000 0.189349
O O12 0.928955 0.534345 0.102451
O O13 0.445479 0.750000 0.083823
O O14 0.575652 0.967484 0.174578
O O15 0.641243 0.928593 0.077377
O O16 0.337605 0.998197 0.033391
O O17 0.669937 0.750000 0.260781
O O18 0.739366 0.750000 0.018693
#
# Coordination Sequence:
#
# PCOD8077928 Si02
#       7
#     4   4   4   4   4   4   4
#     4   9  17  30  48  68  88 109 134 166 204 248
#     4   8  13  23  42  63  81 107 142 172 199 239
#     4   8  15  25  42  65  85 106 137 177 210 237
#     4   8  12  22  38  57  78 106 145 178 203 238
#     4   9  16  24  38  60  83 107 137 177 213 240
#     4   9  14  24  41  63  86 107 139 180 211 235
#     4   9  15  24  39  58  81 110 141 173 208 246
#
# _framework density 16.548548
#
# number of rings (size 3 to 8) (size 9 to 14) (size 15 to 20)
#    0.000    3.429    1.429    1.714    0.000    0.000 
#    0.000    1.429    0.000    5.143    0.000    0.000 
#    0.000    0.000    0.000    0.000    0.000    0.000 
#
# Total GULP energy -346904.739037 kJ/mol
# GULP energy per Si atom -12389.454966 kJ/mol
# Density = 1.651088 g / cm^3
# Si number density = 16.548548 Si / 1000 Ang^3
#
#
#
# Elastic Constant Matrix: (Units=GPa)
#
#
# Indices 1 2 3 4 5 6 
#
# 1 126.9464 16.7452 68.7691 0.0000 16.2716 0.0000
# 2 16.7452 25.0665 34.9543 0.0000 4.7469 0.0000
# 3 68.7691 34.9543 133.5571 0.0000 18.7351 0.0000
# 4 0.0000 0.0000 0.0000 26.3790 0.0000 2.6529
# 5 16.2716 4.7469 18.7351 0.0000 22.3835 0.0000
# 6 0.0000 0.0000 0.0000 2.6529 0.0000 7.6913
#
#
#
# Elastic Compliance Matrix: (Units=1/GPa)
#
#
# Indices 1 2 3 4 5 6 
#
# 1 0.011208 0.000845 -0.005466 0.000000 -0.003752 0.000000
# 2 0.000845 0.062889 -0.016925 0.000000 0.000214 0.000000
# 3 -0.005466 -0.016925 0.015489 0.000000 -0.005402 0.000000
# 4 0.000000 0.000000 0.000000 0.039271 0.000000 -0.013545
# 5 -0.003752 0.000214 -0.005402 0.000000 0.051879 0.000000
# 6 0.000000 0.000000 0.000000 -0.013545 0.000000 0.134689
#
#
# Mechanical properties :
#
#
# Convention : Reuss Voigt Hill
#
# Bulk Modulus (GPa) = 21.50731 58.50079 40.00405
# Shear Modulus (GPa) = 13.36848 22.29751 17.83300
#
# Velocity S-wave (km/s) = 2.84533 3.67468 3.28627
# Velocity P-wave (km/s) = 4.88049 7.30973 6.21495
#
# Compressibility (1/GPa) = 0.04649581
#
# Stress axis : x y z
#
# Youngs Moduli (GPa) = 89.22477 15.90093 64.56171
#
# Poissons Ratio (x) = -0.01344 0.35288
# Poissons Ratio (y) = -0.07542 1.09268
# Poissons Ratio (z) = 0.48769 0.26912
#
# Static dielectric constant tensor:
#      x y z
#    x 3.566590 0.000000 0.205840 
#    y 0.000000 2.715300 0.000000 
#    z 0.205840 0.000000 3.144320 
# 
# 
# High freq. dielectric constant tensor:
#      x y z
#    x 1.632620 0.000000 0.016080 
#    y 0.000000 1.571170 0.000000 
#    z 0.016080 0.000000 1.634740 
# 
# From -- ./inp_files/26265.got.cif
#   From: 2010.06.25/outbox.cif.g09.slc.cpg/sg11_14_cif.got.tgz:26265.got - 2010.06.27 23:14:04.
