data_PCOD8077430
_publ_section_title
;
Structure prediction by ZEFSAII (Michael W. Deem and Ramdas Pophale) SiO2 
 PCOD8077430
Probable space group: P 21/M
;
_chemical_formula_sum "Si O2"
_cell_formula_units_Z 28
_cell_length_a 9.622253
_cell_length_b 14.224981
_cell_length_c 11.244245
_cell_angle_alpha 90.000000
_cell_angle_beta 58.638402
_cell_angle_gamma 90.000000
_cell_volume 1314.212768
_symmetry_space_group_name_H-M "P 21/M"
_symmetry_group_IT_number 11
_symmetry_cell_setting 'monoclinic'
loop_
_space_group_symop_operation_xyz
x,y,z
-x,1/2+y,-z
-x,-y,-z
x,1/2-y,z
loop_
_atom_site_type_symbol
_atom_site_label
_atom_site_fract_x
_atom_site_fract_y
_atom_site_fract_z
Si Si1 0.968284 0.639189 0.405693
Si Si2 0.472825 0.494913 0.650270
Si Si3 0.574203 0.898871 0.994639
Si Si4 0.895516 0.531161 0.201644
Si Si5 0.330347 0.146335 0.308364
Si Si6 0.672855 0.147117 0.710340
Si Si7 0.093692 0.136670 0.034464
O O1 0.973921 0.750000 0.372429
O O2 0.896066 0.582182 0.327531
O O3 0.852656 0.616602 0.570620
O O4 0.149682 0.600168 0.350677
O O5 0.500000 0.500000 0.500000
O O6 0.285026 0.488448 0.761468
O O7 0.531437 0.586871 0.691306
O O8 0.571393 0.407510 0.657702
O O9 0.648485 0.854268 0.842843
O O10 0.718503 0.892318 0.026971
O O11 0.421318 0.845130 0.121305
O O12 0.500000 0.000000 0.000000
O O13 0.988413 0.430410 0.169548
O O14 0.964417 0.604335 0.071805
O O15 0.361387 0.250000 0.342896
O O16 0.699192 0.250000 0.645024
O O17 0.065035 0.250000 0.065133
#
# Coordination Sequence:
#
# PCOD8077430 Si02
#       7
#     4   4   4   4   4   4   4
#     4  10  23  43  69 100 133 177 227 276 336 403
#     4  12  25  43  66 100 132 174 224 276 341 399
#     4  12  22  42  69 100 135 174 222 279 342 401
#     4  11  23  42  68  97 135 178 223 280 334 406
#     4  11  24  42  67  98 137 177 221 280 342 403
#     4  11  24  43  70 100 131 177 229 277 331 405
#     4  11  24  41  66 100 136 178 225 280 341 403
#
# _framework density 21.305530000000001
#
# number of rings (size 3 to 8) (size 9 to 14) (size 15 to 20)
#    0.000    0.857    4.286    2.571    0.000    4.571 
#    0.000    1.429    0.000    0.000    0.000    0.000 
#    0.000    0.000    0.000    0.000    0.000    0.000 
#
# Total GULP energy -347056.140358 kJ/mol
# GULP energy per Si atom -12394.862156 kJ/mol
# Density = 2.125704 g / cm^3
# Si number density = 21.305530 Si / 1000 Ang^3
#
#
#
# Elastic Constant Matrix: (Units=GPa)
#
#
# Indices 1 2 3 4 5 6 
#
# 1 121.3212 43.9669 46.8510 0.0000 -24.7842 0.0000
# 2 43.9669 120.5476 24.6285 0.0000 -7.5801 0.0000
# 3 46.8510 24.6285 133.6811 0.0000 0.0896 0.0000
# 4 0.0000 0.0000 0.0000 35.1763 0.0000 67.3117
# 5 -24.7842 -7.5801 0.0896 0.0000 35.0164 0.0000
# 6 0.0000 0.0000 0.0000 67.3117 0.0000 771.5898
#
#
#
# Elastic Compliance Matrix: (Units=1/GPa)
#
#
# Indices 1 2 3 4 5 6 
#
# 1 0.012583 -0.003296 -0.003808 0.000000 0.008203 0.000000
# 2 -0.003296 0.009607 -0.000615 0.000000 -0.000251 0.000000
# 3 -0.003808 -0.000615 0.008930 0.000000 -0.002851 0.000000
# 4 0.000000 0.000000 0.000000 0.034125 0.000000 -0.002977
# 5 0.008203 -0.000251 -0.002851 0.000000 0.034317 0.000000
# 6 0.000000 0.000000 0.000000 -0.002977 0.000000 0.001556
#
#
# Mechanical properties :
#
#
# Convention : Reuss Voigt Hill
#
# Bulk Modulus (GPa) = 63.76182 67.38254 65.57218
# Shear Modulus (GPa) = 41.05643 185.69672 113.37658
#
# Velocity S-wave (km/s) = 4.39456 9.34602 7.30275
# Velocity P-wave (km/s) = 7.46605 12.17208 10.09707
#
# Compressibility (1/GPa) = 0.01568337
#
# Stress axis : x y z
#
# Youngs Moduli (GPa) = 79.47042 104.08778 111.97720
#
# Poissons Ratio (x) = 0.34303 0.42645
# Poissons Ratio (y) = 0.26190 0.06884
# Poissons Ratio (z) = 0.30265 0.06399
#
# Static dielectric constant tensor:
#      x y z
#    x 3.700140 0.000000 -0.221070 
#    y 0.000000 3.923210 0.000000 
#    z -0.221070 0.000000 4.089950 
# 
# 
# High freq. dielectric constant tensor:
#      x y z
#    x 1.836220 0.000000 -0.006980 
#    y 0.000000 1.843190 0.000000 
#    z -0.006980 0.000000 1.844980 
# 
# From -- ./inp_files/31807.got.cif
#   From: 2010.06.25/outbox.cif.g09.slc.cpg/sg11_16_cif.got.tgz:31807.got - 2010.06.27 23:14:04.
