data_PCOD8077449
_publ_section_title
;
Structure prediction by ZEFSAII (Michael W. Deem and Ramdas Pophale) SiO2 
 PCOD8077449
Probable space group: P 21/M
;
_chemical_formula_sum "Si O2"
_cell_formula_units_Z 24
_cell_length_a 15.248823
_cell_length_b 13.552236
_cell_length_c 9.765739
_cell_angle_alpha 90.000000
_cell_angle_beta 37.750560
_cell_angle_gamma 90.000000
_cell_volume 1235.558913
_symmetry_space_group_name_H-M "P 21/M"
_symmetry_group_IT_number 11
_symmetry_cell_setting 'monoclinic'
loop_
_space_group_symop_operation_xyz
x,y,z
-x,1/2+y,-z
-x,-y,-z
x,1/2-y,z
loop_
_atom_site_type_symbol
_atom_site_label
_atom_site_fract_x
_atom_site_fract_y
_atom_site_fract_z
Si Si1 0.619349 0.452202 0.260786
Si Si2 0.383565 0.468038 0.035136
Si Si3 0.345800 0.250000 0.964738
Si Si4 0.908830 0.040483 0.492005
Si Si5 0.016970 0.250000 0.273808
Si Si6 0.902706 0.250000 0.113580
Si Si7 0.406947 0.750000 0.567585
Si Si8 0.937654 0.047415 0.944050
O O1 0.500000 0.500000 0.500000
O O2 0.602319 0.337682 0.312459
O O3 0.585661 0.477822 0.145879
O O4 0.778600 0.492232 0.102016
O O5 0.370166 0.349026 0.026385
O O6 0.251282 0.518744 0.271407
O O7 0.500000 0.500000 0.000000
O O8 0.185238 0.250000 0.102185
O O9 0.453741 0.250000 0.701643
O O10 0.937279 0.156102 0.435194
O O11 0.000000 0.000000 0.500000
O O12 0.948185 0.977925 0.311384
O O13 0.998057 0.250000 0.132699
O O14 0.732423 0.250000 0.361436
O O15 0.938604 0.162664 0.966904
O O16 0.000000 0.000000 0.000000
#
# Coordination Sequence:
#
# PCOD8077449 Si02
#       8
#     4   4   2   4   2   2   2   4
#     4  11  23  43  66  98 132 180 225 281 334 406
#     4  12  29  46  71 103 146 184 232 289 353 419
#     4  12  24  46  68 102 136 185 232 289 353 410
#     4  12  25  46  69 102 141 183 226 297 351 410
#     4  12  24  42  73 100 138 183 233 284 362 407
#     4  10  24  40  67 102 130 185 227 280 342 417
#     4  10  24  40  70  94 138 181 234 275 341 414
#     4  11  23  41  68  98 134 172 232 277 337 409
#
# _framework density 19.424409000000001
#
# number of rings (size 3 to 8) (size 9 to 14) (size 15 to 20)
#    0.000    0.667    6.667    0.000    4.667    2.667 
#    0.000    0.000    0.000    0.000    0.000    0.000 
#    0.000    0.000    0.000    0.000    0.000    0.000 
#
# Total GULP energy -297449.454442 kJ/mol
# GULP energy per Si atom -12393.727268 kJ/mol
# Density = 1.938020 g / cm^3
# Si number density = 19.424409 Si / 1000 Ang^3
#
#
#
# Elastic Constant Matrix: (Units=GPa)
#
#
# Indices 1 2 3 4 5 6 
#
# 1 172.8907 63.7400 73.7590 0.0000 6.9914 0.0000
# 2 63.7400 158.0123 65.3131 0.0000 2.8248 0.0000
# 3 73.7590 65.3131 168.6286 0.0000 4.4712 0.0000
# 4 0.0000 0.0000 0.0000 23.4849 0.0000 6.5394
# 5 6.9914 2.8248 4.4712 0.0000 37.0391 0.0000
# 6 0.0000 0.0000 0.0000 6.5394 0.0000 29.5829
#
#
#
# Elastic Compliance Matrix: (Units=1/GPa)
#
#
# Indices 1 2 3 4 5 6 
#
# 1 0.007651 -0.002020 -0.002538 0.000000 -0.000984 0.000000
# 2 -0.002020 0.008070 -0.002243 0.000000 0.000037 0.000000
# 3 -0.002538 -0.002243 0.007917 0.000000 -0.000306 0.000000
# 4 0.000000 0.000000 0.000000 0.045373 0.000000 -0.010030
# 5 -0.000984 0.000037 -0.000306 0.000000 0.027218 0.000000
# 6 0.000000 0.000000 0.000000 -0.010030 0.000000 0.036020
#
#
# Mechanical properties :
#
#
# Convention : Reuss Voigt Hill
#
# Bulk Modulus (GPa) = 99.63946 100.57285 100.10616
# Shear Modulus (GPa) = 33.51241 37.80268 35.65755
#
# Velocity S-wave (km/s) = 4.15815 4.41630 4.28916
# Velocity P-wave (km/s) = 8.62908 8.82575 8.72797
#
# Compressibility (1/GPa) = 0.01003618
#
# Stress axis : x y z
#
# Youngs Moduli (GPa) = 130.69677 123.91788 126.30360
#
# Poissons Ratio (x) = 0.25027 0.32061
# Poissons Ratio (y) = 0.26396 0.28332
# Poissons Ratio (z) = 0.33176 0.27797
#
# Static dielectric constant tensor:
#      x y z
#    x 3.115520 0.000000 -0.913820 
#    y 0.000000 3.659580 0.000000 
#    z -0.913820 0.000000 2.537100 
# 
# 
# High freq. dielectric constant tensor:
#      x y z
#    x 1.767650 0.000000 -0.003910 
#    y 0.000000 1.774560 0.000000 
#    z -0.003910 0.000000 1.767260 
# 
# From -- ./inp_files/22063.got.cif
#   From: 2010.06.25/outbox.cif.g09.slc.cpg/sg11_12_cif.got.tgz:22063.got - 2010.06.27 23:14:04.
