data_PCOD8077035
_publ_section_title
;
Structure prediction by ZEFSAII (Michael W. Deem and Ramdas Pophale) SiO2 
 PCOD8077035
Probable space group: P 21/M
;
_chemical_formula_sum "Si O2"
_cell_formula_units_Z 24
_cell_length_a 17.852757
_cell_length_b 8.828309
_cell_length_c 15.404245
_cell_angle_alpha 90.000000
_cell_angle_beta 29.887581
_cell_angle_gamma 90.000000
_cell_volume 1209.801092
_symmetry_space_group_name_H-M "P 21/M"
_symmetry_group_IT_number 11
_symmetry_cell_setting 'monoclinic'
loop_
_space_group_symop_operation_xyz
x,y,z
-x,1/2+y,-z
-x,-y,-z
x,1/2-y,z
loop_
_atom_site_type_symbol
_atom_site_label
_atom_site_fract_x
_atom_site_fract_y
_atom_site_fract_z
Si Si1 0.587433 0.072429 0.332900
Si Si2 0.918394 0.928421 0.663291
Si Si3 0.422921 0.428966 0.994330
Si Si4 0.899505 0.075409 0.350690
Si Si5 0.089945 0.074624 0.987218
Si Si6 0.583052 0.926198 0.671962
O O1 0.599287 0.250000 0.337222
O O2 0.499313 0.032136 0.334141
O O3 0.500000 0.000000 0.500000
O O4 0.751900 0.005084 0.160002
O O5 0.920702 0.750000 0.649450
O O6 0.003018 0.978585 0.665341
O O7 0.747894 0.988357 0.839813
O O8 0.000000 0.000000 0.500000
O O9 0.429551 0.250000 0.996533
O O10 0.510386 0.476456 0.820760
O O11 0.500000 0.500000 0.000000
O O12 0.848836 0.250000 0.411078
O O13 0.756443 0.968257 0.487471
O O14 0.998566 0.050662 0.166603
O O15 0.116271 0.250000 0.939469
O O16 0.000000 0.000000 0.000000
O O17 0.568295 0.750000 0.709816
#
# Coordination Sequence:
#
# PCOD8077035 Si02
#       6
#     4   4   4   4   4   4
#     4  11  24  41  62  89 122 160 203 251 303 361
#     4  10  22  39  59  85 115 150 192 237 287 344
#     4  11  23  40  62  88 120 157 198 244 296 356
#     4  10  22  40  61  85 116 156 197 239 294 357
#     4  11  23  40  63  90 121 158 201 248 301 361
#     4  11  24  40  60  89 121 155 198 247 298 353
#
# _framework density 19.837972000000001
#
# number of rings (size 3 to 8) (size 9 to 14) (size 15 to 20)
#    0.000    1.333    0.000    5.000    0.000   12.667 
#    0.000    0.000    0.000    0.000    0.000    0.000 
#    0.000    0.000    0.000    0.000    0.000    0.000 
#
# Total GULP energy -297754.839845 kJ/mol
# GULP energy per Si atom -12406.451660 kJ/mol
# Density = 1.979282 g / cm^3
# Si number density = 19.837972 Si / 1000 Ang^3
#
#
#
# Elastic Constant Matrix: (Units=GPa)
#
#
# Indices 1 2 3 4 5 6 
#
# 1 185.5107 74.5265 77.3074 0.0000 -8.7554 0.0000
# 2 74.5265 77.1257 50.0780 0.0000 -0.2622 0.0000
# 3 77.3074 50.0780 125.6897 0.0000 -8.3948 0.0000
# 4 0.0000 0.0000 0.0000 40.2194 0.0000 0.0070
# 5 -8.7554 -0.2622 -8.3948 0.0000 45.7967 0.0000
# 6 0.0000 0.0000 0.0000 0.0070 0.0000 35.3662
#
#
#
# Elastic Compliance Matrix: (Units=1/GPa)
#
#
# Indices 1 2 3 4 5 6 
#
# 1 0.009640 -0.007441 -0.002879 0.000000 0.001273 0.000000
# 2 -0.007441 0.023299 -0.004852 0.000000 -0.002179 0.000000
# 3 -0.002879 -0.004852 0.011766 0.000000 0.001578 0.000000
# 4 0.000000 0.000000 0.000000 0.024864 0.000000 -0.000005
# 5 0.001273 -0.002179 0.001578 0.000000 0.022356 0.000000
# 6 0.000000 0.000000 0.000000 -0.000005 0.000000 0.028276
#
#
# Mechanical properties :
#
#
# Convention : Reuss Voigt Hill
#
# Bulk Modulus (GPa) = 69.63751 88.01665 78.82708
# Shear Modulus (GPa) = 32.18946 36.70409 34.44678
#
# Velocity S-wave (km/s) = 4.03254 4.30605 4.17154
# Velocity P-wave (km/s) = 7.54064 8.31787 7.93877
#
# Compressibility (1/GPa) = 0.01436008
#
# Stress axis : x y z
#
# Youngs Moduli (GPa) = 103.73591 42.92047 84.99347
#
# Poissons Ratio (x) = 0.31937 0.24474
# Poissons Ratio (y) = 0.77190 0.41236
# Poissons Ratio (z) = 0.29870 0.20824
#
# Static dielectric constant tensor:
#      x y z
#    x 3.930140 0.000000 -0.043490 
#    y 0.000000 3.947580 0.000000 
#    z -0.043490 0.000000 3.784730 
# 
# 
# High freq. dielectric constant tensor:
#      x y z
#    x 1.796380 0.000000 -0.000670 
#    y 0.000000 1.780210 0.000000 
#    z -0.000670 0.000000 1.792820 
# 
# From -- ./inp_files/53158.got.cif
#   From: 2010.06.25/outbox.cif.g09.slc.cpg/sg11_27_cif.got.tgz:53158.got - 2010.06.27 23:14:04.
