data_PCOD8077968
_publ_section_title
;
Structure prediction by ZEFSAII (Michael W. Deem and Ramdas Pophale) SiO2 
 PCOD8077968
Probable space group: P 21/M
;
_chemical_formula_sum "Si O2"
_cell_formula_units_Z 32
_cell_length_a 18.419612
_cell_length_b 9.335789
_cell_length_c 13.604248
_cell_angle_alpha 90.000000
_cell_angle_beta 111.671729
_cell_angle_gamma 90.000000
_cell_volume 2174.047086
_symmetry_space_group_name_H-M "P 21/M"
_symmetry_group_IT_number 11
_symmetry_cell_setting 'monoclinic'
loop_
_space_group_symop_operation_xyz
x,y,z
-x,1/2+y,-z
-x,-y,-z
x,1/2-y,z
loop_
_atom_site_type_symbol
_atom_site_label
_atom_site_fract_x
_atom_site_fract_y
_atom_site_fract_z
Si Si1 0.775645 0.084218 0.273369
Si Si2 0.387701 0.582809 0.494827
Si Si3 0.926211 0.912086 0.580119
Si Si4 0.474936 0.584874 0.128104
Si Si5 0.474936 0.915126 0.346832
Si Si6 0.612298 0.417190 0.107125
Si Si7 0.224355 0.584218 0.497724
Si Si8 0.926211 0.912086 0.346092
O O1 0.796458 0.250000 0.265149
O O2 0.700418 0.034152 0.173672
O O3 0.758309 0.056601 0.379154
O O4 0.847437 0.989311 0.270530
O O5 0.396963 0.750000 0.521173
O O6 0.446493 0.503840 0.597257
O O7 0.407897 0.542951 0.391825
O O8 0.299582 0.534149 0.473254
O O9 0.928491 0.750000 0.622190
O O10 0.929324 0.911811 0.464662
O O11 0.847438 0.989312 0.576907
O O12 0.000000 0.999999 0.659273
O O13 0.498050 0.750000 0.127148
O O14 0.442540 0.552703 0.221270
O O15 0.553507 0.496160 0.150764
O O16 0.407897 0.542951 0.016071
O O17 0.498050 0.750000 0.370903
O O18 0.603036 0.250000 0.124209
O O19 0.203544 0.750000 0.468691
O O20 0.928492 0.750000 0.306301
#
# Coordination Sequence:
#
# PCOD8077968 Si02
#       8
#     4   4   4   4   4   4   4   4
#     4   9  16  25  37  53  74 100 129 159 188 221
#     4   9  17  28  41  57  77 103 134 164 195 233
#     4   9  16  25  37  53  74 100 127 153 183 221
#     4   9  17  28  41  57  78 103 131 165 201 233
#     4   9  17  28  41  57  78 103 131 165 201 233
#     4   9  17  28  41  57  77 103 134 164 195 233
#     4   9  16  25  37  53  74 100 129 159 188 221
#     4   9  16  25  37  53  74 100 127 153 183 221
#
# _framework density 14.719092
#
# number of rings (size 3 to 8) (size 9 to 14) (size 15 to 20)
#    0.000    3.000    0.000    1.500    0.000    5.500 
#    0.000    2.500    0.000    0.000    0.000    0.000 
#    0.000    1.000    0.000    1.750    0.000    2.500 
#
# Total GULP energy -396738.223426 kJ/mol
# GULP energy per Si atom -12398.069482 kJ/mol
# Density = 1.468559 g / cm^3
# Si number density = 14.719092 Si / 1000 Ang^3
#
#
#
# Elastic Constant Matrix: (Units=GPa)
#
#
# Indices 1 2 3 4 5 6 
#
# 1 123.9326 58.4223 48.3985 0.0000 19.7444 0.0000
# 2 58.4223 70.7442 30.7816 0.0000 13.4869 0.0000
# 3 48.3985 30.7816 65.4486 0.0000 8.7910 0.0000
# 4 0.0000 0.0000 0.0000 15.1882 0.0000 5.5454
# 5 19.7444 13.4869 8.7910 0.0000 22.8779 0.0000
# 6 0.0000 0.0000 0.0000 5.5454 0.0000 26.5534
#
#
#
# Elastic Compliance Matrix: (Units=1/GPa)
#
#
# Indices 1 2 3 4 5 6 
#
# 1 0.015902 -0.009118 -0.006695 0.000000 -0.005776 0.000000
# 2 -0.009118 0.024372 -0.004056 0.000000 -0.004940 0.000000
# 3 -0.006695 -0.004056 0.022186 0.000000 -0.000356 0.000000
# 4 0.000000 0.000000 0.000000 0.071275 0.000000 -0.014885
# 5 -0.005776 -0.004940 -0.000356 0.000000 0.051744 0.000000
# 6 0.000000 0.000000 0.000000 -0.014885 0.000000 0.040769
#
#
# Mechanical properties :
#
#
# Convention : Reuss Voigt Hill
#
# Bulk Modulus (GPa) = 44.01285 59.48112 51.74699
# Shear Modulus (GPa) = 18.27751 21.09210 19.68480
#
# Velocity S-wave (km/s) = 3.52768 3.78957 3.66097
# Velocity P-wave (km/s) = 6.82345 7.72311 7.28718
#
# Compressibility (1/GPa) = 0.02272064
#
# Stress axis : x y z
#
# Youngs Moduli (GPa) = 62.88539 41.03079 45.07404
#
# Poissons Ratio (x) = 0.37411 0.30178
# Poissons Ratio (y) = 0.57338 0.18284
# Poissons Ratio (z) = 0.42103 0.16644
#
# Static dielectric constant tensor:
#      x y z
#    x 2.871230 0.000000 0.079450 
#    y 0.000000 2.953770 0.000000 
#    z 0.079450 0.000000 2.708390 
# 
# 
# High freq. dielectric constant tensor:
#      x y z
#    x 1.554080 0.000000 0.014560 
#    y 0.000000 1.570420 0.000000 
#    z 0.014560 0.000000 1.524230 
# 
# From -- ./inp_files/52952.got.cif
#   From: 2010.06.25/outbox.cif.g09.slc.cpg/sg11_27_cif.got.tgz:52952.got - 2010.06.27 23:14:04.
