data_PCOD8077022
_publ_section_title
;
Structure prediction by ZEFSAII (Michael W. Deem and Ramdas Pophale) SiO2 
 PCOD8077022
Probable space group: P 21/M
;
_chemical_formula_sum "Si O2"
_cell_formula_units_Z 28
_cell_length_a 27.693763
_cell_length_b 8.763414
_cell_length_c 9.845876
_cell_angle_alpha 90.000000
_cell_angle_beta 141.773620
_cell_angle_gamma 90.000000
_cell_volume 1478.560224
_symmetry_space_group_name_H-M "P 21/M"
_symmetry_group_IT_number 11
_symmetry_cell_setting 'monoclinic'
loop_
_space_group_symop_operation_xyz
x,y,z
-x,1/2+y,-z
-x,-y,-z
x,1/2-y,z
loop_
_atom_site_type_symbol
_atom_site_label
_atom_site_fract_x
_atom_site_fract_y
_atom_site_fract_z
Si Si1 0.319980 0.429789 0.203504
Si Si2 0.215668 0.929861 0.474806
Si Si3 0.059727 0.069495 0.237670
Si Si4 0.018848 0.429897 0.685364
Si Si5 0.346805 0.570786 0.971270
Si Si6 0.487055 0.428602 0.614980
Si Si7 0.195816 0.429640 0.146505
O O1 0.316469 0.250000 0.175148
O O2 0.399046 0.477502 0.464219
O O3 0.246037 0.485066 0.127823
O O4 0.317170 0.499865 0.047202
O O5 0.198803 0.750000 0.447254
O O6 0.292947 0.979883 0.727298
O O7 0.146177 0.023821 0.388055
O O8 0.227188 0.978128 0.344892
O O9 0.050960 0.250000 0.217148
O O10 0.042376 0.004662 0.347593
O O11 0.000000 0.000000 0.000000
O O12 0.006337 0.250000 0.654402
O O13 0.000000 0.500000 0.500000
O O14 0.106278 0.472962 0.922637
O O15 0.341500 0.750000 0.981773
O O16 0.436540 0.520839 0.128492
O O17 0.500000 0.500000 0.500000
O O18 0.488980 0.250000 0.602347
O O19 0.206112 0.250000 0.196026
#
# Coordination Sequence:
#
# PCOD8077022 Si02
#       7
#     4   4   4   4   4   4   4
#     4   9  18  33  56  83 109 144 185 226 278 331
#     4  11  23  38  57  82 112 149 190 228 277 333
#     4  12  24  41  63  85 111 147 189 231 280 335
#     4  11  24  41  60  85 116 149 188 232 279 330
#     4   9  19  34  54  83 112 142 183 229 274 326
#     4   8  14  29  52  77 109 142 177 224 273 324
#     4  10  22  39  56  79 112 148 186 229 278 331
#
# _framework density 18.937342999999998
#
# number of rings (size 3 to 8) (size 9 to 14) (size 15 to 20)
#    0.000    2.000    1.429    2.143    2.000    2.286 
#    0.000    0.714    0.000    0.000    0.000    0.000 
#    0.000    0.000    0.000    0.000    0.000    0.000 
#
# Total GULP energy -347005.579688 kJ/mol
# GULP energy per Si atom -12393.056417 kJ/mol
# Density = 1.889424 g / cm^3
# Si number density = 18.937343 Si / 1000 Ang^3
#
#
#
# Elastic Constant Matrix: (Units=GPa)
#
#
# Indices 1 2 3 4 5 6 
#
# 1 59.4076 20.6401 25.2371 0.0000 -10.3132 0.0000
# 2 20.6401 59.2486 39.2107 0.0000 -4.4609 0.0000
# 3 25.2371 39.2107 124.1223 0.0000 -8.4156 0.0000
# 4 0.0000 0.0000 0.0000 27.5147 0.0000 -5.1528
# 5 -10.3132 -4.4609 -8.4156 0.0000 31.7992 0.0000
# 6 0.0000 0.0000 0.0000 -5.1528 0.0000 28.1260
#
#
#
# Elastic Compliance Matrix: (Units=1/GPa)
#
#
# Indices 1 2 3 4 5 6 
#
# 1 0.020518 -0.005341 -0.002122 0.000000 0.005343 0.000000
# 2 -0.005341 0.022777 -0.006120 0.000000 -0.000157 0.000000
# 3 -0.002122 -0.006120 0.010505 0.000000 0.001233 0.000000
# 4 0.000000 0.000000 0.000000 0.037636 0.000000 0.006895
# 5 0.005343 -0.000157 0.001233 0.000000 0.033485 0.000000
# 6 0.000000 0.000000 0.000000 0.006895 0.000000 0.036817
#
#
# Mechanical properties :
#
#
# Convention : Reuss Voigt Hill
#
# Bulk Modulus (GPa) = 37.54668 45.88380 41.71524
# Shear Modulus (GPa) = 25.28043 28.00069 26.64056
#
# Velocity S-wave (km/s) = 3.65766 3.84942 3.75477
# Velocity P-wave (km/s) = 6.14067 6.63621 6.39324
#
# Compressibility (1/GPa) = 0.02663351
#
# Stress axis : x y z
#
# Youngs Moduli (GPa) = 48.73859 43.90384 95.19237
#
# Poissons Ratio (x) = 0.23448 0.20202
# Poissons Ratio (y) = 0.26030 0.58258
# Poissons Ratio (z) = 0.10344 0.26869
#
# Static dielectric constant tensor:
#      x y z
#    x 4.259530 0.000000 0.919660 
#    y 0.000000 3.439440 0.000000 
#    z 0.919660 0.000000 4.476940 
# 
# 
# High freq. dielectric constant tensor:
#      x y z
#    x 1.730130 0.000000 0.016750 
#    y 0.000000 1.736690 0.000000 
#    z 0.016750 0.000000 1.745440 
# 
# From -- ./inp_files/28544.got.cif
#   From: 2010.06.25/outbox.cif.g09.slc.cpg/sg11_15_cif.got.tgz:28544.got - 2010.06.27 23:14:04.
