data_PCOD8077567
_publ_section_title
;
Structure prediction by ZEFSAII (Michael W. Deem and Ramdas Pophale) SiO2 
 PCOD8077567
Probable space group: P 21/M
;
_chemical_formula_sum "Si O2"
_cell_formula_units_Z 32
_cell_length_a 25.140269
_cell_length_b 8.849685
_cell_length_c 20.531656
_cell_angle_alpha 90.000000
_cell_angle_beta 157.618336
_cell_angle_gamma 90.000000
_cell_volume 1739.360271
_symmetry_space_group_name_H-M "P 21/M"
_symmetry_group_IT_number 11
_symmetry_cell_setting 'monoclinic'
loop_
_space_group_symop_operation_xyz
x,y,z
-x,1/2+y,-z
-x,-y,-z
x,1/2-y,z
loop_
_atom_site_type_symbol
_atom_site_label
_atom_site_fract_x
_atom_site_fract_y
_atom_site_fract_z
Si Si1 0.580806 0.427034 0.150612
Si Si2 0.129706 0.072800 0.331500
Si Si3 0.175798 0.924365 0.017856
Si Si4 0.150534 0.427653 0.499339
Si Si5 0.554227 0.927810 0.627049
Si Si6 0.833897 0.422478 0.146489
Si Si7 0.432395 0.073668 0.116618
Si Si8 0.588015 0.927227 0.412155
O O1 0.583042 0.250000 0.142689
O O2 0.739541 0.487194 0.330432
O O3 0.502560 0.473059 0.128357
O O4 0.500000 0.500000 0.000000
O O5 0.112017 0.250000 0.323442
O O6 0.169493 0.006311 0.447413
O O7 0.248535 0.033694 0.413772
O O8 0.978297 0.015100 0.135607
O O9 0.199375 0.750000 0.064138
O O10 0.194367 0.946274 0.961944
O O11 0.285801 0.025908 0.180665
O O12 0.181407 0.250000 0.537581
O O13 0.993361 0.464055 0.345207
O O14 0.543627 0.750000 0.609310
O O15 0.500000 0.000000 0.500000
O O16 0.457497 0.982486 0.576300
O O17 0.802703 0.250000 0.130561
O O18 0.731863 0.531581 0.071826
O O19 0.451533 0.250000 0.153589
O O20 0.501311 0.975254 0.251217
O O21 0.563569 0.750000 0.396039
#
# Coordination Sequence:
#
# PCOD8077567 Si02
#       8
#     4   4   4   4   4   4   4   4
#     4  11  24  39  56  81 114 153 191 234 283 337
#     4   8  16  31  57  87 113 143 182 228 277 330
#     4   9  17  34  57  84 114 146 185 228 275 331
#     4   9  17  34  57  84 113 146 186 229 277 334
#     4  12  25  40  57  82 115 153 191 232 280 332
#     4   9  18  32  57  86 113 146 185 227 278 333
#     4  11  22  35  54  85 117 144 186 237 279 325
#     4  11  20  35  60  87 113 147 187 228 278 335
#
# _framework density 18.397568
#
# number of rings (size 3 to 8) (size 9 to 14) (size 15 to 20)
#    0.000    2.000    2.500    3.750    0.000    2.000 
#    0.000    4.375    0.000    0.000    0.000    0.000 
#    0.000    0.000    0.000    0.000    0.000    0.000 
#
# Total GULP energy -396808.354115 kJ/mol
# GULP energy per Si atom -12400.261066 kJ/mol
# Density = 1.835569 g / cm^3
# Si number density = 18.397568 Si / 1000 Ang^3
#
#
#
# Elastic Constant Matrix: (Units=GPa)
#
#
# Indices 1 2 3 4 5 6 
#
# 1 79.6407 42.2626 57.5875 0.0000 7.3646 0.0000
# 2 42.2626 83.6540 47.9197 0.0000 6.9919 0.0000
# 3 57.5875 47.9197 132.1665 0.0000 16.1280 0.0000
# 4 0.0000 0.0000 0.0000 30.7674 0.0000 -1.1847
# 5 7.3646 6.9919 16.1280 0.0000 23.7625 0.0000
# 6 0.0000 0.0000 0.0000 -1.1847 0.0000 25.8196
#
#
#
# Elastic Compliance Matrix: (Units=1/GPa)
#
#
# Indices 1 2 3 4 5 6 
#
# 1 0.020986 -0.006771 -0.006693 0.000000 0.000031 0.000000
# 2 -0.006771 0.017286 -0.003219 0.000000 -0.000803 0.000000
# 3 -0.006693 -0.003219 0.012300 0.000000 -0.005326 0.000000
# 4 0.000000 0.000000 0.000000 0.032559 0.000000 0.001494
# 5 0.000031 -0.000803 -0.005326 0.000000 0.045925 0.000000
# 6 0.000000 0.000000 0.000000 0.001494 0.000000 0.038799
#
#
# Mechanical properties :
#
#
# Convention : Reuss Voigt Hill
#
# Bulk Modulus (GPa) = 58.12057 65.66675 61.89366
# Shear Modulus (GPa) = 24.15969 25.91601 25.03785
#
# Velocity S-wave (km/s) = 3.62774 3.75729 3.69308
# Velocity P-wave (km/s) = 7.01480 7.38875 7.20420
#
# Compressibility (1/GPa) = 0.01720561
#
# Stress axis : x y z
#
# Youngs Moduli (GPa) = 47.65010 57.85052 81.30381
#
# Poissons Ratio (x) = 0.39171 0.54416
# Poissons Ratio (y) = 0.32264 0.26172
# Poissons Ratio (z) = 0.31892 0.18623
#
# Static dielectric constant tensor:
#      x y z
#    x 3.017740 0.000000 0.187560 
#    y 0.000000 3.249900 0.000000 
#    z 0.187560 0.000000 3.554240 
# 
# 
# High freq. dielectric constant tensor:
#      x y z
#    x 1.696850 0.000000 0.021430 
#    y 0.000000 1.704350 0.000000 
#    z 0.021430 0.000000 1.721750 
# 
# From -- ./inp_files/67277.got.cif
#   From: 2010.06.25/outbox.cif.g09.slc.cpg/sg11_34_cif.got.tgz:67277.got - 2010.06.27 23:14:04.
