data_PCOD8077602
_publ_section_title
;
Structure prediction by ZEFSAII (Michael W. Deem and Ramdas Pophale) SiO2 
 PCOD8077602
Probable space group: P 21/M
;
_chemical_formula_sum "Si O2"
_cell_formula_units_Z 32
_cell_length_a 21.167311
_cell_length_b 18.097740
_cell_length_c 8.962535
_cell_angle_alpha 90.000000
_cell_angle_beta 147.868378
_cell_angle_gamma 90.000000
_cell_volume 1826.094106
_symmetry_space_group_name_H-M "P 21/M"
_symmetry_group_IT_number 11
_symmetry_cell_setting 'monoclinic'
loop_
_space_group_symop_operation_xyz
x,y,z
-x,1/2+y,-z
-x,-y,-z
x,1/2-y,z
loop_
_atom_site_type_symbol
_atom_site_label
_atom_site_fract_x
_atom_site_fract_y
_atom_site_fract_z
Si Si1 0.967689 0.109318 0.021498
Si Si2 0.379732 0.972920 0.832352
Si Si3 0.967689 0.390682 0.349257
Si Si4 0.165211 0.044200 0.915693
Si Si5 0.276340 0.666917 0.127904
Si Si6 0.723660 0.166917 0.522543
Si Si7 0.620268 0.472920 0.813426
Si Si8 0.165211 0.044200 0.245151
O O1 0.008277 0.136234 0.266555
O O2 0.083693 0.110526 0.147888
O O3 0.862063 0.161719 0.748651
O O4 0.915875 0.027404 0.929167
O O5 0.356048 0.889132 0.731519
O O6 0.276390 0.028803 0.574689
O O7 0.389514 0.974516 0.029028
O O8 0.500000 0.000000 0.000000
O O9 0.915874 0.472596 0.234332
O O10 0.083693 0.389474 0.686885
O O11 0.862064 0.338281 0.199602
O O12 0.210439 0.067468 0.170879
O O13 0.276391 0.028803 0.030874
O O14 0.322273 0.750000 0.190732
O O15 0.285391 0.645017 0.320782
O O16 0.356047 0.610868 0.192671
O O17 0.677728 0.250000 0.401641
O O18 0.500000 0.500000 0.500000
#
# Coordination Sequence:
#
# PCOD8077602 Si02
#       8
#     4   4   4   4   4   4   4   4
#     4   8  14  25  43  68  95 122 151 186 232 284
#     4  11  21  33  50  72  99 131 171 215 254 297
#     4   8  14  25  43  68  95 122 151 186 232 284
#     4   9  16  27  44  67  94 122 154 194 238 283
#     4   9  18  33  52  74 101 131 163 202 250 304
#     4   9  18  33  52  74 101 131 163 202 250 304
#     4  11  21  33  50  72  99 131 171 215 254 297
#     4   9  16  27  44  67  94 122 154 194 238 283
#
# _framework density 17.523741999999999
#
# number of rings (size 3 to 8) (size 9 to 14) (size 15 to 20)
#    0.000    2.750    0.000    4.500    0.000    6.500 
#    0.000    0.000    0.000    1.500    0.000    3.500 
#    0.000    0.000    0.000    0.000    0.000    0.000 
#
# Total GULP energy -396604.519181 kJ/mol
# GULP energy per Si atom -12393.891224 kJ/mol
# Density = 1.748386 g / cm^3
# Si number density = 17.523742 Si / 1000 Ang^3
#
#
#
# Elastic Constant Matrix: (Units=GPa)
#
#
# Indices 1 2 3 4 5 6 
#
# 1 134.3829 45.0181 63.9235 0.0000 -5.2897 0.0000
# 2 45.0181 58.0622 45.6671 0.0000 0.5846 0.0000
# 3 63.9235 45.6671 118.0139 0.0000 -9.4637 0.0000
# 4 0.0000 0.0000 0.0000 16.1961 0.0000 -1.3428
# 5 -5.2897 0.5846 -9.4637 0.0000 28.5334 0.0000
# 6 0.0000 0.0000 0.0000 -1.3428 0.0000 17.6856
#
#
#
# Elastic Compliance Matrix: (Units=1/GPa)
#
#
# Indices 1 2 3 4 5 6 
#
# 1 0.011188 -0.005717 -0.003773 0.000000 0.000940 0.000000
# 2 -0.005717 0.028084 -0.008118 0.000000 -0.004328 0.000000
# 3 -0.003773 -0.008118 0.013988 0.000000 0.004106 0.000000
# 4 0.000000 0.000000 0.000000 0.062134 0.000000 0.004717
# 5 0.000940 -0.004328 0.004106 0.000000 0.036672 0.000000
# 6 0.000000 0.000000 0.000000 0.004717 0.000000 0.056901
#
#
# Mechanical properties :
#
#
# Convention : Reuss Voigt Hill
#
# Bulk Modulus (GPa) = 55.41703 68.85292 62.13497
# Shear Modulus (GPa) = 19.98431 22.87305 21.42868
#
# Velocity S-wave (km/s) = 3.38066 3.61676 3.50070
# Velocity P-wave (km/s) = 6.85063 7.53776 7.20239
#
# Compressibility (1/GPa) = 0.01804500
#
# Stress axis : x y z
#
# Youngs Moduli (GPa) = 89.38068 35.60764 71.49181
#
# Poissons Ratio (x) = 0.20356 0.26971
# Poissons Ratio (y) = 0.51098 0.58036
# Poissons Ratio (z) = 0.33719 0.28906
#
# Static dielectric constant tensor:
#      x y z
#    x 3.452070 0.000000 -0.114500 
#    y 0.000000 3.074710 0.000000 
#    z -0.114500 0.000000 3.325010 
# 
# 
# High freq. dielectric constant tensor:
#      x y z
#    x 1.678570 0.000000 -0.008230 
#    y 0.000000 1.635270 0.000000 
#    z -0.008230 0.000000 1.669440 
# 
# From -- ./inp_files/27117.got.cif
#   From: 2010.06.25/outbox.cif.g09.slc.cpg/sg11_14_cif.got.tgz:27117.got - 2010.06.27 23:14:04.
