data_PCOD8077419
_publ_section_title
;
Structure prediction by ZEFSAII (Michael W. Deem and Ramdas Pophale) SiO2 
 PCOD8077419
Probable space group: P 21/M
;
_chemical_formula_sum "Si O2"
_cell_formula_units_Z 32
_cell_length_a 11.904188
_cell_length_b 8.700999
_cell_length_c 15.507486
_cell_angle_alpha 90.000000
_cell_angle_beta 89.290549
_cell_angle_gamma 90.000000
_cell_volume 1606.116337
_symmetry_space_group_name_H-M "P 21/M"
_symmetry_group_IT_number 11
_symmetry_cell_setting 'monoclinic'
loop_
_space_group_symop_operation_xyz
x,y,z
-x,1/2+y,-z
-x,-y,-z
x,1/2-y,z
loop_
_atom_site_type_symbol
_atom_site_label
_atom_site_fract_x
_atom_site_fract_y
_atom_site_fract_z
Si Si1 0.624217 0.931314 0.499668
Si Si2 0.260675 0.925109 0.154015
Si Si3 0.727355 0.070403 0.152596
Si Si4 0.772645 0.070403 0.347404
Si Si5 0.510910 0.924324 0.090897
Si Si6 0.760675 0.074891 0.654015
Si Si7 0.875783 0.568686 0.000332
Si Si8 0.010910 0.075676 0.590897
O O1 0.613554 0.750000 0.498546
O O2 0.500000 0.000000 0.500000
O O3 0.691207 0.983373 0.414152
O O4 0.690304 0.978823 0.585438
O O5 0.215847 0.750000 0.150592
O O6 0.392083 0.931811 0.136959
O O7 0.250000 0.995105 0.250000
O O8 0.190304 0.021177 0.085438
O O9 0.744489 0.250000 0.135489
O O10 0.750000 0.022098 0.250000
O O11 0.598504 0.024880 0.142853
O O12 0.808793 0.983373 0.085848
O O13 0.755511 0.250000 0.364511
O O14 0.901496 0.024880 0.357147
O O15 0.554949 0.750000 0.082014
O O16 0.500000 0.000000 0.000000
O O17 0.715847 0.250000 0.650592
O O18 0.892083 0.068189 0.636959
O O19 0.886446 0.750000 0.001454
O O20 0.000000 0.500000 0.000000
O O21 0.054949 0.250000 0.582014
O O22 0.000000 0.000000 0.500000
#
# Coordination Sequence:
#
# PCOD8077419 Si02
#       8
#     4   4   4   4   4   4   4   4
#     4  12  26  44  67  94 130 171 214 263 321 383
#     4  10  23  43  66  95 129 168 214 263 316 376
#     4  11  25  44  66  95 131 169 215 267 319 378
#     4  11  25  44  66  95 131 169 215 267 319 378
#     4  11  22  39  66  95 128 167 211 265 320 376
#     4  10  23  43  66  95 129 168 214 263 316 376
#     4  12  26  44  67  94 130 171 214 263 321 383
#     4  11  22  39  66  95 128 167 211 265 320 376
#
# _framework density 19.923839000000001
#
# number of rings (size 3 to 8) (size 9 to 14) (size 15 to 20)
#    0.000    1.000    2.500    3.750    3.500    3.500 
#    0.000    0.000    0.000    0.000    0.000    0.000 
#    0.000    0.000    0.000    0.000    0.000    0.000 
#
# Total GULP energy -396849.271177 kJ/mol
# GULP energy per Si atom -12401.539724 kJ/mol
# Density = 1.987849 g / cm^3
# Si number density = 19.923839 Si / 1000 Ang^3
#
#
#
# Elastic Constant Matrix: (Units=GPa)
#
#
# Indices 1 2 3 4 5 6 
#
# 1 120.8387 49.5991 69.7334 0.0000 14.3678 0.0000
# 2 49.5991 102.6244 83.9726 0.0000 3.0062 0.0000
# 3 69.7334 83.9726 183.7621 0.0000 10.0426 0.0000
# 4 0.0000 0.0000 0.0000 14.7706 0.0000 2.8592
# 5 14.3678 3.0062 10.0426 0.0000 37.2997 0.0000
# 6 0.0000 0.0000 0.0000 2.8592 0.0000 38.9256
#
#
#
# Elastic Compliance Matrix: (Units=1/GPa)
#
#
# Indices 1 2 3 4 5 6 
#
# 1 0.011602 -0.003288 -0.002711 0.000000 -0.003474 0.000000
# 2 -0.003288 0.016512 -0.006388 0.000000 0.001656 0.000000
# 3 -0.002711 -0.006388 0.009443 0.000000 -0.000984 0.000000
# 4 0.000000 0.000000 0.000000 0.068679 0.000000 -0.005045
# 5 -0.003474 0.001656 -0.000984 0.000000 0.028280 0.000000
# 6 0.000000 0.000000 0.000000 -0.005045 0.000000 0.026061
#
#
# Mechanical properties :
#
#
# Convention : Reuss Voigt Hill
#
# Bulk Modulus (GPa) = 78.21959 90.42617 84.32288
# Shear Modulus (GPa) = 26.36981 31.79386 29.08184
#
# Velocity S-wave (km/s) = 3.64198 3.99904 3.82468
# Velocity P-wave (km/s) = 7.55182 8.17359 7.86885
#
# Compressibility (1/GPa) = 0.01278452
#
# Stress axis : x y z
#
# Youngs Moduli (GPa) = 86.18996 60.56224 105.89506
#
# Poissons Ratio (x) = 0.19912 0.28703
# Poissons Ratio (y) = 0.28338 0.67648
# Poissons Ratio (z) = 0.23362 0.38688
#
# Static dielectric constant tensor:
#      x y z
#    x 3.906740 0.000000 0.021570 
#    y 0.000000 3.839690 0.000000 
#    z 0.021570 0.000000 3.737690 
# 
# 
# High freq. dielectric constant tensor:
#      x y z
#    x 1.792730 0.000000 0.000720 
#    y 0.000000 1.786450 0.000000 
#    z 0.000720 0.000000 1.792700 
# 
# From -- ./inp_files/49319.got.cif
#   From: 2010.06.25/outbox.cif.g09.slc.cpg/sg11_25_cif.got.tgz:49319.got - 2010.06.27 23:14:04.
