data_PCOD8077074
_publ_section_title
;
Structure prediction by ZEFSAII (Michael W. Deem and Ramdas Pophale) SiO2 
 PCOD8077074
Probable space group: P 21/M
;
_chemical_formula_sum "Si O2"
_cell_formula_units_Z 28
_cell_length_a 7.872102
_cell_length_b 8.751938
_cell_length_c 27.471122
_cell_angle_alpha 90.000000
_cell_angle_beta 135.504933
_cell_angle_gamma 90.000000
_cell_volume 1326.462846
_symmetry_space_group_name_H-M "P 21/M"
_symmetry_group_IT_number 11
_symmetry_cell_setting 'monoclinic'
loop_
_space_group_symop_operation_xyz
x,y,z
-x,1/2+y,-z
-x,-y,-z
x,1/2-y,z
loop_
_atom_site_type_symbol
_atom_site_label
_atom_site_fract_x
_atom_site_fract_y
_atom_site_fract_z
Si Si1 0.184321 0.930328 0.575731
Si Si2 0.911948 0.928273 0.339318
Si Si3 0.459101 0.423569 0.205726
Si Si4 0.759152 0.430169 0.928897
Si Si5 0.593139 0.071581 0.068554
Si Si6 0.689761 0.425127 0.654531
Si Si7 0.903556 0.579432 0.785116
O O1 0.157529 0.750000 0.571139
O O2 0.110580 0.991259 0.613516
O O3 0.455236 0.970045 0.613649
O O4 0.000000 0.000000 0.500000
O O5 0.857123 0.750000 0.334712
O O6 0.179379 0.954935 0.370748
O O7 0.720371 0.997562 0.261905
O O8 0.487438 0.250000 0.192479
O O9 0.278174 0.515861 0.133850
O O10 0.346853 0.427723 0.236563
O O11 0.780091 0.250000 0.935805
O O12 0.529828 0.488597 0.911598
O O13 0.000000 0.500000 0.000000
O O14 0.529363 0.250000 0.055279
O O15 0.878285 0.039529 0.133433
O O16 0.500000 0.000000 0.000000
O O17 0.608396 0.250000 0.642404
O O18 0.885229 0.462070 0.736763
O O19 0.942824 0.750000 0.771970
#
# Coordination Sequence:
#
# PCOD8077074 Si02
#       7
#     4   4   4   4   4   4   4
#     4  12  26  46  72 101 137 179 222 276 336 399
#     4  11  24  43  68 102 138 177 224 274 331 397
#     4  11  22  39  64  95 129 170 217 270 331 393
#     4  12  25  41  60  86 121 165 218 274 335 398
#     4  11  23  40  61  88 124 165 214 270 332 400
#     4  11  24  42  68 100 136 175 222 275 330 396
#     4  10  22  39  62  92 127 169 215 267 328 393
#
# _framework density 21.10877
#
# number of rings (size 3 to 8) (size 9 to 14) (size 15 to 20)
#    0.000    0.857    1.429    6.000    0.000    8.000 
#    0.000    0.000    0.000    0.000    0.000    0.000 
#    0.000    0.000    0.000    0.000    0.000    0.000 
#
# Total GULP energy -347323.830334 kJ/mol
# GULP energy per Si atom -12404.422512 kJ/mol
# Density = 2.106073 g / cm^3
# Si number density = 21.108770 Si / 1000 Ang^3
#
#
#
# Elastic Constant Matrix: (Units=GPa)
#
#
# Indices 1 2 3 4 5 6 
#
# 1 108.2790 57.2392 38.3507 0.0000 0.2415 0.0000
# 2 57.2392 171.4554 57.7429 0.0000 -2.0112 0.0000
# 3 38.3507 57.7429 124.3601 0.0000 -4.0411 0.0000
# 4 0.0000 0.0000 0.0000 42.2290 0.0000 -1.4340
# 5 0.2415 -2.0112 -4.0411 0.0000 24.9098 0.0000
# 6 0.0000 0.0000 0.0000 -1.4340 0.0000 34.5725
#
#
#
# Elastic Compliance Matrix: (Units=1/GPa)
#
#
# Indices 1 2 3 4 5 6 
#
# 1 0.011681 -0.003185 -0.002147 0.000000 -0.000719 0.000000
# 2 -0.003185 0.007782 -0.002624 0.000000 0.000234 0.000000
# 3 -0.002147 -0.002624 0.009968 0.000000 0.001426 0.000000
# 4 0.000000 0.000000 0.000000 0.023714 0.000000 0.000984
# 5 -0.000719 0.000234 0.001426 0.000000 0.040402 0.000000
# 6 0.000000 0.000000 0.000000 0.000984 0.000000 0.028966
#
#
# Mechanical properties :
#
#
# Convention : Reuss Voigt Hill
#
# Bulk Modulus (GPa) = 73.96395 78.97335 76.46865
# Shear Modulus (GPa) = 34.98229 37.05971 36.02100
#
# Velocity S-wave (km/s) = 4.07534 4.19460 4.13540
# Velocity P-wave (km/s) = 7.56703 7.80726 7.68809
#
# Compressibility (1/GPa) = 0.01352010
#
# Stress axis : x y z
#
# Youngs Moduli (GPa) = 85.60866 128.50095 100.32434
#
# Poissons Ratio (x) = 0.40929 0.21537
# Poissons Ratio (y) = 0.27267 0.26320
# Poissons Ratio (z) = 0.18378 0.33713
#
# Static dielectric constant tensor:
#      x y z
#    x 3.938190 0.000000 0.065310 
#    y 0.000000 5.497190 0.000000 
#    z 0.065310 0.000000 3.847180 
# 
# 
# High freq. dielectric constant tensor:
#      x y z
#    x 1.837390 0.000000 0.001690 
#    y 0.000000 1.839490 0.000000 
#    z 0.001690 0.000000 1.830580 
# 
# From -- ./inp_files/72765.got.cif
#   From: 2010.06.25/outbox.cif.g09.slc.cpg/sg11_37_cif.got.tgz:72765.got - 2010.06.27 23:14:04.
