data_PCOD8077418
_publ_section_title
;
Structure prediction by ZEFSAII (Michael W. Deem and Ramdas Pophale) SiO2 
 PCOD8077418
Probable space group: P 21/M
;
_chemical_formula_sum "Si O2"
_cell_formula_units_Z 28
_cell_length_a 9.764479
_cell_length_b 8.363275
_cell_length_c 21.721308
_cell_angle_alpha 90.000000
_cell_angle_beta 131.789711
_cell_angle_gamma 90.000000
_cell_volume 1322.558256
_symmetry_space_group_name_H-M "P 21/M"
_symmetry_group_IT_number 11
_symmetry_cell_setting 'monoclinic'
loop_
_space_group_symop_operation_xyz
x,y,z
-x,1/2+y,-z
-x,-y,-z
x,1/2-y,z
loop_
_atom_site_type_symbol
_atom_site_label
_atom_site_fract_x
_atom_site_fract_y
_atom_site_fract_z
Si Si1 0.828224 0.440213 0.487964
Si Si2 0.830613 0.064585 0.198600
Si Si3 0.255124 0.436163 0.173324
Si Si4 0.453342 0.935301 0.119708
Si Si5 0.432735 0.939241 0.346929
Si Si6 0.830492 0.063776 0.626572
Si Si7 0.844329 0.438797 0.065164
O O1 0.826219 0.250000 0.486169
O O2 0.642324 0.506782 0.402272
O O3 0.836985 0.512593 0.560113
O O4 0.000000 0.500000 0.500000
O O5 0.884801 0.250000 0.214048
O O6 0.816869 0.992254 0.125601
O O7 0.636505 0.039260 0.172936
O O8 0.982924 0.971543 0.282078
O O9 0.284843 0.250000 0.167252
O O10 0.372808 0.545997 0.163532
O O11 0.312264 0.470965 0.260081
O O12 0.044018 0.487843 0.100268
O O13 0.497457 0.750000 0.120446
O O14 0.310846 0.007887 0.026905
O O15 0.415282 0.750000 0.332576
O O16 0.346254 0.995140 0.386776
O O17 0.813196 0.250000 0.611558
O O18 0.824844 0.250000 0.061533
#
# Coordination Sequence:
#
# PCOD8077418 Si02
#       7
#     4   4   4   4   4   4   4
#     4  11  25  44  67  96 130 164 203 253 307 368
#     4  11  22  39  63  92 124 164 211 258 310 369
#     4  11  22  40  63  91 124 163 210 258 310 371
#     4  11  23  39  59  88 127 167 208 261 316 367
#     4  11  23  42  67  95 125 162 207 254 311 372
#     4  10  23  43  66  93 125 163 208 254 307 368
#     4   9  20  39  62  89 122 161 211 263 311 366
#
# _framework density 21.171091000000001
#
# number of rings (size 3 to 8) (size 9 to 14) (size 15 to 20)
#    0.000    1.429    1.429    3.429    2.000    1.714 
#    0.000    4.286    0.000    0.000    0.000    0.000 
#    0.000    0.000    0.000    0.000    0.000    0.000 
#
# Total GULP energy -347295.493762 kJ/mol
# GULP energy per Si atom -12403.410492 kJ/mol
# Density = 2.112290 g / cm^3
# Si number density = 21.171091 Si / 1000 Ang^3
#
#
#
# Elastic Constant Matrix: (Units=GPa)
#
#
# Indices 1 2 3 4 5 6 
#
# 1 117.2484 11.3961 27.8843 0.0000 11.6571 0.0000
# 2 11.3961 27.2914 8.2067 0.0000 1.1110 0.0000
# 3 27.8843 8.2067 82.9756 0.0000 8.6302 0.0000
# 4 0.0000 0.0000 0.0000 25.4433 0.0000 -3.9434
# 5 11.6571 1.1110 8.6302 0.0000 42.6271 0.0000
# 6 0.0000 0.0000 0.0000 -3.9434 0.0000 22.1526
#
#
#
# Elastic Compliance Matrix: (Units=1/GPa)
#
#
# Indices 1 2 3 4 5 6 
#
# 1 0.009685 -0.003140 -0.002735 0.000000 -0.002013 0.000000
# 2 -0.003140 0.038785 -0.002825 0.000000 0.000420 0.000000
# 3 -0.002735 -0.002825 0.013448 0.000000 -0.001901 0.000000
# 4 0.000000 0.000000 0.000000 0.040418 0.000000 0.007195
# 5 -0.002013 0.000420 -0.001901 0.000000 0.024384 0.000000
# 6 0.000000 0.000000 0.000000 0.007195 0.000000 0.046422
#
#
# Mechanical properties :
#
#
# Convention : Reuss Voigt Hill
#
# Bulk Modulus (GPa) = 22.46211 35.83219 29.14715
# Shear Modulus (GPa) = 24.34524 30.04648 27.19586
#
# Velocity S-wave (km/s) = 3.39474 3.77134 3.58799
# Velocity P-wave (km/s) = 5.09887 5.99382 5.56437
#
# Compressibility (1/GPa) = 0.04451942
#
# Stress axis : x y z
#
# Youngs Moduli (GPa) = 103.25720 25.78327 74.36145
#
# Poissons Ratio (x) = 0.08095 0.20335
# Poissons Ratio (y) = 0.32420 0.21004
# Poissons Ratio (z) = 0.28237 0.07283
#
# Static dielectric constant tensor:
#      x y z
#    x 3.786260 0.000000 -0.007430 
#    y 0.000000 3.592850 0.000000 
#    z -0.007430 0.000000 3.938360 
# 
# 
# High freq. dielectric constant tensor:
#      x y z
#    x 1.844130 0.000000 0.000460 
#    y 0.000000 1.815230 0.000000 
#    z 0.000460 0.000000 1.839090 
# 
# From -- ./inp_files/63390.got.cif
#   From: 2010.06.25/outbox.cif.g09.slc.cpg/sg11_32_cif.got.tgz:63390.got - 2010.06.27 23:14:04.
