data_PCOD8077464
_publ_section_title
;
Structure prediction by ZEFSAII (Michael W. Deem and Ramdas Pophale) SiO2 
 PCOD8077464
Probable space group: P 21/M
;
_chemical_formula_sum "Si O2"
_cell_formula_units_Z 22
_cell_length_a 9.105300
_cell_length_b 14.246732
_cell_length_c 8.682457
_cell_angle_alpha 90.000000
_cell_angle_beta 73.481382
_cell_angle_gamma 90.000000
_cell_volume 1079.809869
_symmetry_space_group_name_H-M "P 21/M"
_symmetry_group_IT_number 11
_symmetry_cell_setting 'monoclinic'
loop_
_space_group_symop_operation_xyz
x,y,z
-x,1/2+y,-z
-x,-y,-z
x,1/2-y,z
loop_
_atom_site_type_symbol
_atom_site_label
_atom_site_fract_x
_atom_site_fract_y
_atom_site_fract_z
Si Si1 0.750591 0.750000 0.971223
Si Si2 0.623374 0.388245 0.561416
Si Si3 0.075117 0.408606 0.902444
Si Si4 0.404810 0.750000 0.169388
Si Si5 0.159033 0.250000 0.391445
Si Si6 0.141666 0.750000 0.031408
Si Si7 0.831672 0.250000 0.337722
Si Si8 0.710075 0.587305 0.444303
O O1 0.736658 0.750000 0.791624
O O2 0.834050 0.845416 0.000164
O O3 0.583444 0.750000 0.090927
O O4 0.647900 0.341947 0.720589
O O5 0.732633 0.342195 0.401303
O O6 0.667120 0.497045 0.559739
O O7 0.448366 0.367643 0.565357
O O8 0.187421 0.441296 0.732915
O O9 0.940401 0.342597 0.875143
O O10 0.000000 0.500000 0.000000
O O11 0.317632 0.750000 0.032170
O O12 0.195263 0.158250 0.479466
O O13 0.981638 0.250000 0.399163
O O14 0.123568 0.750000 0.853212
#
# Coordination Sequence:
#
# PCOD8077464 Si02
#       8
#     2   4   4   2   2   2   2   4
#     4  11  24  45  65  96 133 170 218 270 324 388
#     4  10  24  43  66  95 131 170 220 270 324 393
#     4  11  23  45  68  93 132 177 216 270 325 385
#     4  11  23  45  65  95 131 171 219 274 322 395
#     4  12  25  41  67  99 132 171 219 273 321 392
#     4  11  25  41  65  95 130 178 219 268 333 377
#     4  11  23  42  64  93 134 170 219 279 320 386
#     4  11  24  43  68  96 129 177 219 265 332 391
#
# _framework density 20.373957000000001
#
# number of rings (size 3 to 8) (size 9 to 14) (size 15 to 20)
#    0.000    1.091    3.636    3.273    7.636    2.182 
#    0.000    1.818    0.000    0.000    0.000    0.000 
#    0.000    0.000    0.000    0.000    0.000    0.000 
#
# Total GULP energy -272840.227599 kJ/mol
# GULP energy per Si atom -12401.828527 kJ/mol
# Density = 2.032759 g / cm^3
# Si number density = 20.373957 Si / 1000 Ang^3
#
#
#
# Elastic Constant Matrix: (Units=GPa)
#
#
# Indices 1 2 3 4 5 6 
#
# 1 141.4280 61.1400 51.8594 0.0000 -0.7759 0.0000
# 2 61.1400 129.9187 42.9696 0.0000 0.9289 0.0000
# 3 51.8594 42.9696 110.3827 0.0000 -9.3694 0.0000
# 4 0.0000 0.0000 0.0000 16.3881 0.0000 -18.0277
# 5 -0.7759 0.9289 -9.3694 0.0000 38.6291 0.0000
# 6 0.0000 0.0000 0.0000 -18.0277 0.0000 20.2597
#
#
#
# Elastic Compliance Matrix: (Units=1/GPa)
#
#
# Indices 1 2 3 4 5 6 
#
# 1 0.009790 -0.003521 -0.003272 0.000000 -0.000512 0.000000
# 2 -0.003521 0.010145 -0.002370 0.000000 -0.000890 0.000000
# 3 -0.003272 -0.002370 0.011761 0.000000 0.002844 0.000000
# 4 0.000000 0.000000 0.000000 2.885460 0.000000 2.567571
# 5 -0.000512 -0.000890 0.002844 0.000000 0.026588 0.000000
# 6 0.000000 0.000000 0.000000 2.567571 0.000000 2.334062
#
#
# Mechanical properties :
#
#
# Convention : Reuss Voigt Hill
#
# Bulk Modulus (GPa) = 74.80593 77.07416 75.94005
# Shear Modulus (GPa) = 0.94329 30.10606 15.52468
#
# Velocity S-wave (km/s) = 0.68117 3.84822 2.76340
# Velocity P-wave (km/s) = 6.11676 7.59322 6.89463
#
# Compressibility (1/GPa) = 0.01336792
#
# Stress axis : x y z
#
# Youngs Moduli (GPa) = 102.14416 98.57526 85.02826
#
# Poissons Ratio (x) = 0.34711 0.27823
# Poissons Ratio (y) = 0.35968 0.20153
# Poissons Ratio (z) = 0.33424 0.23364
#
# Static dielectric constant tensor:
#      x y z
#    x 3.776390 0.000000 -0.179420 
#    y 0.000000 -22.254850 0.000000 
#    z -0.179420 0.000000 3.636970 
# 
# 
# High freq. dielectric constant tensor:
#      x y z
#    x 1.808040 0.000000 -0.017100 
#    y 0.000000 1.801490 0.000000 
#    z -0.017100 0.000000 1.795150 
# 
# From -- ./inp_files/12314.got.cif
#   From: 2010.06.25/outbox.cif.g09.slc.cpg/sg11_7_cif.got.tgz:12314.got - 2010.06.27 23:14:04.
