data_PCOD8077881
_publ_section_title
;
Structure prediction by ZEFSAII (Michael W. Deem and Ramdas Pophale) SiO2 
 PCOD8077881
Probable space group: P 21/M
;
_chemical_formula_sum "Si O2"
_cell_formula_units_Z 20
_cell_length_a 7.984353
_cell_length_b 22.455609
_cell_length_c 9.110326
_cell_angle_alpha 90.000000
_cell_angle_beta 147.482338
_cell_angle_gamma 90.000000
_cell_volume 878.061793
_symmetry_space_group_name_H-M "P 21/M"
_symmetry_group_IT_number 11
_symmetry_cell_setting 'monoclinic'
loop_
_space_group_symop_operation_xyz
x,y,z
-x,1/2+y,-z
-x,-y,-z
x,1/2-y,z
loop_
_atom_site_type_symbol
_atom_site_label
_atom_site_fract_x
_atom_site_fract_y
_atom_site_fract_z
Si Si1 0.103543 0.750000 0.721151
Si Si2 0.705538 0.432665 0.390930
Si Si3 0.804079 0.750000 0.194089
Si Si4 0.733353 0.569368 0.416299
Si Si5 0.901918 0.134030 0.088598
Si Si6 0.925714 0.633033 0.115515
O O1 0.852045 0.750000 0.404745
O O2 0.437989 0.750000 0.890776
O O3 0.050483 0.692739 0.781346
O O4 0.612927 0.501809 0.323635
O O5 0.413018 0.395953 0.115775
O O6 0.991747 0.418842 0.495290
O O7 0.810698 0.412583 0.631262
O O8 0.958888 0.692511 0.235195
O O9 0.452486 0.612264 0.163510
O O10 0.865256 0.583789 0.675639
O O11 0.001521 0.148329 0.997707
#
# Coordination Sequence:
#
# PCOD8077881 Si02
#       6
#     2   4   2   4   4   4
#     4  12  25  44  69  92 125 170 217 262 315 384
#     4  11  24  43  67  95 130 173 217 258 310 382
#     4  12  25  44  69  92 125 170 217 262 315 384
#     4  11  24  43  67  95 130 173 217 258 310 382
#     4  12  25  42  66  98 132 165 211 268 324 375
#     4  12  25  42  66  98 132 165 211 268 324 375
#
# _framework density 22.777441
#
# number of rings (size 3 to 8) (size 9 to 14) (size 15 to 20)
#    0.000    0.400    0.000   10.200    0.000    8.000 
#    0.000    6.000    0.000    0.000    0.000    0.000 
#    0.000    0.000    0.000    0.000    0.000    0.000 
#
# Total GULP energy -248194.543266 kJ/mol
# GULP energy per Si atom -12409.727163 kJ/mol
# Density = 2.272560 g / cm^3
# Si number density = 22.777441 Si / 1000 Ang^3
#
#
#
# Elastic Constant Matrix: (Units=GPa)
#
#
# Indices 1 2 3 4 5 6 
#
# 1 86.0926 58.2618 18.8438 0.0000 -19.8121 0.0000
# 2 58.2618 121.5476 40.9516 0.0000 -6.0894 0.0000
# 3 18.8438 40.9516 122.8111 0.0000 -9.3038 0.0000
# 4 0.0000 0.0000 0.0000 33.8952 0.0000 -4.8831
# 5 -19.8121 -6.0894 -9.3038 0.0000 45.8194 0.0000
# 6 0.0000 0.0000 0.0000 -4.8831 0.0000 15.6379
#
#
#
# Elastic Compliance Matrix: (Units=1/GPa)
#
#
# Indices 1 2 3 4 5 6 
#
# 1 0.019311 -0.009102 0.000623 0.000000 0.007267 0.000000
# 2 -0.009102 0.013576 -0.003343 0.000000 -0.002810 0.000000
# 3 0.000623 -0.003343 0.009292 0.000000 0.001712 0.000000
# 4 0.000000 0.000000 0.000000 0.030892 0.000000 0.009647
# 5 0.007267 -0.002810 0.001712 0.000000 0.024941 0.000000
# 6 0.000000 0.000000 0.000000 0.009647 0.000000 0.066960
#
#
# Mechanical properties :
#
#
# Convention : Reuss Voigt Hill
#
# Bulk Modulus (GPa) = 53.95791 62.95176 58.45483
# Shear Modulus (GPa) = 25.66805 33.23011 29.44908
#
# Velocity S-wave (km/s) = 3.36059 3.82370 3.59960
# Velocity P-wave (km/s) = 6.22886 6.86965 6.55708
#
# Compressibility (1/GPa) = 0.01853297
#
# Stress axis : x y z
#
# Youngs Moduli (GPa) = 51.78345 73.66054 107.62521
#
# Poissons Ratio (x) = 0.67047 -0.06701
# Poissons Ratio (y) = 0.47134 0.35981
# Poissons Ratio (z) = -0.03224 0.24626
#
# Static dielectric constant tensor:
#      x y z
#    x 3.961910 0.000000 -0.077990 
#    y 0.000000 4.217960 0.000000 
#    z -0.077990 0.000000 4.288390 
# 
# 
# High freq. dielectric constant tensor:
#      x y z
#    x 1.896510 0.000000 -0.005830 
#    y 0.000000 1.911680 0.000000 
#    z -0.005830 0.000000 1.918260 
# 
# From -- ./inp_files/5175.got.cif
#   From: 2010.06.25/outbox.cif.g09.slc.cpg/sg11_3_cif.got.tgz:5175.got - 2010.06.27 23:14:04.
