data_PCOD8077085
_publ_section_title
;
Structure prediction by ZEFSAII (Michael W. Deem and Ramdas Pophale) SiO2 
 PCOD8077085
Probable space group: P 21/M
;
_chemical_formula_sum "Si O2"
_cell_formula_units_Z 32
_cell_length_a 10.000874
_cell_length_b 22.098158
_cell_length_c 6.799376
_cell_angle_alpha 90.000000
_cell_angle_beta 72.550066
_cell_angle_gamma 90.000000
_cell_volume 1433.514405
_symmetry_space_group_name_H-M "P 21/M"
_symmetry_group_IT_number 11
_symmetry_cell_setting 'monoclinic'
loop_
_space_group_symop_operation_xyz
x,y,z
-x,1/2+y,-z
-x,-y,-z
x,1/2-y,z
loop_
_atom_site_type_symbol
_atom_site_label
_atom_site_fract_x
_atom_site_fract_y
_atom_site_fract_z
Si Si1 0.901540 0.911654 0.002599
Si Si2 0.727813 0.609130 0.712397
Si Si3 0.103259 0.320399 0.682379
Si Si4 0.379828 0.982457 0.202147
Si Si5 0.779244 0.179554 0.741852
Si Si6 0.200386 0.541239 0.921670
Si Si7 0.635978 0.109336 0.472146
Si Si8 0.538399 0.178617 0.158275
O O1 0.851603 0.851439 0.134926
O O2 0.832095 0.972024 0.121477
O O3 0.856402 0.902865 0.800137
O O4 0.067561 0.915974 0.952455
O O5 0.792558 0.650535 0.518181
O O6 0.673229 0.543267 0.663090
O O7 0.598102 0.645283 0.871857
O O8 0.135130 0.250000 0.681062
O O9 0.940118 0.334273 0.717505
O O10 0.440314 0.933985 0.332990
O O11 0.500000 0.000000 0.000000
O O12 0.254297 0.953558 0.124659
O O13 0.754102 0.250000 0.715821
O O14 0.749147 0.146648 0.548276
O O15 0.676336 0.159507 0.969664
O O16 0.309898 0.562780 0.713350
O O17 0.544636 0.156939 0.385711
O O18 0.516608 0.250000 0.164172
#
# Coordination Sequence:
#
# PCOD8077085 Si02
#       8
#     4   4   4   4   4   4   4   4
#     4  10  22  41  62  89 127 167 204 259 323 372
#     4  11  24  42  62  89 126 164 209 259 315 383
#     4  11  23  39  62  92 124 164 213 260 312 382
#     4  11  24  40  62  95 129 166 210 264 328 385
#     4  10  23  42  63  91 127 164 209 261 314 378
#     4  10  22  39  63  94 125 162 213 261 313 384
#     4  12  21  38  66  90 120 162 207 258 318 373
#     4  11  25  43  63  91 125 164 212 261 310 376
#
# _framework density 22.322762999999998
#
# number of rings (size 3 to 8) (size 9 to 14) (size 15 to 20)
#    0.000    1.250    0.000    6.000    0.000    6.000 
#    0.000    9.375    0.000    0.000    0.000    0.000 
#    0.000    0.000    0.000    0.000    0.000    0.000 
#
# Total GULP energy -396614.475377 kJ/mol
# GULP energy per Si atom -12394.202356 kJ/mol
# Density = 2.227196 g / cm^3
# Si number density = 22.322763 Si / 1000 Ang^3
#
#
#
# Elastic Constant Matrix: (Units=GPa)
#
#
# Indices 1 2 3 4 5 6 
#
# 1 64.1083 17.5564 9.9020 0.0000 -8.5856 0.0000
# 2 17.5564 100.6885 28.3114 0.0000 6.9280 0.0000
# 3 9.9020 28.3114 70.7067 0.0000 -2.4474 0.0000
# 4 0.0000 0.0000 0.0000 39.4040 0.0000 -1.5446
# 5 -8.5856 6.9280 -2.4474 0.0000 23.1065 0.0000
# 6 0.0000 0.0000 0.0000 -1.5446 0.0000 30.9769
#
#
#
# Elastic Compliance Matrix: (Units=1/GPa)
#
#
# Indices 1 2 3 4 5 6 
#
# 1 0.017650 -0.003346 -0.000874 0.000000 0.007469 0.000000
# 2 -0.003346 0.012177 -0.004593 0.000000 -0.005381 0.000000
# 3 -0.000874 -0.004593 0.016200 0.000000 0.002768 0.000000
# 4 0.000000 0.000000 0.000000 0.025428 0.000000 0.001268
# 5 0.007469 -0.005381 0.002768 0.000000 0.047960 0.000000
# 6 0.000000 0.000000 0.000000 0.001268 0.000000 0.032345
#
#
# Mechanical properties :
#
#
# Convention : Reuss Voigt Hill
#
# Bulk Modulus (GPa) = 35.20914 38.56033 36.88474
# Shear Modulus (GPa) = 27.95600 30.67973 29.31787
#
# Velocity S-wave (km/s) = 3.54270 3.71127 3.62797
# Velocity P-wave (km/s) = 5.70450 5.97296 5.84027
#
# Compressibility (1/GPa) = 0.02840171
#
# Stress axis : x y z
#
# Youngs Moduli (GPa) = 56.65703 82.12354 61.72722
#
# Poissons Ratio (x) = 0.27477 0.05392
# Poissons Ratio (y) = 0.18956 0.28353
# Poissons Ratio (z) = 0.04949 0.37722
#
# Static dielectric constant tensor:
#      x y z
#    x 4.106650 0.000000 0.101930 
#    y 0.000000 4.366630 0.000000 
#    z 0.101930 0.000000 3.913360 
# 
# 
# High freq. dielectric constant tensor:
#      x y z
#    x 1.876230 0.000000 0.004700 
#    y 0.000000 1.906960 0.000000 
#    z 0.004700 0.000000 1.866740 
# 
# From -- ./inp_files/5450.got.cif
#   From: 2010.06.25/outbox.cif.g09.slc.cpg/sg11_3_cif.got.tgz:5450.got - 2010.06.27 23:14:04.
