data_PCOD8077684
_publ_section_title
;
Structure prediction by ZEFSAII (Michael W. Deem and Ramdas Pophale) SiO2 
 PCOD8077684
Probable space group: P 21/M
;
_chemical_formula_sum "Si O2"
_cell_formula_units_Z 32
_cell_length_a 23.026795
_cell_length_b 9.162857
_cell_length_c 16.628303
_cell_angle_alpha 90.000000
_cell_angle_beta 31.052199
_cell_angle_gamma 90.000000
_cell_volume 1809.712065
_symmetry_space_group_name_H-M "P 21/M"
_symmetry_group_IT_number 11
_symmetry_cell_setting 'monoclinic'
loop_
_space_group_symop_operation_xyz
x,y,z
-x,1/2+y,-z
-x,-y,-z
x,1/2-y,z
loop_
_atom_site_type_symbol
_atom_site_label
_atom_site_fract_x
_atom_site_fract_y
_atom_site_fract_z
Si Si1 0.953077 0.584200 0.875145
Si Si2 0.385619 0.576264 0.659333
Si Si3 0.621468 0.919720 0.018645
Si Si4 0.194449 0.417216 0.799408
Si Si5 0.384211 0.581920 0.126034
Si Si6 0.831049 0.918484 0.354541
Si Si7 0.361728 0.916774 0.330073
Si Si8 0.724124 0.919590 0.066001
O O1 0.992996 0.750000 0.818583
O O2 0.061343 0.485857 0.727864
O O3 0.908773 0.553591 0.017834
O O4 0.855547 0.547147 0.926296
O O5 0.500000 0.500000 0.500000
O O6 0.398192 0.750000 0.644436
O O7 0.294254 0.528017 0.701853
O O8 0.351753 0.521293 0.787904
O O9 0.626374 0.750000 0.991072
O O10 0.491570 0.967370 0.186260
O O11 0.695622 0.958260 0.008238
O O12 0.677402 0.007487 0.877325
O O13 0.237143 0.250000 0.758822
O O14 0.153952 0.448906 0.757687
O O15 0.406973 0.750000 0.079017
O O16 0.318432 0.565841 0.288848
O O17 0.500000 0.500000 0.000000
O O18 0.827427 0.750000 0.380163
O O19 0.714206 0.985943 0.522415
O O20 0.350105 0.750000 0.372035
O O21 0.697456 0.750000 0.117330
#
# Coordination Sequence:
#
# PCOD8077684 Si02
#       8
#     4   4   4   4   4   4   4   4
#     4   9  18  35  55  71  99 138 173 211 257 309
#     4  11  22  34  50  72 102 139 172 210 256 303
#     4   9  18  33  55  80 106 134 166 206 253 311
#     4   9  20  37  52  72  99 132 174 217 260 305
#     4   9  17  31  51  75 104 137 169 204 250 306
#     4  11  22  33  51  77 104 131 171 223 259 299
#     4   9  19  33  49  75 107 137 167 200 253 313
#     4   9  19  36  55  77 103 134 172 211 254 307
#
# _framework density 17.682369999999999
#
# number of rings (size 3 to 8) (size 9 to 14) (size 15 to 20)
#    0.000    2.500    0.000    3.750    1.750    6.000 
#    0.000    0.000    0.000    0.750    0.000    0.000 
#    0.000    0.000    0.000    0.000    0.000    0.000 
#
# Total GULP energy -396737.558457 kJ/mol
# GULP energy per Si atom -12398.048702 kJ/mol
# Density = 1.764212 g / cm^3
# Si number density = 17.682370 Si / 1000 Ang^3
#
#
#
# Elastic Constant Matrix: (Units=GPa)
#
#
# Indices 1 2 3 4 5 6 
#
# 1 108.7347 38.2323 27.7326 0.0000 3.3674 0.0000
# 2 38.2323 86.8437 23.8925 0.0000 0.2639 0.0000
# 3 27.7326 23.8925 40.3688 0.0000 -1.8932 0.0000
# 4 0.0000 0.0000 0.0000 30.6849 0.0000 2.3806
# 5 3.3674 0.2639 -1.8932 0.0000 15.5294 0.0000
# 6 0.0000 0.0000 0.0000 2.3806 0.0000 28.8324
#
#
#
# Elastic Compliance Matrix: (Units=1/GPa)
#
#
# Indices 1 2 3 4 5 6 
#
# 1 0.012201 -0.003597 -0.006410 0.000000 -0.003366 0.000000
# 2 -0.003597 0.014839 -0.006323 0.000000 -0.000243 0.000000
# 3 -0.006410 -0.006323 0.033177 0.000000 0.005542 0.000000
# 4 0.000000 0.000000 0.000000 0.032799 0.000000 -0.002708
# 5 -0.003366 -0.000243 0.005542 0.000000 0.065804 0.000000
# 6 0.000000 0.000000 0.000000 -0.002708 0.000000 0.034907
#
#
# Mechanical properties :
#
#
# Convention : Reuss Voigt Hill
#
# Bulk Modulus (GPa) = 36.28926 46.18466 41.23696
# Shear Modulus (GPa) = 21.22484 24.74867 22.98676
#
# Velocity S-wave (km/s) = 3.46835 3.74521 3.60944
# Velocity P-wave (km/s) = 6.05034 6.69910 6.38297
#
# Compressibility (1/GPa) = 0.02755636
#
# Stress axis : x y z
#
# Youngs Moduli (GPa) = 81.96190 67.39056 30.14102
#
# Poissons Ratio (x) = 0.24243 0.19322
# Poissons Ratio (y) = 0.29485 0.19057
# Poissons Ratio (z) = 0.52541 0.42608
#
# Static dielectric constant tensor:
#      x y z
#    x 2.133060 0.000000 0.461060 
#    y 0.000000 3.363560 0.000000 
#    z 0.461060 0.000000 3.083990 
# 
# 
# High freq. dielectric constant tensor:
#      x y z
#    x 1.683340 0.000000 0.004930 
#    y 0.000000 1.687950 0.000000 
#    z 0.004930 0.000000 1.657860 
# 
# From -- ./inp_files/43797.got.cif
#   From: 2010.06.25/outbox.cif.g09.slc.cpg/sg11_22_cif.got.tgz:43797.got - 2010.06.27 23:14:04.
