data_PCOD8077774
_publ_section_title
;
Structure prediction by ZEFSAII (Michael W. Deem and Ramdas Pophale) SiO2 
 PCOD8077774
Probable space group: P 21/M
;
_chemical_formula_sum "Si O2"
_cell_formula_units_Z 28
_cell_length_a 13.921102
_cell_length_b 17.516627
_cell_length_c 6.406320
_cell_angle_alpha 90.000000
_cell_angle_beta 56.057006
_cell_angle_gamma 90.000000
_cell_volume 1295.979347
_symmetry_space_group_name_H-M "P 21/M"
_symmetry_group_IT_number 11
_symmetry_cell_setting 'monoclinic'
loop_
_space_group_symop_operation_xyz
x,y,z
-x,1/2+y,-z
-x,-y,-z
x,1/2-y,z
loop_
_atom_site_type_symbol
_atom_site_label
_atom_site_fract_x
_atom_site_fract_y
_atom_site_fract_z
Si Si1 0.507134 0.066315 0.319389
Si Si2 0.906379 0.957080 0.968601
Si Si3 0.658247 0.164173 0.409986
Si Si4 0.148592 0.617082 0.108944
Si Si5 0.748470 0.582382 0.518567
Si Si6 0.309097 0.929044 0.236176
Si Si7 0.921298 0.661969 0.591509
O O1 0.566735 0.140955 0.344209
O O2 0.386095 0.094562 0.370226
O O3 0.500000 0.000000 0.500000
O O4 0.588648 0.037290 0.032598
O O5 0.817142 0.910252 0.218495
O O6 0.953173 0.894295 0.745979
O O7 0.844796 0.025049 0.918391
O O8 0.000000 0.000000 0.000000
O O9 0.635321 0.250000 0.504759
O O10 0.632392 0.112002 0.639590
O O11 0.790775 0.154998 0.166150
O O12 0.226640 0.632283 0.219614
O O13 0.020796 0.650861 0.294512
O O14 0.769337 0.498309 0.585203
O O15 0.798921 0.642074 0.628180
O O16 0.917915 0.750000 0.670705
#
# Coordination Sequence:
#
# PCOD8077774 Si02
#       7
#     4   4   4   4   4   4   4
#     4  11  24  42  72 100 129 177 230 277 331 409
#     4  12  23  43  71  98 131 180 234 273 325 409
#     4  11  25  42  67 103 137 170 226 294 342 384
#     4  11  22  44  69  98 132 179 225 274 335 415
#     4  12  23  42  71  98 132 177 227 271 335 414
#     4  11  22  41  72  98 127 173 228 274 336 399
#     4  12  28  43  65 102 144 178 220 283 347 403
#
# _framework density 21.605283
#
# number of rings (size 3 to 8) (size 9 to 14) (size 15 to 20)
#    0.000    0.571    5.714    3.000    0.000    4.000 
#    0.000    1.429    0.000    0.000    0.000    0.000 
#    0.000    0.000    0.000    0.000    0.000    0.000 
#
# Total GULP energy -347163.220044 kJ/mol
# GULP energy per Si atom -12398.686430 kJ/mol
# Density = 2.155611 g / cm^3
# Si number density = 21.605283 Si / 1000 Ang^3
#
#
#
# Elastic Constant Matrix: (Units=GPa)
#
#
# Indices 1 2 3 4 5 6 
#
# 1 125.5013 23.7796 31.3767 0.0000 0.7187 0.0000
# 2 23.7796 114.3262 32.4418 0.0000 7.4970 0.0000
# 3 31.3767 32.4418 113.5072 0.0000 -0.1351 0.0000
# 4 0.0000 0.0000 0.0000 20.3118 0.0000 6.4715
# 5 0.7187 7.4970 -0.1351 0.0000 31.8921 0.0000
# 6 0.0000 0.0000 0.0000 6.4715 0.0000 23.9853
#
#
#
# Elastic Compliance Matrix: (Units=1/GPa)
#
#
# Indices 1 2 3 4 5 6 
#
# 1 0.008716 -0.001235 -0.002056 0.000000 0.000085 0.000000
# 2 -0.001235 0.009858 -0.002479 0.000000 -0.002300 0.000000
# 3 -0.002056 -0.002479 0.010088 0.000000 0.000672 0.000000
# 4 0.000000 0.000000 0.000000 0.053863 0.000000 -0.014533
# 5 0.000085 -0.002300 0.000672 0.000000 0.031897 0.000000
# 6 0.000000 0.000000 0.000000 -0.014533 0.000000 0.045613
#
#
# Mechanical properties :
#
#
# Convention : Reuss Voigt Hill
#
# Bulk Modulus (GPa) = 58.40689 58.72566 58.56628
# Shear Modulus (GPa) = 28.20366 32.95361 30.57864
#
# Velocity S-wave (km/s) = 3.61696 3.90969 3.76617
# Velocity P-wave (km/s) = 6.67349 6.90080 6.78810
#
# Compressibility (1/GPa) = 0.01712127
#
# Stress axis : x y z
#
# Youngs Moduli (GPa) = 114.73655 101.44027 99.13054
#
# Poissons Ratio (x) = 0.12527 0.20383
# Poissons Ratio (y) = 0.14169 0.24574
# Poissons Ratio (z) = 0.23592 0.25146
#
# Static dielectric constant tensor:
#      x y z
#    x 4.000300 0.000000 0.084750 
#    y 0.000000 3.653940 0.000000 
#    z 0.084750 0.000000 4.059200 
# 
# 
# High freq. dielectric constant tensor:
#      x y z
#    x 1.856420 0.000000 0.007750 
#    y 0.000000 1.820410 0.000000 
#    z 0.007750 0.000000 1.860030 
# 
# From -- ./inp_files/6779.got.cif
#   From: 2010.06.25/outbox.cif.g09.slc.cpg/sg11_4_cif.got.tgz:6779.got - 2010.06.27 23:14:04.
