data_PCOD8077451
_publ_section_title
;
Structure prediction by ZEFSAII (Michael W. Deem and Ramdas Pophale) SiO2 
 PCOD8077451
Probable space group: P 21/M
;
_chemical_formula_sum "Si O2"
_cell_formula_units_Z 28
_cell_length_a 9.270408
_cell_length_b 9.370487
_cell_length_c 24.589650
_cell_angle_alpha 90.000000
_cell_angle_beta 45.469895
_cell_angle_gamma 90.000000
_cell_volume 1522.758563
_symmetry_space_group_name_H-M "P 21/M"
_symmetry_group_IT_number 11
_symmetry_cell_setting 'monoclinic'
loop_
_space_group_symop_operation_xyz
x,y,z
-x,1/2+y,-z
-x,-y,-z
x,1/2-y,z
loop_
_atom_site_type_symbol
_atom_site_label
_atom_site_fract_x
_atom_site_fract_y
_atom_site_fract_z
Si Si1 0.330139 0.418220 0.577442
Si Si2 0.683443 0.914296 0.293729
Si Si3 0.798493 0.413590 0.066643
Si Si4 0.887512 0.093388 0.681210
Si Si5 0.130137 0.902592 0.187947
Si Si6 0.525388 0.588701 0.939841
Si Si7 0.493819 0.579596 0.757989
O O1 0.500000 0.500000 0.500000
O O2 0.365084 0.250000 0.563465
O O3 0.347763 0.465363 0.636005
O O4 0.114386 0.459173 0.605716
O O5 0.613717 0.750000 0.304357
O O6 0.917798 0.931601 0.214296
O O7 0.560295 0.017617 0.286453
O O8 0.859750 0.250000 0.060552
O O9 0.664816 0.431113 0.048509
O O10 0.670258 0.470221 0.152764
O O11 0.000000 0.500000 0.000000
O O12 0.836152 0.250000 0.668733
O O13 0.911766 0.117209 0.738314
O O14 0.717135 0.978167 0.712522
O O15 0.220013 0.750000 0.142021
O O16 0.274957 0.035802 0.142725
O O17 0.561226 0.750000 0.947063
O O18 0.500000 0.500000 0.000000
O O19 0.505058 0.750000 0.753258
#
# Coordination Sequence:
#
# PCOD8077451 Si02
#       7
#     4   4   4   4   4   4   4
#     4   9  19  37  61  89 118 146 184 226 272 332
#     4   9  20  37  57  83 114 147 184 225 273 333
#     4  10  24  41  55  77 111 148 188 235 285 334
#     4   9  18  35  59  83 109 146 184 221 272 335
#     4   9  18  35  57  79 102 138 185 227 274 329
#     4  11  23  38  54  77 108 140 182 234 282 332
#     4  11  22  37  56  84 115 145 190 237 277 328
#
# _framework density 18.387682000000002
#
# number of rings (size 3 to 8) (size 9 to 14) (size 15 to 20)
#    0.000    2.286    1.429    2.571    2.000    4.000 
#    0.000    3.571    0.000    0.000    0.000    0.000 
#    0.000    0.000    0.000    0.000    0.000    0.000 
#
# Total GULP energy -347010.080279 kJ/mol
# GULP energy per Si atom -12393.217153 kJ/mol
# Density = 1.834583 g / cm^3
# Si number density = 18.387682 Si / 1000 Ang^3
#
#
#
# Elastic Constant Matrix: (Units=GPa)
#
#
# Indices 1 2 3 4 5 6 
#
# 1 84.0436 58.8727 40.7220 0.0000 -15.4631 0.0000
# 2 58.8727 101.7506 64.5369 0.0000 -10.6409 0.0000
# 3 40.7220 64.5369 114.1334 0.0000 -22.3373 0.0000
# 4 0.0000 0.0000 0.0000 33.9442 0.0000 -2.0074
# 5 -15.4631 -10.6409 -22.3373 0.0000 22.3111 0.0000
# 6 0.0000 0.0000 0.0000 -2.0074 0.0000 31.2211
#
#
#
# Elastic Compliance Matrix: (Units=1/GPa)
#
#
# Indices 1 2 3 4 5 6 
#
# 1 0.021882 -0.012340 0.001227 0.000000 0.010509 0.000000
# 2 -0.012340 0.022335 -0.009720 0.000000 -0.007632 0.000000
# 3 0.001227 -0.009720 0.016267 0.000000 0.012500 0.000000
# 4 0.000000 0.000000 0.000000 0.029573 0.000000 0.001901
# 5 0.010509 -0.007632 0.012500 0.000000 0.060979 0.000000
# 6 0.000000 0.000000 0.000000 0.001901 0.000000 0.032152
#
#
# Mechanical properties :
#
#
# Convention : Reuss Voigt Hill
#
# Bulk Modulus (GPa) = 53.14304 69.79897 61.47100
# Shear Modulus (GPa) = 21.63332 26.54835 24.09083
#
# Velocity S-wave (km/s) = 3.43375 3.80387 3.62354
# Velocity P-wave (km/s) = 6.68469 7.57196 7.14212
#
# Compressibility (1/GPa) = 0.01881714
#
# Stress axis : x y z
#
# Youngs Moduli (GPa) = 45.70023 44.77298 61.47597
#
# Poissons Ratio (x) = 0.55250 -0.07544
# Poissons Ratio (y) = 0.56395 0.59755
# Poissons Ratio (z) = -0.05608 0.43520
#
# Static dielectric constant tensor:
#      x y z
#    x 3.387370 0.000000 -0.082990 
#    y 0.000000 3.320400 0.000000 
#    z -0.082990 0.000000 3.363660 
# 
# 
# High freq. dielectric constant tensor:
#      x y z
#    x 1.712770 0.000000 -0.008510 
#    y 0.000000 1.714100 0.000000 
#    z -0.008510 0.000000 1.705200 
# 
# From -- ./inp_files/28432.got.cif
#   From: 2010.06.25/outbox.cif.g09.slc.cpg/sg11_15_cif.got.tgz:28432.got - 2010.06.27 23:14:04.
