data_PCOD8077738
_publ_section_title
;
Structure prediction by ZEFSAII (Michael W. Deem and Ramdas Pophale) SiO2 
 PCOD8077738
Probable space group: P 21/M
;
_chemical_formula_sum "Si O2"
_cell_formula_units_Z 24
_cell_length_a 24.375287
_cell_length_b 8.735731
_cell_length_c 18.093187
_cell_angle_alpha 90.000000
_cell_angle_beta 160.796531
_cell_angle_gamma 90.000000
_cell_volume 1267.241516
_symmetry_space_group_name_H-M "P 21/M"
_symmetry_group_IT_number 11
_symmetry_cell_setting 'monoclinic'
loop_
_space_group_symop_operation_xyz
x,y,z
-x,1/2+y,-z
-x,-y,-z
x,1/2-y,z
loop_
_atom_site_type_symbol
_atom_site_label
_atom_site_fract_x
_atom_site_fract_y
_atom_site_fract_z
Si Si1 0.984943 0.431269 0.061981
Si Si2 0.832828 0.930846 0.257450
Si Si3 0.359978 0.431145 0.125823
Si Si4 0.516130 0.571345 0.941219
Si Si5 0.670617 0.567336 0.746672
Si Si6 0.312720 0.930405 0.541879
O O1 0.965816 0.250000 0.032257
O O2 0.146798 0.474522 0.315189
O O3 0.822767 0.499594 0.894573
O O4 0.000000 0.500000 0.000000
O O5 0.846878 0.750000 0.277449
O O6 0.788023 0.987017 0.117212
O O7 0.686472 0.992135 0.123582
O O8 0.000000 0.000000 0.500000
O O9 0.369380 0.250000 0.134699
O O10 0.316069 0.489358 0.151547
O O11 0.541461 0.488382 0.328325
O O12 0.528293 0.750000 0.967334
O O13 0.364425 0.532632 0.692363
O O14 0.500000 0.500000 0.000000
O O15 0.500000 0.500000 0.500000
O O16 0.670812 0.750000 0.740502
O O17 0.277615 0.750000 0.486574
#
# Coordination Sequence:
#
# PCOD8077738 Si02
#       6
#     4   4   4   4   4   4
#     4  12  25  40  58  83 113 146 183 229 280 336
#     4   9  18  34  53  77 106 141 181 222 267 319
#     4   8  17  35  58  78 104 141 180 220 270 326
#     4   9  19  34  54  79 111 147 185 228 276 328
#     4  11  22  38  60  86 113 145 183 226 275 332
#     4   9  18  37  60  81 107 144 186 231 279 329
#
# _framework density 18.938773000000001
#
# number of rings (size 3 to 8) (size 9 to 14) (size 15 to 20)
#    0.000    2.333    0.000    5.000    0.000    4.000 
#    0.000   10.000    0.000    0.000    0.000    0.000 
#    0.000    0.000    0.000    0.000    0.000    0.000 
#
# Total GULP energy -297514.855285 kJ/mol
# GULP energy per Si atom -12396.452304 kJ/mol
# Density = 1.889567 g / cm^3
# Si number density = 18.938773 Si / 1000 Ang^3
#
#
#
# Elastic Constant Matrix: (Units=GPa)
#
#
# Indices 1 2 3 4 5 6 
#
# 1 180.7796 53.5888 89.4699 0.0000 -12.6444 0.0000
# 2 53.5888 68.2093 47.6934 0.0000 -4.0973 0.0000
# 3 89.4699 47.6934 170.8205 0.0000 -6.0392 0.0000
# 4 0.0000 0.0000 0.0000 37.6489 0.0000 -0.0638
# 5 -12.6444 -4.0973 -6.0392 0.0000 28.6556 0.0000
# 6 0.0000 0.0000 0.0000 -0.0638 0.0000 30.3543
#
#
#
# Elastic Compliance Matrix: (Units=1/GPa)
#
#
# Indices 1 2 3 4 5 6 
#
# 1 0.008575 -0.004360 -0.003186 0.000000 0.002489 0.000000
# 2 -0.004360 0.020502 -0.003431 0.000000 0.000285 0.000000
# 3 -0.003186 -0.003431 0.008477 0.000000 -0.000110 0.000000
# 4 0.000000 0.000000 0.000000 0.026561 0.000000 0.000056
# 5 0.002489 0.000285 -0.000110 0.000000 0.036013 0.000000
# 6 0.000000 0.000000 0.000000 0.000056 0.000000 0.032944
#
#
# Mechanical properties :
#
#
# Convention : Reuss Voigt Hill
#
# Bulk Modulus (GPa) = 64.09902 89.03484 76.56693
# Shear Modulus (GPa) = 31.20616 34.60224 32.90420
#
# Velocity S-wave (km/s) = 4.06364 4.27905 4.17273
# Velocity P-wave (km/s) = 7.47907 8.45740 7.98323
#
# Compressibility (1/GPa) = 0.01560086
#
# Stress axis : x y z
#
# Youngs Moduli (GPa) = 116.62112 48.77622 117.96958
#
# Poissons Ratio (x) = 0.21264 0.37585
# Poissons Ratio (y) = 0.50842 0.40471
# Poissons Ratio (z) = 0.37155 0.16733
#
# Static dielectric constant tensor:
#      x y z
#    x 3.583740 0.000000 -0.014320 
#    y 0.000000 3.313920 0.000000 
#    z -0.014320 0.000000 4.414400 
# 
# 
# High freq. dielectric constant tensor:
#      x y z
#    x 1.746310 0.000000 -0.008430 
#    y 0.000000 1.717830 0.000000 
#    z -0.008430 0.000000 1.748040 
# 
# From -- ./inp_files/20481.got.cif
#   From: 2010.06.25/outbox.cif.g09.slc.cpg/sg11_11_cif.got.tgz:20481.got - 2010.06.27 23:14:04.
