data_PCOD8077560
_publ_section_title
;
Structure prediction by ZEFSAII (Michael W. Deem and Ramdas Pophale) SiO2 
 PCOD8077560
Probable space group: P 21/M
;
_chemical_formula_sum "Si O2"
_cell_formula_units_Z 32
_cell_length_a 12.218308
_cell_length_b 8.682939
_cell_length_c 20.091207
_cell_angle_alpha 90.000000
_cell_angle_beta 54.037439
_cell_angle_gamma 90.000000
_cell_volume 1725.232100
_symmetry_space_group_name_H-M "P 21/M"
_symmetry_group_IT_number 11
_symmetry_cell_setting 'monoclinic'
loop_
_space_group_symop_operation_xyz
x,y,z
-x,1/2+y,-z
-x,-y,-z
x,1/2-y,z
loop_
_atom_site_type_symbol
_atom_site_label
_atom_site_fract_x
_atom_site_fract_y
_atom_site_fract_z
Si Si1 0.359168 0.429425 0.028043
Si Si2 0.376659 0.926751 0.884885
Si Si3 0.315040 0.932556 0.763131
Si Si4 0.354411 0.432427 0.535311
Si Si5 0.866652 0.068071 0.290018
Si Si6 0.312789 0.427172 0.262565
Si Si7 0.605311 0.569319 0.626568
Si Si8 0.843568 0.429043 0.796773
O O1 0.375774 0.250000 0.029191
O O2 0.237308 0.480498 0.118173
O O3 0.500000 0.500000 0.000000
O O4 0.323138 0.472847 0.965243
O O5 0.340638 0.750000 0.912469
O O6 0.300088 0.986206 0.845348
O O7 0.536860 0.947378 0.819712
O O8 0.326373 0.750000 0.757889
O O9 0.189162 0.984508 0.762654
O O10 0.453699 0.002705 0.682567
O O11 0.500000 0.500000 0.500000
O O12 0.350458 0.250000 0.551427
O O13 0.242495 0.523959 0.615685
O O14 0.322899 0.468170 0.468761
O O15 0.894607 0.250000 0.283156
O O16 0.000630 0.973611 0.255653
O O17 0.266250 0.250000 0.273521
O O18 0.307588 0.488862 0.340968
O O19 0.210607 0.530962 0.257144
O O20 0.587390 0.750000 0.643660
O O21 0.825658 0.250000 0.816613
#
# Coordination Sequence:
#
# PCOD8077560 Si02
#       8
#     4   4   4   4   4   4   4   4
#     4  12  23  37  58  86 115 147 188 232 279 331
#     4   9  17  32  58  87 113 142 183 233 281 327
#     4   8  15  31  56  84 112 147 185 227 279 332
#     4  11  20  34  57  87 118 150 191 236 281 331
#     4  11  22  39  60  83 115 154 193 231 282 341
#     4   9  17  33  58  83 110 147 188 229 280 333
#     4   8  15  30  55  85 113 144 184 232 280 329
#     4  12  25  40  57  82 116 151 189 233 283 337
#
# _framework density 18.54823
#
# number of rings (size 3 to 8) (size 9 to 14) (size 15 to 20)
#    0.000    2.000    2.500    4.500    0.000    0.000 
#    0.000    3.750    0.000    0.000    0.000    0.000 
#    0.000    0.000    0.000    0.000    0.000    0.000 
#
# Total GULP energy -396716.962773 kJ/mol
# GULP energy per Si atom -12397.405087 kJ/mol
# Density = 1.850601 g / cm^3
# Si number density = 18.548230 Si / 1000 Ang^3
#
#
#
# Elastic Constant Matrix: (Units=GPa)
#
#
# Indices 1 2 3 4 5 6 
#
# 1 122.6474 30.4448 53.2246 0.0000 19.6917 0.0000
# 2 30.4448 78.6656 21.6571 0.0000 7.2401 0.0000
# 3 53.2246 21.6571 84.1810 0.0000 14.3053 0.0000
# 4 0.0000 0.0000 0.0000 29.1218 0.0000 1.3209
# 5 19.6917 7.2401 14.3053 0.0000 32.4368 0.0000
# 6 0.0000 0.0000 0.0000 1.3209 0.0000 22.1397
#
#
#
# Elastic Compliance Matrix: (Units=1/GPa)
#
#
# Indices 1 2 3 4 5 6 
#
# 1 0.012208 -0.002602 -0.006365 0.000000 -0.004023 0.000000
# 2 -0.002602 0.014315 -0.001906 0.000000 -0.000775 0.000000
# 3 -0.006365 -0.001906 0.016934 0.000000 -0.003179 0.000000
# 4 0.000000 0.000000 0.000000 0.034432 0.000000 -0.002054
# 5 -0.004023 -0.000775 -0.003179 0.000000 0.034846 0.000000
# 6 0.000000 0.000000 0.000000 -0.002054 0.000000 0.045290
#
#
# Mechanical properties :
#
#
# Convention : Reuss Voigt Hill
#
# Bulk Modulus (GPa) = 46.06095 55.12747 50.59421
# Shear Modulus (GPa) = 26.73675 28.75084 27.74379
#
# Velocity S-wave (km/s) = 3.80079 3.94135 3.87171
# Velocity P-wave (km/s) = 6.64442 7.10619 6.87918
#
# Compressibility (1/GPa) = 0.02171036
#
# Stress axis : x y z
#
# Youngs Moduli (GPa) = 81.91638 69.85639 59.05172
#
# Poissons Ratio (x) = 0.18175 0.37589
# Poissons Ratio (y) = 0.21313 0.11256
# Poissons Ratio (z) = 0.52143 0.13315
#
# Static dielectric constant tensor:
#      x y z
#    x 3.204900 0.000000 1.483300 
#    y 0.000000 3.252220 0.000000 
#    z 1.483300 0.000000 0.799180 
# 
# 
# High freq. dielectric constant tensor:
#      x y z
#    x 1.720530 0.000000 0.025720 
#    y 0.000000 1.702200 0.000000 
#    z 0.025720 0.000000 1.711980 
# 
# From -- ./inp_files/49296.got.cif
#   From: 2010.06.25/outbox.cif.g09.slc.cpg/sg11_25_cif.got.tgz:49296.got - 2010.06.27 23:14:04.
