data_PCOD8077556
_publ_section_title
;
Structure prediction by ZEFSAII (Michael W. Deem and Ramdas Pophale) SiO2 
 PCOD8077556
Probable space group: P 21/M
;
_chemical_formula_sum "Si O2"
_cell_formula_units_Z 32
_cell_length_a 23.833970
_cell_length_b 8.644992
_cell_length_c 17.767422
_cell_angle_alpha 90.000000
_cell_angle_beta 149.769656
_cell_angle_gamma 90.000000
_cell_volume 1843.170681
_symmetry_space_group_name_H-M "P 21/M"
_symmetry_group_IT_number 11
_symmetry_cell_setting 'monoclinic'
loop_
_space_group_symop_operation_xyz
x,y,z
-x,1/2+y,-z
-x,-y,-z
x,1/2-y,z
loop_
_atom_site_type_symbol
_atom_site_label
_atom_site_fract_x
_atom_site_fract_y
_atom_site_fract_z
Si Si1 0.223056 0.930016 0.789149
Si Si2 0.093958 0.430917 0.772057
Si Si3 0.829490 0.432096 0.665424
Si Si4 0.314616 0.566200 0.637723
Si Si5 0.137628 0.068296 0.543078
Si Si6 0.476369 0.568099 0.054020
Si Si7 0.117944 0.568878 0.114915
Si Si8 0.924683 0.930883 0.081188
O O1 0.204449 0.750000 0.749832
O O2 0.178056 0.969641 0.819559
O O3 0.152347 0.030283 0.648078
O O4 0.352390 0.974772 0.936065
O O5 0.109456 0.250000 0.773452
O O6 0.124111 0.471415 0.893545
O O7 0.966484 0.475255 0.609882
O O8 0.836147 0.250000 0.662224
O O9 0.734359 0.494750 0.498870
O O10 0.800806 0.473235 0.719903
O O11 0.950085 0.501239 0.781310
O O12 0.307451 0.750000 0.638544
O O13 0.248013 0.487890 0.628689
O O14 0.441774 0.510155 0.790229
O O15 0.118139 0.250000 0.509993
O O16 0.496838 0.750000 0.075638
O O17 0.500000 0.500000 0.000000
O O18 0.107269 0.750000 0.093614
O O19 0.155521 0.500248 0.077597
O O20 0.000000 0.500000 0.000000
O O21 0.929432 0.750000 0.073331
#
# Coordination Sequence:
#
# PCOD8077556 Si02
#       8
#     4   4   4   4   4   4   4   4
#     4  11  24  40  55  73 101 136 175 217 263 306
#     4  11  22  37  55  75 105 139 175 214 258 309
#     4   8  15  29  47  70 102 135 164 201 252 302
#     4  11  20  34  55  77 104 138 174 214 260 305
#     4  12  23  35  53  77 105 136 176 213 256 311
#     4  11  23  38  56  76 101 133 172 219 264 310
#     4   9  16  27  44  69 100 135 170 202 244 301
#     4   9  17  31  48  70 102 137 167 202 252 305
#
# _framework density 17.361387000000001
#
# number of rings (size 3 to 8) (size 9 to 14) (size 15 to 20)
#    0.000    1.750    2.500    4.125    0.000    2.500 
#    0.000    1.875    0.000    0.000    0.000    0.875 
#    0.000    0.000    0.000    0.000    0.000    0.000 
#
# Total GULP energy -396711.476506 kJ/mol
# GULP energy per Si atom -12397.233641 kJ/mol
# Density = 1.732187 g / cm^3
# Si number density = 17.361387 Si / 1000 Ang^3
#
#
#
# Elastic Constant Matrix: (Units=GPa)
#
#
# Indices 1 2 3 4 5 6 
#
# 1 83.9660 28.8016 42.9414 0.0000 -20.9922 0.0000
# 2 28.8016 39.4676 24.9819 0.0000 -10.3557 0.0000
# 3 42.9414 24.9819 75.7989 0.0000 -21.8313 0.0000
# 4 0.0000 0.0000 0.0000 26.1960 0.0000 -2.4724
# 5 -20.9922 -10.3557 -21.8313 0.0000 33.4498 0.0000
# 6 0.0000 0.0000 0.0000 -2.4724 0.0000 26.7058
#
#
#
# Elastic Compliance Matrix: (Units=1/GPa)
#
#
# Indices 1 2 3 4 5 6 
#
# 1 0.019659 -0.008691 -0.006766 0.000000 0.005231 0.000000
# 2 -0.008691 0.036240 -0.006601 0.000000 0.001457 0.000000
# 3 -0.006766 -0.006601 0.021415 0.000000 0.007687 0.000000
# 4 0.000000 0.000000 0.000000 0.038510 0.000000 0.003565
# 5 0.005231 0.001457 0.007687 0.000000 0.038647 0.000000
# 6 0.000000 0.000000 0.000000 0.003565 0.000000 0.037775
#
#
# Mechanical properties :
#
#
# Convention : Reuss Voigt Hill
#
# Bulk Modulus (GPa) = 30.12169 43.63137 36.87653
# Shear Modulus (GPa) = 20.20796 24.10416 22.15606
#
# Velocity S-wave (km/s) = 3.41539 3.73014 3.57623
# Velocity P-wave (km/s) = 5.73939 6.61345 6.19186
#
# Compressibility (1/GPa) = 0.03319867
#
# Stress axis : x y z
#
# Youngs Moduli (GPa) = 50.86820 27.59398 46.69525
#
# Poissons Ratio (x) = 0.23981 0.31595
# Poissons Ratio (y) = 0.44208 0.30822
# Poissons Ratio (z) = 0.34418 0.18214
#
# Static dielectric constant tensor:
#      x y z
#    x 3.343080 0.000000 -0.362860 
#    y 0.000000 3.247770 0.000000 
#    z -0.362860 0.000000 3.432270 
# 
# 
# High freq. dielectric constant tensor:
#      x y z
#    x 1.655440 0.000000 -0.029590 
#    y 0.000000 1.673820 0.000000 
#    z -0.029590 0.000000 1.655010 
# 
# From -- ./inp_files/42450.got.cif
#   From: 2010.06.25/outbox.cif.g09.slc.cpg/sg11_22_cif.got.tgz:42450.got - 2010.06.27 23:14:04.
