data_PCOD8077969
_publ_section_title
;
Structure prediction by ZEFSAII (Michael W. Deem and Ramdas Pophale) SiO2 
 PCOD8077969
Probable space group: P 21/M
;
_chemical_formula_sum "Si O2"
_cell_formula_units_Z 32
_cell_length_a 13.673037
_cell_length_b 9.306393
_cell_length_c 18.327945
_cell_angle_alpha 90.000000
_cell_angle_beta 68.098587
_cell_angle_gamma 90.000000
_cell_volume 2163.850154
_symmetry_space_group_name_H-M "P 21/M"
_symmetry_group_IT_number 11
_symmetry_cell_setting 'monoclinic'
loop_
_space_group_symop_operation_xyz
x,y,z
-x,1/2+y,-z
-x,-y,-z
x,1/2-y,z
loop_
_atom_site_type_symbol
_atom_site_label
_atom_site_fract_x
_atom_site_fract_y
_atom_site_fract_z
Si Si1 0.030806 0.582215 0.883905
Si Si2 0.618509 0.918338 0.040563
Si Si3 0.585290 0.582215 0.883905
Si Si4 0.226743 0.083131 0.273364
Si Si5 0.079182 0.087429 0.574518
Si Si6 0.840928 0.581662 0.040563
Si Si7 0.999893 0.083131 0.273364
Si Si8 0.846300 0.087429 0.574518
O O1 0.053752 0.750000 0.884503
O O2 0.127750 0.498818 0.893860
O O3 0.022685 0.533997 0.802549
O O4 0.921509 0.540690 0.953557
O O5 0.601572 0.750000 0.055895
O O6 0.725761 0.971156 0.048477
O O7 0.521610 0.998818 0.106140
O O8 0.624934 0.959310 0.953557
O O9 0.561746 0.750000 0.884503
O O10 0.674767 0.533997 0.802549
O O11 0.233019 0.250000 0.293440
O O12 0.122025 0.052208 0.255951
O O13 0.229578 0.990238 0.346328
O O14 0.120869 0.250000 0.572400
O O15 0.964230 0.087257 0.571540
O O16 0.158538 0.000000 0.500000
O O17 0.075906 0.009762 0.653672
O O18 0.842534 0.750000 0.055894
O O19 0.973541 0.250000 0.293440
O O20 0.806731 0.250000 0.572400
#
# Coordination Sequence:
#
# PCOD8077969 Si02
#       8
#     4   4   4   4   4   4   4   4
#     4   9  17  28  42  60  80 104 136 170 202 238
#     4   9  17  29  43  58  79 107 136 167 204 242
#     4   9  17  28  42  60  80 104 136 170 202 238
#     4   9  16  26  40  57  79 107 136 166 200 237
#     4   9  16  25  37  54  77 105 135 164 195 233
#     4   9  17  29  43  58  79 107 136 167 204 242
#     4   9  16  26  40  57  79 107 136 166 200 237
#     4   9  16  25  37  54  77 105 135 164 195 233
#
# _framework density 14.788454
#
# number of rings (size 3 to 8) (size 9 to 14) (size 15 to 20)
#    0.000    3.000    0.000    1.500    0.000    7.500 
#    0.000    0.000    0.000    4.500    0.000    0.000 
#    0.000    1.000    0.000    3.250    0.000    4.750 
#
# Total GULP energy -396797.492012 kJ/mol
# GULP energy per Si atom -12399.921625 kJ/mol
# Density = 1.475480 g / cm^3
# Si number density = 14.788454 Si / 1000 Ang^3
#
#
#
# Elastic Constant Matrix: (Units=GPa)
#
#
# Indices 1 2 3 4 5 6 
#
# 1 82.3861 38.5041 50.3488 0.0000 -0.2046 0.0000
# 2 38.5041 70.9035 62.2122 0.0000 -0.8968 0.0000
# 3 50.3488 62.2122 129.6735 0.0000 -1.5842 0.0000
# 4 0.0000 0.0000 0.0000 28.5886 0.0000 -0.2887
# 5 -0.2046 -0.8968 -1.5842 0.0000 18.7759 0.0000
# 6 0.0000 0.0000 0.0000 -0.2887 0.0000 20.9563
#
#
#
# Elastic Compliance Matrix: (Units=1/GPa)
#
#
# Indices 1 2 3 4 5 6 
#
# 1 0.017298 -0.006047 -0.003820 0.000000 -0.000423 0.000000
# 2 -0.006047 0.026471 -0.010348 0.000000 0.000325 0.000000
# 3 -0.003820 -0.010348 0.014168 0.000000 0.000659 0.000000
# 4 0.000000 0.000000 0.000000 0.034984 0.000000 0.000482
# 5 -0.000423 0.000325 0.000659 0.000000 0.053326 0.000000
# 6 0.000000 0.000000 0.000000 0.000482 0.000000 0.047725
#
#
# Mechanical properties :
#
#
# Convention : Reuss Voigt Hill
#
# Bulk Modulus (GPa) = 57.12298 65.01038 61.06668
# Shear Modulus (GPa) = 20.81278 22.45737 21.63508
#
# Velocity S-wave (km/s) = 3.75556 3.90112 3.82903
# Velocity P-wave (km/s) = 7.58395 8.02168 7.80588
#
# Compressibility (1/GPa) = 0.01750609
#
# Stress axis : x y z
#
# Youngs Moduli (GPa) = 57.81113 37.77726 70.58341
#
# Poissons Ratio (x) = 0.22843 0.26966
# Poissons Ratio (y) = 0.34957 0.73039
# Poissons Ratio (z) = 0.22086 0.39092
#
# Static dielectric constant tensor:
#      x y z
#    x 2.607930 0.000000 -0.011690 
#    y 0.000000 2.912990 0.000000 
#    z -0.011690 0.000000 2.916900 
# 
# 
# High freq. dielectric constant tensor:
#      x y z
#    x 1.520970 0.000000 -0.001660 
#    y 0.000000 1.570780 0.000000 
#    z -0.001660 0.000000 1.564900 
# 
# From -- ./inp_files/52914.got.cif
#   From: 2010.06.25/outbox.cif.g09.slc.cpg/sg11_27_cif.got.tgz:52914.got - 2010.06.27 23:14:04.
