data_PCOD8077784
_publ_section_title
;
Structure prediction by ZEFSAII (Michael W. Deem and Ramdas Pophale) SiO2 
 PCOD8077784
Probable space group: P 21/M
;
_chemical_formula_sum "Si O2"
_cell_formula_units_Z 32
_cell_length_a 20.487001
_cell_length_b 9.461656
_cell_length_c 26.063504
_cell_angle_alpha 90.000000
_cell_angle_beta 20.382697
_cell_angle_gamma 90.000000
_cell_volume 1759.616702
_symmetry_space_group_name_H-M "P 21/M"
_symmetry_group_IT_number 11
_symmetry_cell_setting 'monoclinic'
loop_
_space_group_symop_operation_xyz
x,y,z
-x,1/2+y,-z
-x,-y,-z
x,1/2-y,z
loop_
_atom_site_type_symbol
_atom_site_label
_atom_site_fract_x
_atom_site_fract_y
_atom_site_fract_z
Si Si1 0.181595 0.917278 0.515558
Si Si2 0.157286 0.591999 0.910215
Si Si3 0.245981 0.586223 0.644692
Si Si4 0.595491 0.095383 0.368057
Si Si5 0.150106 0.919288 0.422913
Si Si6 0.436881 0.090785 0.893376
Si Si7 0.053059 0.080701 0.214992
Si Si8 0.600587 0.589731 0.198723
O O1 0.183342 0.750000 0.516511
O O2 0.114443 0.964294 0.508398
O O3 0.395673 0.967760 0.367087
O O4 0.042356 0.977803 0.662174
O O5 0.085701 0.750000 0.977757
O O6 0.323477 0.603845 0.747683
O O7 0.236748 0.512535 0.901199
O O8 0.000000 0.500000 0.000000
O O9 0.259215 0.750000 0.621829
O O10 0.243293 0.555230 0.708146
O O11 0.433949 0.518688 0.484134
O O12 0.065892 0.526026 0.746841
O O13 0.514395 0.250000 0.443506
O O14 0.133810 0.750000 0.428653
O O15 0.355671 0.976365 0.252965
O O16 0.000000 0.000000 0.500000
O O17 0.455608 0.250000 0.899020
O O18 0.378805 0.087255 0.877178
O O19 0.266415 0.019443 0.051823
O O20 0.060883 0.250000 0.209630
O O21 0.633002 0.750000 0.195032
#
# Coordination Sequence:
#
# PCOD8077784 Si02
#       8
#     4   4   4   4   4   4   4   4
#     4   8  15  28  48  75  99 123 159 197 236 286
#     4  11  23  34  46  66  94 128 166 209 252 294
#     4   9  17  29  50  71  88 117 157 198 243 295
#     4   9  19  33  45  64  93 122 157 199 247 295
#     4   9  17  32  52  75 101 130 162 192 230 282
#     4   8  16  29  49  74  99 127 160 198 241 290
#     4   9  15  25  47  74  95 119 158 203 240 279
#     4   9  17  32  52  70  92 124 162 205 247 293
#
# _framework density 18.185777000000002
#
# number of rings (size 3 to 8) (size 9 to 14) (size 15 to 20)
#    0.000    3.000    0.000    2.625    1.750    2.000 
#    0.000    3.125    0.000    1.500    0.000    0.000 
#    0.000    0.000    0.000    0.000    0.000    0.000 
#
# Total GULP energy -396427.081940 kJ/mol
# GULP energy per Si atom -12388.346311 kJ/mol
# Density = 1.814439 g / cm^3
# Si number density = 18.185777 Si / 1000 Ang^3
#
#
#
# Elastic Constant Matrix: (Units=GPa)
#
#
# Indices 1 2 3 4 5 6 
#
# 1 77.9165 25.1334 43.8049 0.0000 -23.5292 0.0000
# 2 25.1334 46.8035 18.2869 0.0000 -14.6218 0.0000
# 3 43.8049 18.2869 110.0150 0.0000 -8.6576 0.0000
# 4 0.0000 0.0000 0.0000 17.6920 0.0000 -7.6487
# 5 -23.5292 -14.6218 -8.6576 0.0000 30.6221 0.0000
# 6 0.0000 0.0000 0.0000 -7.6487 0.0000 25.1016
#
#
#
# Elastic Compliance Matrix: (Units=1/GPa)
#
#
# Indices 1 2 3 4 5 6 
#
# 1 0.022288 -0.005290 -0.007002 0.000000 0.012620 0.000000
# 2 -0.005290 0.027600 -0.001804 0.000000 0.008603 0.000000
# 3 -0.007002 -0.001804 0.011952 0.000000 -0.002862 0.000000
# 4 0.000000 0.000000 0.000000 0.065098 0.000000 0.019836
# 5 0.012620 0.008603 -0.002862 0.000000 0.045652 0.000000
# 6 0.000000 0.000000 0.000000 0.019836 0.000000 0.045882
#
#
# Mechanical properties :
#
#
# Convention : Reuss Voigt Hill
#
# Bulk Modulus (GPa) = 29.72029 45.46504 37.59267
# Shear Modulus (GPa) = 19.38873 24.51712 21.95293
#
# Velocity S-wave (km/s) = 3.26873 3.67570 3.47817
# Velocity P-wave (km/s) = 5.53392 6.56269 6.07014
#
# Compressibility (1/GPa) = 0.03364704
#
# Stress axis : x y z
#
# Youngs Moduli (GPa) = 44.86650 36.23243 83.66571
#
# Poissons Ratio (x) = 0.19168 0.58583
# Poissons Ratio (y) = 0.23736 0.15094
# Poissons Ratio (z) = 0.31416 0.06537
#
# Static dielectric constant tensor:
#      x y z
#    x 3.388940 0.000000 0.113350 
#    y 0.000000 3.144010 0.000000 
#    z 0.113350 0.000000 3.624340 
# 
# 
# High freq. dielectric constant tensor:
#      x y z
#    x 1.696430 0.000000 0.001940 
#    y 0.000000 1.659340 0.000000 
#    z 0.001940 0.000000 1.705290 
# 
# From -- ./inp_files/26389.got.cif
#   From: 2010.06.25/outbox.cif.g09.slc.cpg/sg11_14_cif.got.tgz:26389.got - 2010.06.27 23:14:04.
