data_PCOD8077730
_publ_section_title
;
Structure prediction by ZEFSAII (Michael W. Deem and Ramdas Pophale) SiO2 
 PCOD8077730
Probable space group: P 21/M
;
_chemical_formula_sum "Si O2"
_cell_formula_units_Z 32
_cell_length_a 14.780286
_cell_length_b 15.388282
_cell_length_c 19.508563
_cell_angle_alpha 90.000000
_cell_angle_beta 159.893952
_cell_angle_gamma 90.000000
_cell_volume 1525.288887
_symmetry_space_group_name_H-M "P 21/M"
_symmetry_group_IT_number 11
_symmetry_cell_setting 'monoclinic'
loop_
_space_group_symop_operation_xyz
x,y,z
-x,1/2+y,-z
-x,-y,-z
x,1/2-y,z
loop_
_atom_site_type_symbol
_atom_site_label
_atom_site_fract_x
_atom_site_fract_y
_atom_site_fract_z
Si Si1 0.996156 0.156402 0.757483
Si Si2 0.536564 0.344718 0.940588
Si Si3 0.003630 0.615004 0.393808
Si Si4 0.251004 0.481938 0.369130
Si Si5 0.874278 0.080313 0.291917
Si Si6 0.364324 0.350746 0.574152
Si Si7 0.456298 0.597913 0.806332
Si Si8 0.704431 0.075438 0.930503
O O1 0.872382 0.250000 0.692548
O O2 0.048638 0.163264 0.714104
O O3 0.809574 0.074972 0.639332
O O4 0.276265 0.150271 0.994277
O O5 0.602063 0.250000 0.017937
O O6 0.660042 0.346761 0.952658
O O7 0.224112 0.359546 0.714718
O O8 0.664302 0.417808 0.080243
O O9 0.284622 0.643788 0.624801
O O10 0.010466 0.512360 0.387886
O O11 0.500000 0.500000 0.500000
O O12 0.309480 0.407947 0.467108
O O13 0.010719 0.452721 0.148846
O O14 0.723969 0.100121 0.254593
O O15 0.111061 0.147602 0.444335
O O16 0.421056 0.250000 0.594434
O O17 0.618310 0.392215 0.793754
O O18 0.518451 0.500192 0.827723
#
# Coordination Sequence:
#
# PCOD8077730 Si02
#       8
#     4   4   4   4   4   4   4   4
#     4  11  24  42  64  94 128 167 217 269 323 390
#     4  12  23  34  56  94 134 175 218 258 307 374
#     4  12  21  38  61  88 130 177 218 256 306 374
#     4  11  26  48  74  96 124 165 213 279 344 401
#     4  12  20  37  60  91 135 180 220 258 305 371
#     4  12  25  42  68 101 135 173 220 269 323 389
#     4  11  22  37  61  89 129 179 218 256 311 375
#     4  11  22  42  65  93 129 168 214 268 326 385
#
# _framework density 20.979631999999999
#
# number of rings (size 3 to 8) (size 9 to 14) (size 15 to 20)
#    0.000    0.500    6.250    3.375    0.000    3.000 
#    0.000    0.000    0.000    0.000    0.000    0.000 
#    0.000    0.000    0.000    0.000    0.000    0.000 
#
# Total GULP energy -396753.255601 kJ/mol
# GULP energy per Si atom -12398.539238 kJ/mol
# Density = 2.093188 g / cm^3
# Si number density = 20.979632 Si / 1000 Ang^3
#
#
#
# Elastic Constant Matrix: (Units=GPa)
#
#
# Indices 1 2 3 4 5 6 
#
# 1 62.0250 33.7773 48.4443 0.0000 7.9384 0.0000
# 2 33.7773 122.1423 30.8770 0.0000 1.7544 0.0000
# 3 48.4443 30.8770 127.3808 0.0000 -3.8534 0.0000
# 4 0.0000 0.0000 0.0000 13.1810 0.0000 6.6517
# 5 7.9384 1.7544 -3.8534 0.0000 38.0706 0.0000
# 6 0.0000 0.0000 0.0000 6.6517 0.0000 -9.7260
#
#
#
# Elastic Compliance Matrix: (Units=1/GPa)
#
#
# Indices 1 2 3 4 5 6 
#
# 1 0.026823 -0.005007 -0.009177 0.000000 -0.006291 0.000000
# 2 -0.005007 0.009671 -0.000423 0.000000 0.000556 0.000000
# 3 -0.009177 -0.000423 0.011537 0.000000 0.003101 0.000000
# 4 0.000000 0.000000 0.000000 0.056401 0.000000 0.038573
# 5 -0.006291 0.000556 0.003101 0.000000 0.027867 0.000000
# 6 0.000000 0.000000 0.000000 0.038573 0.000000 -0.076436
#
#
# Mechanical properties :
#
#
# Convention : Reuss Voigt Hill
#
# Bulk Modulus (GPa) = 53.14905 59.74948 56.44926
# Shear Modulus (GPa) = 54.73501 21.53508 38.13505
#
# Velocity S-wave (km/s) = 5.11334 3.20734 4.26810
# Velocity P-wave (km/s) = 7.76211 6.50059 7.15919
#
# Compressibility (1/GPa) = 0.01881501
#
# Stress axis : x y z
#
# Youngs Moduli (GPa) = 37.28213 103.40370 86.67663
#
# Poissons Ratio (x) = 0.51776 0.79547
# Poissons Ratio (y) = 0.18668 0.03668
# Poissons Ratio (z) = 0.34216 0.04375
#
# Static dielectric constant tensor:
#      x y z
#    x 3.542780 0.000000 -0.249750 
#    y 0.000000 3.840800 0.000000 
#    z -0.249750 0.000000 3.946220 
# 
# 
# High freq. dielectric constant tensor:
#      x y z
#    x 1.787310 0.000000 -0.022550 
#    y 0.000000 1.828820 0.000000 
#    z -0.022550 0.000000 1.827550 
# 
# From -- ./inp_files/65775.got.cif
#   From: 2010.06.25/outbox.cif.g09.slc.cpg/sg11_33_cif.got.tgz:65775.got - 2010.06.27 23:14:04.
