data_PCOD8077068
_publ_section_title
;
Structure prediction by ZEFSAII (Michael W. Deem and Ramdas Pophale) SiO2 
 PCOD8077068
Probable space group: P 21/M
;
_chemical_formula_sum "Si O2"
_cell_formula_units_Z 28
_cell_length_a 21.172525
_cell_length_b 8.705315
_cell_length_c 14.226055
_cell_angle_alpha 90.000000
_cell_angle_beta 32.326657
_cell_angle_gamma 90.000000
_cell_volume 1402.131702
_symmetry_space_group_name_H-M "P 21/M"
_symmetry_group_IT_number 11
_symmetry_cell_setting 'monoclinic'
loop_
_space_group_symop_operation_xyz
x,y,z
-x,1/2+y,-z
-x,-y,-z
x,1/2-y,z
loop_
_atom_site_type_symbol
_atom_site_label
_atom_site_fract_x
_atom_site_fract_y
_atom_site_fract_z
Si Si1 0.029036 0.069269 0.863354
Si Si2 0.161081 0.067806 0.036797
Si Si3 0.269888 0.572629 0.584588
Si Si4 0.369037 0.932099 0.660982
Si Si5 0.668122 0.568739 0.846395
Si Si6 0.415953 0.927214 0.224902
Si Si7 0.885236 0.567979 0.691981
O O1 0.006034 0.250000 0.891197
O O2 0.165496 0.030516 0.672662
O O3 0.946224 0.992392 0.890575
O O4 0.000000 0.000000 0.000000
O O5 0.170690 0.250000 0.015995
O O6 0.132103 0.014086 0.178943
O O7 0.287205 0.997438 0.847207
O O8 0.229045 0.750000 0.637299
O O9 0.307377 0.517952 0.640858
O O10 0.381439 0.547058 0.376383
O O11 0.378145 0.750000 0.657813
O O12 0.500000 0.000000 0.500000
O O13 0.673695 0.750000 0.843097
O O14 0.675189 0.513618 0.729624
O O15 0.776107 0.500407 0.769675
O O16 0.547514 0.506402 0.045567
O O17 0.411057 0.750000 0.202708
O O18 0.892540 0.750000 0.677692
O O19 0.000000 0.500000 0.500000
#
# Coordination Sequence:
#
# PCOD8077068 Si02
#       7
#     4   4   4   4   4   4   4
#     4  12  24  40  63  89 122 159 200 251 305 363
#     4  11  24  43  66  91 123 165 210 258 315 374
#     4  10  22  39  62  90 121 159 203 248 305 367
#     4  11  24  41  64  93 128 168 209 256 308 371
#     4   9  19  38  60  85 116 153 198 248 302 357
#     4   9  19  36  61  87 116 153 195 246 301 360
#     4  10  24  42  63  88 121 163 207 255 309 369
#
# _framework density 19.969593
#
# number of rings (size 3 to 8) (size 9 to 14) (size 15 to 20)
#    0.000    1.714    1.429    2.143    4.000    2.857 
#    0.000    0.000    0.000    0.000    0.000    0.000 
#    0.000    0.000    0.000    0.000    0.000    0.000 
#
# Total GULP energy -347248.752938 kJ/mol
# GULP energy per Si atom -12401.741176 kJ/mol
# Density = 1.992414 g / cm^3
# Si number density = 19.969593 Si / 1000 Ang^3
#
#
#
# Elastic Constant Matrix: (Units=GPa)
#
#
# Indices 1 2 3 4 5 6 
#
# 1 147.8161 39.8230 81.7678 0.0000 -5.0555 0.0000
# 2 39.8230 58.6491 40.1994 0.0000 -1.4747 0.0000
# 3 81.7678 40.1994 145.9662 0.0000 1.1383 0.0000
# 4 0.0000 0.0000 0.0000 35.3538 0.0000 -1.4977
# 5 -5.0555 -1.4747 1.1383 0.0000 40.5096 0.0000
# 6 0.0000 0.0000 0.0000 -1.4977 0.0000 31.8423
#
#
#
# Elastic Compliance Matrix: (Units=1/GPa)
#
#
# Indices 1 2 3 4 5 6 
#
# 1 0.010516 -0.003776 -0.004862 0.000000 0.001312 0.000000
# 2 -0.003776 0.022408 -0.004060 0.000000 0.000459 0.000000
# 3 -0.004862 -0.004060 0.010701 0.000000 -0.001055 0.000000
# 4 0.000000 0.000000 0.000000 0.028342 0.000000 0.001333
# 5 0.001312 0.000459 -0.001055 0.000000 0.024896 0.000000
# 6 0.000000 0.000000 0.000000 0.001333 0.000000 0.031468
#
#
# Mechanical properties :
#
#
# Convention : Reuss Voigt Hill
#
# Bulk Modulus (GPa) = 54.85024 75.11244 64.98134
# Shear Modulus (GPa) = 31.28876 34.25054 32.76965
#
# Velocity S-wave (km/s) = 3.96260 4.14591 4.05529
# Velocity P-wave (km/s) = 6.96152 7.78545 7.38498
#
# Compressibility (1/GPa) = 0.01823146
#
# Stress axis : x y z
#
# Youngs Moduli (GPa) = 95.08881 44.62607 93.45241
#
# Poissons Ratio (x) = 0.16849 0.45433
# Poissons Ratio (y) = 0.35901 0.37941
# Poissons Ratio (z) = 0.46228 0.18118
#
# Static dielectric constant tensor:
#      x y z
#    x 4.940080 0.000000 -0.557110 
#    y 0.000000 3.622360 0.000000 
#    z -0.557110 0.000000 4.047230 
# 
# 
# High freq. dielectric constant tensor:
#      x y z
#    x 1.785650 0.000000 -0.000740 
#    y 0.000000 1.773270 0.000000 
#    z -0.000740 0.000000 1.791270 
# 
# From -- ./inp_files/54508.got.cif
#   From: 2010.06.25/outbox.cif.g09.slc.cpg/sg11_28_cif.got.tgz:54508.got - 2010.06.27 23:14:04.
