data_PCOD8077433
_publ_section_title
;
Structure prediction by ZEFSAII (Michael W. Deem and Ramdas Pophale) SiO2 
 PCOD8077433
Probable space group: P 21/M
;
_chemical_formula_sum "Si O2"
_cell_formula_units_Z 28
_cell_length_a 12.479082
_cell_length_b 8.835289
_cell_length_c 14.473211
_cell_angle_alpha 90.000000
_cell_angle_beta 60.394773
_cell_angle_gamma 90.000000
_cell_volume 1387.435607
_symmetry_space_group_name_H-M "P 21/M"
_symmetry_group_IT_number 11
_symmetry_cell_setting 'monoclinic'
loop_
_space_group_symop_operation_xyz
x,y,z
-x,1/2+y,-z
-x,-y,-z
x,1/2-y,z
loop_
_atom_site_type_symbol
_atom_site_label
_atom_site_fract_x
_atom_site_fract_y
_atom_site_fract_z
Si Si1 0.467463 0.574827 0.281979
Si Si2 0.957831 0.424259 0.111528
Si Si3 0.036915 0.427710 0.579904
Si Si4 0.708802 0.573806 0.287410
Si Si5 0.868931 0.922222 0.792746
Si Si6 0.293466 0.570393 0.522717
Si Si7 0.412500 0.425519 0.111522
O O1 0.441394 0.750000 0.273180
O O2 0.609467 0.547582 0.248884
O O3 0.380196 0.516722 0.402066
O O4 0.436718 0.483522 0.203872
O O5 0.925593 0.250000 0.107504
O O6 0.837739 0.503708 0.202972
O O7 0.071433 0.443296 0.132609
O O8 0.000000 0.500000 0.000000
O O9 0.059218 0.250000 0.559241
O O10 0.157357 0.507968 0.566846
O O11 0.000000 0.500000 0.500000
O O12 0.926597 0.458468 0.697555
O O13 0.728467 0.750000 0.299290
O O14 0.656068 0.496873 0.402761
O O15 0.888950 0.750000 0.748272
O O16 0.725685 0.961621 0.861544
O O17 0.289602 0.750000 0.532312
O O18 0.441234 0.250000 0.099201
O O19 0.500000 0.500000 0.000000
#
# Coordination Sequence:
#
# PCOD8077433 Si02
#       7
#     4   4   4   4   4   4   4
#     4  10  24  43  64  92 130 171 212 261 313 373
#     4  11  24  42  66  95 129 167 212 262 318 378
#     4  12  24  38  62  93 128 168 210 260 313 373
#     4  11  23  41  65  96 131 168 212 261 317 375
#     4  10  23  44  66  91 127 166 208 263 316 371
#     4  11  22  40  64  94 130 168 210 258 315 377
#     4  11  25  44  67  94 125 165 212 262 317 376
#
# _framework density 20.181115999999999
#
# number of rings (size 3 to 8) (size 9 to 14) (size 15 to 20)
#    0.000    1.143    1.429    4.286    2.000    6.286 
#    0.000    0.000    0.000    0.000    0.000    0.000 
#    0.000    0.000    0.000    0.000    0.000    0.000 
#
# Total GULP energy -347358.335936 kJ/mol
# GULP energy per Si atom -12405.654855 kJ/mol
# Density = 2.013518 g / cm^3
# Si number density = 20.181116 Si / 1000 Ang^3
#
#
#
# Elastic Constant Matrix: (Units=GPa)
#
#
# Indices 1 2 3 4 5 6 
#
# 1 123.2500 60.6458 67.2178 0.0000 -3.6753 0.0000
# 2 60.6458 119.4060 71.1701 0.0000 4.2527 0.0000
# 3 67.2178 71.1701 149.1864 0.0000 3.8305 0.0000
# 4 0.0000 0.0000 0.0000 40.4522 0.0000 7.9408
# 5 -3.6753 4.2527 3.8305 0.0000 32.5991 0.0000
# 6 0.0000 0.0000 0.0000 7.9408 0.0000 23.7071
#
#
#
# Elastic Compliance Matrix: (Units=1/GPa)
#
#
# Indices 1 2 3 4 5 6 
#
# 1 0.012163 -0.004134 -0.003568 0.000000 0.002330 0.000000
# 2 -0.004134 0.013132 -0.004359 0.000000 -0.001667 0.000000
# 3 -0.003568 -0.004359 0.010417 0.000000 -0.001058 0.000000
# 4 0.000000 0.000000 0.000000 0.026460 0.000000 -0.008863
# 5 0.002330 -0.001667 -0.001058 0.000000 0.031280 0.000000
# 6 0.000000 0.000000 0.000000 -0.008863 0.000000 0.045150
#
#
# Mechanical properties :
#
#
# Convention : Reuss Voigt Hill
#
# Bulk Modulus (GPa) = 86.28015 87.76777 87.02396
# Shear Modulus (GPa) = 30.01398 32.20557 31.10978
#
# Velocity S-wave (km/s) = 3.86065 3.99911 3.93049
# Velocity P-wave (km/s) = 7.91950 8.05657 7.98833
#
# Compressibility (1/GPa) = 0.01159015
#
# Stress axis : x y z
#
# Youngs Moduli (GPa) = 82.21617 76.14940 95.99337
#
# Poissons Ratio (x) = 0.31480 0.34250
# Poissons Ratio (y) = 0.33988 0.41847
# Poissons Ratio (z) = 0.29334 0.33196
#
# Static dielectric constant tensor:
#      x y z
#    x 3.847710 0.000000 -0.019770 
#    y 0.000000 3.789710 0.000000 
#    z -0.019770 0.000000 3.786480 
# 
# 
# High freq. dielectric constant tensor:
#      x y z
#    x 1.804260 0.000000 0.001460 
#    y 0.000000 1.797600 0.000000 
#    z 0.001460 0.000000 1.797440 
# 
# From -- ./inp_files/49143.got.cif
#   From: 2010.06.25/outbox.cif.g09.slc.cpg/sg11_25_cif.got.tgz:49143.got - 2010.06.27 23:14:04.
