data_PCOD8077908
_publ_section_title
;
Structure prediction by ZEFSAII (Michael W. Deem and Ramdas Pophale) SiO2 
 PCOD8077908
Probable space group: P 21/M
;
_chemical_formula_sum "Si O2"
_cell_formula_units_Z 20
_cell_length_a 7.591946
_cell_length_b 10.055441
_cell_length_c 12.124006
_cell_angle_alpha 90.000000
_cell_angle_beta 80.831884
_cell_angle_gamma 90.000000
_cell_volume 913.727207
_symmetry_space_group_name_H-M "P 21/M"
_symmetry_group_IT_number 11
_symmetry_cell_setting 'monoclinic'
loop_
_space_group_symop_operation_xyz
x,y,z
-x,1/2+y,-z
-x,-y,-z
x,1/2-y,z
loop_
_atom_site_type_symbol
_atom_site_label
_atom_site_fract_x
_atom_site_fract_y
_atom_site_fract_z
Si Si1 0.023296 0.400725 0.897537
Si Si2 0.364741 0.469163 0.726013
Si Si3 0.677626 0.750000 0.448136
Si Si4 0.177353 0.750000 0.451300
Si Si5 0.879358 0.750000 0.625184
Si Si6 0.771027 0.029194 0.725228
Si Si7 0.614848 0.250000 0.372625
O O1 0.009188 0.250000 0.942757
O O2 0.218222 0.419830 0.826221
O O3 0.865082 0.424846 0.827214
O O4 0.000000 0.500000 0.000000
O O5 0.351205 0.384371 0.615897
O O6 0.558855 0.450304 0.761298
O O7 0.323356 0.621108 0.699981
O O8 0.873932 0.750000 0.485749
O O9 0.600935 0.750000 0.586928
O O10 0.154088 0.617124 0.382565
O O11 0.373058 0.750000 0.490499
O O12 0.094921 0.750000 0.588456
O O13 0.816431 0.622613 0.698336
#
# Coordination Sequence:
#
# PCOD8077908 Si02
#       7
#     4   4   2   2   2   4   2
#     4  12  30  52  75  99 130 177 238 305 359 399
#     4  12  24  45  72 104 146 184 230 285 334 416
#     4  12  20  40  64 104 149 184 220 263 331 404
#     4  12  22  38  64 100 149 192 226 270 330 409
#     4  12  24  38  64 106 149 186 226 270 324 419
#     4  12  24  45  69 102 139 183 232 281 343 412
#     4  12  22  38  68 110 145 188 222 261 335 420
#
# _framework density 21.888370999999999
#
# number of rings (size 3 to 8) (size 9 to 14) (size 15 to 20)
#    0.000    0.000    6.000    4.800    2.800    0.800 
#    0.000    0.000    0.000    0.000    0.000    0.000 
#    0.000    0.000    0.000    0.000    0.000    0.000 
#
# Total GULP energy -247906.418807 kJ/mol
# GULP energy per Si atom -12395.320940 kJ/mol
# Density = 2.183855 g / cm^3
# Si number density = 21.888371 Si / 1000 Ang^3
#
#
#
# Elastic Constant Matrix: (Units=GPa)
#
#
# Indices 1 2 3 4 5 6 
#
# 1 74.2032 38.0139 48.0648 0.0000 3.1505 0.0000
# 2 38.0139 189.6561 47.8761 0.0000 -2.9872 0.0000
# 3 48.0648 47.8761 92.2498 0.0000 3.8568 0.0000
# 4 0.0000 0.0000 0.0000 44.6458 0.0000 0.9167
# 5 3.1505 -2.9872 3.8568 0.0000 21.3241 0.0000
# 6 0.0000 0.0000 0.0000 0.9167 0.0000 30.7366
#
#
#
# Elastic Compliance Matrix: (Units=1/GPa)
#
#
# Indices 1 2 3 4 5 6 
#
# 1 0.020828 -0.001698 -0.009907 0.000000 -0.001523 0.000000
# 2 -0.001698 0.006250 -0.002424 0.000000 0.001565 0.000000
# 3 -0.009907 -0.002424 0.017345 0.000000 -0.002013 0.000000
# 4 0.000000 0.000000 0.000000 0.022412 0.000000 -0.000668
# 5 -0.001523 0.001565 -0.002013 0.000000 0.047704 0.000000
# 6 0.000000 0.000000 0.000000 -0.000668 0.000000 0.032554
#
#
# Mechanical properties :
#
#
# Convention : Reuss Voigt Hill
#
# Bulk Modulus (GPa) = 61.11119 69.33540 65.22329
# Shear Modulus (GPa) = 27.68453 34.15159 30.91806
#
# Velocity S-wave (km/s) = 3.56027 3.95430 3.76245
# Velocity P-wave (km/s) = 6.69931 7.25219 6.98123
#
# Compressibility (1/GPa) = 0.01636362
#
# Stress axis : x y z
#
# Youngs Moduli (GPa) = 48.01133 160.00970 57.65516
#
# Poissons Ratio (x) = 0.27166 0.57121
# Poissons Ratio (y) = 0.08151 0.13977
# Poissons Ratio (z) = 0.47567 0.38791
#
# Static dielectric constant tensor:
#      x y z
#    x 4.793820 0.000000 0.040650 
#    y 0.000000 4.132240 0.000000 
#    z 0.040650 0.000000 3.597670 
# 
# 
# High freq. dielectric constant tensor:
#      x y z
#    x 1.917290 0.000000 0.002800 
#    y 0.000000 1.878020 0.000000 
#    z 0.002800 0.000000 1.827390 
# 
# From -- ./inp_files/16100.got.cif
#   From: 2010.06.25/outbox.cif.g09.slc.cpg/sg11_9_cif.got.tgz:16100.got - 2010.06.27 23:14:04.
