data_PCOD8077702
_publ_section_title
;
Structure prediction by ZEFSAII (Michael W. Deem and Ramdas Pophale) SiO2 
 PCOD8077702
Probable space group: P 21/M
;
_chemical_formula_sum "Si O2"
_cell_formula_units_Z 28
_cell_length_a 9.331358
_cell_length_b 8.943517
_cell_length_c 29.336367
_cell_angle_alpha 90.000000
_cell_angle_beta 36.962846
_cell_angle_gamma 90.000000
_cell_volume 1472.138143
_symmetry_space_group_name_H-M "P 21/M"
_symmetry_group_IT_number 11
_symmetry_cell_setting 'monoclinic'
loop_
_space_group_symop_operation_xyz
x,y,z
-x,1/2+y,-z
-x,-y,-z
x,1/2-y,z
loop_
_atom_site_type_symbol
_atom_site_label
_atom_site_fract_x
_atom_site_fract_y
_atom_site_fract_z
Si Si1 0.995111 0.922335 0.369896
Si Si2 0.756839 0.926706 0.931386
Si Si3 0.861708 0.073110 0.494288
Si Si4 0.080610 0.574660 0.200627
Si Si5 0.323794 0.427288 0.630293
Si Si6 0.083398 0.925571 0.932525
Si Si7 0.572216 0.419892 0.805694
O O1 0.947937 0.750000 0.395351
O O2 0.794039 0.985260 0.386590
O O3 0.252134 0.939476 0.281522
O O4 0.989509 0.025267 0.415510
O O5 0.725577 0.750000 0.938043
O O6 0.912551 0.978580 0.935016
O O7 0.890319 0.979676 0.852159
O O8 0.500000 0.000000 0.000000
O O9 0.867339 0.250000 0.497693
O O10 0.591266 0.011272 0.565274
O O11 0.000000 0.000000 0.500000
O O12 0.075566 0.750000 0.189899
O O13 0.296075 0.539780 0.180573
O O14 0.831771 0.520889 0.286668
O O15 0.312520 0.250000 0.631512
O O16 0.069245 0.750000 0.942484
O O17 0.353096 0.970717 0.852822
O O18 0.000000 0.000000 0.000000
O O19 0.478500 0.250000 0.832115
#
# Coordination Sequence:
#
# PCOD8077702 Si02
#       7
#     4   4   4   4   4   4   4
#     4   9  18  36  59  81 106 139 179 224 270 319
#     4  11  24  39  55  80 110 141 177 219 264 314
#     4  11  22  35  52  78 111 146 183 224 269 319
#     4   9  18  36  60  83 106 137 178 222 265 317
#     4   8  17  35  58  80 105 140 181 221 266 319
#     4  11  24  39  56  80 111 143 180 222 266 318
#     4   9  19  36  59  84 109 138 176 220 269 322
#
# _framework density 19.019953999999998
#
# number of rings (size 3 to 8) (size 9 to 14) (size 15 to 20)
#    0.000    2.286    0.000    4.286    0.000    8.000 
#    0.000    8.571    0.000    0.000    0.000    0.000 
#    0.000    0.000    0.000    0.000    0.000    0.000 
#
# Total GULP energy -347246.758962 kJ/mol
# GULP energy per Si atom -12401.669963 kJ/mol
# Density = 1.897666 g / cm^3
# Si number density = 19.019954 Si / 1000 Ang^3
#
#
#
# Elastic Constant Matrix: (Units=GPa)
#
#
# Indices 1 2 3 4 5 6 
#
# 1 143.0127 52.4163 81.3648 0.0000 7.0896 0.0000
# 2 52.4163 60.2076 43.3121 0.0000 3.2763 0.0000
# 3 81.3648 43.3121 119.2330 0.0000 9.7025 0.0000
# 4 0.0000 0.0000 0.0000 35.6016 0.0000 3.1773
# 5 7.0896 3.2763 9.7025 0.0000 36.4931 0.0000
# 6 0.0000 0.0000 0.0000 3.1773 0.0000 32.5045
#
#
#
# Elastic Compliance Matrix: (Units=1/GPa)
#
#
# Indices 1 2 3 4 5 6 
#
# 1 0.013205 -0.006789 -0.006527 0.000000 -0.000221 0.000000
# 2 -0.006789 0.025976 -0.004825 0.000000 0.000270 0.000000
# 3 -0.006527 -0.004825 0.014775 0.000000 -0.002227 0.000000
# 4 0.000000 0.000000 0.000000 0.028336 0.000000 -0.002770
# 5 -0.000221 0.000270 -0.002227 0.000000 0.028013 0.000000
# 6 0.000000 0.000000 0.000000 -0.002770 0.000000 0.031036
#
#
# Mechanical properties :
#
#
# Convention : Reuss Voigt Hill
#
# Bulk Modulus (GPa) = 56.58076 75.18219 65.88148
# Shear Modulus (GPa) = 27.24589 30.61052 28.92820
#
# Velocity S-wave (km/s) = 3.78893 4.01607 3.90415
# Velocity P-wave (km/s) = 6.99671 7.81786 7.41866
#
# Compressibility (1/GPa) = 0.01767385
#
# Stress axis : x y z
#
# Youngs Moduli (GPa) = 75.72907 38.49730 67.68149
#
# Poissons Ratio (x) = 0.26134 0.44177
# Poissons Ratio (y) = 0.51410 0.32658
# Poissons Ratio (z) = 0.49429 0.18576
#
# Static dielectric constant tensor:
#      x y z
#    x 3.648800 0.000000 -0.067870 
#    y 0.000000 3.313140 0.000000 
#    z -0.067870 0.000000 3.655070 
# 
# 
# High freq. dielectric constant tensor:
#      x y z
#    x 1.742910 0.000000 0.000530 
#    y 0.000000 1.724590 0.000000 
#    z 0.000530 0.000000 1.753470 
# 
# From -- ./inp_files/63392.got.cif
#   From: 2010.06.25/outbox.cif.g09.slc.cpg/sg11_32_cif.got.tgz:63392.got - 2010.06.27 23:14:04.
