data_PCOD8077504
_publ_section_title
;
Structure prediction by ZEFSAII (Michael W. Deem and Ramdas Pophale) SiO2 
 PCOD8077504
Probable space group: P 21/M
;
_chemical_formula_sum "Si O2"
_cell_formula_units_Z 20
_cell_length_a 14.274637
_cell_length_b 12.568582
_cell_length_c 5.268067
_cell_angle_alpha 90.000000
_cell_angle_beta 121.602170
_cell_angle_gamma 90.000000
_cell_volume 804.994489
_symmetry_space_group_name_H-M "P 21/M"
_symmetry_group_IT_number 11
_symmetry_cell_setting 'monoclinic'
loop_
_space_group_symop_operation_xyz
x,y,z
-x,1/2+y,-z
-x,-y,-z
x,1/2-y,z
loop_
_atom_site_type_symbol
_atom_site_label
_atom_site_fract_x
_atom_site_fract_y
_atom_site_fract_z
Si Si1 0.743052 0.369590 0.833062
Si Si2 0.404141 0.250000 0.220778
Si Si3 0.616115 0.046331 0.234575
Si Si4 0.553440 0.250000 0.923505
Si Si5 0.087612 0.750000 0.197214
Si Si6 0.053263 0.250000 0.502860
Si Si7 0.765466 0.921026 0.154258
O O1 0.724090 0.250000 0.933113
O O2 0.627947 0.405132 0.533418
O O3 0.793122 0.465531 0.067104
O O4 0.835476 0.353656 0.741427
O O5 0.479554 0.250000 0.572564
O O6 0.476076 0.250000 0.065373
O O7 0.324877 0.352863 0.127735
O O8 0.707506 0.954104 0.337252
O O9 0.630060 0.142714 0.045030
O O10 0.500000 0.000000 0.000000
O O11 0.992256 0.750000 0.846557
O O12 0.041884 0.750000 0.418764
O O13 0.124470 0.356185 0.639159
#
# Coordination Sequence:
#
# PCOD8077504 Si02
#       7
#     4   2   4   2   2   2   4
#     4  10  26  46  73 112 150 192 258 306 374 457
#     4  11  26  46  66 108 147 195 253 299 362 436
#     4  12  25  43  72 106 155 203 243 302 375 433
#     4  12  25  42  68  96 151 199 247 293 353 449
#     4  10  27  52  79 110 149 196 245 325 389 434
#     4  11  28  52  79 112 147 192 257 317 392 441
#     4  11  27  44  76 107 153 195 255 311 374 457
#
# _framework density 24.844891000000001
#
# number of rings (size 3 to 8) (size 9 to 14) (size 15 to 20)
#    0.600    0.400    3.000    1.200    9.800    4.800 
#    0.000    0.000    0.000    0.000    0.000    0.000 
#    0.000    0.000    0.000    0.000    0.000    0.000 
#
# Total GULP energy -247801.607222 kJ/mol
# GULP energy per Si atom -12390.080361 kJ/mol
# Density = 2.478834 g / cm^3
# Si number density = 24.844891 Si / 1000 Ang^3
#
#
#
# Elastic Constant Matrix: (Units=GPa)
#
#
# Indices 1 2 3 4 5 6 
#
# 1 77.3054 33.5681 -1.9147 0.0000 0.9330 0.0000
# 2 33.5681 149.6469 8.8072 0.0000 7.9085 0.0000
# 3 -1.9147 8.8072 91.5626 0.0000 7.0537 0.0000
# 4 0.0000 0.0000 0.0000 33.3196 0.0000 -4.3511
# 5 0.9330 7.9085 7.0537 0.0000 34.4089 0.0000
# 6 0.0000 0.0000 0.0000 -4.3511 0.0000 32.5022
#
#
#
# Elastic Compliance Matrix: (Units=1/GPa)
#
#
# Indices 1 2 3 4 5 6 
#
# 1 0.014368 -0.003271 0.000597 0.000000 0.000240 0.000000
# 2 -0.003271 0.007535 -0.000677 0.000000 -0.001504 0.000000
# 3 0.000597 -0.000677 0.011165 0.000000 -0.002149 0.000000
# 4 0.000000 0.000000 0.000000 0.030546 0.000000 0.004089
# 5 0.000240 -0.001504 -0.002149 0.000000 0.029842 0.000000
# 6 0.000000 0.000000 0.000000 0.004089 0.000000 0.031315
#
#
# Mechanical properties :
#
#
# Convention : Reuss Voigt Hill
#
# Bulk Modulus (GPa) = 37.92903 44.38180 41.15542
# Shear Modulus (GPa) = 35.64752 38.58310 37.11531
#
# Velocity S-wave (km/s) = 3.79199 3.94504 3.86927
# Velocity P-wave (km/s) = 5.87126 6.21719 6.04670
#
# Compressibility (1/GPa) = 0.02636503
#
# Stress axis : x y z
#
# Youngs Moduli (GPa) = 69.60003 132.70641 89.56814
#
# Poissons Ratio (x) = 0.43404 -0.05343
# Poissons Ratio (y) = 0.22764 0.06067
# Poissons Ratio (z) = -0.04152 0.08988
#
# Static dielectric constant tensor:
#      x y z
#    x 4.735970 0.000000 -0.060120 
#    y 0.000000 5.233750 0.000000 
#    z -0.060120 0.000000 4.218750 
# 
# 
# High freq. dielectric constant tensor:
#      x y z
#    x 1.998600 0.000000 -0.004040 
#    y 0.000000 2.017460 0.000000 
#    z -0.004040 0.000000 1.980980 
# 
# From -- ./inp_files/7765.got.cif
#   From: 2010.06.25/outbox.cif.g09.slc.cpg/sg11_4_cif.got.tgz:7765.got - 2010.06.27 23:14:04.
