data_PCOD8077372
_publ_section_title
;
Structure prediction by ZEFSAII (Michael W. Deem and Ramdas Pophale) SiO2 
 PCOD8077372
Probable space group: P 21/M
;
_chemical_formula_sum "Si O2"
_cell_formula_units_Z 24
_cell_length_a 8.785966
_cell_length_b 16.633459
_cell_length_c 16.226518
_cell_angle_alpha 90.000000
_cell_angle_beta 31.063472
_cell_angle_gamma 90.000000
_cell_volume 1223.591523
_symmetry_space_group_name_H-M "P 21/M"
_symmetry_group_IT_number 11
_symmetry_cell_setting 'monoclinic'
loop_
_space_group_symop_operation_xyz
x,y,z
-x,1/2+y,-z
-x,-y,-z
x,1/2-y,z
loop_
_atom_site_type_symbol
_atom_site_label
_atom_site_fract_x
_atom_site_fract_y
_atom_site_fract_z
Si Si1 0.629737 0.519008 0.350843
Si Si2 0.319823 0.342018 0.790065
Si Si3 0.755731 0.569383 0.597696
Si Si4 0.212081 0.841747 0.293083
Si Si5 0.250620 0.936048 0.109890
Si Si6 0.646443 0.157785 0.092000
O O1 0.500000 0.500000 0.500000
O O2 0.564418 0.607862 0.343151
O O3 0.501049 0.455459 0.346264
O O4 0.980900 0.513655 0.196240
O O5 0.379735 0.250000 0.737899
O O6 0.499262 0.366802 0.788585
O O7 0.978029 0.357087 0.971934
O O8 0.589105 0.597681 0.757277
O O9 0.000000 0.500000 0.500000
O O10 0.923601 0.646532 0.483257
O O11 0.230331 0.750000 0.254947
O O12 0.173225 0.900667 0.234473
O O13 0.351577 0.862034 0.005855
O O14 0.500000 0.000000 0.000000
O O15 0.549952 0.250000 0.149827
#
# Coordination Sequence:
#
# PCOD8077372 Si02
#       6
#     4   4   4   4   4   4
#     4  11  23  40  60  90 124 161 203 255 302 366
#     4   9  21  40  64  87 119 162 210 254 309 364
#     4  12  23  40  64  89 125 160 210 250 305 366
#     4  11  22  40  64  90 121 163 205 252 305 370
#     4  11  24  39  65  91 124 159 204 251 309 361
#     4  10  23  42  62  89 124 163 203 256 308 362
#
# _framework density 19.614388999999999
#
# number of rings (size 3 to 8) (size 9 to 14) (size 15 to 20)
#    0.000    1.333    3.333    2.000    2.333    2.000 
#    0.000    0.000    0.000    0.000    0.000    0.000 
#    0.000    0.000    0.000    0.000    0.000    0.000 
#
# Total GULP energy -297522.504003 kJ/mol
# GULP energy per Si atom -12396.771000 kJ/mol
# Density = 1.956975 g / cm^3
# Si number density = 19.614389 Si / 1000 Ang^3
#
#
#
# Elastic Constant Matrix: (Units=GPa)
#
#
# Indices 1 2 3 4 5 6 
#
# 1 113.8510 42.2453 38.1115 0.0000 -12.5351 0.0000
# 2 42.2453 76.3656 45.6976 0.0000 -11.2714 0.0000
# 3 38.1115 45.6976 102.5950 0.0000 4.0894 0.0000
# 4 0.0000 0.0000 0.0000 40.8224 0.0000 1.4654
# 5 -12.5351 -11.2714 4.0894 0.0000 31.7252 0.0000
# 6 0.0000 0.0000 0.0000 1.4654 0.0000 34.5617
#
#
#
# Elastic Compliance Matrix: (Units=1/GPa)
#
#
# Indices 1 2 3 4 5 6 
#
# 1 0.011633 -0.004471 -0.002462 0.000000 0.003325 0.000000
# 2 -0.004471 0.021489 -0.008187 0.000000 0.006923 0.000000
# 3 -0.002462 -0.008187 0.014538 0.000000 -0.005755 0.000000
# 4 0.000000 0.000000 0.000000 0.024534 0.000000 -0.001040
# 5 0.003325 0.006923 -0.005755 0.000000 0.036036 0.000000
# 6 0.000000 0.000000 0.000000 -0.001040 0.000000 0.028978
#
#
# Mechanical properties :
#
#
# Convention : Reuss Voigt Hill
#
# Bulk Modulus (GPa) = 57.40711 60.54671 58.97691
# Shear Modulus (GPa) = 28.85938 32.53901 30.69919
#
# Velocity S-wave (km/s) = 3.83996 4.07742 3.96047
# Velocity P-wave (km/s) = 6.99941 7.28716 7.14474
#
# Compressibility (1/GPa) = 0.01741945
#
# Stress axis : x y z
#
# Youngs Moduli (GPa) = 85.96401 46.53527 68.78661
#
# Poissons Ratio (x) = 0.20806 0.16938
# Poissons Ratio (y) = 0.38434 0.56314
# Poissons Ratio (z) = 0.21168 0.38097
#
# Static dielectric constant tensor:
#      x y z
#    x 3.918250 0.000000 -0.081270 
#    y 0.000000 3.715280 0.000000 
#    z -0.081270 0.000000 3.579340 
# 
# 
# High freq. dielectric constant tensor:
#      x y z
#    x 1.777070 0.000000 -0.006550 
#    y 0.000000 1.763820 0.000000 
#    z -0.006550 0.000000 1.760990 
# 
# From -- ./inp_files/22656.got.cif
#   From: 2010.06.25/outbox.cif.g09.slc.cpg/sg11_12_cif.got.tgz:22656.got - 2010.06.27 23:14:04.
