data_PCOD8077822
_publ_section_title
;
Structure prediction by ZEFSAII (Michael W. Deem and Ramdas Pophale) SiO2 
 PCOD8077822
Probable space group: P 21/M
;
_chemical_formula_sum "Si O2"
_cell_formula_units_Z 32
_cell_length_a 12.984116
_cell_length_b 19.034685
_cell_length_c 10.903475
_cell_angle_alpha 90.000000
_cell_angle_beta 144.390398
_cell_angle_gamma 90.000000
_cell_volume 1569.059427
_symmetry_space_group_name_H-M "P 21/M"
_symmetry_group_IT_number 11
_symmetry_cell_setting 'monoclinic'
loop_
_space_group_symop_operation_xyz
x,y,z
-x,1/2+y,-z
-x,-y,-z
x,1/2-y,z
loop_
_atom_site_type_symbol
_atom_site_label
_atom_site_fract_x
_atom_site_fract_y
_atom_site_fract_z
Si Si1 0.039476 0.167650 0.633373
Si Si2 0.865329 0.329620 0.882797
Si Si3 0.787956 0.579786 0.824345
Si Si4 0.654583 0.529981 0.442411
Si Si5 0.641261 0.670767 0.889685
Si Si6 0.725705 0.370563 0.501597
Si Si7 0.030516 0.058454 0.427316
Si Si8 0.250311 0.555025 0.058695
O O1 0.004642 0.250000 0.589120
O O2 0.898407 0.131585 0.585532
O O3 0.024722 0.134951 0.484303
O O4 0.231391 0.148667 0.875501
O O5 0.913467 0.250000 0.969949
O O6 0.748492 0.325003 0.646781
O O7 0.760739 0.367751 0.891438
O O8 0.035476 0.375565 0.014919
O O9 0.696820 0.575248 0.603894
O O10 0.657210 0.621079 0.787412
O O11 0.821624 0.502431 0.913293
O O12 0.689891 0.449622 0.508579
O O13 0.777133 0.552879 0.448169
O O14 0.450194 0.541010 0.208412
O O15 0.687514 0.750000 0.895668
O O16 0.437608 0.661877 0.734605
O O17 0.000000 0.000000 0.500000
O O18 0.874129 0.051424 0.179169
#
# Coordination Sequence:
#
# PCOD8077822 Si02
#       8
#     4   4   4   4   4   4   4   4
#     4  11  25  45  65  91 129 174 220 268 322 378
#     4  12  24  40  68 102 135 173 212 262 330 396
#     4  12  21  42  68  98 135 169 207 263 327 392
#     4  12  25  42  69 102 128 171 216 264 330 392
#     4  11  23  39  66 101 132 168 214 267 326 386
#     4  12  22  41  68  99 134 163 214 273 326 385
#     4  12  26  44  66  94 127 171 222 273 315 376
#     4  12  25  44  69  99 133 170 217 268 325 391
#
# _framework density 20.394383999999999
#
# number of rings (size 3 to 8) (size 9 to 14) (size 15 to 20)
#    0.000    0.250    6.250    4.500    0.000    2.000 
#    0.000    1.250    0.000    0.000    0.000    0.000 
#    0.000    0.000    0.000    0.000    0.000    0.000 
#
# Total GULP energy -396944.381960 kJ/mol
# GULP energy per Si atom -12404.511936 kJ/mol
# Density = 2.034797 g / cm^3
# Si number density = 20.394384 Si / 1000 Ang^3
#
#
#
# Elastic Constant Matrix: (Units=GPa)
#
#
# Indices 1 2 3 4 5 6 
#
# 1 95.1141 46.8720 61.1099 0.0000 -6.7202 0.0000
# 2 46.8720 110.7887 40.1227 0.0000 3.8118 0.0000
# 3 61.1099 40.1227 133.8988 0.0000 17.3762 0.0000
# 4 0.0000 0.0000 0.0000 27.6680 0.0000 -3.5180
# 5 -6.7202 3.8118 17.3762 0.0000 30.1310 0.0000
# 6 0.0000 0.0000 0.0000 -3.5180 0.0000 22.3735
#
#
#
# Elastic Compliance Matrix: (Units=1/GPa)
#
#
# Indices 1 2 3 4 5 6 
#
# 1 0.019350 -0.005456 -0.008481 0.000000 0.009897 0.000000
# 2 -0.005456 0.011670 -0.000711 0.000000 -0.002283 0.000000
# 3 -0.008481 -0.000711 0.012739 0.000000 -0.009148 0.000000
# 4 0.000000 0.000000 0.000000 0.036880 0.000000 0.005799
# 5 0.009897 -0.002283 -0.009148 0.000000 0.040960 0.000000
# 6 0.000000 0.000000 0.000000 0.005799 0.000000 0.045607
#
#
# Mechanical properties :
#
#
# Convention : Reuss Voigt Hill
#
# Bulk Modulus (GPa) = 69.13205 70.66786 69.89995
# Shear Modulus (GPa) = 24.83560 28.81430 26.82495
#
# Velocity S-wave (km/s) = 3.49344 3.76287 3.63066
# Velocity P-wave (km/s) = 7.08825 7.32153 7.20584
#
# Compressibility (1/GPa) = 0.01446507
#
# Stress axis : x y z
#
# Youngs Moduli (GPa) = 51.67857 85.68704 78.49917
#
# Poissons Ratio (x) = 0.46749 0.66573
# Poissons Ratio (y) = 0.28195 0.05579
# Poissons Ratio (z) = 0.43827 0.06090
#
# Static dielectric constant tensor:
#      x y z
#    x 3.749510 0.000000 0.104460 
#    y 0.000000 3.833390 0.000000 
#    z 0.104460 0.000000 3.830950 
# 
# 
# High freq. dielectric constant tensor:
#      x y z
#    x 1.788280 0.000000 0.013040 
#    y 0.000000 1.805290 0.000000 
#    z 0.013040 0.000000 1.805310 
# 
# From -- ./inp_files/39948.got.cif
#   From: 2010.06.25/outbox.cif.g09.slc.cpg/sg11_20_cif.got.tgz:39948.got - 2010.06.27 23:14:04.
