data_PCOD8077328
_publ_section_title
;
Structure prediction by ZEFSAII (Michael W. Deem and Ramdas Pophale) SiO2 
 PCOD8077328
Probable space group: P 21/M
;
_chemical_formula_sum "Si O2"
_cell_formula_units_Z 24
_cell_length_a 13.526815
_cell_length_b 8.762030
_cell_length_c 12.805248
_cell_angle_alpha 90.000000
_cell_angle_beta 135.747805
_cell_angle_gamma 90.000000
_cell_volume 1059.083949
_symmetry_space_group_name_H-M "P 21/M"
_symmetry_group_IT_number 11
_symmetry_cell_setting 'monoclinic'
loop_
_space_group_symop_operation_xyz
x,y,z
-x,1/2+y,-z
-x,-y,-z
x,1/2-y,z
loop_
_atom_site_type_symbol
_atom_site_label
_atom_site_fract_x
_atom_site_fract_y
_atom_site_fract_z
Si Si1 0.647822 0.930187 0.152098
Si Si2 0.089709 0.075640 0.299591
Si Si3 0.489814 0.423978 0.203181
Si Si4 0.869848 0.072283 0.458308
Si Si5 0.598322 0.576288 0.489761
Si Si6 0.812793 0.924979 0.073868
O O1 0.619837 0.750000 0.124943
O O2 0.755428 0.985995 0.142928
O O3 0.501474 0.018077 0.085901
O O4 0.728557 0.979742 0.320426
O O5 0.073323 0.250000 0.326337
O O6 0.237327 0.059968 0.347550
O O7 0.100002 0.951764 0.397897
O O8 0.944360 0.026454 0.129458
O O9 0.540995 0.250000 0.242610
O O10 0.578825 0.509395 0.358860
O O11 0.323044 0.438518 0.106211
O O12 0.853795 0.250000 0.419909
O O13 0.000000 0.000000 0.500000
O O14 0.500000 0.500000 0.500000
O O15 0.551711 0.750000 0.447775
O O16 0.862270 0.750000 0.120020
#
# Coordination Sequence:
#
# PCOD8077328 Si02
#       6
#     4   4   4   4   4   4
#     4  11  21  35  56  87 127 170 212 250 293 356
#     4  11  23  39  62  90 121 158 203 253 306 365
#     4  11  23  40  62  91 126 167 208 252 306 363
#     4  12  22  33  54  85 123 165 207 252 300 355
#     4  11  25  45  69  94 118 151 202 261 315 374
#     4  10  23  39  59  90 130 170 208 247 297 364
#
# _framework density 22.661093000000001
#
# number of rings (size 3 to 8) (size 9 to 14) (size 15 to 20)
#    0.000    1.000    3.333    4.000    0.000    4.000 
#    0.000    0.833    0.000    0.000    0.000    0.000 
#    0.000    0.000    0.000    0.000    0.000    0.000 
#
# Total GULP energy -297346.911263 kJ/mol
# GULP energy per Si atom -12389.454636 kJ/mol
# Density = 2.260952 g / cm^3
# Si number density = 22.661093 Si / 1000 Ang^3
#
#
#
# Elastic Constant Matrix: (Units=GPa)
#
#
# Indices 1 2 3 4 5 6 
#
# 1 113.9450 55.9246 33.3562 0.0000 23.7360 0.0000
# 2 55.9246 138.1962 41.1642 0.0000 21.6983 0.0000
# 3 33.3562 41.1642 58.4335 0.0000 29.9678 0.0000
# 4 0.0000 0.0000 0.0000 36.2893 0.0000 7.4527
# 5 23.7360 21.6983 29.9678 0.0000 39.0421 0.0000
# 6 0.0000 0.0000 0.0000 7.4527 0.0000 33.7055
#
#
#
# Elastic Compliance Matrix: (Units=1/GPa)
#
#
# Indices 1 2 3 4 5 6 
#
# 1 0.011974 -0.003538 -0.002668 0.000000 -0.003265 0.000000
# 2 -0.003538 0.010204 -0.005547 0.000000 0.000738 0.000000
# 3 -0.002668 -0.005547 0.033201 0.000000 -0.020779 0.000000
# 4 0.000000 0.000000 0.000000 0.028867 0.000000 -0.006383
# 5 -0.003265 0.000738 -0.020779 0.000000 0.043138 0.000000
# 6 0.000000 0.000000 0.000000 -0.006383 0.000000 0.031080
#
#
# Mechanical properties :
#
#
# Convention : Reuss Voigt Hill
#
# Bulk Modulus (GPa) = 31.37503 63.49606 47.43555
# Shear Modulus (GPa) = 25.96105 33.81601 29.88853
#
# Velocity S-wave (km/s) = 3.38838 3.86716 3.63566
# Velocity P-wave (km/s) = 5.40218 6.92969 6.21305
#
# Compressibility (1/GPa) = 0.03187248
#
# Stress axis : x y z
#
# Youngs Moduli (GPa) = 83.51463 97.99688 30.11946
#
# Poissons Ratio (x) = 0.34673 0.08036
# Poissons Ratio (y) = 0.29549 0.16708
# Poissons Ratio (z) = 0.22283 0.54362
#
# Static dielectric constant tensor:
#      x y z
#    x 3.655400 0.000000 1.102300 
#    y 0.000000 3.814720 0.000000 
#    z 1.102300 0.000000 2.792340 
# 
# 
# High freq. dielectric constant tensor:
#      x y z
#    x 1.882330 0.000000 0.041140 
#    y 0.000000 1.890640 0.000000 
#    z 0.041140 0.000000 1.913350 
# 
# From -- ./inp_files/51814.got.cif
#   From: 2010.06.25/outbox.cif.g09.slc.cpg/sg11_26_cif.got.tgz:51814.got - 2010.06.27 23:14:04.
