data_PCOD8077628
_publ_section_title
;
Structure prediction by ZEFSAII (Michael W. Deem and Ramdas Pophale) SiO2 
 PCOD8077628
Probable space group: P 21/M
;
_chemical_formula_sum "Si O2"
_cell_formula_units_Z 16
_cell_length_a 9.920989
_cell_length_b 13.105661
_cell_length_c 7.034957
_cell_angle_alpha 90.000000
_cell_angle_beta 48.966449
_cell_angle_gamma 90.000000
_cell_volume 689.976036
_symmetry_space_group_name_H-M "P 21/M"
_symmetry_group_IT_number 11
_symmetry_cell_setting 'monoclinic'
loop_
_space_group_symop_operation_xyz
x,y,z
-x,1/2+y,-z
-x,-y,-z
x,1/2-y,z
loop_
_atom_site_type_symbol
_atom_site_label
_atom_site_fract_x
_atom_site_fract_y
_atom_site_fract_z
Si Si1 0.578349 0.949182 0.205415
Si Si2 0.352836 0.632355 0.097517
Si Si3 0.100657 0.137772 0.861361
Si Si4 0.816840 0.441208 0.391226
O O1 0.536020 0.890469 0.044436
O O2 0.725062 0.882224 0.173454
O O3 0.388897 0.954939 0.498337
O O4 0.652522 0.062552 0.086020
O O5 0.339222 0.750000 0.047452
O O6 0.186520 0.602386 0.391437
O O7 0.112737 0.250000 0.757884
O O8 0.089215 0.053194 0.704953
O O9 0.924573 0.134809 0.155735
#
# Coordination Sequence:
#
# PCOD8077628 Si02
#       4
#     4   4   4   4
#     4   9  20  37  56  80 109 138 184 220 258 328
#     4   9  18  37  58  78 111 143 172 224 272 307
#     4  11  21  35  58  80 108 147 177 217 271 315
#     4   9  21  38  52  81 114 132 185 225 256 323
#
# _framework density 23.189211
#
# number of rings (size 3 to 8) (size 9 to 14) (size 15 to 20)
#    1.500    1.000    0.000    2.250    0.000    2.000 
#    0.000    6.250    0.000    0.000    0.000    0.000 
#    0.000    0.000    0.000    0.000    0.000    0.000 
#
# Total GULP energy -198267.438709 kJ/mol
# GULP energy per Si atom -12391.714919 kJ/mol
# Density = 2.313643 g / cm^3
# Si number density = 23.189211 Si / 1000 Ang^3
#
#
#
# Elastic Constant Matrix: (Units=GPa)
#
#
# Indices 1 2 3 4 5 6 
#
# 1 26.6090 1.3078 16.7979 0.0000 -9.1396 0.0000
# 2 1.3078 180.6878 28.6523 0.0000 4.5997 0.0000
# 3 16.7979 28.6523 117.8652 0.0000 -23.6267 0.0000
# 4 0.0000 0.0000 0.0000 27.3656 0.0000 3.7372
# 5 -9.1396 4.5997 -23.6267 0.0000 22.5976 0.0000
# 6 0.0000 0.0000 0.0000 3.7372 0.0000 22.4886
#
#
#
# Elastic Compliance Matrix: (Units=1/GPa)
#
#
# Indices 1 2 3 4 5 6 
#
# 1 0.044748 -0.000151 -0.003424 0.000000 0.014549 0.000000
# 2 -0.000151 0.005962 -0.002130 0.000000 -0.003502 0.000000
# 3 -0.003424 -0.002130 0.011765 0.000000 0.011349 0.000000
# 4 0.000000 0.000000 0.000000 0.037391 0.000000 -0.006214
# 5 0.014549 -0.003502 0.011349 0.000000 0.062716 0.000000
# 6 0.000000 0.000000 0.000000 -0.006214 0.000000 0.045500
#
#
# Mechanical properties :
#
#
# Convention : Reuss Voigt Hill
#
# Bulk Modulus (GPa) = 19.58303 46.51977 33.05140
# Shear Modulus (GPa) = 21.14047 33.05063 27.09555
#
# Velocity S-wave (km/s) = 3.02263 3.77936 3.42198
# Velocity P-wave (km/s) = 4.54367 6.25693 5.46782
#
# Compressibility (1/GPa) = 0.05106463
#
# Stress axis : x y z
#
# Youngs Moduli (GPa) = 22.34757 167.71862 84.99738
#
# Poissons Ratio (x) = 0.02537 0.29105
# Poissons Ratio (y) = 0.00338 0.18102
# Poissons Ratio (z) = 0.07652 0.35720
#
# Static dielectric constant tensor:
#      x y z
#    x 3.689330 0.000000 -0.119390 
#    y 0.000000 3.940050 0.000000 
#    z -0.119390 0.000000 4.196850 
# 
# 
# High freq. dielectric constant tensor:
#      x y z
#    x 1.891070 0.000000 -0.007250 
#    y 0.000000 1.909870 0.000000 
#    z -0.007250 0.000000 1.918590 
# 
# From -- ./inp_files/11157.got.cif
#   From: 2010.06.25/outbox.cif.g09.slc.cpg/sg11_6_cif.got.tgz:11157.got - 2010.06.27 23:14:04.
