data_PCOD8077351
_publ_section_title
;
Structure prediction by ZEFSAII (Michael W. Deem and Ramdas Pophale) SiO2 
 PCOD8077351
Probable space group: P 21/M
;
_chemical_formula_sum "Si O2"
_cell_formula_units_Z 32
_cell_length_a 11.845446
_cell_length_b 8.686517
_cell_length_c 14.718267
_cell_angle_alpha 90.000000
_cell_angle_beta 93.401594
_cell_angle_gamma 90.000000
_cell_volume 1511.777731
_symmetry_space_group_name_H-M "P 21/M"
_symmetry_group_IT_number 11
_symmetry_cell_setting 'monoclinic'
loop_
_space_group_symop_operation_xyz
x,y,z
-x,1/2+y,-z
-x,-y,-z
x,1/2-y,z
loop_
_atom_site_type_symbol
_atom_site_label
_atom_site_fract_x
_atom_site_fract_y
_atom_site_fract_z
Si Si1 0.480063 0.932078 0.287773
Si Si2 0.563316 0.429078 0.917697
Si Si3 0.286779 0.570445 0.669054
Si Si4 0.795979 0.571993 0.969847
Si Si5 0.835569 0.926712 0.178883
Si Si6 0.250075 0.429152 0.332750
Si Si7 0.911708 0.427130 0.820185
Si Si8 0.875675 0.929910 0.486262
O O1 0.463174 0.750000 0.295309
O O2 0.484130 0.985968 0.182183
O O3 0.595449 0.982800 0.342700
O O4 0.379459 0.015912 0.337074
O O5 0.543866 0.250000 0.924493
O O6 0.500000 0.500000 0.000000
O O7 0.694221 0.469685 0.927564
O O8 0.305900 0.750000 0.654448
O O9 0.246409 0.538366 0.769777
O O10 0.189246 0.508561 0.599351
O O11 0.763870 0.750000 0.959135
O O12 0.825034 0.528103 0.073550
O O13 0.901622 0.529574 0.910825
O O14 0.798424 0.750000 0.193888
O O15 0.964534 0.954253 0.216377
O O16 0.242001 0.250000 0.306885
O O17 0.181500 0.527266 0.256947
O O18 0.197410 0.463197 0.428016
O O19 0.895939 0.250000 0.847148
O O20 0.887548 0.750000 0.466635
O O21 0.000000 0.000000 0.500000
#
# Coordination Sequence:
#
# PCOD8077351 Si02
#       8
#     4   4   4   4   4   4   4   4
#     4  11  24  43  66  92 128 171 215 264 323 384
#     4  11  23  38  59  88 123 168 218 266 322 382
#     4  12  26  43  67  97 129 168 214 264 321 383
#     4  11  22  37  59  88 124 166 214 267 320 380
#     4  10  23  41  61  89 127 171 216 266 324 382
#     4  11  24  42  67  97 128 166 215 266 321 385
#     4  11  22  38  61  90 127 169 212 262 321 383
#     4  11  25  46  72 102 134 169 212 264 321 385
#
# _framework density 21.167133
#
# number of rings (size 3 to 8) (size 9 to 14) (size 15 to 20)
#    0.000    1.000    1.250    5.250    0.000   11.000 
#    0.000    0.000    0.000    0.000    0.000    0.000 
#    0.000    0.000    0.000    0.000    0.000    0.000 
#
# Total GULP energy -396976.128278 kJ/mol
# GULP energy per Si atom -12405.504009 kJ/mol
# Density = 2.111896 g / cm^3
# Si number density = 21.167133 Si / 1000 Ang^3
#
#
#
# Elastic Constant Matrix: (Units=GPa)
#
#
# Indices 1 2 3 4 5 6 
#
# 1 122.4229 34.9671 31.4859 0.0000 4.7791 0.0000
# 2 34.9671 57.6227 31.0907 0.0000 -12.8681 0.0000
# 3 31.4859 31.0907 79.5761 0.0000 -5.1716 0.0000
# 4 0.0000 0.0000 0.0000 31.0289 0.0000 -3.0820
# 5 4.7791 -12.8681 -5.1716 0.0000 35.3897 0.0000
# 6 0.0000 0.0000 0.0000 -3.0820 0.0000 38.1302
#
#
#
# Elastic Compliance Matrix: (Units=1/GPa)
#
#
# Indices 1 2 3 4 5 6 
#
# 1 0.010632 -0.006254 -0.002023 0.000000 -0.004006 0.000000
# 2 -0.006254 0.027422 -0.007609 0.000000 0.009704 0.000000
# 3 -0.002023 -0.007609 0.016333 0.000000 -0.000107 0.000000
# 4 0.000000 0.000000 0.000000 0.032489 0.000000 0.002626
# 5 -0.004006 0.009704 -0.000107 0.000000 0.032310 0.000000
# 6 0.000000 0.000000 0.000000 0.002626 0.000000 0.026438
#
#
# Mechanical properties :
#
#
# Convention : Reuss Voigt Hill
#
# Bulk Modulus (GPa) = 44.22059 50.52324 47.37192
# Shear Modulus (GPa) = 27.03668 31.71498 29.37583
#
# Velocity S-wave (km/s) = 3.57780 3.87500 3.72937
# Velocity P-wave (km/s) = 6.16475 6.62883 6.40100
#
# Compressibility (1/GPa) = 0.02261390
#
# Stress axis : x y z
#
# Youngs Moduli (GPa) = 94.05971 36.46736 61.22613
#
# Poissons Ratio (x) = 0.22808 0.12388
# Poissons Ratio (y) = 0.58828 0.46584
# Poissons Ratio (z) = 0.19031 0.27746
#
# Static dielectric constant tensor:
#      x y z
#    x 3.985430 0.000000 -0.074090 
#    y 0.000000 3.844130 0.000000 
#    z -0.074090 0.000000 3.942080 
# 
# 
# High freq. dielectric constant tensor:
#      x y z
#    x 1.844720 0.000000 -0.003250 
#    y 0.000000 1.834340 0.000000 
#    z -0.003250 0.000000 1.833250 
# 
# From -- ./inp_files/49401.got.cif
#   From: 2010.06.25/outbox.cif.g09.slc.cpg/sg11_25_cif.got.tgz:49401.got - 2010.06.27 23:14:04.
