data_PCOD8077876
_publ_section_title
;
Structure prediction by ZEFSAII (Michael W. Deem and Ramdas Pophale) SiO2 
 PCOD8077876
Probable space group: P 21/M
;
_chemical_formula_sum "Si O2"
_cell_formula_units_Z 28
_cell_length_a 11.765577
_cell_length_b 13.961162
_cell_length_c 9.248315
_cell_angle_alpha 90.000000
_cell_angle_beta 118.780153
_cell_angle_gamma 90.000000
_cell_volume 1331.484768
_symmetry_space_group_name_H-M "P 21/M"
_symmetry_group_IT_number 11
_symmetry_cell_setting 'monoclinic'
loop_
_space_group_symop_operation_xyz
x,y,z
-x,1/2+y,-z
-x,-y,-z
x,1/2-y,z
loop_
_atom_site_type_symbol
_atom_site_label
_atom_site_fract_x
_atom_site_fract_y
_atom_site_fract_z
Si Si1 0.406655 0.639211 0.092575
Si Si2 0.183010 0.637447 0.453969
Si Si3 0.714143 0.641868 0.606306
Si Si4 0.294592 0.356091 0.738972
Si Si5 0.049110 0.485168 0.189719
Si Si6 0.188677 0.952432 0.770589
Si Si7 0.569547 0.136680 0.572445
O O1 0.368366 0.750000 0.059004
O O2 0.555023 0.622381 0.136848
O O3 0.383336 0.599626 0.241337
O O4 0.317407 0.583297 0.926894
O O5 0.156228 0.750000 0.428327
O O6 0.080450 0.585698 0.286936
O O7 0.169263 0.601217 0.607780
O O8 0.327781 0.610602 0.488345
O O9 0.725635 0.750000 0.672746
O O10 0.733716 0.638623 0.447519
O O11 0.823640 0.579303 0.748177
O O12 0.572682 0.595388 0.557952
O O13 0.258071 0.250000 0.774720
O O14 0.203185 0.433295 0.760140
O O15 0.938308 0.430447 0.212711
O O16 0.000000 0.500000 0.000000
O O17 0.548104 0.250000 0.577225
#
# Coordination Sequence:
#
# PCOD8077876 Si02
#       7
#     4   4   4   4   4   4   4
#     4   9  18  36  62  93 125 160 199 246 309 375
#     4  11  24  42  64  94 128 161 204 264 317 367
#     4   9  19  40  67  91 117 159 209 257 306 366
#     4   9  19  38  64  91 122 157 202 258 313 368
#     4  12  27  44  60  89 126 169 220 252 303 378
#     4  12  23  40  61  93 127 164 207 248 312 379
#     4   8  17  38  66  93 120 155 204 254 309 366
#
# _framework density 21.029153999999998
#
# number of rings (size 3 to 8) (size 9 to 14) (size 15 to 20)
#    0.000    2.000    1.429    3.857    0.000    2.857 
#    5.143    0.000    0.000    0.000    0.000    0.000 
#    0.000    0.000    0.000    0.000    0.000    0.000 
#
# Total GULP energy -347240.684410 kJ/mol
# GULP energy per Si atom -12401.453015 kJ/mol
# Density = 2.098129 g / cm^3
# Si number density = 21.029154 Si / 1000 Ang^3
#
#
#
# Elastic Constant Matrix: (Units=GPa)
#
#
# Indices 1 2 3 4 5 6 
#
# 1 85.9355 25.3864 55.8785 0.0000 -4.9504 0.0000
# 2 25.3864 72.0119 50.8293 0.0000 6.2980 0.0000
# 3 55.8785 50.8293 157.8417 0.0000 9.3981 0.0000
# 4 0.0000 0.0000 0.0000 23.8423 0.0000 1.8017
# 5 -4.9504 6.2980 9.3981 0.0000 32.1266 0.0000
# 6 0.0000 0.0000 0.0000 1.8017 0.0000 29.9097
#
#
#
# Elastic Compliance Matrix: (Units=1/GPa)
#
#
# Indices 1 2 3 4 5 6 
#
# 1 0.015936 -0.002377 -0.005139 0.000000 0.004425 0.000000
# 2 -0.002377 0.018436 -0.004945 0.000000 -0.002534 0.000000
# 3 -0.005139 -0.004945 0.009909 0.000000 -0.002721 0.000000
# 4 0.000000 0.000000 0.000000 0.042134 0.000000 -0.002538
# 5 0.004425 -0.002534 -0.002721 0.000000 0.033102 0.000000
# 6 0.000000 0.000000 0.000000 -0.002538 0.000000 0.033587
#
#
# Mechanical properties :
#
#
# Convention : Reuss Voigt Hill
#
# Bulk Modulus (GPa) = 51.65588 64.44194 58.04891
# Shear Modulus (GPa) = 27.10336 29.42204 28.26270
#
# Velocity S-wave (km/s) = 3.59395 3.74452 3.67001
# Velocity P-wave (km/s) = 6.46832 7.02893 6.75445
#
# Compressibility (1/GPa) = 0.01935888
#
# Stress axis : x y z
#
# Youngs Moduli (GPa) = 62.75242 54.24073 100.91607
#
# Poissons Ratio (x) = 0.12894 0.51865
# Poissons Ratio (y) = 0.14917 0.49899
# Poissons Ratio (z) = 0.32251 0.26820
#
# Static dielectric constant tensor:
#      x y z
#    x 3.861710 0.000000 0.126850 
#    y 0.000000 3.899230 0.000000 
#    z 0.126850 0.000000 3.643430 
# 
# 
# High freq. dielectric constant tensor:
#      x y z
#    x 1.824540 0.000000 0.010130 
#    y 0.000000 1.827740 0.000000 
#    z 0.010130 0.000000 1.815750 
# 
# From -- ./inp_files/17958.got.cif
#   From: 2010.06.25/outbox.cif.g09.slc.cpg/sg11_9_cif.got.tgz:17958.got - 2010.06.27 23:14:04.
