data_PCOD8077683
_publ_section_title
;
Structure prediction by ZEFSAII (Michael W. Deem and Ramdas Pophale) SiO2 
 PCOD8077683
Probable space group: P 21/M
;
_chemical_formula_sum "Si O2"
_cell_formula_units_Z 32
_cell_length_a 14.048152
_cell_length_b 8.787191
_cell_length_c 27.584878
_cell_angle_alpha 90.000000
_cell_angle_beta 149.685876
_cell_angle_gamma 90.000000
_cell_volume 1718.733086
_symmetry_space_group_name_H-M "P 21/M"
_symmetry_group_IT_number 11
_symmetry_cell_setting 'monoclinic'
loop_
_space_group_symop_operation_xyz
x,y,z
-x,1/2+y,-z
-x,-y,-z
x,1/2-y,z
loop_
_atom_site_type_symbol
_atom_site_label
_atom_site_fract_x
_atom_site_fract_y
_atom_site_fract_z
Si Si1 0.307392 0.421689 0.548978
Si Si2 0.982327 0.429028 0.642369
Si Si3 0.187756 0.077625 0.600241
Si Si4 0.752343 0.571113 0.926934
Si Si5 0.122479 0.070130 0.122829
Si Si6 0.314188 0.070901 0.305126
Si Si7 0.700494 0.070325 0.602710
Si Si8 0.331963 0.571773 0.758565
O O1 0.329826 0.250000 0.538406
O O2 0.106166 0.490632 0.444102
O O3 0.327065 0.420351 0.615490
O O4 0.465177 0.530954 0.596163
O O5 0.978960 0.250000 0.634054
O O6 0.863604 0.480187 0.636960
O O7 0.200139 0.486015 0.740120
O O8 0.150554 0.250000 0.602583
O O9 0.283094 0.976538 0.682811
O O10 0.000000 0.000000 0.500000
O O11 0.789147 0.750000 0.944936
O O12 0.767582 0.515082 0.877410
O O13 0.551296 0.527990 0.862136
O O14 0.908598 0.489067 0.028202
O O15 0.120991 0.250000 0.125060
O O16 0.221937 0.005566 0.215129
O O17 0.287361 0.250000 0.298205
O O18 0.223917 0.990165 0.312330
O O19 0.676318 0.250000 0.593415
O O20 0.500000 0.000000 0.500000
O O21 0.299302 0.750000 0.750052
#
# Coordination Sequence:
#
# PCOD8077683 Si02
#       8
#     4   4   4   4   4   4   4   4
#     4  11  22  34  51  76 107 145 186 225 269 324
#     4  11  23  37  54  76 106 145 186 229 276 325
#     4  11  22  33  48  72 105 145 184 222 264 316
#     4   9  19  36  58  84 114 147 182 224 273 329
#     4   9  19  36  58  85 114 145 181 225 276 330
#     4  11  22  36  57  83 112 145 181 229 284 335
#     4  11  23  38  57  80 108 145 189 235 283 332
#     4  11  22  36  55  79 110 148 186 226 276 335
#
# _framework density 18.618365000000001
#
# number of rings (size 3 to 8) (size 9 to 14) (size 15 to 20)
#    0.000    1.500    2.500    3.000    0.000    6.000 
#    0.000    2.500    0.000    0.750    0.000    0.000 
#    0.000    0.000    0.000    0.000    0.000    0.000 
#
# Total GULP energy -396806.430059 kJ/mol
# GULP energy per Si atom -12400.200939 kJ/mol
# Density = 1.857599 g / cm^3
# Si number density = 18.618365 Si / 1000 Ang^3
#
#
#
# Elastic Constant Matrix: (Units=GPa)
#
#
# Indices 1 2 3 4 5 6 
#
# 1 117.3381 37.4511 41.4711 0.0000 12.2373 0.0000
# 2 37.4511 58.2107 28.3998 0.0000 5.8253 0.0000
# 3 41.4711 28.3998 78.5253 0.0000 6.7997 0.0000
# 4 0.0000 0.0000 0.0000 29.7825 0.0000 1.9119
# 5 12.2373 5.8253 6.7997 0.0000 27.4589 0.0000
# 6 0.0000 0.0000 0.0000 1.9119 0.0000 31.5761
#
#
#
# Elastic Compliance Matrix: (Units=1/GPa)
#
#
# Indices 1 2 3 4 5 6 
#
# 1 0.012042 -0.005415 -0.004124 0.000000 -0.003196 0.000000
# 2 -0.005415 0.023480 -0.005528 0.000000 -0.001199 0.000000
# 3 -0.004124 -0.005528 0.017016 0.000000 -0.001203 0.000000
# 4 0.000000 0.000000 0.000000 0.033708 0.000000 -0.002041
# 5 -0.003196 -0.001199 -0.001203 0.000000 0.038395 0.000000
# 6 0.000000 0.000000 0.000000 -0.002041 0.000000 0.031793
#
#
# Mechanical properties :
#
#
# Convention : Reuss Voigt Hill
#
# Bulk Modulus (GPa) = 44.63722 52.07978 48.35850
# Shear Modulus (GPa) = 25.76828 27.54697 26.65762
#
# Velocity S-wave (km/s) = 3.72428 3.85068 3.78801
# Velocity P-wave (km/s) = 6.52078 6.91399 6.72026
#
# Compressibility (1/GPa) = 0.02240283
#
# Stress axis : x y z
#
# Youngs Moduli (GPa) = 83.04397 42.58927 58.76698
#
# Poissons Ratio (x) = 0.23064 0.24237
# Poissons Ratio (y) = 0.44971 0.32487
# Poissons Ratio (z) = 0.34249 0.23544
#
# Static dielectric constant tensor:
#      x y z
#    x 3.674140 0.000000 -0.033310 
#    y 0.000000 -43.413900 0.000000 
#    z -0.033310 0.000000 3.301210 
# 
# 
# High freq. dielectric constant tensor:
#      x y z
#    x 1.724760 0.000000 0.007400 
#    y 0.000000 1.730880 0.000000 
#    z 0.007400 0.000000 1.697060 
# 
# From -- ./inp_files/71647.got.cif
#   From: 2010.06.25/outbox.cif.g09.slc.cpg/sg11_36_cif.got.tgz:71647.got - 2010.06.27 23:14:04.
