data_PCOD8077962
_publ_section_title
;
Structure prediction by ZEFSAII (Michael W. Deem and Ramdas Pophale) SiO2 
 PCOD8077962
Probable space group: P 21/M
;
_chemical_formula_sum "Si O2"
_cell_formula_units_Z 12
_cell_length_a 11.140221
_cell_length_b 10.219655
_cell_length_c 6.398200
_cell_angle_alpha 90.000000
_cell_angle_beta 39.232111
_cell_angle_gamma 90.000000
_cell_volume 460.705429
_symmetry_space_group_name_H-M "P 21/M"
_symmetry_group_IT_number 11
_symmetry_cell_setting 'monoclinic'
loop_
_space_group_symop_operation_xyz
x,y,z
-x,1/2+y,-z
-x,-y,-z
x,1/2-y,z
loop_
_atom_site_type_symbol
_atom_site_label
_atom_site_fract_x
_atom_site_fract_y
_atom_site_fract_z
Si Si1 0.791661 0.492852 0.055549
Si Si2 0.543903 0.604164 0.723776
Si Si3 0.175793 0.894582 0.554369
O O1 0.646097 0.597735 0.357406
O O2 0.683168 0.419823 0.011041
O O3 0.859386 0.392315 0.146103
O O4 0.979298 0.562271 0.708851
O O5 0.575321 0.750000 0.774552
O O6 0.644669 0.492504 0.736499
O O7 0.234440 0.750000 0.400500
#
# Coordination Sequence:
#
# PCOD8077962 Si02
#       3
#     4   4   4
#     4   8  16  18  26  32  38  42  48  52  62  64
#     4   9  15  21  27  32  37  43  49  55  60  65
#     4   9  15  21  27  32  37  43  49  55  60  65
#
# _framework density 26.047011999999999
#
# number of rings (size 3 to 8) (size 9 to 14) (size 15 to 20)
#    2.000    1.333    0.000    2.000    0.000    2.667 
#    0.000    0.000    0.000    0.000    0.000    0.000 
#    0.000    0.000    0.000    0.000    0.000    0.000 
#
# Total GULP energy -148696.539995 kJ/mol
# GULP energy per Si atom -12391.378333 kJ/mol
# Density = 2.598773 g / cm^3
# Si number density = 26.047012 Si / 1000 Ang^3
#
#
#
# Elastic Constant Matrix: (Units=GPa)
#
#
# Indices 1 2 3 4 5 6 
#
# 1 116.1515 66.3441 36.3073 0.0000 -31.4367 0.0000
# 2 66.3441 231.4976 62.4326 0.0000 -41.6639 0.0000
# 3 36.3073 62.4326 136.9513 0.0000 -59.3307 0.0000
# 4 0.0000 0.0000 0.0000 -9.3704 0.0000 -21.8680
# 5 -31.4367 -41.6639 -59.3307 0.0000 55.7083 0.0000
# 6 0.0000 0.0000 0.0000 -21.8680 0.0000 27.6114
#
#
#
# Elastic Compliance Matrix: (Units=1/GPa)
#
#
# Indices 1 2 3 4 5 6 
#
# 1 0.011206 -0.002410 0.000161 0.000000 0.004692 0.000000
# 2 -0.002410 0.005623 -0.001284 0.000000 0.001477 0.000000
# 3 0.000161 -0.001284 0.013865 0.000000 0.013897 0.000000
# 4 0.000000 0.000000 0.000000 -0.037468 0.000000 -0.029674
# 5 0.004692 0.001477 0.013897 0.000000 0.036504 0.000000
# 6 0.000000 0.000000 0.000000 -0.029674 0.000000 0.012715
#
#
# Mechanical properties :
#
#
# Convention : Reuss Voigt Hill
#
# Bulk Modulus (GPa) = 42.32611 90.52984 66.42797
# Shear Modulus (GPa) = 87.12569 36.09095 61.60832
#
# Velocity S-wave (km/s) = 5.78982 3.72641 4.86868
# Velocity P-wave (km/s) = 7.80905 7.30388 7.56068
#
# Compressibility (1/GPa) = 0.02362608
#
# Stress axis : x y z
#
# Youngs Moduli (GPa) = 89.23884 177.85081 72.12269
#
# Poissons Ratio (x) = 0.42868 -0.01159
# Poissons Ratio (y) = 0.21510 0.09262
# Poissons Ratio (z) = -0.01434 0.22841
#
# Static dielectric constant tensor:
#      x y z
#    x 4.278860 0.000000 -0.246950 
#    y 0.000000 4.084680 0.000000 
#    z -0.246950 0.000000 4.473670 
# 
# 
# High freq. dielectric constant tensor:
#      x y z
#    x 2.038950 0.000000 0.001820 
#    y 0.000000 2.002900 0.000000 
#    z 0.001820 0.000000 2.077860 
# 
# From -- ./inp_files/15794.got.cif
#   From: 2010.06.25/outbox.cif.g09.slc.cpg/sg11_8_cif.got.tgz:15794.got - 2010.06.27 23:14:04.
