data_PCOD8077299
_publ_section_title
;
Structure prediction by ZEFSAII (Michael W. Deem and Ramdas Pophale) SiO2 
 PCOD8077299
Probable space group: P 21/M
;
_chemical_formula_sum "Si O2"
_cell_formula_units_Z 32
_cell_length_a 15.063755
_cell_length_b 8.526084
_cell_length_c 22.567666
_cell_angle_alpha 90.000000
_cell_angle_beta 147.994842
_cell_angle_gamma 90.000000
_cell_volume 1536.178795
_symmetry_space_group_name_H-M "P 21/M"
_symmetry_group_IT_number 11
_symmetry_cell_setting 'monoclinic'
loop_
_space_group_symop_operation_xyz
x,y,z
-x,1/2+y,-z
-x,-y,-z
x,1/2-y,z
loop_
_atom_site_type_symbol
_atom_site_label
_atom_site_fract_x
_atom_site_fract_y
_atom_site_fract_z
Si Si1 0.262845 0.569289 0.592074
Si Si2 0.420668 0.429519 0.300986
Si Si3 0.356886 0.065110 0.769478
Si Si4 0.271933 0.566709 0.999241
Si Si5 0.338825 0.932007 0.377041
Si Si6 0.830288 0.066506 0.928915
Si Si7 0.037881 0.934083 0.646235
Si Si8 0.994895 0.936115 0.755090
O O1 0.261383 0.750000 0.611486
O O2 0.384570 0.542695 0.604504
O O3 0.322494 0.465708 0.680895
O O4 0.078201 0.520374 0.467267
O O5 0.387298 0.250000 0.300603
O O6 0.358661 0.540802 0.318362
O O7 0.321126 0.471738 0.185567
O O8 0.341836 0.250000 0.772096
O O9 0.228588 0.972938 0.738564
O O10 0.539945 0.997509 0.891431
O O11 0.292106 0.750000 0.001243
O O12 0.158365 0.494952 0.882043
O O13 0.172421 0.530822 0.003129
O O14 0.326013 0.750000 0.383654
O O15 0.500000 0.000000 0.500000
O O16 0.173284 0.012516 0.307759
O O17 0.811390 0.250000 0.904323
O O18 0.000000 0.000000 0.000000
O O19 0.004617 0.750000 0.623163
O O20 0.998901 0.998029 0.690073
O O21 0.002048 0.750000 0.760694
#
# Coordination Sequence:
#
# PCOD8077299 Si02
#       8
#     4   4   4   4   4   4   4   4
#     4  11  23  40  63  91 124 160 205 261 314 374
#     4  11  23  39  61  90 124 161 203 254 312 372
#     4  11  22  40  65  91 123 162 205 256 315 375
#     4   9  20  39  63  89 122 163 205 254 308 366
#     4  12  25  41  63  92 126 166 211 258 310 371
#     4  11  21  36  59  89 123 161 207 253 307 369
#     4  11  24  40  62  91 123 162 207 258 315 376
#     4  10  22  43  66  90 125 167 211 258 310 370
#
# _framework density 20.830909999999999
#
# number of rings (size 3 to 8) (size 9 to 14) (size 15 to 20)
#    0.000    1.250    1.250    4.875    0.000    6.000 
#    0.000    1.875    0.000    0.000    0.000    0.000 
#    0.000    0.000    0.000    0.000    0.000    0.000 
#
# Total GULP energy -396923.266889 kJ/mol
# GULP energy per Si atom -12403.852090 kJ/mol
# Density = 2.078350 g / cm^3
# Si number density = 20.830910 Si / 1000 Ang^3
#
#
#
# Elastic Constant Matrix: (Units=GPa)
#
#
# Indices 1 2 3 4 5 6 
#
# 1 97.7202 13.8890 38.7390 0.0000 6.6634 0.0000
# 2 13.8890 24.5616 10.5553 0.0000 -0.3395 0.0000
# 3 38.7390 10.5553 144.3494 0.0000 4.0508 0.0000
# 4 0.0000 0.0000 0.0000 26.0281 0.0000 2.2789
# 5 6.6634 -0.3395 4.0508 0.0000 39.0202 0.0000
# 6 0.0000 0.0000 0.0000 2.2789 0.0000 26.6692
#
#
#
# Elastic Compliance Matrix: (Units=1/GPa)
#
#
# Indices 1 2 3 4 5 6 
#
# 1 0.012300 -0.005766 -0.002827 0.000000 -0.001857 0.000000
# 2 -0.005766 0.044756 -0.001769 0.000000 0.001558 0.000000
# 3 -0.002827 -0.001769 0.007825 0.000000 -0.000345 0.000000
# 4 0.000000 0.000000 0.000000 0.038710 0.000000 -0.003308
# 5 -0.001857 0.001558 -0.000345 0.000000 0.025994 0.000000
# 6 0.000000 0.000000 0.000000 -0.003308 0.000000 0.037779
#
#
# Mechanical properties :
#
#
# Convention : Reuss Voigt Hill
#
# Bulk Modulus (GPa) = 22.64634 43.66643 33.15639
# Shear Modulus (GPa) = 24.65372 31.90668 28.28020
#
# Velocity S-wave (km/s) = 3.44396 3.91794 3.68857
# Velocity P-wave (km/s) = 5.16813 6.44009 5.83885
#
# Compressibility (1/GPa) = 0.04415725
#
# Stress axis : x y z
#
# Youngs Moduli (GPa) = 81.29879 22.34316 127.78860
#
# Poissons Ratio (x) = 0.12884 0.36129
# Poissons Ratio (y) = 0.46879 0.22606
# Poissons Ratio (z) = 0.22985 0.03952
#
# Static dielectric constant tensor:
#      x y z
#    x 3.846400 0.000000 0.012310 
#    y 0.000000 3.767590 0.000000 
#    z 0.012310 0.000000 4.151330 
# 
# 
# High freq. dielectric constant tensor:
#      x y z
#    x 1.823340 0.000000 0.005580 
#    y 0.000000 1.806250 0.000000 
#    z 0.005580 0.000000 1.829490 
# 
# From -- ./inp_files/69102.got.cif
#   From: 2010.06.25/outbox.cif.g09.slc.cpg/sg11_35_cif.got.tgz:69102.got - 2010.06.27 23:14:04.
