data_PCOD8077016
_publ_section_title
;
Structure prediction by ZEFSAII (Michael W. Deem and Ramdas Pophale) SiO2 
 PCOD8077016
Probable space group: P 21/M
;
_chemical_formula_sum "Si O2"
_cell_formula_units_Z 20
_cell_length_a 13.479341
_cell_length_b 9.752908
_cell_length_c 6.647806
_cell_angle_alpha 90.000000
_cell_angle_beta 107.129589
_cell_angle_gamma 90.000000
_cell_volume 835.171981
_symmetry_space_group_name_H-M "P 21/M"
_symmetry_group_IT_number 11
_symmetry_cell_setting 'monoclinic'
loop_
_space_group_symop_operation_xyz
x,y,z
-x,1/2+y,-z
-x,-y,-z
x,1/2-y,z
loop_
_atom_site_type_symbol
_atom_site_label
_atom_site_fract_x
_atom_site_fract_y
_atom_site_fract_z
Si Si1 0.638317 0.543031 0.251778
Si Si2 0.128791 0.750000 0.094223
Si Si3 0.847743 0.013845 0.607429
Si Si4 0.902902 0.750000 0.859243
Si Si5 0.534911 0.750000 0.464186
Si Si6 0.368540 0.750000 0.675308
Si Si7 0.134039 0.750000 0.629560
Si Si8 0.316699 0.250000 0.064049
O O1 0.742406 0.542388 0.446804
O O2 0.551550 0.617842 0.333654
O O3 0.596935 0.387970 0.184271
O O4 0.660242 0.615103 0.053204
O O5 0.152643 0.750000 0.873751
O O6 0.004371 0.750000 0.059378
O O7 0.176281 0.610362 0.213325
O O8 0.914717 0.107786 0.486394
O O9 0.911939 0.881638 0.717669
O O10 0.803008 0.750000 0.941120
O O11 0.418182 0.750000 0.480839
O O12 0.612745 0.750000 0.698774
O O13 0.245064 0.750000 0.577548
#
# Coordination Sequence:
#
# PCOD8077016 Si02
#       8
#     4   2   4   2   2   2   2   2
#     4  10  22  43  64  92 129 169 212 259 319 376
#     4  11  25  44  65  94 129 162 218 259 318 382
#     4  10  22  44  62  93 124 167 208 260 317 370
#     4  12  23  42  66  95 127 171 210 265 312 372
#     4  11  21  42  65  95 128 163 214 263 318 375
#     4  10  22  38  67  94 126 168 208 264 319 369
#     4   9  23  43  63  92 130 165 208 260 315 378
#     4  11  24  41  64  92 130 167 218 259 312 376
#
# _framework density 23.947164000000001
#
# number of rings (size 3 to 8) (size 9 to 14) (size 15 to 20)
#    0.000    1.600    2.000    2.400    5.600    1.600 
#    7.200    9.000    0.000    0.000    0.000    0.000 
#    0.000    0.000    0.000    0.000    0.000    0.000 
#
# Total GULP energy -247854.527446 kJ/mol
# GULP energy per Si atom -12392.726372 kJ/mol
# Density = 2.389266 g / cm^3
# Si number density = 23.947164 Si / 1000 Ang^3
#
#
#
# Elastic Constant Matrix: (Units=GPa)
#
#
# Indices 1 2 3 4 5 6 
#
# 1 67.7993 -5.1844 18.0994 0.0000 -10.2302 0.0000
# 2 -5.1844 196.0334 42.8225 0.0000 -15.0122 0.0000
# 3 18.0994 42.8225 126.4708 0.0000 -25.0664 0.0000
# 4 0.0000 0.0000 0.0000 16.6763 0.0000 5.1984
# 5 -10.2302 -15.0122 -25.0664 0.0000 28.6999 0.0000
# 6 0.0000 0.0000 0.0000 5.1984 0.0000 11.5006
#
#
#
# Elastic Compliance Matrix: (Units=1/GPa)
#
#
# Indices 1 2 3 4 5 6 
#
# 1 0.016028 0.001172 -0.001737 0.000000 0.004809 0.000000
# 2 0.001172 0.005649 -0.001708 0.000000 0.001881 0.000000
# 3 -0.001737 -0.001708 0.010200 0.000000 0.007396 0.000000
# 4 0.000000 0.000000 0.000000 0.069801 0.000000 -0.031551
# 5 0.004809 0.001881 0.007396 0.000000 0.044001 0.000000
# 6 0.000000 0.000000 0.000000 -0.031551 0.000000 0.101213
#
#
# Mechanical properties :
#
#
# Convention : Reuss Voigt Hill
#
# Bulk Modulus (GPa) = 36.58915 55.75314 46.17115
# Shear Modulus (GPa) = 19.19024 33.67975 26.43500
#
# Velocity S-wave (km/s) = 2.83390 3.75429 3.32609
# Velocity P-wave (km/s) = 5.10101 6.49040 5.83719
#
# Compressibility (1/GPa) = 0.02733050
#
# Stress axis : x y z
#
# Youngs Moduli (GPa) = 62.38906 177.01474 98.04246
#
# Poissons Ratio (x) = -0.20741 0.17035
# Poissons Ratio (y) = -0.07310 0.16742
# Poissons Ratio (z) = 0.10840 0.30228
#
# Static dielectric constant tensor:
#      x y z
#    x 4.133040 0.000000 -0.071290 
#    y 0.000000 5.025570 0.000000 
#    z -0.071290 0.000000 4.153320 
# 
# 
# High freq. dielectric constant tensor:
#      x y z
#    x 1.927720 0.000000 -0.003190 
#    y 0.000000 1.976980 0.000000 
#    z -0.003190 0.000000 1.948500 
# 
# From -- ./inp_files/6098.got.cif
#   From: 2010.06.25/outbox.cif.g09.slc.cpg/sg11_4_cif.got.tgz:6098.got - 2010.06.27 23:14:04.
