data_PCOD8077529
_publ_section_title
;
Structure prediction by ZEFSAII (Michael W. Deem and Ramdas Pophale) SiO2 
 PCOD8077529
Probable space group: P 21/M
;
_chemical_formula_sum "Si O2"
_cell_formula_units_Z 32
_cell_length_a 11.315851
_cell_length_b 18.347155
_cell_length_c 14.735902
_cell_angle_alpha 90.000000
_cell_angle_beta 151.043894
_cell_angle_gamma 90.000000
_cell_volume 1481.163957
_symmetry_space_group_name_H-M "P 21/M"
_symmetry_group_IT_number 11
_symmetry_cell_setting 'monoclinic'
loop_
_space_group_symop_operation_xyz
x,y,z
-x,1/2+y,-z
-x,-y,-z
x,1/2-y,z
loop_
_atom_site_type_symbol
_atom_site_label
_atom_site_fract_x
_atom_site_fract_y
_atom_site_fract_z
Si Si1 0.415625 0.331804 0.905219
Si Si2 0.136754 0.666238 0.089408
Si Si3 0.296919 0.427644 0.259139
Si Si4 0.531349 0.043350 0.231887
Si Si5 0.254633 0.923728 0.324495
Si Si6 0.152260 0.894134 0.700581
Si Si7 0.851629 0.539674 0.184569
Si Si8 0.387070 0.379495 0.686828
O O1 0.314572 0.250000 0.849548
O O2 0.212076 0.387814 0.802799
O O3 0.475043 0.347852 0.841093
O O4 0.667099 0.338312 0.129198
O O5 0.064135 0.750000 0.029459
O O6 0.120674 0.644064 0.185402
O O7 0.418695 0.651374 0.253955
O O8 0.952062 0.619173 0.902857
O O9 0.414153 0.414717 0.238609
O O10 0.473689 0.401995 0.460129
O O11 0.245030 0.513019 0.241221
O O12 0.753108 0.090887 0.338911
O O13 0.633469 0.966348 0.332688
O O14 0.331144 0.027757 0.020957
O O15 0.121696 0.950279 0.326513
O O16 0.889379 0.854692 0.522211
O O17 0.158731 0.970948 0.757135
#
# Coordination Sequence:
#
# PCOD8077529 Si02
#       8
#     4   4   4   4   4   4   4   4
#     4  11  25  42  60  92 137 174 208 261 329 392
#     4  12  27  45  64  94 138 178 213 262 326 395
#     4  11  24  43  70  99 125 170 221 276 317 379
#     4  11  19  41  71  99 128 160 216 281 322 368
#     4  11  24  41  71  98 127 167 225 272 323 375
#     4  11  24  40  70  99 127 166 219 272 321 379
#     4  11  21  41  68 101 128 167 216 275 325 377
#     4  12  23  41  70  96 127 170 217 268 321 383
#
# _framework density 21.60463
#
# number of rings (size 3 to 8) (size 9 to 14) (size 15 to 20)
#    0.000    0.750    5.000    3.375    3.500    2.000 
#    0.000    0.000    0.000    0.000    0.000    0.000 
#    0.000    0.000    0.000    0.000    0.000    0.000 
#
# Total GULP energy -396894.486286 kJ/mol
# GULP energy per Si atom -12402.952696 kJ/mol
# Density = 2.155546 g / cm^3
# Si number density = 21.604630 Si / 1000 Ang^3
#
#
#
# Elastic Constant Matrix: (Units=GPa)
#
#
# Indices 1 2 3 4 5 6 
#
# 1 106.3760 25.2398 25.6003 0.0000 4.1899 0.0000
# 2 25.2398 82.4614 37.0317 0.0000 -6.9008 0.0000
# 3 25.6003 37.0317 84.9894 0.0000 15.4812 0.0000
# 4 0.0000 0.0000 0.0000 11.1014 0.0000 -1.6781
# 5 4.1899 -6.9008 15.4812 0.0000 30.1044 0.0000
# 6 0.0000 0.0000 0.0000 -1.6781 0.0000 11.7108
#
#
#
# Elastic Compliance Matrix: (Units=1/GPa)
#
#
# Indices 1 2 3 4 5 6 
#
# 1 0.010479 -0.002439 -0.001905 0.000000 -0.001038 0.000000
# 2 -0.002439 0.017374 -0.008411 0.000000 0.008647 0.000000
# 3 -0.001905 -0.008411 0.017993 0.000000 -0.010916 0.000000
# 4 0.000000 0.000000 0.000000 0.092073 0.000000 0.013194
# 5 -0.001038 0.008647 -0.010916 0.000000 0.040958 0.000000
# 6 0.000000 0.000000 0.000000 0.013194 0.000000 0.087282
#
#
# Mechanical properties :
#
#
# Convention : Reuss Voigt Hill
#
# Bulk Modulus (GPa) = 49.17096 49.95225 49.56161
# Shear Modulus (GPa) = 16.75345 22.98033 19.86689
#
# Velocity S-wave (km/s) = 2.78772 3.26494 3.03572
# Velocity P-wave (km/s) = 5.75940 6.11428 5.93949
#
# Compressibility (1/GPa) = 0.02033721
#
# Stress axis : x y z
#
# Youngs Moduli (GPa) = 95.43337 57.55683 55.57716
#
# Poissons Ratio (x) = 0.14037 0.10585
# Poissons Ratio (y) = 0.23274 0.46745
# Poissons Ratio (z) = 0.18176 0.48410
#
# Static dielectric constant tensor:
#      x y z
#    x 4.042530 0.000000 0.059530 
#    y 0.000000 3.567620 0.000000 
#    z 0.059530 0.000000 3.997230 
# 
# 
# High freq. dielectric constant tensor:
#      x y z
#    x 1.855310 0.000000 -0.001390 
#    y 0.000000 1.815070 0.000000 
#    z -0.001390 0.000000 1.862740 
# 
# From -- ./inp_files/50737.got.cif
#   From: 2010.06.25/outbox.cif.g09.slc.cpg/sg11_26_cif.got.tgz:50737.got - 2010.06.27 23:14:04.
