data_PCOD8077138
_publ_section_title
;
Structure prediction by ZEFSAII (Michael W. Deem and Ramdas Pophale) SiO2 
 PCOD8077138
Probable space group: P 21/M
;
_chemical_formula_sum "Si O2"
_cell_formula_units_Z 28
_cell_length_a 12.419285
_cell_length_b 8.837707
_cell_length_c 14.435594
_cell_angle_alpha 90.000000
_cell_angle_beta 59.585172
_cell_angle_gamma 90.000000
_cell_volume 1366.378052
_symmetry_space_group_name_H-M "P 21/M"
_symmetry_group_IT_number 11
_symmetry_cell_setting 'monoclinic'
loop_
_space_group_symop_operation_xyz
x,y,z
-x,1/2+y,-z
-x,-y,-z
x,1/2-y,z
loop_
_atom_site_type_symbol
_atom_site_label
_atom_site_fract_x
_atom_site_fract_y
_atom_site_fract_z
Si Si1 0.998851 0.572402 0.769598
Si Si2 0.455681 0.926699 0.926202
Si Si3 0.798260 0.577034 0.010780
Si Si4 0.220489 0.425233 0.771474
Si Si5 0.913287 0.071371 0.615498
Si Si6 0.472146 0.924353 0.608754
Si Si7 0.655208 0.576513 0.689831
O O1 0.006085 0.750000 0.747235
O O2 0.945435 0.492664 0.702193
O O3 0.136268 0.510766 0.732649
O O4 0.912569 0.532323 0.894982
O O5 0.461929 0.750000 0.935935
O O6 0.547922 0.980506 0.805513
O O7 0.315434 0.969995 0.964315
O O8 0.500000 0.000000 0.000000
O O9 0.757294 0.750000 0.011486
O O10 0.836812 0.551771 0.100889
O O11 0.225925 0.250000 0.741329
O O12 0.359324 0.492331 0.709764
O O13 0.932790 0.250000 0.607825
O O14 0.771730 0.033181 0.651070
O O15 0.000000 0.000000 0.500000
O O16 0.434513 0.750000 0.612235
O O17 0.599599 0.939346 0.611377
O O18 0.500000 0.000000 0.500000
O O19 0.695361 0.750000 0.692828
#
# Coordination Sequence:
#
# PCOD8077138 Si02
#       7
#     4   4   4   4   4   4   4
#     4  11  24  43  66  94 131 173 216 265 320 379
#     4  11  22  37  61  92 128 169 209 258 314 375
#     4  10  22  40  63  94 131 169 212 261 315 378
#     4  11  23  41  66  98 133 170 215 265 318 383
#     4  12  27  46  69  95 126 168 216 267 322 383
#     4  11  24  43  67  96 130 170 215 265 321 381
#     4  10  23  44  66  92 129 168 211 262 317 376
#
# _framework density 20.492132999999999
#
# number of rings (size 3 to 8) (size 9 to 14) (size 15 to 20)
#    0.000    1.143    1.429    4.286    2.000    7.429 
#    0.000    0.000    0.000    0.000    0.000    0.000 
#    0.000    0.000    0.000    0.000    0.000    0.000 
#
# Total GULP energy -347355.448982 kJ/mol
# GULP energy per Si atom -12405.551749 kJ/mol
# Density = 2.044549 g / cm^3
# Si number density = 20.492133 Si / 1000 Ang^3
#
#
#
# Elastic Constant Matrix: (Units=GPa)
#
#
# Indices 1 2 3 4 5 6 
#
# 1 119.7877 57.9444 34.8456 0.0000 3.7545 0.0000
# 2 57.9444 126.0984 55.8241 0.0000 2.2977 0.0000
# 3 34.8456 55.8241 98.2187 0.0000 15.4670 0.0000
# 4 0.0000 0.0000 0.0000 35.7281 0.0000 -1.1122
# 5 3.7545 2.2977 15.4670 0.0000 34.0536 0.0000
# 6 0.0000 0.0000 0.0000 -1.1122 0.0000 41.4444
#
#
#
# Elastic Compliance Matrix: (Units=1/GPa)
#
#
# Indices 1 2 3 4 5 6 
#
# 1 0.010871 -0.004415 -0.001299 0.000000 -0.000311 0.000000
# 2 -0.004415 0.012541 -0.005929 0.000000 0.002334 0.000000
# 3 -0.001299 -0.005929 0.014999 0.000000 -0.006269 0.000000
# 4 0.000000 0.000000 0.000000 0.028013 0.000000 0.000752
# 5 -0.000311 0.002334 -0.006269 0.000000 0.032090 0.000000
# 6 0.000000 0.000000 0.000000 0.000752 0.000000 0.024149
#
#
# Mechanical properties :
#
#
# Convention : Reuss Voigt Hill
#
# Bulk Modulus (GPa) = 66.10975 71.25921 68.68448
# Shear Modulus (GPa) = 33.11454 35.27794 34.19624
#
# Velocity S-wave (km/s) = 4.02427 4.15364 4.08946
# Velocity P-wave (km/s) = 7.34330 7.60612 7.47586
#
# Compressibility (1/GPa) = 0.01512636
#
# Stress axis : x y z
#
# Youngs Moduli (GPa) = 91.98591 79.73556 66.66960
#
# Poissons Ratio (x) = 0.35203 0.08658
# Poissons Ratio (y) = 0.40612 0.39530
# Poissons Ratio (z) = 0.11945 0.47278
#
# Static dielectric constant tensor:
#      x y z
#    x 3.671210 0.000000 0.041050 
#    y 0.000000 3.768440 0.000000 
#    z 0.041050 0.000000 3.871540 
# 
# 
# High freq. dielectric constant tensor:
#      x y z
#    x 1.811470 0.000000 0.005000 
#    y 0.000000 1.809670 0.000000 
#    z 0.005000 0.000000 1.812310 
# 
# From -- ./inp_files/49156.got.cif
#   From: 2010.06.25/outbox.cif.g09.slc.cpg/sg11_25_cif.got.tgz:49156.got - 2010.06.27 23:14:04.
