data_PCOD8077995
_publ_section_title
;
Structure prediction by ZEFSAII (Michael W. Deem and Ramdas Pophale) SiO2 
 PCOD8077995
Probable space group: P 21/M
;
_chemical_formula_sum "Si O2"
_cell_formula_units_Z 32
_cell_length_a 27.000000
_cell_length_b 9.000000
_cell_length_c 21.000000
_cell_angle_alpha 90.000000
_cell_angle_beta 160.000000
_cell_angle_gamma 90.000000
_cell_volume 1745.328791
_symmetry_space_group_name_H-M "P 21/M"
_symmetry_group_IT_number 11
_symmetry_cell_setting 'monoclinic'
loop_
_space_group_symop_operation_xyz
x,y,z
-x,1/2+y,-z
-x,-y,-z
x,1/2-y,z
loop_
_atom_site_type_symbol
_atom_site_label
_atom_site_fract_x
_atom_site_fract_y
_atom_site_fract_z
Si Si1 0.656528 0.426605 0.190603
Si Si2 0.451880 0.922409 0.635839
Si Si3 0.841308 0.929404 0.303345
Si Si4 0.382997 0.576218 0.056507
Si Si5 0.680569 0.581785 0.343230
Si Si6 0.598655 0.077514 0.568816
Si Si7 0.818959 0.580891 0.639569
Si Si8 0.078760 0.577609 0.037901
O O1 0.651337 0.250000 0.171232
O O2 0.755312 0.509386 0.259559
O O3 0.720654 0.462201 0.337732
O O4 0.500000 0.500000 0.000000
O O5 0.470444 0.750000 0.675652
O O6 0.470813 0.953517 0.584077
O O7 0.572725 0.015283 0.820386
O O8 0.288372 0.969785 0.454409
O O9 0.849263 0.750000 0.312692
O O10 0.000000 0.000000 0.500000
O O11 0.756897 0.986720 0.138265
O O12 0.344013 0.750000 0.014782
O O13 0.519080 0.550241 0.174252
O O14 0.686933 0.750000 0.323979
O O15 0.802550 0.557884 0.544234
O O16 0.602852 0.250000 0.589403
O O17 0.760273 0.010516 0.773063
O O18 0.500000 0.000000 0.500000
O O19 0.773537 0.750000 0.602464
O O20 0.984928 0.548970 0.860277
O O21 0.089098 0.750000 0.067225
O O22 0.000000 0.500000 0.000000
#
# Coordination Sequence:
#
# PCOD8077995 Si02
#       8
#     4   4   4   4   4   4   4   4
#     4  12  23  37  59  87 117 153 195 241 292 345
#     4  10  19  33  54  82 114 146 188 238 288 341
#     4  12  25  42  63  88 120 157 196 242 293 350
#     4  10  20  36  59  86 116 151 194 237 286 346
#     4   9  18  33  54  83 116 148 188 239 290 346
#     4  10  22  37  54  80 114 152 194 239 285 343
#     4   9  18  32  54  81 112 146 186 235 291 345
#     4  10  19  34  55  82 110 142 184 234 286 338
#
# _framework density 18.334654
#
# number of rings (size 3 to 8) (size 9 to 14) (size 15 to 20)
#    0.000    1.750    2.500    3.750    0.000    3.500 
#    0.000    1.250    0.000    4.500    0.000    0.000 
#    0.000    0.000    0.000    0.000    0.000    0.000 
#
# Total GULP energy -396756.155185 kJ/mol
# GULP energy per Si atom -12398.629850 kJ/mol
# Density = 1.829292 g / cm^3
# Si number density = 18.334654 Si / 1000 Ang^3
#
#
#
# Elastic Constant Matrix: (Units=GPa)
#
#
# Indices 1 2 3 4 5 6 
#
# 1 97.2163 53.2642 65.4517 0.0000 -3.1322 0.0000
# 2 53.2642 119.1668 60.5662 0.0000 -6.9627 0.0000
# 3 65.4517 60.5662 154.9343 0.0000 -6.9530 0.0000
# 4 0.0000 0.0000 0.0000 31.8717 0.0000 -2.1818
# 5 -3.1322 -6.9627 -6.9530 0.0000 28.3401 0.0000
# 6 0.0000 0.0000 0.0000 -2.1818 0.0000 32.2570
#
#
#
# Elastic Compliance Matrix: (Units=1/GPa)
#
#
# Indices 1 2 3 4 5 6 
#
# 1 0.016259 -0.004740 -0.005043 0.000000 -0.000605 0.000000
# 2 -0.004740 0.011925 -0.002580 0.000000 0.001773 0.000000
# 3 -0.005043 -0.002580 0.009646 0.000000 0.001175 0.000000
# 4 0.000000 0.000000 0.000000 0.031522 0.000000 0.002132
# 5 -0.000605 0.001773 0.001175 0.000000 0.035943 0.000000
# 6 0.000000 0.000000 0.000000 0.002132 0.000000 0.031145
#
#
# Mechanical properties :
#
#
# Convention : Reuss Voigt Hill
#
# Bulk Modulus (GPa) = 76.30622 81.09795 78.70209
# Shear Modulus (GPa) = 30.20560 31.29610 30.75085
#
# Velocity S-wave (km/s) = 4.06329 4.13599 4.09980
# Velocity P-wave (km/s) = 7.98265 8.19370 8.08886
#
# Compressibility (1/GPa) = 0.01310509
#
# Stress axis : x y z
#
# Youngs Moduli (GPa) = 61.50529 83.85874 103.67056
#
# Poissons Ratio (x) = 0.39745 0.52280
# Poissons Ratio (y) = 0.29151 0.26745
# Poissons Ratio (z) = 0.31016 0.21634
#
# Static dielectric constant tensor:
#      x y z
#    x 3.456150 0.000000 -1.021870 
#    y 0.000000 3.549660 0.000000 
#    z -1.021870 0.000000 5.094990 
# 
# 
# High freq. dielectric constant tensor:
#      x y z
#    x 1.691400 0.000000 -0.026020 
#    y 0.000000 1.721860 0.000000 
#    z -0.026020 0.000000 1.719950 
# 
# From -- ./inp_files/67299.got.cif
#   From: 2010.06.25/outbox.ucp.g09.slc.cvg/sg11_34_cif.got.tgz:67299.got - 2010.06.28 13:43:20.
