data_PCOD8077952
_publ_section_title
;
Structure prediction by ZEFSAII (Michael W. Deem and Ramdas Pophale) SiO2 
 PCOD8077952
Probable space group: P 21/M
;
_chemical_formula_sum "Si O2"
_cell_formula_units_Z 32
_cell_length_a 11.149090
_cell_length_b 19.958044
_cell_length_c 9.506075
_cell_angle_alpha 90.000000
_cell_angle_beta 115.234002
_cell_angle_gamma 90.000000
_cell_volume 1913.387083
_symmetry_space_group_name_H-M "P 21/M"
_symmetry_group_IT_number 11
_symmetry_cell_setting 'monoclinic'
loop_
_space_group_symop_operation_xyz
x,y,z
-x,1/2+y,-z
-x,-y,-z
x,1/2-y,z
loop_
_atom_site_type_symbol
_atom_site_label
_atom_site_fract_x
_atom_site_fract_y
_atom_site_fract_z
Si Si1 0.145231 0.079207 0.906185
Si Si2 0.337326 0.328398 0.507891
Si Si3 0.337326 0.328398 0.829435
Si Si4 0.145232 0.079207 0.239046
Si Si5 0.364608 0.675617 0.349723
Si Si6 0.364608 0.824383 0.014884
Si Si7 0.153415 0.571246 0.910005
Si Si8 0.153415 0.571245 0.243410
O O1 0.237078 0.132589 0.877559
O O2 0.993815 0.092635 0.782399
O O3 0.186482 0.004361 0.877989
O O4 0.160698 0.087679 0.080349
O O5 0.308366 0.250000 0.478009
O O6 0.317372 0.351418 0.658686
O O7 0.237078 0.367411 0.359519
O O8 0.486682 0.344789 0.531177
O O9 0.308367 0.250000 0.830357
O O10 0.486682 0.344789 0.955505
O O11 0.993815 0.092635 0.211416
O O12 0.186482 0.004362 0.308494
O O13 0.329965 0.750000 0.389874
O O14 0.356373 0.676633 0.178187
O O15 0.260733 0.622448 0.363250
O O16 0.329965 0.750000 0.940091
O O17 0.260733 0.877552 0.897483
O O18 0.159821 0.573744 0.079911
#
# Coordination Sequence:
#
# PCOD8077952 Si02
#       8
#     4   4   4   4   4   4   4   4
#     4   9  17  29  46  68  92 115 141 180 225 261
#     4   9  18  31  45  63  88 116 147 183 218 255
#     4   9  18  31  45  63  88 116 147 183 218 255
#     4   9  17  29  46  68  92 115 141 180 225 261
#     4   8  14  26  44  63  84 115 152 182 210 254
#     4   8  14  26  44  63  84 115 152 182 210 254
#     4   8  15  28  44  65  92 116 143 181 218 255
#     4   8  15  28  44  65  92 116 143 181 218 255
#
# _framework density 16.724270000000001
#
# number of rings (size 3 to 8) (size 9 to 14) (size 15 to 20)
#    0.000    3.500    0.000    3.000    0.000    2.500 
#    0.000    5.000    0.000    1.500    0.000    0.000 
#    0.000    0.000    0.000    0.000    0.000    0.000 
#
# Total GULP energy -396597.757437 kJ/mol
# GULP energy per Si atom -12393.679920 kJ/mol
# Density = 1.668620 g / cm^3
# Si number density = 16.724270 Si / 1000 Ang^3
#
#
#
# Elastic Constant Matrix: (Units=GPa)
#
#
# Indices 1 2 3 4 5 6 
#
# 1 101.6778 70.9199 35.1391 0.0000 21.2259 0.0000
# 2 70.9199 94.7073 45.3578 0.0000 22.1377 0.0000
# 3 35.1391 45.3578 53.0126 0.0000 20.9196 0.0000
# 4 0.0000 0.0000 0.0000 26.9942 0.0000 8.0149
# 5 21.2259 22.1377 20.9196 0.0000 21.2799 0.0000
# 6 0.0000 0.0000 0.0000 8.0149 0.0000 36.2491
#
#
#
# Elastic Compliance Matrix: (Units=1/GPa)
#
#
# Indices 1 2 3 4 5 6 
#
# 1 0.021233 -0.014978 0.001552 0.000000 -0.007123 0.000000
# 2 -0.014978 0.028908 -0.014433 0.000000 -0.000945 0.000000
# 3 0.001552 -0.014433 0.040632 0.000000 -0.026477 0.000000
# 4 0.000000 0.000000 0.000000 0.039648 0.000000 -0.008766
# 5 -0.007123 -0.000945 -0.026477 0.000000 0.081109 0.000000
# 6 0.000000 0.000000 0.000000 -0.008766 0.000000 0.029525
#
#
# Mechanical properties :
#
#
# Convention : Reuss Voigt Hill
#
# Bulk Modulus (GPa) = 28.52672 61.35904 44.94288
# Shear Modulus (GPa) = 16.20967 23.43671 19.82319
#
# Velocity S-wave (km/s) = 3.11662 3.74753 3.44655
# Velocity P-wave (km/s) = 5.48135 7.44940 6.53983
#
# Compressibility (1/GPa) = 0.03505485
#
# Stress axis : x y z
#
# Youngs Moduli (GPa) = 47.09705 34.59237 24.61119
#
# Poissons Ratio (x) = 0.51813 -0.03820
# Poissons Ratio (y) = 0.70543 0.35521
# Poissons Ratio (z) = -0.07310 0.49927
#
# Static dielectric constant tensor:
#      x y z
#    x 3.181190 0.000000 0.325660 
#    y 0.000000 3.437010 0.000000 
#    z 0.325660 0.000000 2.805150 
# 
# 
# High freq. dielectric constant tensor:
#      x y z
#    x 1.636560 0.000000 0.027380 
#    y 0.000000 1.650420 0.000000 
#    z 0.027380 0.000000 1.604950 
# 
# From -- ./inp_files/35926.got.cif
#   From: 2010.06.25/outbox.cif.g09.slc.cpg/sg11_18_cif.got.tgz:35926.got - 2010.06.27 23:14:04.
