data_PCOD8077220
_publ_section_title
;
Structure prediction by ZEFSAII (Michael W. Deem and Ramdas Pophale) SiO2 
 PCOD8077220
Probable space group: P 21/M
;
_chemical_formula_sum "Si O2"
_cell_formula_units_Z 28
_cell_length_a 19.405165
_cell_length_b 13.934308
_cell_length_c 8.605994
_cell_angle_alpha 90.000000
_cell_angle_beta 32.240926
_cell_angle_gamma 90.000000
_cell_volume 1241.430444
_symmetry_space_group_name_H-M "P 21/M"
_symmetry_group_IT_number 11
_symmetry_cell_setting 'monoclinic'
loop_
_space_group_symop_operation_xyz
x,y,z
-x,1/2+y,-z
-x,-y,-z
x,1/2-y,z
loop_
_atom_site_type_symbol
_atom_site_label
_atom_site_fract_x
_atom_site_fract_y
_atom_site_fract_z
Si Si1 0.036247 0.863350 0.888378
Si Si2 0.524580 0.895677 0.891424
Si Si3 0.789665 0.858406 0.543880
Si Si4 0.057687 0.637783 0.491581
Si Si5 0.187669 0.450111 0.181089
Si Si6 0.696299 0.355445 0.478802
Si Si7 0.403561 0.023177 0.547878
O O1 0.032444 0.750000 0.906141
O O2 0.024706 0.892961 0.730600
O O3 0.170748 0.900411 0.706849
O O4 0.912816 0.905962 0.218041
O O5 0.663423 0.856224 0.677904
O O6 0.528996 0.899838 0.695418
O O7 0.404365 0.835466 0.186766
O O8 0.500000 0.000000 0.000000
O O9 0.824818 0.750000 0.524362
O O10 0.754748 0.919148 0.762939
O O11 0.097659 0.750000 0.399141
O O12 0.169716 0.566027 0.219108
O O13 0.938619 0.613854 0.606318
O O14 0.281656 0.425720 0.859757
O O15 0.721487 0.250000 0.355779
O O16 0.637829 0.426397 0.462875
O O17 0.500000 0.000000 0.500000
#
# Coordination Sequence:
#
# PCOD8077220 Si02
#       7
#     4   4   4   4   4   4   4
#     4   9  21  39  65  95 125 164 217 277 327 384
#     4  10  22  41  65  89 125 170 220 273 315 394
#     4  11  23  42  68  96 131 175 225 277 331 399
#     4  10  23  41  61  94 135 170 217 270 330 402
#     4  11  24  39  65  97 131 181 211 266 342 393
#     4  10  22  42  68  95 124 170 223 277 331 390
#     4  11  25  42  62  94 132 170 214 271 332 400
#
# _framework density 22.554627
#
# number of rings (size 3 to 8) (size 9 to 14) (size 15 to 20)
#    0.000    1.714    0.000    3.429   10.000    1.143 
#    0.000    4.286    0.000    0.000    0.000    0.000 
#    0.000    0.000    0.000    0.000    0.000    0.000 
#
# Total GULP energy -347101.903947 kJ/mol
# GULP energy per Si atom -12396.496570 kJ/mol
# Density = 2.250329 g / cm^3
# Si number density = 22.554627 Si / 1000 Ang^3
#
#
#
# Elastic Constant Matrix: (Units=GPa)
#
#
# Indices 1 2 3 4 5 6 
#
# 1 122.9015 27.0052 37.5288 0.0000 6.8639 0.0000
# 2 27.0052 66.5024 7.4913 0.0000 -0.4853 0.0000
# 3 37.5288 7.4913 141.3279 0.0000 4.5327 0.0000
# 4 0.0000 0.0000 0.0000 22.8625 0.0000 2.7318
# 5 6.8639 -0.4853 4.5327 0.0000 41.6317 0.0000
# 6 0.0000 0.0000 0.0000 2.7318 0.0000 32.6136
#
#
#
# Elastic Compliance Matrix: (Units=1/GPa)
#
#
# Indices 1 2 3 4 5 6 
#
# 1 0.009745 -0.003703 -0.002347 0.000000 -0.001394 0.000000
# 2 -0.003703 0.016537 0.000081 0.000000 0.000794 0.000000
# 3 -0.002347 0.000081 0.007709 0.000000 -0.000451 0.000000
# 4 0.000000 0.000000 0.000000 0.044182 0.000000 -0.003701
# 5 -0.001394 0.000794 -0.000451 0.000000 0.024308 0.000000
# 6 0.000000 0.000000 0.000000 -0.003701 0.000000 0.030972
#
#
# Mechanical properties :
#
#
# Convention : Reuss Voigt Hill
#
# Bulk Modulus (GPa) = 45.34243 52.75361 49.04802
# Shear Modulus (GPa) = 32.73499 36.66866 34.70183
#
# Velocity S-wave (km/s) = 3.81381 4.03646 3.92671
# Velocity P-wave (km/s) = 6.28813 6.72042 6.50787
#
# Compressibility (1/GPa) = 0.02205440
#
# Stress axis : x y z
#
# Youngs Moduli (GPa) = 102.62010 60.46905 129.71756
#
# Poissons Ratio (x) = 0.22391 0.30440
# Poissons Ratio (y) = 0.38000 -0.01054
# Poissons Ratio (z) = 0.24081 -0.00491
#
# Static dielectric constant tensor:
#      x y z
#    x 4.084660 0.000000 0.000290 
#    y 0.000000 4.014470 0.000000 
#    z 0.000290 0.000000 5.939550 
# 
# 
# High freq. dielectric constant tensor:
#      x y z
#    x 1.888470 0.000000 0.001190 
#    y 0.000000 1.885730 0.000000 
#    z 0.001190 0.000000 1.894790 
# 
# From -- ./inp_files/26910.got.cif
#   From: 2010.06.25/outbox.cif.g09.slc.cpg/sg11_14_cif.got.tgz:26910.got - 2010.06.27 23:14:04.
