data_PCOD8077081
_publ_section_title
;
Structure prediction by ZEFSAII (Michael W. Deem and Ramdas Pophale) SiO2 
 PCOD8077081
Probable space group: P 21/M
;
_chemical_formula_sum "Si O2"
_cell_formula_units_Z 32
_cell_length_a 19.160800
_cell_length_b 11.907070
_cell_length_c 19.648835
_cell_angle_alpha 90.000000
_cell_angle_beta 159.611263
_cell_angle_gamma 90.000000
_cell_volume 1561.774328
_symmetry_space_group_name_H-M "P 21/M"
_symmetry_group_IT_number 11
_symmetry_cell_setting 'monoclinic'
loop_
_space_group_symop_operation_xyz
x,y,z
-x,1/2+y,-z
-x,-y,-z
x,1/2-y,z
loop_
_atom_site_type_symbol
_atom_site_label
_atom_site_fract_x
_atom_site_fract_y
_atom_site_fract_z
Si Si1 0.334749 0.527398 0.681360
Si Si2 0.598766 0.119381 0.117331
Si Si3 0.032763 0.623379 0.638471
Si Si4 0.288529 0.877682 0.000251
Si Si5 0.776813 0.373664 0.561079
Si Si6 0.329489 0.126487 0.387003
Si Si7 0.588649 0.560038 0.686233
Si Si8 0.054451 0.973749 0.903313
O O1 0.405978 0.612210 0.805388
O O2 0.248308 0.598164 0.540592
O O3 0.162972 0.448909 0.555804
O O4 0.514660 0.452883 0.816961
O O5 0.513454 0.250000 0.020978
O O6 0.824177 0.115942 0.295998
O O7 0.500000 0.000000 0.000000
O O8 0.960212 0.750000 0.585398
O O9 0.147332 0.578524 0.810309
O O10 0.353277 0.750000 0.045162
O O11 0.178068 0.883481 0.972194
O O12 0.865892 0.250000 0.647636
O O13 0.563627 0.376065 0.404053
O O14 0.941368 0.451078 0.745347
O O15 0.342875 0.250000 0.430008
O O16 0.376604 0.130768 0.350168
O O17 0.104716 0.082094 0.191762
O O18 0.496504 0.059813 0.581532
O O19 0.799088 0.547109 0.916442
#
# Coordination Sequence:
#
# PCOD8077081 Si02
#       8
#     4   4   4   4   4   4   4   4
#     4  12  22  42  64  93 126 166 212 260 320 373
#     4  11  24  43  68  97 131 169 217 267 321 385
#     4  10  22  41  64  94 127 165 211 261 316 381
#     4  11  22  38  63  93 128 165 207 262 319 375
#     4  11  24  40  61  89 125 165 211 258 314 379
#     4  10  22  39  63  92 123 159 205 258 313 372
#     4  10  22  42  62  88 125 163 207 254 312 376
#     4  11  22  42  60  93 124 161 210 261 309 377
#
# _framework density 20.489515999999998
#
# number of rings (size 3 to 8) (size 9 to 14) (size 15 to 20)
#    0.000    1.250    3.750    2.250    0.000    2.500 
#    0.000    2.500    0.000    0.000    0.000    0.000 
#    0.000    0.000    0.000    0.000    0.000    0.000 
#
# Total GULP energy -396669.144722 kJ/mol
# GULP energy per Si atom -12395.910773 kJ/mol
# Density = 2.044288 g / cm^3
# Si number density = 20.489516 Si / 1000 Ang^3
#
#
#
# Elastic Constant Matrix: (Units=GPa)
#
#
# Indices 1 2 3 4 5 6 
#
# 1 99.4186 19.2642 19.9913 0.0000 1.1198 0.0000
# 2 19.2642 109.1902 23.5957 0.0000 1.2158 0.0000
# 3 19.9913 23.5957 71.8217 0.0000 0.7800 0.0000
# 4 0.0000 0.0000 0.0000 15.0564 0.0000 4.6754
# 5 1.1198 1.2158 0.7800 0.0000 35.8116 0.0000
# 6 0.0000 0.0000 0.0000 4.6754 0.0000 13.2981
#
#
#
# Elastic Compliance Matrix: (Units=1/GPa)
#
#
# Indices 1 2 3 4 5 6 
#
# 1 0.010840 -0.001355 -0.002570 0.000000 -0.000237 0.000000
# 2 -0.001355 0.010030 -0.002916 0.000000 -0.000235 0.000000
# 3 -0.002570 -0.002916 0.015598 0.000000 -0.000160 0.000000
# 4 0.000000 0.000000 0.000000 0.074557 0.000000 -0.026213
# 5 -0.000237 -0.000235 -0.000160 0.000000 0.027943 0.000000
# 6 0.000000 0.000000 0.000000 -0.026213 0.000000 0.084415
#
#
# Mechanical properties :
#
#
# Convention : Reuss Voigt Hill
#
# Bulk Modulus (GPa) = 43.88132 45.12586 44.50359
# Shear Modulus (GPa) = 20.43661 27.33851 23.88756
#
# Velocity S-wave (km/s) = 3.16162 3.65673 3.41815
# Velocity P-wave (km/s) = 5.89837 6.31669 6.11111
#
# Compressibility (1/GPa) = 0.02278874
#
# Stress axis : x y z
#
# Youngs Moduli (GPa) = 92.24789 99.70115 64.10974
#
# Poissons Ratio (x) = 0.13505 0.16475
# Poissons Ratio (y) = 0.12496 0.18692
# Poissons Ratio (z) = 0.23706 0.29069
#
# Static dielectric constant tensor:
#      x y z
#    x 3.835480 0.000000 0.050980 
#    y 0.000000 3.874510 0.000000 
#    z 0.050980 0.000000 3.590360 
# 
# 
# High freq. dielectric constant tensor:
#      x y z
#    x 1.817010 0.000000 0.001970 
#    y 0.000000 1.800860 0.000000 
#    z 0.001970 0.000000 1.791690 
# 
# From -- ./inp_files/66577.got.cif
#   From: 2010.06.25/outbox.cif.g09.slc.cpg/sg11_34_cif.got.tgz:66577.got - 2010.06.27 23:14:04.
