data_PCOD8077985
_publ_section_title
;
Structure prediction by ZEFSAII (Michael W. Deem and Ramdas Pophale) SiO2 
 PCOD8077985
Probable space group: P 21/M
;
_chemical_formula_sum "Si O2"
_cell_formula_units_Z 32
_cell_length_a 27.000000
_cell_length_b 9.000000
_cell_length_c 21.000000
_cell_angle_alpha 90.000000
_cell_angle_beta 20.000000
_cell_angle_gamma 90.000000
_cell_volume 1745.328791
_symmetry_space_group_name_H-M "P 21/M"
_symmetry_group_IT_number 11
_symmetry_cell_setting 'monoclinic'
loop_
_space_group_symop_operation_xyz
x,y,z
-x,1/2+y,-z
-x,-y,-z
x,1/2-y,z
loop_
_atom_site_type_symbol
_atom_site_label
_atom_site_fract_x
_atom_site_fract_y
_atom_site_fract_z
Si Si1 0.893644 0.577453 0.676048
Si Si2 0.407510 0.921224 0.812726
Si Si3 0.882660 0.425680 0.905031
Si Si4 0.082188 0.923952 0.569812
Si Si5 0.269701 0.419967 0.807299
Si Si6 0.404689 0.923750 0.954968
Si Si7 0.611559 0.924874 0.817216
Si Si8 0.453679 0.079463 0.477010
O O1 0.886947 0.750000 0.668528
O O2 0.000000 0.500000 0.500000
O O3 0.954203 0.547041 0.673641
O O4 0.736673 0.510342 0.851228
O O5 0.374746 0.750000 0.863148
O O6 0.442034 0.989537 0.839861
O O7 0.547193 0.946932 0.598406
O O8 0.259627 0.985692 0.960499
O O9 0.904622 0.250000 0.876408
O O10 0.025857 0.502911 0.703538
O O11 0.856922 0.478051 0.009579
O O12 0.112530 0.750000 0.542688
O O13 0.230817 0.001006 0.367937
O O14 0.233654 0.250000 0.867944
O O15 0.429859 0.462016 0.638027
O O16 0.293078 0.443316 0.702165
O O17 0.366021 0.750000 0.002951
O O18 0.545545 0.955225 0.827200
O O19 0.625231 0.750000 0.815597
O O20 0.500000 0.000000 0.000000
O O21 0.507125 0.250000 0.425639
#
# Coordination Sequence:
#
# PCOD8077985 Si02
#       8
#     4   4   4   4   4   4   4   4
#     4  11  23  36  54  79 104 131 167 209 259 315
#     4   8  14  27  48  72  99 131 168 209 252 302
#     4  10  18  30  50  73 101 137 173 210 259 310
#     4  11  23  38  55  78 106 136 173 216 262 311
#     4   9  15  23  38  64 101 136 169 209 249 298
#     4  10  20  36  56  78 103 134 172 214 259 308
#     4  11  24  40  58  78 103 137 176 216 262 313
#     4   8  14  24  39  63  96 137 174 203 249 305
#
# _framework density 18.334654
#
# number of rings (size 3 to 8) (size 9 to 14) (size 15 to 20)
#    0.000    2.250    1.250    3.375    0.000    6.000 
#    0.000    0.000    0.000    0.000    0.000    0.875 
#    0.000    0.000    0.000    0.000    0.000    0.000 
#
# Total GULP energy -396480.809011 kJ/mol
# GULP energy per Si atom -12390.025282 kJ/mol
# Density = 1.829292 g / cm^3
# Si number density = 18.334654 Si / 1000 Ang^3
#
#
#
# Elastic Constant Matrix: (Units=GPa)
#
#
# Indices 1 2 3 4 5 6 
#
# 1 40.3288 23.9653 20.1374 0.0000 13.5169 0.0000
# 2 23.9653 92.8875 42.2662 0.0000 6.7091 0.0000
# 3 20.1374 42.2662 85.8050 0.0000 23.8784 0.0000
# 4 0.0000 0.0000 0.0000 33.1731 0.0000 2.9068
# 5 13.5169 6.7091 23.8784 0.0000 36.2880 0.0000
# 6 0.0000 0.0000 0.0000 2.9068 0.0000 19.1291
#
#
#
# Elastic Compliance Matrix: (Units=1/GPa)
#
#
# Indices 1 2 3 4 5 6 
#
# 1 0.033154 -0.007168 -0.001447 0.000000 -0.010072 0.000000
# 2 -0.007168 0.015593 -0.007271 0.000000 0.004572 0.000000
# 3 -0.001447 -0.007271 0.018426 0.000000 -0.010241 0.000000
# 4 0.000000 0.000000 0.000000 0.030552 0.000000 -0.004642
# 5 -0.010072 0.004572 -0.010241 0.000000 0.037203 0.000000
# 6 0.000000 0.000000 0.000000 -0.004642 0.000000 0.052982
#
#
# Mechanical properties :
#
#
# Convention : Reuss Voigt Hill
#
# Bulk Modulus (GPa) = 28.24790 43.52879 35.88835
# Shear Modulus (GPa) = 21.59997 26.56153 24.08075
#
# Velocity S-wave (km/s) = 3.43606 3.81032 3.62802
# Velocity P-wave (km/s) = 5.58411 6.56893 6.09644
#
# Compressibility (1/GPa) = 0.03540086
#
# Stress axis : x y z
#
# Youngs Moduli (GPa) = 30.16214 64.12980 54.27256
#
# Poissons Ratio (x) = 0.45968 0.07854
# Poissons Ratio (y) = 0.21620 0.39462
# Poissons Ratio (z) = 0.04365 0.46629
#
# Static dielectric constant tensor:
#      x y z
#    x 3.551870 0.000000 0.403400 
#    y 0.000000 3.467250 0.000000 
#    z 0.403400 0.000000 3.424900 
# 
# 
# High freq. dielectric constant tensor:
#      x y z
#    x 1.681570 0.000000 0.040430 
#    y 0.000000 1.712970 0.000000 
#    z 0.040430 0.000000 1.705070 
# 
# From -- ./inp_files/66975.got.cif
#   From: 2010.06.25/outbox.ucp.g09.slc.cvg/sg11_34_cif.got.tgz:66975.got - 2010.06.28 13:43:20.
