data_PCOD8077373
_publ_section_title
;
Structure prediction by ZEFSAII (Michael W. Deem and Ramdas Pophale) SiO2 
 PCOD8077373
Probable space group: P 21/M
;
_chemical_formula_sum "Si O2"
_cell_formula_units_Z 24
_cell_length_a 11.859347
_cell_length_b 13.939706
_cell_length_c 14.437916
_cell_angle_alpha 90.000000
_cell_angle_beta 151.499999
_cell_angle_gamma 90.000000
_cell_volume 1138.890098
_symmetry_space_group_name_H-M "P 21/M"
_symmetry_group_IT_number 11
_symmetry_cell_setting 'monoclinic'
loop_
_space_group_symop_operation_xyz
x,y,z
-x,1/2+y,-z
-x,-y,-z
x,1/2-y,z
loop_
_atom_site_type_symbol
_atom_site_label
_atom_site_fract_x
_atom_site_fract_y
_atom_site_fract_z
Si Si1 0.272627 0.479787 0.712796
Si Si2 0.375210 0.135009 0.967965
Si Si3 0.505751 0.889326 0.489520
Si Si4 0.012527 0.144090 0.854567
Si Si5 0.030503 0.357233 0.066175
Si Si6 0.533590 0.141143 0.753481
O O1 0.317259 0.400263 0.823351
O O2 0.373110 0.434964 0.690801
O O3 0.000000 0.500000 0.500000
O O4 0.392447 0.581610 0.825104
O O5 0.416722 0.250000 0.996807
O O6 0.154492 0.097769 0.871745
O O7 0.732758 0.849628 0.705440
O O8 0.530792 0.860313 0.401416
O O9 0.268530 0.849694 0.366787
O O10 0.500000 0.000000 0.500000
O O11 0.122762 0.250000 0.940812
O O12 0.057169 0.087871 0.985438
O O13 0.949729 0.250000 0.978850
O O14 0.806513 0.395599 0.963377
O O15 0.495033 0.250000 0.763096
#
# Coordination Sequence:
#
# PCOD8077373 Si02
#       6
#     4   4   4   4   4   4
#     4  11  26  43  69  95 127 167 226 273 325 383
#     4  10  24  45  67  93 129 169 214 271 329 383
#     4  11  23  32  60  94 127 162 205 257 314 382
#     4   9  20  38  60  87 123 160 201 251 309 380
#     4   9  19  37  59  85 120 165 203 247 312 377
#     4  10  23  42  62  90 129 168 213 265 318 382
#
# _framework density 21.073149000000001
#
# number of rings (size 3 to 8) (size 9 to 14) (size 15 to 20)
#    0.000    2.000    0.000    3.000    7.000    4.000 
#    0.000    3.333    0.000    0.000    0.000    0.000 
#    0.000    0.000    0.000    0.000    0.000    0.000 
#
# Total GULP energy -297414.477807 kJ/mol
# GULP energy per Si atom -12392.269909 kJ/mol
# Density = 2.102519 g / cm^3
# Si number density = 21.073149 Si / 1000 Ang^3
#
#
#
# Elastic Constant Matrix: (Units=GPa)
#
#
# Indices 1 2 3 4 5 6 
#
# 1 119.6641 32.3611 56.5042 0.0000 22.7356 0.0000
# 2 32.3611 108.9116 24.6983 0.0000 7.4027 0.0000
# 3 56.5042 24.6983 170.0665 0.0000 18.8996 0.0000
# 4 0.0000 0.0000 0.0000 14.4887 0.0000 8.6237
# 5 22.7356 7.4027 18.8996 0.0000 25.8782 0.0000
# 6 0.0000 0.0000 0.0000 8.6237 0.0000 27.1189
#
#
#
# Elastic Compliance Matrix: (Units=1/GPa)
#
#
# Indices 1 2 3 4 5 6 
#
# 1 0.011723 -0.002350 -0.002703 0.000000 -0.007653 0.000000
# 2 -0.002350 0.010049 -0.000641 0.000000 -0.000342 0.000000
# 3 -0.002703 -0.000641 0.007169 0.000000 -0.002677 0.000000
# 4 0.000000 0.000000 0.000000 0.085132 0.000000 -0.027072
# 5 -0.007653 -0.000342 -0.002677 0.000000 0.047419 0.000000
# 6 0.000000 0.000000 0.000000 -0.027072 0.000000 0.045483
#
#
# Mechanical properties :
#
#
# Convention : Reuss Voigt Hill
#
# Bulk Modulus (GPa) = 56.97162 69.52992 63.25077
# Shear Modulus (GPa) = 22.30023 32.50241 27.40132
#
# Velocity S-wave (km/s) = 3.25657 3.93155 3.60987
# Velocity P-wave (km/s) = 6.42139 7.32637 6.88875
#
# Compressibility (1/GPa) = 0.01755260
#
# Stress axis : x y z
#
# Youngs Moduli (GPa) = 85.30550 99.51710 139.49502
#
# Poissons Ratio (x) = 0.23387 0.37707
# Poissons Ratio (y) = 0.20047 0.08935
# Poissons Ratio (z) = 0.23059 0.06374
#
# Static dielectric constant tensor:
#      x y z
#    x 3.779460 0.000000 0.155940 
#    y 0.000000 3.828090 0.000000 
#    z 0.155940 0.000000 3.360260 
# 
# 
# High freq. dielectric constant tensor:
#      x y z
#    x 1.829460 0.000000 0.004850 
#    y 0.000000 1.834700 0.000000 
#    z 0.004850 0.000000 1.821340 
# 
# From -- ./inp_files/50438.got.cif
#   From: 2010.06.25/outbox.cif.g09.slc.cpg/sg11_26_cif.got.tgz:50438.got - 2010.06.27 23:14:04.
