data_PCOD8077213
_publ_section_title
;
Structure prediction by ZEFSAII (Michael W. Deem and Ramdas Pophale) SiO2 
 PCOD8077213
Probable space group: P 21/M
;
_chemical_formula_sum "Si O2"
_cell_formula_units_Z 28
_cell_length_a 6.994304
_cell_length_b 18.423534
_cell_length_c 12.079587
_cell_angle_alpha 90.000000
_cell_angle_beta 124.106536
_cell_angle_gamma 90.000000
_cell_volume 1288.836913
_symmetry_space_group_name_H-M "P 21/M"
_symmetry_group_IT_number 11
_symmetry_cell_setting 'monoclinic'
loop_
_space_group_symop_operation_xyz
x,y,z
-x,1/2+y,-z
-x,-y,-z
x,1/2-y,z
loop_
_atom_site_type_symbol
_atom_site_label
_atom_site_fract_x
_atom_site_fract_y
_atom_site_fract_z
Si Si1 0.983626 0.888638 0.523055
Si Si2 0.460054 0.833048 0.630732
Si Si3 0.828189 0.427667 0.842247
Si Si4 0.531047 0.529859 0.890899
Si Si5 0.040364 0.482922 0.685698
Si Si6 0.777741 0.834965 0.928228
Si Si7 0.512718 0.668044 0.404368
O O1 0.787666 0.827485 0.470814
O O2 0.243441 0.861414 0.633166
O O3 0.897732 0.952689 0.578857
O O4 0.986863 0.910580 0.394648
O O5 0.414178 0.750000 0.594221
O O6 0.704360 0.844166 0.774763
O O7 0.472945 0.867922 0.512841
O O8 0.744900 0.492186 0.895617
O O9 0.611199 0.384014 0.723760
O O10 0.974241 0.465905 0.791142
O O11 0.974479 0.369253 0.961523
O O12 0.298576 0.512812 0.751067
O O13 0.584147 0.615678 0.926116
O O14 0.500000 0.500000 0.000000
O O15 0.766022 0.750000 0.960594
O O16 0.415363 0.750000 0.362303
#
# Coordination Sequence:
#
# PCOD8077213 Si02
#       7
#     4   4   4   4   4   4   4
#     4  11  22  40  65  99 132 169 225 282 335 403
#     4  10  22  41  64  93 136 177 216 277 341 401
#     4  12  25  45  71  98 136 179 230 286 333 407
#     4  12  25  45  70  99 134 177 230 280 342 403
#     4  11  24  39  67 100 130 173 227 279 340 396
#     4  11  25  46  69  98 139 182 223 279 349 405
#     4  11  24  41  67 100 135 178 229 280 341 401
#
# _framework density 21.725014000000002
#
# number of rings (size 3 to 8) (size 9 to 14) (size 15 to 20)
#    0.000    0.857    5.714    1.286    2.000    0.571 
#    0.000    2.857    0.000    0.000    0.000    0.000 
#    0.000    0.000    0.000    0.000    0.000    0.000 
#
# Total GULP energy -346926.728430 kJ/mol
# GULP energy per Si atom -12390.240301 kJ/mol
# Density = 2.167557 g / cm^3
# Si number density = 21.725014 Si / 1000 Ang^3
#
#
#
# Elastic Constant Matrix: (Units=GPa)
#
#
# Indices 1 2 3 4 5 6 
#
# 1 106.8258 36.2189 41.3088 0.0000 5.9685 0.0000
# 2 36.2189 103.8673 43.2363 0.0000 -1.9751 0.0000
# 3 41.3088 43.2363 104.8772 0.0000 4.3825 0.0000
# 4 0.0000 0.0000 0.0000 28.1830 0.0000 3.1509
# 5 5.9685 -1.9751 4.3825 0.0000 29.4034 0.0000
# 6 0.0000 0.0000 0.0000 3.1509 0.0000 29.0685
#
#
#
# Elastic Compliance Matrix: (Units=1/GPa)
#
#
# Indices 1 2 3 4 5 6 
#
# 1 0.011712 -0.002702 -0.003413 0.000000 -0.002050 0.000000
# 2 -0.002702 0.012312 -0.004094 0.000000 0.001986 0.000000
# 3 -0.003413 -0.004094 0.012629 0.000000 -0.001464 0.000000
# 4 0.000000 0.000000 0.000000 0.035918 0.000000 -0.003893
# 5 -0.002050 0.001986 -0.001464 0.000000 0.034777 0.000000
# 6 0.000000 0.000000 0.000000 -0.003893 0.000000 0.034824
#
#
# Mechanical properties :
#
#
# Convention : Reuss Voigt Hill
#
# Bulk Modulus (GPa) = 61.60445 61.89980 61.75212
# Shear Modulus (GPa) = 29.76170 30.31807 30.03989
#
# Velocity S-wave (km/s) = 3.70527 3.73974 3.72255
# Velocity P-wave (km/s) = 6.83545 6.87036 6.85293
#
# Compressibility (1/GPa) = 0.01623259
#
# Stress axis : x y z
#
# Youngs Moduli (GPa) = 85.38540 81.22167 79.18574
#
# Poissons Ratio (x) = 0.21946 0.27029
# Poissons Ratio (y) = 0.23071 0.32422
# Poissons Ratio (z) = 0.29145 0.33255
#
# Static dielectric constant tensor:
#      x y z
#    x 4.191970 0.000000 0.310080 
#    y 0.000000 4.107620 0.000000 
#    z 0.310080 0.000000 3.992180 
# 
# 
# High freq. dielectric constant tensor:
#      x y z
#    x 1.837170 0.000000 0.013290 
#    y 0.000000 1.854360 0.000000 
#    z 0.013290 0.000000 1.870250 
# 
# From -- ./inp_files/30014.got.cif
#   From: 2010.06.25/outbox.cif.g09.slc.cpg/sg11_16_cif.got.tgz:30014.got - 2010.06.27 23:14:04.
