data_PCOD8077701
_publ_section_title
;
Structure prediction by ZEFSAII (Michael W. Deem and Ramdas Pophale) SiO2 
 PCOD8077701
Probable space group: P 21/M
;
_chemical_formula_sum "Si O2"
_cell_formula_units_Z 20
_cell_length_a 27.105193
_cell_length_b 9.117880
_cell_length_c 9.582181
_cell_angle_alpha 90.000000
_cell_angle_beta 152.148484
_cell_angle_gamma 90.000000
_cell_volume 1106.360499
_symmetry_space_group_name_H-M "P 21/M"
_symmetry_group_IT_number 11
_symmetry_cell_setting 'monoclinic'
loop_
_space_group_symop_operation_xyz
x,y,z
-x,1/2+y,-z
-x,-y,-z
x,1/2-y,z
loop_
_atom_site_type_symbol
_atom_site_label
_atom_site_fract_x
_atom_site_fract_y
_atom_site_fract_z
Si Si1 0.412765 0.577059 0.191115
Si Si2 0.824196 0.421074 0.726285
Si Si3 0.417572 0.581749 0.887796
Si Si4 0.179043 0.923581 0.596926
Si Si5 0.992626 0.574972 0.331986
O O1 0.500000 0.500000 0.500000
O O2 0.423278 0.750000 0.236678
O O3 0.432212 0.527267 0.081834
O O4 0.294623 0.523366 0.937976
O O5 0.855700 0.250000 0.821344
O O6 0.702145 0.445236 0.460986
O O7 0.846241 0.478895 0.623588
O O8 0.887892 0.521097 0.992974
O O9 0.446837 0.750000 0.950022
O O10 0.500000 0.500000 0.000000
O O11 0.181522 0.750000 0.593055
O O12 0.092219 0.979544 0.488985
O O13 0.990823 0.750000 0.344267
O O14 0.000000 0.500000 0.500000
#
# Coordination Sequence:
#
# PCOD8077701 Si02
#       5
#     4   4   4   4   4
#     4   9  18  34  53  75 101 132 169 208 248 296
#     4   9  18  36  57  75  98 133 172 212 254 298
#     4   9  19  34  53  76 104 135 169 208 253 301
#     4   8  17  35  56  73  97 134 172 206 249 301
#     4  11  22  35  52  77 105 134 167 208 255 304
#
# _framework density 18.077292
#
# number of rings (size 3 to 8) (size 9 to 14) (size 15 to 20)
#    0.000    2.800    0.000    3.600    0.000    3.200 
#    0.000   12.000    0.000    0.000    0.000    0.000 
#    0.000    0.000    0.000    0.000    0.000    0.000 
#
# Total GULP energy -247933.309825 kJ/mol
# GULP energy per Si atom -12396.665491 kJ/mol
# Density = 1.803615 g / cm^3
# Si number density = 18.077292 Si / 1000 Ang^3
#
#
#
# Elastic Constant Matrix: (Units=GPa)
#
#
# Indices 1 2 3 4 5 6 
#
# 1 129.8248 40.8784 61.2427 0.0000 8.3938 0.0000
# 2 40.8784 43.6244 39.5092 0.0000 0.8865 0.0000
# 3 61.2427 39.5092 137.5653 0.0000 -7.4995 0.0000
# 4 0.0000 0.0000 0.0000 37.3538 0.0000 -1.5574
# 5 8.3938 0.8865 -7.4995 0.0000 24.4607 0.0000
# 6 0.0000 0.0000 0.0000 -1.5574 0.0000 30.9216
#
#
#
# Elastic Compliance Matrix: (Units=1/GPa)
#
#
# Indices 1 2 3 4 5 6 
#
# 1 0.012206 -0.008346 -0.003304 0.000000 -0.004899 0.000000
# 2 -0.008346 0.037061 -0.006962 0.000000 -0.000614 0.000000
# 3 -0.003304 -0.006962 0.010999 0.000000 0.004758 0.000000
# 4 0.000000 0.000000 0.000000 0.026827 0.000000 0.001351
# 5 -0.004899 -0.000614 0.004758 0.000000 0.044044 0.000000
# 6 0.000000 0.000000 0.000000 0.001351 0.000000 0.032408
#
#
# Mechanical properties :
#
#
# Convention : Reuss Voigt Hill
#
# Bulk Modulus (GPa) = 43.39817 66.03056 54.71436
# Shear Modulus (GPa) = 23.98651 29.83949 26.91300
#
# Velocity S-wave (km/s) = 3.64660 4.06724 3.86265
# Velocity P-wave (km/s) = 6.46447 7.65916 7.08703
#
# Compressibility (1/GPa) = 0.02304245
#
# Stress axis : x y z
#
# Youngs Moduli (GPa) = 81.92741 26.98244 90.91552
#
# Poissons Ratio (x) = 0.22518 0.30040
# Poissons Ratio (y) = 0.68373 0.63297
# Poissons Ratio (z) = 0.27070 0.18786
#
# Static dielectric constant tensor:
#      x y z
#    x 3.481750 0.000000 0.055360 
#    y 0.000000 3.090220 0.000000 
#    z 0.055360 0.000000 3.387850 
# 
# 
# High freq. dielectric constant tensor:
#      x y z
#    x 1.704880 0.000000 0.005210 
#    y 0.000000 1.679330 0.000000 
#    z 0.005210 0.000000 1.709390 
# 
# From -- ./inp_files/16586.got.cif
#   From: 2010.06.25/outbox.cif.g09.slc.cpg/sg11_9_cif.got.tgz:16586.got - 2010.06.27 23:14:04.
