data_PCOD8077709
_publ_section_title
;
Structure prediction by ZEFSAII (Michael W. Deem and Ramdas Pophale) SiO2 
 PCOD8077709
Probable space group: P 21/M
;
_chemical_formula_sum "Si O2"
_cell_formula_units_Z 28
_cell_length_a 8.527114
_cell_length_b 14.538216
_cell_length_c 12.317618
_cell_angle_alpha 90.000000
_cell_angle_beta 120.273181
_cell_angle_gamma 90.000000
_cell_volume 1318.768150
_symmetry_space_group_name_H-M "P 21/M"
_symmetry_group_IT_number 11
_symmetry_cell_setting 'monoclinic'
loop_
_space_group_symop_operation_xyz
x,y,z
-x,1/2+y,-z
-x,-y,-z
x,1/2-y,z
loop_
_atom_site_type_symbol
_atom_site_label
_atom_site_fract_x
_atom_site_fract_y
_atom_site_fract_z
Si Si1 0.807654 0.148053 0.643128
Si Si2 0.047882 0.140469 0.406335
Si Si3 0.698198 0.643722 0.867590
Si Si4 0.074507 0.026915 0.206497
Si Si5 0.686621 0.949899 0.080487
Si Si6 0.327375 0.641575 0.629527
Si Si7 0.203777 0.149460 0.680165
O O1 0.754263 0.250000 0.671429
O O2 0.671088 0.116626 0.498663
O O3 0.001995 0.155944 0.655462
O O4 0.820552 0.071341 0.742462
O O5 0.046590 0.250000 0.388021
O O6 0.120849 0.090564 0.325515
O O7 0.189689 0.112731 0.551704
O O8 0.847547 0.101206 0.367332
O O9 0.734420 0.750000 0.850947
O O10 0.857537 0.579053 0.876804
O O11 0.510750 0.606330 0.750067
O O12 0.696982 0.633453 0.997363
O O13 0.858081 0.016245 0.120406
O O14 0.677850 0.914729 0.201143
O O15 0.500000 0.000000 0.000000
O O16 0.312124 0.750000 0.635722
O O17 0.294736 0.250000 0.711274
#
# Coordination Sequence:
#
# PCOD8077709 Si02
#       7
#     4   4   4   4   4   4   4
#     4   8  16  32  54  80 110 143 183 232 284 341
#     4   9  17  33  58  87 114 138 178 235 285 338
#     4  11  23  39  57  80 117 156 186 225 282 346
#     4  11  22  35  57  87 114 147 187 230 290 348
#     4  11  23  38  57  80 111 152 203 244 273 326
#     4   8  16  32  54  80 109 146 187 225 277 338
#     4   8  16  33  57  82 107 141 186 236 289 333
#
# _framework density 21.231935
#
# number of rings (size 3 to 8) (size 9 to 14) (size 15 to 20)
#    0.000    2.571    0.000    3.857    0.000    7.429 
#    0.000    2.143    0.000    3.429    0.000    1.000 
#    0.000    0.000    0.000    0.000    0.000    0.000 
#
# Total GULP energy -347067.782894 kJ/mol
# GULP energy per Si atom -12395.277960 kJ/mol
# Density = 2.118361 g / cm^3
# Si number density = 21.231935 Si / 1000 Ang^3
#
#
#
# Elastic Constant Matrix: (Units=GPa)
#
#
# Indices 1 2 3 4 5 6 
#
# 1 41.6161 26.2843 30.5859 0.0000 0.8236 0.0000
# 2 26.2843 87.0544 41.9961 0.0000 -2.6821 0.0000
# 3 30.5859 41.9961 112.8912 0.0000 14.3759 0.0000
# 4 0.0000 0.0000 0.0000 31.9306 0.0000 -5.2314
# 5 0.8236 -2.6821 14.3759 0.0000 25.2300 0.0000
# 6 0.0000 0.0000 0.0000 -5.2314 0.0000 24.6225
#
#
#
# Elastic Compliance Matrix: (Units=1/GPa)
#
#
# Indices 1 2 3 4 5 6 
#
# 1 0.033187 -0.006694 -0.006763 0.000000 0.002059 0.000000
# 2 -0.006694 0.015911 -0.004689 0.000000 0.004582 0.000000
# 3 -0.006763 -0.004689 0.013446 0.000000 -0.007939 0.000000
# 4 0.000000 0.000000 0.000000 0.032447 0.000000 0.006894
# 5 0.002059 0.004582 -0.007939 0.000000 0.044579 0.000000
# 6 0.000000 0.000000 0.000000 0.006894 0.000000 0.042078
#
#
# Mechanical properties :
#
#
# Convention : Reuss Voigt Hill
#
# Bulk Modulus (GPa) = 38.09304 48.81049 43.45176
# Shear Modulus (GPa) = 22.05639 25.86964 23.96301
#
# Velocity S-wave (km/s) = 3.22659 3.49439 3.36315
# Velocity P-wave (km/s) = 5.64460 6.27057 5.96580
#
# Compressibility (1/GPa) = 0.02625152
#
# Stress axis : x y z
#
# Youngs Moduli (GPa) = 30.13223 62.84823 74.37251
#
# Poissons Ratio (x) = 0.42070 0.50302
# Poissons Ratio (y) = 0.20170 0.34873
# Poissons Ratio (z) = 0.20380 0.29469
#
# Static dielectric constant tensor:
#      x y z
#    x 3.438150 0.000000 0.109160 
#    y 0.000000 4.309330 0.000000 
#    z 0.109160 0.000000 4.307860 
# 
# 
# High freq. dielectric constant tensor:
#      x y z
#    x 1.786300 0.000000 0.004070 
#    y 0.000000 1.830280 0.000000 
#    z 0.004070 0.000000 1.843040 
# 
# From -- ./inp_files/31947.got.cif
#   From: 2010.06.25/outbox.cif.g09.slc.cpg/sg11_16_cif.got.tgz:31947.got - 2010.06.27 23:14:04.
