data_PCOD8077960
_publ_section_title
;
Structure prediction by ZEFSAII (Michael W. Deem and Ramdas Pophale) SiO2 
 PCOD8077960
Probable space group: P 21/M
;
_chemical_formula_sum "Si O2"
_cell_formula_units_Z 24
_cell_length_a 21.253471
_cell_length_b 9.438938
_cell_length_c 9.888085
_cell_angle_alpha 90.000000
_cell_angle_beta 134.256246
_cell_angle_gamma 90.000000
_cell_volume 1420.741922
_symmetry_space_group_name_H-M "P 21/M"
_symmetry_group_IT_number 11
_symmetry_cell_setting 'monoclinic'
loop_
_space_group_symop_operation_xyz
x,y,z
-x,1/2+y,-z
-x,-y,-z
x,1/2-y,z
loop_
_atom_site_type_symbol
_atom_site_label
_atom_site_fract_x
_atom_site_fract_y
_atom_site_fract_z
Si Si1 0.262076 0.418290 0.493435
Si Si2 0.065394 0.414680 0.191456
Si Si3 0.414067 0.415405 0.526973
Si Si4 0.934606 0.585320 0.495273
Si Si5 0.262076 0.081710 0.792793
Si Si6 0.414067 0.415405 0.215228
O O1 0.261947 0.250000 0.494477
O O2 0.164182 0.469319 0.307690
O O3 0.332459 0.475514 0.491061
O O4 0.287395 0.474655 0.681093
O O5 0.056092 0.250000 0.142023
O O6 0.042625 0.442280 0.313938
O O7 0.000000 0.500000 0.000000
O O8 0.430972 0.250000 0.579586
O O9 0.391617 0.445073 0.337425
O O10 0.500000 0.500000 0.702158
O O11 0.943908 0.750000 0.473748
O O12 0.835818 0.530681 0.315144
O O13 0.000000 0.500000 0.500000
O O14 0.261948 0.250000 0.791365
O O15 0.332459 0.024486 0.006316
O O16 0.430972 0.250000 0.213329
#
# Coordination Sequence:
#
# PCOD8077960 Si02
#       6
#     4   4   4   4   4   4
#     4   8  15  29  47  65  87 116 149 183 218 261
#     4   9  18  32  49  70  95 122 154 192 232 274
#     4   9  17  29  45  65  88 114 145 180 218 261
#     4   9  18  32  49  70  95 122 154 192 232 274
#     4   8  15  29  47  65  87 116 149 183 218 261
#     4   9  17  29  45  65  88 114 145 180 218 261
#
# _framework density 16.892582000000001
#
# number of rings (size 3 to 8) (size 9 to 14) (size 15 to 20)
#    0.000    3.333    0.000    2.000    0.000    2.667 
#    0.000    5.000    0.000    6.000    0.000    0.000 
#    0.000    0.000    0.000    0.000    0.000    0.000 
#
# Total GULP energy -297504.854124 kJ/mol
# GULP energy per Si atom -12396.035588 kJ/mol
# Density = 1.685413 g / cm^3
# Si number density = 16.892582 Si / 1000 Ang^3
#
#
#
# Elastic Constant Matrix: (Units=GPa)
#
#
# Indices 1 2 3 4 5 6 
#
# 1 165.7213 44.5389 78.3355 0.0000 9.1868 0.0000
# 2 44.5389 37.6198 43.4376 0.0000 3.1251 0.0000
# 3 78.3355 43.4376 156.0167 0.0000 18.3480 0.0000
# 4 0.0000 0.0000 0.0000 25.5985 0.0000 3.4329
# 5 9.1868 3.1251 18.3480 0.0000 16.0813 0.0000
# 6 0.0000 0.0000 0.0000 3.4329 0.0000 26.8085
#
#
#
# Elastic Compliance Matrix: (Units=1/GPa)
#
#
# Indices 1 2 3 4 5 6 
#
# 1 0.009440 -0.008498 -0.002233 0.000000 -0.001193 0.000000
# 2 -0.008498 0.047265 -0.009682 0.000000 0.006717 0.000000
# 3 -0.002233 -0.009682 0.011383 0.000000 -0.009830 0.000000
# 4 0.000000 0.000000 0.000000 0.039747 0.000000 -0.005090
# 5 -0.001193 0.006717 -0.009830 0.000000 0.072776 0.000000
# 6 0.000000 0.000000 0.000000 -0.005090 0.000000 0.037953
#
#
# Mechanical properties :
#
#
# Convention : Reuss Voigt Hill
#
# Bulk Modulus (GPa) = 36.68456 76.88688 56.78572
# Shear Modulus (GPa) = 18.62349 26.56737 22.59543
#
# Velocity S-wave (km/s) = 3.32394 3.97006 3.66128
# Velocity P-wave (km/s) = 6.04111 8.16267 7.18067
#
# Compressibility (1/GPa) = 0.02725942
#
# Stress axis : x y z
#
# Youngs Moduli (GPa) = 105.93082 21.15746 87.85316
#
# Poissons Ratio (x) = 0.17980 0.19622
# Poissons Ratio (y) = 0.90024 0.85061
# Poissons Ratio (z) = 0.23659 0.20485
#
# Static dielectric constant tensor:
#      x y z
#    x 3.361500 0.000000 0.040660 
#    y 0.000000 2.765520 0.000000 
#    z 0.040660 0.000000 3.347170 
# 
# 
# High freq. dielectric constant tensor:
#      x y z
#    x 1.657160 0.000000 0.002040 
#    y 0.000000 1.613560 0.000000 
#    z 0.002040 0.000000 1.656440 
# 
# From -- ./inp_files/20854.got.cif
#   From: 2010.06.25/outbox.cif.g09.slc.cpg/sg11_11_cif.got.tgz:20854.got - 2010.06.27 23:14:04.
