data_PCOD8077817
_publ_section_title
;
Structure prediction by ZEFSAII (Michael W. Deem and Ramdas Pophale) SiO2 
 PCOD8077817
Probable space group: P 21/M
;
_chemical_formula_sum "Si O2"
_cell_formula_units_Z 20
_cell_length_a 12.536501
_cell_length_b 16.766200
_cell_length_c 6.708690
_cell_angle_alpha 90.000000
_cell_angle_beta 47.957983
_cell_angle_gamma 90.000000
_cell_volume 1047.213396
_symmetry_space_group_name_H-M "P 21/M"
_symmetry_group_IT_number 11
_symmetry_cell_setting 'monoclinic'
loop_
_space_group_symop_operation_xyz
x,y,z
-x,1/2+y,-z
-x,-y,-z
x,1/2-y,z
loop_
_atom_site_type_symbol
_atom_site_label
_atom_site_fract_x
_atom_site_fract_y
_atom_site_fract_z
Si Si1 0.205128 0.342733 0.458266
Si Si2 0.919321 0.562812 0.739123
Si Si3 0.051837 0.657003 0.918409
Si Si4 0.292499 0.552742 0.781523
Si Si5 0.454916 0.043136 0.255794
O O1 0.236466 0.250000 0.402774
O O2 0.162005 0.373062 0.294091
O O3 0.350991 0.383162 0.346870
O O4 0.080488 0.362234 0.771296
O O5 0.000000 0.500000 0.500000
O O6 0.033531 0.608425 0.735718
O O7 0.804831 0.519920 0.022091
O O8 0.064102 0.750000 0.853429
O O9 0.197004 0.629219 0.845459
O O10 0.404158 0.578631 0.812789
O O11 0.378737 0.524694 0.480767
O O12 0.500000 0.000000 0.000000
#
# Coordination Sequence:
#
# PCOD8077817 Si02
#       5
#     4   4   4   4   4
#     4  11  23  40  63  92 125 163 207 263 321 365
#     4  12  21  38  67  93 120 159 213 255 310 373
#     4  11  24  41  62  94 127 159 205 265 321 365
#     4  11  23  39  64  91 119 162 211 249 305 372
#     4  11  23  41  63  90 122 166 213 251 299 371
#
# _framework density 19.098303000000001
#
# number of rings (size 3 to 8) (size 9 to 14) (size 15 to 20)
#    0.000    0.800    6.000    2.400    0.000    0.800 
#    0.000    1.000    0.000    0.000    0.000    0.000 
#    0.000    0.000    0.000    0.000    0.000    0.000 
#
# Total GULP energy -248119.239715 kJ/mol
# GULP energy per Si atom -12405.961986 kJ/mol
# Density = 1.905483 g / cm^3
# Si number density = 19.098303 Si / 1000 Ang^3
#
#
#
# Elastic Constant Matrix: (Units=GPa)
#
#
# Indices 1 2 3 4 5 6 
#
# 1 179.3794 73.8864 51.8588 0.0000 -3.5431 0.0000
# 2 73.8864 91.1970 46.0561 0.0000 -1.3366 0.0000
# 3 51.8588 46.0561 100.9241 0.0000 6.2015 0.0000
# 4 0.0000 0.0000 0.0000 24.7960 0.0000 4.5365
# 5 -3.5431 -1.3366 6.2015 0.0000 32.7350 0.0000
# 6 0.0000 0.0000 0.0000 4.5365 0.0000 35.8140
#
#
#
# Elastic Compliance Matrix: (Units=1/GPa)
#
#
# Indices 1 2 3 4 5 6 
#
# 1 0.008594 -0.006091 -0.001698 0.000000 0.001003 0.000000
# 2 -0.006091 0.018675 -0.005463 0.000000 0.001138 0.000000
# 3 -0.001698 -0.005463 0.013456 0.000000 -0.002956 0.000000
# 4 0.000000 0.000000 0.000000 0.041286 0.000000 -0.005230
# 5 0.001003 0.001138 -0.002956 0.000000 0.031263 0.000000
# 6 0.000000 0.000000 0.000000 -0.005230 0.000000 0.028584
#
#
# Mechanical properties :
#
#
# Convention : Reuss Voigt Hill
#
# Bulk Modulus (GPa) = 70.31401 79.45592 74.88496
# Shear Modulus (GPa) = 28.88460 31.98227 30.43344
#
# Velocity S-wave (km/s) = 3.89320 4.09664 3.99622
# Velocity P-wave (km/s) = 7.55686 8.00441 7.78385
#
# Compressibility (1/GPa) = 0.01422192
#
# Stress axis : x y z
#
# Youngs Moduli (GPa) = 116.35639 53.54700 74.31838
#
# Poissons Ratio (x) = 0.32613 0.12622
# Poissons Ratio (y) = 0.70868 0.40598
# Poissons Ratio (z) = 0.19761 0.29251
#
# Static dielectric constant tensor:
#      x y z
#    x 3.911890 0.000000 0.044200 
#    y 0.000000 3.363150 0.000000 
#    z 0.044200 0.000000 3.698650 
# 
# 
# High freq. dielectric constant tensor:
#      x y z
#    x 1.761080 0.000000 0.006450 
#    y 0.000000 1.734530 0.000000 
#    z 0.006450 0.000000 1.751990 
# 
# From -- ./inp_files/1876.got.cif
#   From: 2010.06.25/outbox.cif.g09.slc.cpg/sg11_1_cif.got.tgz:1876.got - 2010.06.27 23:14:04.
