data_PCOD8077632
_publ_section_title
;
Structure prediction by ZEFSAII (Michael W. Deem and Ramdas Pophale) SiO2 
 PCOD8077632
Probable space group: P 21/M
;
_chemical_formula_sum "Si O2"
_cell_formula_units_Z 20
_cell_length_a 9.609655
_cell_length_b 8.296869
_cell_length_c 19.486652
_cell_angle_alpha 90.000000
_cell_angle_beta 40.853871
_cell_angle_gamma 90.000000
_cell_volume 1016.306480
_symmetry_space_group_name_H-M "P 21/M"
_symmetry_group_IT_number 11
_symmetry_cell_setting 'monoclinic'
loop_
_space_group_symop_operation_xyz
x,y,z
-x,1/2+y,-z
-x,-y,-z
x,1/2-y,z
loop_
_atom_site_type_symbol
_atom_site_label
_atom_site_fract_x
_atom_site_fract_y
_atom_site_fract_z
Si Si1 0.681081 0.562251 0.882888
Si Si2 0.855643 0.937390 0.285787
Si Si3 0.324329 0.561711 0.263237
Si Si4 0.131999 0.936964 0.570715
Si Si5 0.482550 0.063869 0.341639
O O1 0.720434 0.750000 0.879337
O O2 0.613590 0.528344 0.829938
O O3 0.896705 0.468112 0.820572
O O4 0.500000 0.500000 0.000000
O O5 0.803806 0.750000 0.298158
O O6 0.787040 0.995831 0.386833
O O7 0.719702 0.034267 0.280544
O O8 0.364201 0.750000 0.238668
O O9 0.476793 0.492236 0.265113
O O10 0.078636 0.530885 0.374956
O O11 0.073851 0.750000 0.600256
O O12 0.315652 0.958564 0.446795
O O13 0.420386 0.250000 0.371338
#
# Coordination Sequence:
#
# PCOD8077632 Si02
#       5
#     4   4   4   4   4
#     4  11  22  41  65  88 111 145 186 231 281 336
#     4  11  22  38  58  85 115 149 190 235 280 333
#     4  11  22  38  58  85 115 149 190 235 280 333
#     4  11  21  36  56  82 115 156 195 231 274 332
#     4  12  23  37  55  82 118 155 189 232 282 334
#
# _framework density 19.679105
#
# number of rings (size 3 to 8) (size 9 to 14) (size 15 to 20)
#    0.000    0.800    0.000   12.600    0.000    0.000 
#    0.000    1.000    0.000    0.000    0.000    0.000 
#    0.000    0.000    0.000    0.000    0.000    0.000 
#
# Total GULP energy -248163.844114 kJ/mol
# GULP energy per Si atom -12408.192206 kJ/mol
# Density = 1.963431 g / cm^3
# Si number density = 19.679105 Si / 1000 Ang^3
#
#
#
# Elastic Constant Matrix: (Units=GPa)
#
#
# Indices 1 2 3 4 5 6 
#
# 1 124.1535 6.0741 34.4790 0.0000 15.8741 0.0000
# 2 6.0741 108.6552 1.7242 0.0000 5.0789 0.0000
# 3 34.4790 1.7242 108.3161 0.0000 6.6377 0.0000
# 4 0.0000 0.0000 0.0000 32.0933 0.0000 0.7931
# 5 15.8741 5.0789 6.6377 0.0000 11.9248 0.0000
# 6 0.0000 0.0000 0.0000 0.7931 0.0000 33.0022
#
#
#
# Elastic Compliance Matrix: (Units=1/GPa)
#
#
# Indices 1 2 3 4 5 6 
#
# 1 0.010337 0.000040 -0.002533 0.000000 -0.012368 0.000000
# 2 0.000040 0.009392 0.000089 0.000000 -0.004103 0.000000
# 3 -0.002533 0.000089 0.010180 0.000000 -0.002332 0.000000
# 4 0.000000 0.000000 0.000000 0.031178 0.000000 -0.000749
# 5 -0.012368 -0.004103 -0.002332 0.000000 0.103369 0.000000
# 6 0.000000 0.000000 0.000000 -0.000749 0.000000 0.030319
#
#
# Mechanical properties :
#
#
# Convention : Reuss Voigt Hill
#
# Bulk Modulus (GPa) = 39.83810 47.29771 43.56790
# Shear Modulus (GPa) = 24.04426 35.32722 29.68574
#
# Velocity S-wave (km/s) = 3.49924 4.24153 3.88814
# Velocity P-wave (km/s) = 6.05096 6.93355 6.50723
#
# Compressibility (1/GPa) = 0.02510160
#
# Stress axis : x y z
#
# Youngs Moduli (GPa) = 96.73531 106.47859 98.23047
#
# Poissons Ratio (x) = -0.00431 0.24885
# Poissons Ratio (y) = -0.00391 -0.00875
# Poissons Ratio (z) = 0.24506 -0.00949
#
# Static dielectric constant tensor:
#      x y z
#    x 3.682330 0.000000 0.092260 
#    y 0.000000 3.780120 0.000000 
#    z 0.092260 0.000000 3.324240 
# 
# 
# High freq. dielectric constant tensor:
#      x y z
#    x 1.772370 0.000000 0.007000 
#    y 0.000000 1.791060 0.000000 
#    z 0.007000 0.000000 1.746220 
# 
# From -- ./inp_files/25672.got.cif
#   From: 2010.06.25/outbox.cif.g09.slc.cpg/sg11_13_cif.got.tgz:25672.got - 2010.06.27 23:14:04.
