data_PCOD8077427
_publ_section_title
;
Structure prediction by ZEFSAII (Michael W. Deem and Ramdas Pophale) SiO2 
 PCOD8077427
Probable space group: P 21/M
;
_chemical_formula_sum "Si O2"
_cell_formula_units_Z 32
_cell_length_a 11.723695
_cell_length_b 8.735622
_cell_length_c 14.899841
_cell_angle_alpha 90.000000
_cell_angle_beta 93.835311
_cell_angle_gamma 90.000000
_cell_volume 1522.531397
_symmetry_space_group_name_H-M "P 21/M"
_symmetry_group_IT_number 11
_symmetry_cell_setting 'monoclinic'
loop_
_space_group_symop_operation_xyz
x,y,z
-x,1/2+y,-z
-x,-y,-z
x,1/2-y,z
loop_
_atom_site_type_symbol
_atom_site_label
_atom_site_fract_x
_atom_site_fract_y
_atom_site_fract_z
Si Si1 0.192027 0.576028 0.514811
Si Si2 0.528843 0.573990 0.224296
Si Si3 0.150063 0.071656 0.327403
Si Si4 0.247036 0.930691 0.824619
Si Si5 0.725895 0.426023 0.823828
Si Si6 0.447373 0.575236 0.585082
Si Si7 0.874593 0.069474 0.000506
Si Si8 0.085414 0.429944 0.671689
O O1 0.157740 0.750000 0.489023
O O2 0.201248 0.479368 0.424894
O O3 0.310936 0.568124 0.573450
O O4 0.095419 0.504541 0.573708
O O5 0.568038 0.750000 0.230728
O O6 0.620095 0.477255 0.171720
O O7 0.409161 0.556461 0.165314
O O8 0.512586 0.514573 0.324839
O O9 0.122472 0.250000 0.327144
O O10 0.243622 0.033464 0.257859
O O11 0.035526 0.980914 0.294237
O O12 0.235573 0.750000 0.812158
O O13 0.188818 0.988366 0.913226
O O14 0.186783 0.013376 0.739290
O O15 0.756199 0.250000 0.802603
O O16 0.796100 0.484168 0.913744
O O17 0.500000 0.500000 0.500000
O O18 0.490168 0.750000 0.593797
O O19 0.887866 0.250000 0.002928
O O20 0.000000 0.000000 0.000000
O O21 0.092189 0.250000 0.662638
#
# Coordination Sequence:
#
# PCOD8077427 Si02
#       8
#     4   4   4   4   4   4   4   4
#     4  11  23  40  60  87 123 165 210 260 315 373
#     4  11  23  40  64  92 126 167 213 260 315 377
#     4  12  25  40  61  91 126 165 210 262 318 378
#     4  11  23  41  65  95 129 166 210 264 321 379
#     4  10  23  44  65  91 127 166 210 260 313 374
#     4  11  23  38  60  87 124 167 213 265 314 370
#     4  10  23  43  68  96 128 164 208 261 318 380
#     4  12  24  40  63  90 124 166 210 260 316 379
#
# _framework density 21.017627999999998
#
# number of rings (size 3 to 8) (size 9 to 14) (size 15 to 20)
#    0.000    1.000    1.250    5.625    0.000    9.500 
#    0.000    0.000    0.000    0.000    0.000    0.000 
#    0.000    0.000    0.000    0.000    0.000    0.000 
#
# Total GULP energy -397026.102537 kJ/mol
# GULP energy per Si atom -12407.065704 kJ/mol
# Density = 2.096979 g / cm^3
# Si number density = 21.017628 Si / 1000 Ang^3
#
#
#
# Elastic Constant Matrix: (Units=GPa)
#
#
# Indices 1 2 3 4 5 6 
#
# 1 103.7384 23.6181 41.3897 0.0000 0.9814 0.0000
# 2 23.6181 69.5304 24.6616 0.0000 -0.5589 0.0000
# 3 41.3897 24.6616 122.5348 0.0000 -5.5387 0.0000
# 4 0.0000 0.0000 0.0000 17.5097 0.0000 -4.6444
# 5 0.9814 -0.5589 -5.5387 0.0000 40.8915 0.0000
# 6 0.0000 0.0000 0.0000 -4.6444 0.0000 37.7029
#
#
#
# Elastic Compliance Matrix: (Units=1/GPa)
#
#
# Indices 1 2 3 4 5 6 
#
# 1 0.011634 -0.002748 -0.003412 0.000000 -0.000779 0.000000
# 2 -0.002748 0.016139 -0.002321 0.000000 -0.000028 0.000000
# 3 -0.003412 -0.002321 0.009843 0.000000 0.001383 0.000000
# 4 0.000000 0.000000 0.000000 0.059040 0.000000 0.007273
# 5 -0.000779 -0.000028 0.001383 0.000000 0.024661 0.000000
# 6 0.000000 0.000000 0.000000 0.007273 0.000000 0.027419
#
#
# Mechanical properties :
#
#
# Convention : Reuss Voigt Hill
#
# Bulk Modulus (GPa) = 48.41729 52.79362 50.60545
# Shear Modulus (GPa) = 28.97174 32.96310 30.96742
#
# Velocity S-wave (km/s) = 3.71678 3.96454 3.84266
# Velocity P-wave (km/s) = 6.44250 6.79191 6.61951
#
# Compressibility (1/GPa) = 0.02065378
#
# Stress axis : x y z
#
# Youngs Moduli (GPa) = 85.95579 61.96296 101.59414
#
# Poissons Ratio (x) = 0.17027 0.34662
# Poissons Ratio (y) = 0.23620 0.23582
# Poissons Ratio (z) = 0.29327 0.14383
#
# Static dielectric constant tensor:
#      x y z
#    x 3.962740 0.000000 -0.011210 
#    y 0.000000 3.833810 0.000000 
#    z -0.011210 0.000000 3.799570 
# 
# 
# High freq. dielectric constant tensor:
#      x y z
#    x 1.837250 0.000000 -0.000700 
#    y 0.000000 1.829170 0.000000 
#    z -0.000700 0.000000 1.822900 
# 
# From -- ./inp_files/49290.got.cif
#   From: 2010.06.25/outbox.cif.g09.slc.cpg/sg11_25_cif.got.tgz:49290.got - 2010.06.27 23:14:04.
