data_PCOD8077128
_publ_section_title
;
Structure prediction by ZEFSAII (Michael W. Deem and Ramdas Pophale) SiO2 
 PCOD8077128
Probable space group: P 21/M
;
_chemical_formula_sum "Si O2"
_cell_formula_units_Z 32
_cell_length_a 14.645863
_cell_length_b 8.689915
_cell_length_c 25.707639
_cell_angle_alpha 90.000000
_cell_angle_beta 29.792106
_cell_angle_gamma 90.000000
_cell_volume 1625.630458
_symmetry_space_group_name_H-M "P 21/M"
_symmetry_group_IT_number 11
_symmetry_cell_setting 'monoclinic'
loop_
_space_group_symop_operation_xyz
x,y,z
-x,1/2+y,-z
-x,-y,-z
x,1/2-y,z
loop_
_atom_site_type_symbol
_atom_site_label
_atom_site_fract_x
_atom_site_fract_y
_atom_site_fract_z
Si Si1 0.976897 0.073037 0.757608
Si Si2 0.660488 0.069917 0.387138
Si Si3 0.481414 0.071003 0.841926
Si Si4 0.829998 0.425813 0.940012
Si Si5 0.870675 0.071421 0.695223
Si Si6 0.758547 0.929498 0.232179
Si Si7 0.494412 0.570132 0.725279
Si Si8 0.116037 0.930690 0.489607
O O1 0.046683 0.250000 0.725354
O O2 0.837961 0.043571 0.874102
O O3 0.874180 0.035161 0.754796
O O4 0.149922 0.961140 0.676689
O O5 0.631455 0.250000 0.393318
O O6 0.500000 0.000000 0.500000
O O7 0.653467 0.987234 0.335095
O O8 0.483913 0.250000 0.825943
O O9 0.673040 0.018712 0.772406
O O10 0.448633 0.971225 0.807041
O O11 0.320249 0.039813 0.962494
O O12 0.773991 0.250000 0.979276
O O13 0.025428 0.464336 0.869606
O O14 0.906338 0.250000 0.666315
O O15 0.029347 0.977269 0.587631
O O16 0.719349 0.750000 0.244432
O O17 0.682485 0.020507 0.220312
O O18 0.528503 0.750000 0.703191
O O19 0.674590 0.484689 0.615485
O O20 0.111727 0.750000 0.485080
O O21 0.000000 0.000000 0.500000
#
# Coordination Sequence:
#
# PCOD8077128 Si02
#       8
#     4   4   4   4   4   4   4   4
#     4   9  20  40  62  86 120 160 203 251 303 357
#     4  11  22  37  58  86 120 158 201 248 302 362
#     4  11  23  39  62  90 122 161 206 255 303 360
#     4   9  20  40  64  88 120 159 200 254 310 358
#     4  10  22  40  62  89 123 162 206 251 301 359
#     4  10  22  42  64  88 120 158 202 252 305 363
#     4  12  25  41  63  91 123 161 203 251 306 367
#     4  12  24  40  62  88 123 163 203 251 304 362
#
# _framework density 19.684670000000001
#
# number of rings (size 3 to 8) (size 9 to 14) (size 15 to 20)
#    0.000    1.500    1.250    4.875    1.750    4.500 
#    0.000    0.000    0.000    0.000    0.000    0.000 
#    0.000    0.000    0.000    0.000    0.000    0.000 
#
# Total GULP energy -396982.603058 kJ/mol
# GULP energy per Si atom -12405.706346 kJ/mol
# Density = 1.963987 g / cm^3
# Si number density = 19.684670 Si / 1000 Ang^3
#
#
#
# Elastic Constant Matrix: (Units=GPa)
#
#
# Indices 1 2 3 4 5 6 
#
# 1 115.3540 28.1427 34.4154 0.0000 25.3536 0.0000
# 2 28.1427 90.7674 35.5690 0.0000 8.4967 0.0000
# 3 34.4154 35.5690 115.8694 0.0000 14.4030 0.0000
# 4 0.0000 0.0000 0.0000 36.9070 0.0000 1.1503
# 5 25.3536 8.4967 14.4030 0.0000 18.0553 0.0000
# 6 0.0000 0.0000 0.0000 1.1503 0.0000 28.1279
#
#
#
# Elastic Compliance Matrix: (Units=1/GPa)
#
#
# Indices 1 2 3 4 5 6 
#
# 1 0.013174 -0.002055 -0.001224 0.000000 -0.016556 0.000000
# 2 -0.002055 0.013007 -0.003308 0.000000 -0.000596 0.000000
# 3 -0.001224 -0.003308 0.010659 0.000000 -0.005227 0.000000
# 4 0.000000 0.000000 0.000000 0.027130 0.000000 -0.001110
# 5 -0.016556 -0.000596 -0.005227 0.000000 0.083084 0.000000
# 6 0.000000 0.000000 0.000000 -0.001110 0.000000 0.035597
#
#
# Mechanical properties :
#
#
# Convention : Reuss Voigt Hill
#
# Bulk Modulus (GPa) = 42.25634 57.58280 49.91957
# Shear Modulus (GPa) = 24.54414 31.54231 28.04323
#
# Velocity S-wave (km/s) = 3.53493 4.00732 3.77851
# Velocity P-wave (km/s) = 6.17853 7.12233 6.66715
#
# Compressibility (1/GPa) = 0.02366509
#
# Stress axis : x y z
#
# Youngs Moduli (GPa) = 75.90451 76.88435 93.81471
#
# Poissons Ratio (x) = 0.15802 0.11484
# Poissons Ratio (y) = 0.15600 0.31036
# Poissons Ratio (z) = 0.09292 0.25435
#
# Static dielectric constant tensor:
#      x y z
#    x 3.740810 0.000000 0.056150 
#    y 0.000000 3.669730 0.000000 
#    z 0.056150 0.000000 3.556980 
# 
# 
# High freq. dielectric constant tensor:
#      x y z
#    x 1.773380 0.000000 0.006040 
#    y 0.000000 1.772600 0.000000 
#    z 0.006040 0.000000 1.769250 
# 
# From -- ./inp_files/69029.got.cif
#   From: 2010.06.25/outbox.cif.g09.slc.cpg/sg11_35_cif.got.tgz:69029.got - 2010.06.27 23:14:04.
