data_PCOD8077524
_publ_section_title
;
Structure prediction by ZEFSAII (Michael W. Deem and Ramdas Pophale) SiO2 
 PCOD8077524
Probable space group: P 21/M
;
_chemical_formula_sum "Si O2"
_cell_formula_units_Z 22
_cell_length_a 9.835718
_cell_length_b 9.838413
_cell_length_c 12.416272
_cell_angle_alpha 90.000000
_cell_angle_beta 86.998808
_cell_angle_gamma 90.000000
_cell_volume 1199.848102
_symmetry_space_group_name_H-M "P 21/M"
_symmetry_group_IT_number 11
_symmetry_cell_setting 'monoclinic'
loop_
_space_group_symop_operation_xyz
x,y,z
-x,1/2+y,-z
-x,-y,-z
x,1/2-y,z
loop_
_atom_site_type_symbol
_atom_site_label
_atom_site_fract_x
_atom_site_fract_y
_atom_site_fract_z
Si Si1 0.640489 0.750000 0.445864
Si Si2 0.934465 0.094171 0.656818
Si Si3 0.388256 0.750000 0.037925
Si Si4 0.512666 0.250000 0.753399
Si Si5 0.445602 0.250000 0.177430
Si Si6 0.394746 0.750000 0.609514
Si Si7 0.200312 0.981769 0.556493
Si Si8 0.300193 0.531164 0.187035
O O1 0.619864 0.750000 0.316480
O O2 0.489148 0.750000 0.500200
O O3 0.723596 0.619624 0.481064
O O4 0.964709 0.250000 0.684576
O O5 0.852722 0.089848 0.548426
O O6 0.850755 0.023920 0.756841
O O7 0.075996 0.013702 0.641848
O O8 0.521028 0.750000 0.115265
O O9 0.300457 0.614731 0.073168
O O10 0.430678 0.750000 0.912843
O O11 0.605319 0.385964 0.730031
O O12 0.508145 0.250000 0.292320
O O13 0.352476 0.380545 0.163351
O O14 0.302350 0.883892 0.615791
#
# Coordination Sequence:
#
# PCOD8077524 Si02
#       8
#     2   4   2   2   2   2   4   4
#     4  12  20  37  53  83 115 145 175 213 286 335
#     4  11  19  40  56  76 113 144 197 218 260 329
#     4   8  20  35  57  83 109 146 182 216 281 314
#     4   8  18  33  55  78 109 143 178 215 269 327
#     4  12  20  35  55  90 115 135 179 231 276 326
#     4  12  24  34  50  84 124 137 168 231 282 324
#     4  11  24  33  57  81 107 156 177 222 271 325
#     4   9  19  34  60  81 102 148 181 229 265 312
#
# _framework density 18.335654999999999
#
# number of rings (size 3 to 8) (size 9 to 14) (size 15 to 20)
#    1.091    0.364    3.636    4.364    0.000    0.727 
#    0.000    0.000    0.000    1.091    4.727    0.000 
#    0.000    0.000    0.000    0.000    0.000    0.000 
#
# Total GULP energy -272673.296577 kJ/mol
# GULP energy per Si atom -12394.240753 kJ/mol
# Density = 1.829392 g / cm^3
# Si number density = 18.335655 Si / 1000 Ang^3
#
#
#
# Elastic Constant Matrix: (Units=GPa)
#
#
# Indices 1 2 3 4 5 6 
#
# 1 60.3119 34.4159 12.0077 0.0000 -24.0975 0.0000
# 2 34.4159 140.6218 16.8141 0.0000 -22.5476 0.0000
# 3 12.0077 16.8141 52.4141 0.0000 -24.0351 0.0000
# 4 0.0000 0.0000 0.0000 20.3975 0.0000 -6.7707
# 5 -24.0975 -22.5476 -24.0351 0.0000 33.0310 0.0000
# 6 0.0000 0.0000 0.0000 -6.7707 0.0000 16.0312
#
#
#
# Elastic Compliance Matrix: (Units=1/GPa)
#
#
# Indices 1 2 3 4 5 6 
#
# 1 0.025471 -0.003667 0.004074 0.000000 0.019043 0.000000
# 2 -0.003667 0.008514 -0.000680 0.000000 0.002641 0.000000
# 3 0.004074 -0.000680 0.029285 0.000000 0.023818 0.000000
# 4 0.000000 0.000000 0.000000 0.057019 0.000000 0.024082
# 5 0.019043 0.002641 0.023818 0.000000 0.063301 0.000000
# 6 0.000000 0.000000 0.000000 0.024082 0.000000 0.072549
#
#
# Mechanical properties :
#
#
# Convention : Reuss Voigt Hill
#
# Bulk Modulus (GPa) = 15.94322 42.20258 29.07290
# Shear Modulus (GPa) = 18.01191 26.56593 22.28892
#
# Velocity S-wave (km/s) = 3.13764 3.81053 3.49034
# Velocity P-wave (km/s) = 4.67337 6.51359 5.66865
#
# Compressibility (1/GPa) = 0.06272257
#
# Stress axis : x y z
#
# Youngs Moduli (GPa) = 39.26090 117.45836 34.14664
#
# Poissons Ratio (x) = 0.43077 -0.13910
# Poissons Ratio (y) = 0.14399 0.02321
# Poissons Ratio (z) = -0.15993 0.07983
#
# Static dielectric constant tensor:
#      x y z
#    x 3.200000 0.000000 -0.214910 
#    y 0.000000 3.463550 0.000000 
#    z -0.214910 0.000000 3.068120 
# 
# 
# High freq. dielectric constant tensor:
#      x y z
#    x 1.687450 0.000000 -0.022280 
#    y 0.000000 1.727050 0.000000 
#    z -0.022280 0.000000 1.684530 
# 
# From -- ./inp_files/46523.got.cif
#   From: 2010.06.25/outbox.cif.g09.slc.cpg/sg11_24_cif.got.tgz:46523.got - 2010.06.27 23:14:04.
