data_PCOD8077183
_publ_section_title
;
Structure prediction by ZEFSAII (Michael W. Deem and Ramdas Pophale) SiO2 
 PCOD8077183
Probable space group: P 21/M
;
_chemical_formula_sum "Si O2"
_cell_formula_units_Z 20
_cell_length_a 10.047722
_cell_length_b 8.831808
_cell_length_c 11.310290
_cell_angle_alpha 90.000000
_cell_angle_beta 90.519356
_cell_angle_gamma 90.000000
_cell_volume 1003.628830
_symmetry_space_group_name_H-M "P 21/M"
_symmetry_group_IT_number 11
_symmetry_cell_setting 'monoclinic'
loop_
_space_group_symop_operation_xyz
x,y,z
-x,1/2+y,-z
-x,-y,-z
x,1/2-y,z
loop_
_atom_site_type_symbol
_atom_site_label
_atom_site_fract_x
_atom_site_fract_y
_atom_site_fract_z
Si Si1 0.143706 0.424099 0.512349
Si Si2 0.525787 0.926713 0.873856
Si Si3 0.260970 0.927605 0.738927
Si Si4 0.970022 0.572061 0.124074
Si Si5 0.207566 0.423650 0.250534
O O1 0.122323 0.250000 0.550098
O O2 0.234567 0.507461 0.608969
O O3 0.226366 0.435788 0.391430
O O4 0.000000 0.500000 0.500000
O O5 0.534193 0.750000 0.897120
O O6 0.411155 0.964767 0.778497
O O7 0.662627 0.985890 0.816487
O O8 0.500000 0.000000 0.000000
O O9 0.229773 0.750000 0.738518
O O10 0.169854 0.008446 0.834432
O O11 0.960068 0.750000 0.110739
O O12 0.083580 0.528709 0.217759
O O13 0.000000 0.500000 0.000000
O O14 0.177420 0.250000 0.213882
#
# Coordination Sequence:
#
# PCOD8077183 Si02
#       5
#     4   4   4   4   4
#     4  11  22  38  63  92 125 162 206 257 308 362
#     4  10  23  42  63  89 123 163 204 253 309 367
#     4  11  23  40  62  90 125 162 204 254 307 365
#     4  12  24  38  60  89 120 158 207 255 308 366
#     4  10  22  41  63  88 122 161 204 254 308 363
#
# _framework density 19.927686000000001
#
# number of rings (size 3 to 8) (size 9 to 14) (size 15 to 20)
#    0.000    1.200    2.000    4.200    0.000    7.200 
#    0.000    0.000    0.000    0.000    0.000    0.000 
#    0.000    0.000    0.000    0.000    0.000    0.000 
#
# Total GULP energy -248088.464900 kJ/mol
# GULP energy per Si atom -12404.423245 kJ/mol
# Density = 1.988233 g / cm^3
# Si number density = 19.927686 Si / 1000 Ang^3
#
#
#
# Elastic Constant Matrix: (Units=GPa)
#
#
# Indices 1 2 3 4 5 6 
#
# 1 68.9171 30.8762 8.7173 0.0000 -5.3251 0.0000
# 2 30.8762 113.8965 31.1705 0.0000 5.2438 0.0000
# 3 8.7173 31.1705 97.2415 0.0000 -1.2335 0.0000
# 4 0.0000 0.0000 0.0000 39.9122 0.0000 2.9431
# 5 -5.3251 5.2438 -1.2335 0.0000 41.5268 0.0000
# 6 0.0000 0.0000 0.0000 2.9431 0.0000 23.0885
#
#
#
# Elastic Compliance Matrix: (Units=1/GPa)
#
#
# Indices 1 2 3 4 5 6 
#
# 1 0.016823 -0.004696 0.000032 0.000000 0.002751 0.000000
# 2 -0.004696 0.011006 -0.003134 0.000000 -0.002085 0.000000
# 3 0.000032 -0.003134 0.011295 0.000000 0.000735 0.000000
# 4 0.000000 0.000000 0.000000 0.025293 0.000000 -0.003224
# 5 0.002751 -0.002085 0.000735 0.000000 0.024719 0.000000
# 6 0.000000 0.000000 0.000000 -0.003224 0.000000 0.043723
#
#
# Mechanical properties :
#
#
# Convention : Reuss Voigt Hill
#
# Bulk Modulus (GPa) = 42.50097 46.84256 44.67176
# Shear Modulus (GPa) = 31.99071 34.85824 33.42447
#
# Velocity S-wave (km/s) = 4.01102 4.18692 4.09991
# Velocity P-wave (km/s) = 6.54407 6.85063 6.69910
#
# Compressibility (1/GPa) = 0.02352888
#
# Stress axis : x y z
#
# Youngs Moduli (GPa) = 59.44406 90.85562 88.53792
#
# Poissons Ratio (x) = 0.42664 -0.00284
# Poissons Ratio (y) = 0.27914 0.27744
# Poissons Ratio (z) = -0.00191 0.28470
#
# Static dielectric constant tensor:
#      x y z
#    x 3.758810 0.000000 -0.014260 
#    y 0.000000 3.771830 0.000000 
#    z -0.014260 0.000000 3.810650 
# 
# 
# High freq. dielectric constant tensor:
#      x y z
#    x 1.778150 0.000000 -0.000370 
#    y 0.000000 1.783050 0.000000 
#    z -0.000370 0.000000 1.794930 
# 
# From -- ./inp_files/15872.got.cif
#   From: 2010.06.25/outbox.cif.g09.slc.cpg/sg11_8_cif.got.tgz:15872.got - 2010.06.27 23:14:04.
