data_PCOD8077201
_publ_section_title
;
Structure prediction by ZEFSAII (Michael W. Deem and Ramdas Pophale) SiO2 
 PCOD8077201
Probable space group: P 21/M
;
_chemical_formula_sum "Si O2"
_cell_formula_units_Z 32
_cell_length_a 15.423262
_cell_length_b 8.425503
_cell_length_c 12.162084
_cell_angle_alpha 90.000000
_cell_angle_beta 89.802155
_cell_angle_gamma 90.000000
_cell_volume 1580.438072
_symmetry_space_group_name_H-M "P 21/M"
_symmetry_group_IT_number 11
_symmetry_cell_setting 'monoclinic'
loop_
_space_group_symop_operation_xyz
x,y,z
-x,1/2+y,-z
-x,-y,-z
x,1/2-y,z
loop_
_atom_site_type_symbol
_atom_site_label
_atom_site_fract_x
_atom_site_fract_y
_atom_site_fract_z
Si Si1 0.164309 0.933172 0.748315
Si Si2 0.251877 0.562105 0.362173
Si Si3 0.654850 0.931942 0.257213
Si Si4 0.904557 0.064821 0.487197
Si Si5 0.593853 0.939289 0.027488
Si Si6 0.403269 0.061503 0.510687
Si Si7 0.245211 0.937211 0.108161
Si Si8 0.908878 0.563111 0.038750
O O1 0.193815 0.750000 0.747390
O O2 0.120651 0.982558 0.635244
O O3 0.244512 0.048138 0.766810
O O4 0.100303 0.968026 0.847839
O O5 0.255441 0.750000 0.372448
O O6 0.167315 0.493739 0.427713
O O7 0.341083 0.497057 0.413322
O O8 0.245732 0.508127 0.235475
O O9 0.629254 0.750000 0.266407
O O10 0.606607 0.003978 0.151643
O O11 0.629771 0.012802 0.373100
O O12 0.908028 0.250000 0.506812
O O13 0.000000 0.000000 0.500000
O O14 0.602400 0.750000 0.019674
O O15 0.500000 0.000000 0.000000
O O16 0.663354 0.016528 0.945528
O O17 0.401912 0.250000 0.509855
O O18 0.500000 0.000000 0.500000
O O19 0.230706 0.750000 0.097576
O O20 0.166770 0.024954 0.047598
O O21 0.910994 0.750000 0.060296
O O22 0.000000 0.500000 0.000000
#
# Coordination Sequence:
#
# PCOD8077201 Si02
#       8
#     4   4   4   4   4   4   4   4
#     4  11  22  40  67  95 124 161 210 260 312 371
#     4  10  23  44  64  89 128 168 207 256 312 370
#     4  10  22  41  64  90 123 164 208 261 314 368
#     4  10  23  41  63  94 126 165 209 255 308 369
#     4  11  24  42  64  93 127 166 212 259 315 375
#     4  11  24  41  64  94 126 165 211 258 315 373
#     4  11  24  43  66  93 128 168 210 260 318 375
#     4  12  26  44  66  94 129 166 211 260 314 375
#
# _framework density 20.247551999999999
#
# number of rings (size 3 to 8) (size 9 to 14) (size 15 to 20)
#    0.000    1.250    2.500    2.625    3.500    3.500 
#    0.000    0.000    0.000    0.000    0.000    0.000 
#    0.000    0.000    0.000    0.000    0.000    0.000 
#
# Total GULP energy -396789.081520 kJ/mol
# GULP energy per Si atom -12399.658797 kJ/mol
# Density = 2.020147 g / cm^3
# Si number density = 20.247552 Si / 1000 Ang^3
#
#
#
# Elastic Constant Matrix: (Units=GPa)
#
#
# Indices 1 2 3 4 5 6 
#
# 1 135.7720 17.7339 52.1605 0.0000 7.4794 0.0000
# 2 17.7339 36.6885 35.8472 0.0000 9.3683 0.0000
# 3 52.1605 35.8472 164.1629 0.0000 3.7416 0.0000
# 4 0.0000 0.0000 0.0000 29.8858 0.0000 1.9691
# 5 7.4794 9.3683 3.7416 0.0000 36.3945 0.0000
# 6 0.0000 0.0000 0.0000 1.9691 0.0000 38.9751
#
#
#
# Elastic Compliance Matrix: (Units=1/GPa)
#
#
# Indices 1 2 3 4 5 6 
#
# 1 0.008530 -0.001545 -0.002348 0.000000 -0.001114 0.000000
# 2 -0.001545 0.037528 -0.007509 0.000000 -0.008571 0.000000
# 3 -0.002348 -0.007509 0.008442 0.000000 0.001547 0.000000
# 4 0.000000 0.000000 0.000000 0.033572 0.000000 -0.001696
# 5 -0.001114 -0.008571 0.001547 0.000000 0.029753 0.000000
# 6 0.000000 0.000000 0.000000 -0.001696 0.000000 0.025743
#
#
# Mechanical properties :
#
#
# Convention : Reuss Voigt Hill
#
# Bulk Modulus (GPa) = 31.54779 60.90073 46.22426
# Shear Modulus (GPa) = 28.25865 36.44319 32.35092
#
# Velocity S-wave (km/s) = 3.73990 4.24710 4.00155
# Velocity P-wave (km/s) = 5.85355 7.36165 6.65049
#
# Compressibility (1/GPa) = 0.03169795
#
# Stress axis : x y z
#
# Youngs Moduli (GPa) = 117.22821 26.64664 118.45863
#
# Poissons Ratio (x) = 0.04117 0.27810
# Poissons Ratio (y) = 0.18112 0.88945
# Poissons Ratio (z) = 0.27521 0.20008
#
# Static dielectric constant tensor:
#      x y z
#    x 3.524270 0.000000 0.039880 
#    y 0.000000 3.638780 0.000000 
#    z 0.039880 0.000000 4.352930 
# 
# 
# High freq. dielectric constant tensor:
#      x y z
#    x 1.801180 0.000000 -0.001300 
#    y 0.000000 1.786970 0.000000 
#    z -0.001300 0.000000 1.812420 
# 
# From -- ./inp_files/38076.got.cif
#   From: 2010.06.25/outbox.cif.g09.slc.cpg/sg11_20_cif.got.tgz:38076.got - 2010.06.27 23:14:04.
