data_PCOD8078372
_publ_section_title
;
Structure prediction by ZEFSAII (Michael W. Deem and Ramdas Pophale) SiO2 
 PCOD8078372
Probable space group: C 2/M
;
_chemical_formula_sum "Si O2"
_cell_formula_units_Z 48
_cell_length_a 14.739098
_cell_length_b 19.962565
_cell_length_c 9.278899
_cell_angle_alpha 90.000000
_cell_angle_beta 105.985197
_cell_angle_gamma 90.000000
_cell_volume 2624.565966
_symmetry_space_group_name_H-M "C 2/M"
_symmetry_group_IT_number 12
_symmetry_cell_setting 'monoclinic'
loop_
_space_group_symop_operation_xyz
x,y,z
-x,y,-z
-x,-y,-z
x,-y,z
1/2+x,1/2+y,z
1/2-x,1/2+y,-z
1/2-x,1/2-y,-z
1/2+x,1/2-y,z
loop_
_atom_site_type_symbol
_atom_site_label
_atom_site_fract_x
_atom_site_fract_y
_atom_site_fract_z
Si Si1 0.426715 0.578192 0.589256
Si Si2 0.260191 0.767062 0.284368
Si Si3 0.436168 0.316680 0.833099
Si Si4 0.034834 0.427526 0.353785
Si Si5 0.268742 0.140346 0.562684
Si Si6 0.534266 0.790104 0.681673
O O1 0.500000 0.603350 0.500000
O O2 0.438152 0.500000 0.624188
O O3 0.445919 0.614558 0.749195
O O4 0.323515 0.594927 0.486184
O O5 0.171845 0.801850 0.164139
O O6 0.281950 0.809819 0.435652
O O7 0.237404 0.688886 0.301496
O O8 0.358046 0.769109 0.238750
O O9 0.464590 0.256688 0.740019
O O10 0.500000 0.322161 0.000000
O O11 0.017804 0.500000 0.268440
O O12 0.145421 0.410988 0.392564
O O13 0.000000 0.435508 0.500000
O O14 0.976852 0.365701 0.259822
O O15 0.500000 0.786224 0.500000
#
# Coordination Sequence:
#
# PCOD8078372 Si02
#       6
#     8   8   8   8   8   8
#     4  10  21  36  56  82 109 140 179 224 274 328
#     4  10  18  30  53  78 106 139 183 218 273 316
#     4  11  23  36  53  79 110 148 186 223 266 320
#     4  10  18  28  48  81 111 134 167 221 285 330
#     4  10  16  30  52  82 106 133 171 231 275 321
#     4  11  18  35  56  80 107 141 177 235 278 326
#
# _framework density 18.288737999999999
#
# number of rings (size 3 to 8) (size 9 to 14) (size 15 to 20)
#    0.000    1.667    5.000    4.000    0.000    1.000 
#    0.000    0.000    0.000    0.500    0.000    0.000 
#    0.000    0.000    0.000    0.000    0.000    0.000 
#
# Total GULP energy -297449.366856 kJ/mol
# GULP energy per Si atom -12393.723619 kJ/mol
# Density = 1.824711 g / cm^3
# Si number density = 18.288738 Si / 1000 Ang^3
#
#
#
# Elastic Constant Matrix: (Units=GPa)
#
#
# Indices 1 2 3 4 5 6 
#
# 1 126.0583 34.9612 24.7001 0.0000 15.6857 0.0000
# 2 34.9612 110.5373 24.9990 0.0000 2.2772 0.0000
# 3 24.7001 24.9990 64.2419 0.0000 16.4683 0.0000
# 4 0.0000 0.0000 0.0000 1.8274 0.0000 3.9992
# 5 15.6857 2.2772 16.4683 0.0000 16.9145 0.0000
# 6 0.0000 0.0000 0.0000 3.9992 0.0000 42.0412
#
#
#
# Elastic Compliance Matrix: (Units=1/GPa)
#
#
# Indices 1 2 3 4 5 6 
#
# 1 0.009846 -0.002811 -0.000597 0.000000 -0.008171 0.000000
# 2 -0.002811 0.010856 -0.004581 0.000000 0.005605 0.000000
# 3 -0.000597 -0.004581 0.023025 0.000000 -0.021247 0.000000
# 4 0.000000 0.000000 0.000000 0.691112 0.000000 -0.065743
# 5 -0.008171 0.005605 -0.021247 0.000000 0.086630 0.000000
# 6 0.000000 0.000000 0.000000 -0.065743 0.000000 0.030040
#
#
# Mechanical properties :
#
#
# Convention : Reuss Voigt Hill
#
# Bulk Modulus (GPa) = 36.03633 52.23978 44.13805
# Shear Modulus (GPa) = 5.70296 26.56844 16.13570
#
# Velocity S-wave (km/s) = 1.76778 3.81559 2.97353
# Velocity P-wave (km/s) = 4.89016 6.93091 5.99797
#
# Compressibility (1/GPa) = 0.02774977
#
# Stress axis : x y z
#
# Youngs Moduli (GPa) = 101.56271 92.11321 43.43115
#
# Poissons Ratio (x) = 0.25891 0.02594
# Poissons Ratio (y) = 0.28547 0.19894
# Poissons Ratio (z) = 0.06067 0.42194
#
# Static dielectric constant tensor:
#      x y z
#    x 3.786910 0.000000 0.053300 
#    y 0.000000 3.746790 0.000000 
#    z 0.053300 0.000000 2.777960 
# 
# 
# High freq. dielectric constant tensor:
#      x y z
#    x 1.735130 0.000000 0.008400 
#    y 0.000000 1.721640 0.000000 
#    z 0.008400 0.000000 1.639680 
# 
# From -- ./inp_files/63572.got.cif
#   From: 2010.06.25/outbox.cif.g09.slc.cpg/sg12_32_cif.got.tgz:63572.got - 2010.06.28 00:19:55.
