data_PCOD8078547
_publ_section_title
;
Structure prediction by ZEFSAII (Michael W. Deem and Ramdas Pophale) SiO2 
 PCOD8078547
Probable space group: C 2/M
;
_chemical_formula_sum "Si O2"
_cell_formula_units_Z 64
_cell_length_a 24.093352
_cell_length_b 9.360470
_cell_length_c 24.468180
_cell_angle_alpha 90.000000
_cell_angle_beta 48.901423
_cell_angle_gamma 90.000000
_cell_volume 4158.395093
_symmetry_space_group_name_H-M "C 2/M"
_symmetry_group_IT_number 12
_symmetry_cell_setting 'monoclinic'
loop_
_space_group_symop_operation_xyz
x,y,z
-x,y,-z
-x,-y,-z
x,-y,z
1/2+x,1/2+y,z
1/2-x,1/2+y,-z
1/2-x,1/2-y,-z
1/2+x,1/2-y,z
loop_
_atom_site_type_symbol
_atom_site_label
_atom_site_fract_x
_atom_site_fract_y
_atom_site_fract_z
Si Si1 0.327478 0.833245 0.512939
Si Si2 0.288697 0.667265 0.023708
Si Si3 0.027653 0.335315 0.741899
Si Si4 0.548998 0.334377 0.303261
Si Si5 0.186320 0.337634 0.604038
Si Si6 0.075114 0.842063 0.125936
Si Si7 0.687234 0.341302 0.154260
Si Si8 0.035061 0.165767 0.534585
O O1 0.250071 0.767521 0.583412
O O2 0.337846 0.800738 0.442159
O O3 0.392725 0.759581 0.503721
O O4 0.327759 0.000000 0.526200
O O5 0.269425 0.500000 0.032757
O O6 0.255910 0.732386 0.101464
O O7 0.250000 0.750000 0.000000
O O8 0.377236 0.692001 0.960007
O O9 0.004743 0.500000 0.753095
O O10 0.115709 0.316718 0.688792
O O11 0.000308 0.259397 0.704922
O O12 0.990984 0.268949 0.820459
O O13 0.535144 0.500000 0.296897
O O14 0.636504 0.298866 0.239391
O O15 0.526124 0.300373 0.379874
O O16 0.215739 0.500000 0.587624
O O17 0.132039 0.835591 0.138949
O O18 0.040288 0.000000 0.143858
O O19 0.720574 0.500000 0.139496
O O20 0.000000 0.210451 0.500000
O O21 0.058161 0.000000 0.520689
#
# Coordination Sequence:
#
# PCOD8078547 Si02
#       8
#     8   8   8   8   8   8   8   8
#     4  10  19  31  46  64  83 106 137 173 213 251
#     4   9  15  22  31  45  67  96 129 162 193 230
#     4  10  17  25  39  59  80 103 134 170 204 238
#     4   9  17  28  40  55  77 103 134 170 206 246
#     4   9  18  30  43  62  86 108 135 172 210 250
#     4   8  15  24  32  47  73 102 131 160 195 237
#     4   8  14  23  34  48  67  94 128 165 199 231
#     4  10  20  33  48  63  82 111 142 173 213 257
#
# _framework density 15.390552
#
# number of rings (size 3 to 8) (size 9 to 14) (size 15 to 20)
#    0.000    2.875    1.250    2.625    0.000    6.750 
#    0.000    0.000    0.000    0.000    0.000    0.000 
#    0.000    0.000    0.000    1.125    0.000   23.625 
#
# Total GULP energy -396566.867464 kJ/mol
# GULP energy per Si atom -12392.714608 kJ/mol
# Density = 1.535552 g / cm^3
# Si number density = 15.390552 Si / 1000 Ang^3
#
#
#
# Elastic Constant Matrix: (Units=GPa)
#
#
# Indices 1 2 3 4 5 6 
#
# 1 50.6464 40.4558 39.3608 -0.0001 -8.2554 -0.0001
# 2 40.4558 101.8244 66.4472 -0.0003 -15.4961 -0.0003
# 3 39.3608 66.4472 121.1062 -0.0001 -21.5837 0.0001
# 4 -0.0001 -0.0003 -0.0001 27.6116 0.0001 -7.5923
# 5 -8.2554 -15.4961 -21.5837 0.0001 13.3273 0.0000
# 6 -0.0001 -0.0003 0.0001 -7.5923 0.0000 16.4334
#
#
#
# Elastic Compliance Matrix: (Units=1/GPa)
#
#
# Indices 1 2 3 4 5 6 
#
# 1 0.030856 -0.008868 -0.005053 0.000000 0.000620 0.000000
# 2 -0.008868 0.018184 -0.006052 0.000000 0.005848 0.000000
# 3 -0.005053 -0.006052 0.016037 0.000000 0.015805 0.000000
# 4 0.000000 0.000000 0.000000 0.041487 0.000000 0.019167
# 5 0.000620 0.005848 0.015805 0.000000 0.107813 0.000000
# 6 0.000000 0.000000 0.000000 0.019167 0.000000 0.069707
#
#
# Mechanical properties :
#
#
# Convention : Reuss Voigt Hill
#
# Bulk Modulus (GPa) = 39.79192 62.90052 51.34622
# Shear Modulus (GPa) = 15.04179 19.96200 17.50189
#
# Velocity S-wave (km/s) = 3.12963 3.60534 3.37587
# Velocity P-wave (km/s) = 6.24263 7.63476 6.97352
#
# Compressibility (1/GPa) = 0.02513073
#
# Stress axis : x y z
#
# Youngs Moduli (GPa) = 32.40850 54.99413 62.35617
#
# Poissons Ratio (x) = 0.48769 0.31506
# Poissons Ratio (y) = 0.28740 0.37741
# Poissons Ratio (z) = 0.16374 0.33285
#
# Static dielectric constant tensor:
#      x y z
#    x 2.345320 0.000000 -0.229610 
#    y 0.000000 3.098150 0.000000 
#    z -0.229610 0.000000 3.656730 
# 
# 
# High freq. dielectric constant tensor:
#      x y z
#    x 1.508700 0.000000 -0.026970 
#    y 0.000000 1.600650 0.000000 
#    z -0.026970 0.000000 1.604500 
# 
# From -- ./inp_files/367048.got.cif
#   From: 2010.06.25/outbox.cif.g09.slc.cpg/sg12_184_cif.got.tgz:367048.got - 2010.06.28 00:19:55.
