data_PCOD8078098
_publ_section_title
;
Structure prediction by ZEFSAII (Michael W. Deem and Ramdas Pophale) SiO2 
 PCOD8078098
Probable space group: C 2/M
;
_chemical_formula_sum "Si O2"
_cell_formula_units_Z 32
_cell_length_a 13.717488
_cell_length_b 14.721466
_cell_length_c 9.799493
_cell_angle_alpha 90.000000
_cell_angle_beta 55.191892
_cell_angle_gamma 90.000000
_cell_volume 1624.832565
_symmetry_space_group_name_H-M "C 2/M"
_symmetry_group_IT_number 12
_symmetry_cell_setting 'monoclinic'
loop_
_space_group_symop_operation_xyz
x,y,z
-x,y,-z
-x,-y,-z
x,-y,z
1/2+x,1/2+y,z
1/2-x,1/2+y,-z
1/2-x,1/2-y,-z
1/2+x,1/2-y,z
loop_
_atom_site_type_symbol
_atom_site_label
_atom_site_fract_x
_atom_site_fract_y
_atom_site_fract_z
Si Si1 0.471452 0.396459 0.314498
Si Si2 0.113712 0.500000 0.508356
Si Si3 0.311530 0.648565 0.703929
Si Si4 0.880873 0.500000 0.179141
Si Si5 0.734766 0.317052 0.640098
O O1 0.479686 0.500000 0.266019
O O2 0.604856 0.360575 0.229976
O O3 0.388410 0.384881 0.513715
O O4 0.405006 0.343942 0.243992
O O5 0.079571 0.500000 0.694549
O O6 0.188074 0.408586 0.422406
O O7 0.000000 0.500000 0.500000
O O8 0.193922 0.588353 0.803850
O O9 0.274057 0.754828 0.735611
O O10 0.000000 0.500000 0.000000
O O11 0.750000 0.250000 0.500000
#
# Coordination Sequence:
#
# PCOD8078098 Si02
#       5
#     8   4   8   4   8
#     4  10  15  29  54  80 113 136 199 258 273 316
#     4  12  24  37  55  94 124 148 190 253 312 333
#     4  10  18  30  54  88 107 146 197 240 288 326
#     4  12  22  38  58  87 129 158 189 239 292 369
#     4  10  19  31  54  85 122 142 185 253 300 332
#
# _framework density 19.694337000000001
#
# number of rings (size 3 to 8) (size 9 to 14) (size 15 to 20)
#    0.000    1.500    8.750    0.750    7.000    0.000 
#    0.000    0.000    0.000    6.000    0.000    2.625 
#    0.000    0.000    0.000    0.000    0.000    0.000 
#
# Total GULP energy -198211.873005 kJ/mol
# GULP energy per Si atom -12388.242063 kJ/mol
# Density = 1.964951 g / cm^3
# Si number density = 19.694337 Si / 1000 Ang^3
#
#
#
# Elastic Constant Matrix: (Units=GPa)
#
#
# Indices 1 2 3 4 5 6 
#
# 1 179.0204 92.7726 39.4947 0.0000 -42.5270 0.0000
# 2 92.7726 196.1654 30.1515 0.0000 -23.1182 0.0000
# 3 39.4947 30.1515 57.0962 0.0000 -22.1153 0.0000
# 4 0.0000 0.0000 0.0000 6.9212 0.0000 -8.3201
# 5 -42.5270 -23.1182 -22.1153 0.0000 22.3322 0.0000
# 6 0.0000 0.0000 0.0000 -8.3201 0.0000 44.5011
#
#
#
# Elastic Compliance Matrix: (Units=1/GPa)
#
#
# Indices 1 2 3 4 5 6 
#
# 1 0.011960 -0.003453 0.001602 0.000000 0.020788 0.000000
# 2 -0.003453 0.006854 -0.001670 0.000000 -0.001134 0.000000
# 3 0.001602 -0.001670 0.028876 0.000000 0.029918 0.000000
# 4 0.000000 0.000000 0.000000 0.186371 0.000000 0.034845
# 5 0.020788 -0.001134 0.029918 0.000000 0.112817 0.000000
# 6 0.000000 0.000000 0.000000 0.034845 0.000000 0.028986
#
#
# Mechanical properties :
#
#
# Convention : Reuss Voigt Hill
#
# Bulk Modulus (GPa) = 24.60138 84.12441 54.36289
# Shear Modulus (GPa) = 12.61178 32.74178 22.67678
#
# Velocity S-wave (km/s) = 2.53331 4.08180 3.39696
# Velocity P-wave (km/s) = 4.59082 8.06365 6.56118
#
# Compressibility (1/GPa) = 0.04064812
#
# Stress axis : x y z
#
# Youngs Moduli (GPa) = 83.61273 145.90696 34.63058
#
# Poissons Ratio (x) = 0.50376 -0.05548
# Poissons Ratio (y) = 0.28868 0.05784
# Poissons Ratio (z) = -0.13395 0.24370
#
# Static dielectric constant tensor:
#      x y z
#    x 4.668660 0.000000 -0.384870 
#    y 0.000000 4.320650 0.000000 
#    z -0.384870 0.000000 2.888720 
# 
# 
# High freq. dielectric constant tensor:
#      x y z
#    x 1.789770 0.000000 -0.036490 
#    y 0.000000 1.790380 0.000000 
#    z -0.036490 0.000000 1.683570 
# 
# From -- ./inp_files/58733.got.cif
#   From: 2010.06.25/outbox.cif.g09.slc.cpg/sg12_30_cif.got.tgz:58733.got - 2010.06.28 00:19:55.
