data_PCOD8078786
_publ_section_title
;
Structure prediction by ZEFSAII (Michael W. Deem and Ramdas Pophale) SiO2 
 PCOD8078786
Probable space group: C 2/M
;
_chemical_formula_sum "Si O2"
_cell_formula_units_Z 64
_cell_length_a 12.958791
_cell_length_b 21.309043
_cell_length_c 19.730215
_cell_angle_alpha 90.000000
_cell_angle_beta 130.296049
_cell_angle_gamma 90.000000
_cell_volume 4155.481542
_symmetry_space_group_name_H-M "C 2/M"
_symmetry_group_IT_number 12
_symmetry_cell_setting 'monoclinic'
loop_
_space_group_symop_operation_xyz
x,y,z
-x,y,-z
-x,-y,-z
x,-y,z
1/2+x,1/2+y,z
1/2-x,1/2+y,-z
1/2-x,1/2-y,-z
1/2+x,1/2-y,z
loop_
_atom_site_type_symbol
_atom_site_label
_atom_site_fract_x
_atom_site_fract_y
_atom_site_fract_z
Si Si1 0.369570 0.261945 0.786797
Si Si2 0.915227 0.168806 0.526080
Si Si3 0.639810 0.164240 0.337602
Si Si4 0.812392 0.570686 0.751454
Si Si5 0.568895 0.233327 0.675984
Si Si6 0.580874 0.664966 0.799286
Si Si7 0.122535 0.338079 0.101554
Si Si8 0.508180 0.428783 0.665146
O O1 0.371831 0.211070 0.729507
O O2 0.487355 0.313339 0.822728
O O3 0.396882 0.230006 0.871317
O O4 0.218449 0.291238 0.720034
O O5 0.764574 0.183506 0.437901
O O6 0.987959 0.233683 0.580044
O O7 0.905250 0.115185 0.579638
O O8 0.000000 0.140281 0.500000
O O9 0.647816 0.095702 0.306804
O O10 0.508371 0.171769 0.329338
O O11 0.865970 0.500000 0.779961
O O12 0.879103 0.609273 0.840888
O O13 0.651235 0.574953 0.687787
O O14 0.577331 0.286859 0.735924
O O15 0.739978 0.658990 0.885618
O O16 0.523850 0.598202 0.748180
O O17 0.000000 0.352191 0.000000
O O18 0.453440 0.500000 0.645816
#
# Coordination Sequence:
#
# PCOD8078786 Si02
#       8
#     8   8   8   8   8   8   8   8
#     4   9  16  29  44  60  84 111 139 167 202 247
#     4  11  16  25  39  63  88 110 140 171 207 245
#     4  10  17  27  41  60  85 112 141 174 206 241
#     4   9  17  29  43  59  83 113 140 168 202 245
#     4   9  17  27  41  60  85 112 139 171 207 240
#     4   8  16  29  44  61  83 110 138 168 199 245
#     4   9  17  28  43  67  91 106 127 163 208 254
#     4   9  17  28  41  59  84 112 141 172 204 238
#
# _framework density 15.401343000000001
#
# number of rings (size 3 to 8) (size 9 to 14) (size 15 to 20)
#    0.000    2.750    2.500    1.875    0.000    1.500 
#    0.000    0.000    0.000    0.750    0.000    0.875 
#    0.000    1.500    0.000    0.000    0.000    0.000 
#
# Total GULP energy -396568.968286 kJ/mol
# GULP energy per Si atom -12392.780259 kJ/mol
# Density = 1.536629 g / cm^3
# Si number density = 15.401343 Si / 1000 Ang^3
#
#
#
# Elastic Constant Matrix: (Units=GPa)
#
#
# Indices 1 2 3 4 5 6 
#
# 1 81.5112 32.8137 22.0931 0.0000 9.5147 0.0000
# 2 32.8137 64.1967 14.3996 0.0000 -0.0310 0.0000
# 3 22.0931 14.3996 74.7219 0.0000 10.8110 0.0000
# 4 0.0000 0.0000 0.0000 4.2846 0.0000 0.2011
# 5 9.5147 -0.0310 10.8110 0.0000 15.6399 0.0000
# 6 0.0000 0.0000 0.0000 0.2011 0.0000 17.3421
#
#
#
# Elastic Compliance Matrix: (Units=1/GPa)
#
#
# Indices 1 2 3 4 5 6 
#
# 1 0.017272 -0.008340 -0.002197 0.000000 -0.009006 0.000000
# 2 -0.008340 0.020393 -0.002449 0.000000 0.006807 0.000000
# 3 -0.002197 -0.002449 0.015902 0.000000 -0.009661 0.000000
# 4 0.000000 0.000000 0.000000 0.233522 0.000000 -0.002708
# 5 -0.009006 0.006807 -0.009661 0.000000 0.076109 0.000000
# 6 0.000000 0.000000 0.000000 -0.002708 0.000000 0.057695
#
#
# Mechanical properties :
#
#
# Convention : Reuss Voigt Hill
#
# Bulk Modulus (GPa) = 36.23741 39.89363 38.06552
# Shear Modulus (GPa) = 10.96341 17.52822 14.24581
#
# Velocity S-wave (km/s) = 2.67094 3.37723 3.04463
# Velocity P-wave (km/s) = 5.75254 6.41611 6.09337
#
# Compressibility (1/GPa) = 0.02759579
#
# Stress axis : x y z
#
# Youngs Moduli (GPa) = 57.89571 49.03705 62.88482
#
# Poissons Ratio (x) = 0.40898 0.13814
# Poissons Ratio (y) = 0.48287 0.15399
# Poissons Ratio (z) = 0.12718 0.12008
#
# Static dielectric constant tensor:
#      x y z
#    x 3.117730 0.000000 0.044760 
#    y 0.000000 2.946870 0.000000 
#    z 0.044760 0.000000 2.813070 
# 
# 
# High freq. dielectric constant tensor:
#      x y z
#    x 1.572770 0.000000 0.005020 
#    y 0.000000 1.562370 0.000000 
#    z 0.005020 0.000000 1.581300 
# 
# From -- ./inp_files/215907.got.cif
#   From: 2010.06.25/outbox.cif.g09.slc.cpg/sg12_108_cif.got.tgz:215907.got - 2010.06.28 00:19:55.
