data_PCOD8078027
_publ_section_title
;
Structure prediction by ZEFSAII (Michael W. Deem and Ramdas Pophale) SiO2 
 PCOD8078027
Probable space group: C 2/M
;
_chemical_formula_sum "Si O2"
_cell_formula_units_Z 64
_cell_length_a 26.896630
_cell_length_b 21.689349
_cell_length_c 9.969640
_cell_angle_alpha 90.000000
_cell_angle_beta 134.544707
_cell_angle_gamma 90.000000
_cell_volume 4145.077416
_symmetry_space_group_name_H-M "C 2/M"
_symmetry_group_IT_number 12
_symmetry_cell_setting 'monoclinic'
loop_
_space_group_symop_operation_xyz
x,y,z
-x,y,-z
-x,-y,-z
x,-y,z
1/2+x,1/2+y,z
1/2-x,1/2+y,-z
1/2-x,1/2-y,-z
1/2+x,1/2-y,z
loop_
_atom_site_type_symbol
_atom_site_label
_atom_site_fract_x
_atom_site_fract_y
_atom_site_fract_z
Si Si1 0.156452 0.851409 0.051758
Si Si2 0.713624 0.784668 0.732944
Si Si3 0.416718 0.229920 0.190278
Si Si4 0.545466 0.570667 0.961845
Si Si5 0.782694 0.668411 0.958125
Si Si6 0.819619 0.929127 0.169461
Si Si7 0.432857 0.752416 0.534470
Si Si8 0.043679 0.884991 0.447845
O O1 0.110538 0.791723 0.930675
O O2 0.163548 0.895116 0.936750
O O3 0.116737 0.889361 0.092073
O O4 0.232585 0.827957 0.249484
O O5 0.720095 0.808949 0.895385
O O6 0.634330 0.786222 0.524160
O O7 0.737193 0.713344 0.777573
O O8 0.363954 0.172422 0.063247
O O9 0.494903 0.213567 0.285911
O O10 0.419787 0.244943 0.352110
O O11 0.566923 0.500000 0.025016
O O12 0.502884 0.576378 0.743263
O O13 0.500000 0.595276 0.000000
O O14 0.748783 0.600505 0.887269
O O15 0.886130 0.923338 0.392460
O O16 0.802388 0.000000 0.108211
O O17 0.437684 0.680763 0.583545
O O18 0.000000 0.874210 0.500000
#
# Coordination Sequence:
#
# PCOD8078027 Si02
#       8
#     8   8   8   8   8   8   8   8
#     4  10  16  28  40  61  79 110 143 175 206 247
#     4   8  14  21  39  56  84 104 132 173 214 247
#     4   9  14  22  40  60  86 106 136 171 217 249
#     4  11  23  34  42  57  88 125 148 164 199 252
#     4   8  14  23  32  57  87 111 129 167 213 256
#     4  11  18  24  39  62  86 109 138 178 213 237
#     4  10  12  22  39  66  84 104 130 174 216 246
#     4  12  18  28  44  67  87 108 142 178 208 240
#
# _framework density 15.440001000000001
#
# number of rings (size 3 to 8) (size 9 to 14) (size 15 to 20)
#    0.000    2.125    6.250    2.250    0.000    0.500 
#    0.000    0.000    0.000    0.750    0.000   16.625 
#    0.000    0.000    0.000    0.000    0.000   13.125 
#
# Total GULP energy -396449.883491 kJ/mol
# GULP energy per Si atom -12389.058859 kJ/mol
# Density = 1.540486 g / cm^3
# Si number density = 15.440001 Si / 1000 Ang^3
#
#
#
# Elastic Constant Matrix: (Units=GPa)
#
#
# Indices 1 2 3 4 5 6 
#
# 1 81.7069 41.2985 38.1610 0.0000 31.3701 0.0000
# 2 41.2985 59.1547 25.7088 0.0000 21.8800 0.0000
# 3 38.1610 25.7088 49.5554 0.0000 34.0883 0.0000
# 4 0.0000 0.0000 0.0000 10.3540 0.0000 7.2626
# 5 31.3701 21.8800 34.0883 0.0000 35.2245 0.0000
# 6 0.0000 0.0000 0.0000 7.2626 0.0000 21.9400
#
#
#
# Elastic Compliance Matrix: (Units=1/GPa)
#
#
# Indices 1 2 3 4 5 6 
#
# 1 0.024179 -0.010734 -0.008450 0.000000 -0.006688 0.000000
# 2 -0.010734 0.027327 -0.002424 0.000000 -0.005069 0.000000
# 3 -0.008450 -0.002424 0.065005 0.000000 -0.053877 0.000000
# 4 0.000000 0.000000 0.000000 0.125788 0.000000 -0.041639
# 5 -0.006688 -0.005069 -0.053877 0.000000 0.089633 0.000000
# 6 0.000000 0.000000 0.000000 -0.041639 0.000000 0.059362
#
#
# Mechanical properties :
#
#
# Convention : Reuss Voigt Hill
#
# Bulk Modulus (GPa) = 13.64358 44.52820 29.08589
# Shear Modulus (GPa) = 10.89460 19.18693 15.04076
#
# Velocity S-wave (km/s) = 2.65921 3.52899 3.12451
# Velocity P-wave (km/s) = 4.27601 6.74590 5.64763
#
# Compressibility (1/GPa) = 0.07329457
#
# Stress axis : x y z
#
# Youngs Moduli (GPa) = 41.35875 36.59348 15.38337
#
# Poissons Ratio (x) = 0.39280 0.12999
# Poissons Ratio (y) = 0.44395 0.03729
# Poissons Ratio (z) = 0.34948 0.08871
#
# Static dielectric constant tensor:
#      x y z
#    x 3.045780 0.000000 0.626970 
#    y 0.000000 2.876280 0.000000 
#    z 0.626970 0.000000 3.063310 
# 
# 
# High freq. dielectric constant tensor:
#      x y z
#    x 1.563680 0.000000 0.041080 
#    y 0.000000 1.565080 0.000000 
#    z 0.041080 0.000000 1.571050 
# 
# From -- ./inp_files/177598.got.cif
#   From: 2010.06.25/outbox.cif.g09.slc.cpg/sg12_89_cif.got.tgz:177598.got - 2010.06.28 00:19:55.
