data_PCOD8078408
_publ_section_title
;
Structure prediction by ZEFSAII (Michael W. Deem and Ramdas Pophale) SiO2 
 PCOD8078408
Probable space group: C 2/M
;
_chemical_formula_sum "Si O2"
_cell_formula_units_Z 48
_cell_length_a 22.552203
_cell_length_b 16.238066
_cell_length_c 9.514689
_cell_angle_alpha 90.000000
_cell_angle_beta 51.406089
_cell_angle_gamma 90.000000
_cell_volume 2723.297397
_symmetry_space_group_name_H-M "C 2/M"
_symmetry_group_IT_number 12
_symmetry_cell_setting 'monoclinic'
loop_
_space_group_symop_operation_xyz
x,y,z
-x,y,-z
-x,-y,-z
x,-y,z
1/2+x,1/2+y,z
1/2-x,1/2+y,-z
1/2-x,1/2-y,-z
1/2+x,1/2-y,z
loop_
_atom_site_type_symbol
_atom_site_label
_atom_site_fract_x
_atom_site_fract_y
_atom_site_fract_z
Si Si1 0.452637 0.407411 0.433548
Si Si2 0.461821 0.325306 0.905941
Si Si3 0.842556 0.236397 0.515770
Si Si4 0.434373 0.906871 0.988926
Si Si5 0.327299 0.243153 0.210093
Si Si6 0.982410 0.324278 0.363945
O O1 0.500000 0.379460 0.500000
O O2 0.421226 0.500000 0.498244
O O3 0.509635 0.408455 0.212015
O O4 0.381239 0.347006 0.516972
O O5 0.489622 0.258496 0.751935
O O6 0.500000 0.310350 0.000000
O O7 0.371266 0.315094 0.058190
O O8 0.759858 0.242637 0.709777
O O9 0.834088 0.231924 0.361598
O O10 0.890524 0.318985 0.484293
O O11 0.474598 0.899443 0.776399
O O12 0.404651 0.000000 0.052219
O O13 0.500000 0.882955 0.000000
O O14 0.364436 0.845442 0.118732
O O15 0.000000 0.329090 0.500000
#
# Coordination Sequence:
#
# PCOD8078408 Si02
#       6
#     8   8   8   8   8   8
#     4  10  21  36  53  75 105 139 171 206 254 310
#     4  10  16  32  52  76 102 130 174 212 244 296
#     4  10  18  32  52  77 103 130 163 214 257 294
#     4  10  19  34  53  73 100 133 170 207 247 297
#     4  10  18  31  53  78 103 124 169 217 252 295
#     4  10  18  32  52  76 103 132 169 204 247 303
#
# _framework density 17.625689999999999
#
# number of rings (size 3 to 8) (size 9 to 14) (size 15 to 20)
#    0.000    2.000    5.000    3.000    0.000    1.333 
#    0.000    7.500    0.000    1.000    0.000    0.000 
#    0.000    0.000    0.000    0.000    0.000    0.000 
#
# Total GULP energy -297314.875052 kJ/mol
# GULP energy per Si atom -12388.119794 kJ/mol
# Density = 1.758557 g / cm^3
# Si number density = 17.625690 Si / 1000 Ang^3
#
#
#
# Elastic Constant Matrix: (Units=GPa)
#
#
# Indices 1 2 3 4 5 6 
#
# 1 99.5157 22.5899 61.3592 0.0000 -16.0239 0.0000
# 2 22.5899 46.8841 15.7512 0.0000 -8.4277 0.0000
# 3 61.3592 15.7512 107.6734 0.0000 -8.4172 0.0000
# 4 0.0000 0.0000 0.0000 19.5061 0.0000 -0.9421
# 5 -16.0239 -8.4277 -8.4172 0.0000 46.2757 0.0000
# 6 0.0000 0.0000 0.0000 -0.9421 0.0000 19.3115
#
#
#
# Elastic Compliance Matrix: (Units=1/GPa)
#
#
# Indices 1 2 3 4 5 6 
#
# 1 0.017077 -0.004655 -0.008780 0.000000 0.003469 0.000000
# 2 -0.004655 0.024287 -0.000690 0.000000 0.002686 0.000000
# 3 -0.008780 -0.000690 0.014348 0.000000 -0.000556 0.000000
# 4 0.000000 0.000000 0.000000 0.051387 0.000000 0.002507
# 5 0.003469 0.002686 -0.000556 0.000000 0.023199 0.000000
# 6 0.000000 0.000000 0.000000 0.002507 0.000000 0.051905
#
#
# Mechanical properties :
#
#
# Convention : Reuss Voigt Hill
#
# Bulk Modulus (GPa) = 36.41344 50.38598 43.39971
# Shear Modulus (GPa) = 22.76805 27.31019 25.03912
#
# Velocity S-wave (km/s) = 3.59800 3.94058 3.77318
# Velocity P-wave (km/s) = 6.16157 7.02517 6.60749
#
# Compressibility (1/GPa) = 0.02746239
#
# Stress axis : x y z
#
# Youngs Moduli (GPa) = 58.55786 41.17475 69.69629
#
# Poissons Ratio (x) = 0.19167 0.61190
# Poissons Ratio (y) = 0.27259 0.04810
# Poissons Ratio (z) = 0.51411 0.02842
#
# Static dielectric constant tensor:
#      x y z
#    x 3.324260 0.000000 -0.185110 
#    y 0.000000 3.217700 0.000000 
#    z -0.185110 0.000000 3.715810 
# 
# 
# High freq. dielectric constant tensor:
#      x y z
#    x 1.669680 0.000000 0.003520 
#    y 0.000000 1.657720 0.000000 
#    z 0.003520 0.000000 1.690060 
# 
# From -- ./inp_files/97560.got.cif
#   From: 2010.06.25/outbox.cif.g09.slc.cpg/sg12_49_cif.got.tgz:97560.got - 2010.06.28 00:19:55.
