data_PCOD8078213
_publ_section_title
;
Structure prediction by ZEFSAII (Michael W. Deem and Ramdas Pophale) SiO2 
 PCOD8078213
Probable space group: C 2/M
;
_chemical_formula_sum "Si O2"
_cell_formula_units_Z 56
_cell_length_a 30.134991
_cell_length_b 13.113761
_cell_length_c 25.935285
_cell_angle_alpha 90.000000
_cell_angle_beta 19.691785
_cell_angle_gamma 90.000000
_cell_volume 3453.568307
_symmetry_space_group_name_H-M "C 2/M"
_symmetry_group_IT_number 12
_symmetry_cell_setting 'monoclinic'
loop_
_space_group_symop_operation_xyz
x,y,z
-x,y,-z
-x,-y,-z
x,-y,z
1/2+x,1/2+y,z
1/2-x,1/2+y,-z
1/2-x,1/2-y,-z
1/2+x,1/2-y,z
loop_
_atom_site_type_symbol
_atom_site_label
_atom_site_fract_x
_atom_site_fract_y
_atom_site_fract_z
Si Si1 0.821822 0.114660 0.449356
Si Si2 0.038835 0.740754 0.239195
Si Si3 0.805444 0.615740 0.519734
Si Si4 0.248283 0.380244 0.944595
Si Si5 0.156546 0.387814 0.827216
Si Si6 0.122749 0.381617 0.974721
Si Si7 0.839853 0.707128 0.281880
O O1 0.720989 0.126701 0.512456
O O2 0.747215 0.140699 0.583750
O O3 0.946839 0.188451 0.303618
O O4 0.875679 0.000000 0.393555
O O5 0.121517 0.816582 0.184965
O O6 0.946588 0.668994 0.375922
O O7 0.126569 0.665604 0.109248
O O8 0.808257 0.500000 0.535829
O O9 0.689670 0.673139 0.677422
O O10 0.264753 0.500000 0.940368
O O11 0.222840 0.364609 0.911901
O O12 0.215275 0.500000 0.752250
O O13 0.198711 0.349644 0.838558
O O14 0.204653 0.316106 0.728234
O O15 0.000000 0.392078 0.000000
O O16 0.077576 0.500000 0.020409
O O17 0.992821 0.313934 0.124841
#
# Coordination Sequence:
#
# PCOD8078213 Si02
#       7
#     8   8   8   8   8   8   8
#     4  10  18  28  44  66  91 113 140 178 216 259
#     4  10  19  30  44  64  88 117 147 174 210 255
#     4  10  20  31  44  63  86 114 147 182 217 253
#     4  10  19  30  45  64  89 119 146 174 208 252
#     4   8  14  24  41  67  92 112 137 170 212 260
#     4   9  16  27  45  69  94 115 138 170 212 262
#     4  10  16  26  45  67  89 116 142 173 217 258
#
# _framework density 16.215112999999999
#
# number of rings (size 3 to 8) (size 9 to 14) (size 15 to 20)
#    0.000    2.429    0.000    6.429    0.000    2.286 
#    0.000    0.000    0.000    8.143    0.000   14.000 
#    0.000    0.000    0.000    0.000    0.000    0.000 
#
# Total GULP energy -347051.762642 kJ/mol
# GULP energy per Si atom -12394.705809 kJ/mol
# Density = 1.617821 g / cm^3
# Si number density = 16.215113 Si / 1000 Ang^3
#
#
#
# Elastic Constant Matrix: (Units=GPa)
#
#
# Indices 1 2 3 4 5 6 
#
# 1 90.6544 46.3274 29.7500 0.0012 11.1944 -0.0007
# 2 46.3274 129.6510 46.5443 0.0014 2.0183 -0.0006
# 3 29.7500 46.5443 57.4933 0.0028 0.5431 -0.0016
# 4 0.0012 0.0014 0.0028 21.7365 -0.0010 -2.5872
# 5 11.1944 2.0183 0.5431 -0.0010 22.8685 0.0004
# 6 -0.0007 -0.0006 -0.0016 -2.5872 0.0004 20.4845
#
#
#
# Elastic Compliance Matrix: (Units=1/GPa)
#
#
# Indices 1 2 3 4 5 6 
#
# 1 0.015379 -0.003598 -0.004978 0.000000 -0.007092 0.000000
# 2 -0.003598 0.011728 -0.007641 0.000000 0.000907 0.000000
# 3 -0.004978 -0.007641 0.026132 -0.000002 0.002491 0.000001
# 4 0.000000 0.000000 -0.000002 0.046708 0.000002 0.005899
# 5 -0.007092 0.000907 0.002491 0.000002 0.047061 -0.000001
# 6 0.000000 0.000000 0.000001 0.005899 -0.000001 0.049562
#
#
# Mechanical properties :
#
#
# Convention : Reuss Voigt Hill
#
# Bulk Modulus (GPa) = 48.06752 58.11579 53.09166
# Shear Modulus (GPa) = 21.19197 23.36303 22.27750
#
# Velocity S-wave (km/s) = 3.61907 3.79993 3.71060
# Velocity P-wave (km/s) = 6.86815 7.42771 7.15341
#
# Compressibility (1/GPa) = 0.02080407
#
# Stress axis : x y z
#
# Youngs Moduli (GPa) = 65.02378 85.26933 38.26746
#
# Poissons Ratio (x) = 0.30677 0.19051
# Poissons Ratio (y) = 0.23393 0.29241
# Poissons Ratio (z) = 0.32371 0.65155
#
# Static dielectric constant tensor:
#      x y z
#    x 3.277370 0.000000 0.055210 
#    y 0.000000 3.194620 0.000000 
#    z 0.055210 0.000000 2.911240 
# 
# 
# High freq. dielectric constant tensor:
#      x y z
#    x 1.614150 0.000000 0.001300 
#    y 0.000000 1.622340 0.000000 
#    z 0.001300 0.000000 1.601900 
# 
# From -- ./inp_files/104112.got.cif
#   From: 2010.06.25/outbox.cif.g09.slc.cpg/sg12_53_cif.got.tgz:104112.got - 2010.06.28 00:19:55.
