data_PCOD8078645
_publ_section_title
;
Structure prediction by ZEFSAII (Michael W. Deem and Ramdas Pophale) SiO2 
 PCOD8078645
Probable space group: C 2/M
;
_chemical_formula_sum "Si O2"
_cell_formula_units_Z 64
_cell_length_a 27.018996
_cell_length_b 9.385569
_cell_length_c 24.183730
_cell_angle_alpha 90.000000
_cell_angle_beta 136.885811
_cell_angle_gamma 90.000000
_cell_volume 4191.435173
_symmetry_space_group_name_H-M "C 2/M"
_symmetry_group_IT_number 12
_symmetry_cell_setting 'monoclinic'
loop_
_space_group_symop_operation_xyz
x,y,z
-x,y,-z
-x,-y,-z
x,-y,z
1/2+x,1/2+y,z
1/2-x,1/2+y,-z
1/2-x,1/2-y,-z
1/2+x,1/2-y,z
loop_
_atom_site_type_symbol
_atom_site_label
_atom_site_fract_x
_atom_site_fract_y
_atom_site_fract_z
Si Si1 0.348914 0.333438 0.839607
Si Si2 0.205840 0.338814 0.667908
Si Si3 0.094088 0.663744 0.435362
Si Si4 0.741948 0.659163 0.409502
Si Si5 0.947949 0.667553 0.835613
Si Si6 0.066087 0.342351 0.011427
Si Si7 0.927993 0.164867 0.475878
Si Si8 0.894191 0.333976 0.674781
O O1 0.368528 0.500000 0.853527
O O2 0.262047 0.309137 0.763787
O O3 0.389555 0.255542 0.822716
O O4 0.373271 0.269252 0.918848
O O5 0.175096 0.500000 0.645288
O O6 0.254018 0.317169 0.652776
O O7 0.137769 0.233083 0.612744
O O8 0.077303 0.500000 0.437718
O O9 0.179740 0.690603 0.501168
O O10 0.059452 0.762698 0.454136
O O11 0.064588 0.702794 0.349613
O O12 0.716163 0.500000 0.402280
O O13 0.684394 0.764125 0.388748
O O14 0.931131 0.500000 0.830639
O O15 0.942836 0.713020 0.766962
O O16 0.030177 0.701726 0.923184
O O17 0.101283 0.500000 0.036703
O O18 0.000000 0.343209 0.000000
O O19 0.000000 0.187831 0.500000
O O20 0.910051 0.000000 0.470777
O O21 0.878183 0.500000 0.663716
#
# Coordination Sequence:
#
# PCOD8078645 Si02
#       8
#     8   8   8   8   8   8   8   8
#     4  10  17  26  40  59  83 109 144 183 209 242
#     4   9  18  30  44  64  87 112 142 175 213 255
#     4   9  19  32  44  61  84 110 141 174 210 253
#     4   9  16  27  39  56  85 113 140 176 210 241
#     4   9  17  27  38  55  83 117 149 178 208 241
#     4   8  15  26  37  52  78 113 148 178 209 244
#     4  10  21  35  50  67  84 104 136 176 215 258
#     4  10  18  27  41  60  83 114 149 177 203 242
#
# _framework density 15.269233
#
# number of rings (size 3 to 8) (size 9 to 14) (size 15 to 20)
#    0.000    2.750    1.250    2.625    0.000    6.750 
#    0.000    0.000    0.000    0.000    0.000    0.000 
#    0.000    1.000    0.000    2.250    0.000    3.500 
#
# Total GULP energy -396569.193297 kJ/mol
# GULP energy per Si atom -12392.787291 kJ/mol
# Density = 1.523448 g / cm^3
# Si number density = 15.269233 Si / 1000 Ang^3
#
#
#
# Elastic Constant Matrix: (Units=GPa)
#
#
# Indices 1 2 3 4 5 6 
#
# 1 51.9669 42.0468 39.9564 0.0000 -5.8266 0.0000
# 2 42.0468 84.6695 53.3605 0.0000 -3.3525 0.0000
# 3 39.9564 53.3605 93.9109 0.0000 -9.5883 0.0000
# 4 0.0000 0.0000 0.0000 21.7869 0.0000 2.0933
# 5 -5.8266 -3.3525 -9.5883 0.0000 10.6119 0.0000
# 6 0.0000 0.0000 0.0000 2.0933 0.0000 17.2703
#
#
#
# Elastic Compliance Matrix: (Units=1/GPa)
#
#
# Indices 1 2 3 4 5 6 
#
# 1 0.036454 -0.013341 -0.006958 0.000000 0.009514 0.000000
# 2 -0.013341 0.023437 -0.008409 0.000000 -0.007518 0.000000
# 3 -0.006958 -0.008409 0.019527 0.000000 0.011166 0.000000
# 4 0.000000 0.000000 0.000000 0.046440 0.000000 -0.005629
# 5 0.009514 -0.007518 0.011166 0.000000 0.107171 0.000000
# 6 0.000000 0.000000 0.000000 -0.005629 0.000000 0.058585
#
#
# Mechanical properties :
#
#
# Convention : Reuss Voigt Hill
#
# Bulk Modulus (GPa) = 45.44982 55.69721 50.57352
# Shear Modulus (GPa) = 14.03054 16.27938 15.15496
#
# Velocity S-wave (km/s) = 3.03459 3.26875 3.15384
# Velocity P-wave (km/s) = 6.48911 7.12757 6.81582
#
# Compressibility (1/GPa) = 0.02200229
#
# Stress axis : x y z
#
# Youngs Moduli (GPa) = 27.43157 42.66684 51.21151
#
# Poissons Ratio (x) = 0.56922 0.35635
# Poissons Ratio (y) = 0.36597 0.43061
# Poissons Ratio (z) = 0.19088 0.35877
#
# Static dielectric constant tensor:
#      x y z
#    x 2.574960 0.000000 -0.466810 
#    y 0.000000 2.990480 0.000000 
#    z -0.466810 0.000000 3.888750 
# 
# 
# High freq. dielectric constant tensor:
#      x y z
#    x 1.523350 0.000000 -0.017300 
#    y 0.000000 1.591800 0.000000 
#    z -0.017300 0.000000 1.592830 
# 
# From -- ./inp_files/348576.got.cif
#   From: 2010.06.25/outbox.cif.g09.slc.cpg/sg12_175_cif.got.tgz:348576.got - 2010.06.28 00:19:55.
