data_PCOD8078658
_publ_section_title
;
Structure prediction by ZEFSAII (Michael W. Deem and Ramdas Pophale) SiO2 
 PCOD8078658
Probable space group: C 2/M
;
_chemical_formula_sum "Si O2"
_cell_formula_units_Z 64
_cell_length_a 24.096148
_cell_length_b 9.040801
_cell_length_c 20.303705
_cell_angle_alpha 90.000000
_cell_angle_beta 114.623804
_cell_angle_gamma 90.000000
_cell_volume 4020.905333
_symmetry_space_group_name_H-M "C 2/M"
_symmetry_group_IT_number 12
_symmetry_cell_setting 'monoclinic'
loop_
_space_group_symop_operation_xyz
x,y,z
-x,y,-z
-x,-y,-z
x,-y,z
1/2+x,1/2+y,z
1/2-x,1/2+y,-z
1/2-x,1/2-y,-z
1/2+x,1/2-y,z
loop_
_atom_site_type_symbol
_atom_site_label
_atom_site_fract_x
_atom_site_fract_y
_atom_site_fract_z
Si Si1 0.290818 0.673347 0.613162
Si Si2 0.718595 0.824744 0.257429
Si Si3 0.571369 0.672477 0.537714
Si Si4 0.813239 0.674743 0.014111
Si Si5 0.142681 0.827699 0.699337
Si Si6 0.838825 0.673008 0.512618
Si Si7 0.840828 0.664742 0.167487
Si Si8 0.196765 0.830819 0.117799
O O1 0.303662 0.500000 0.626316
O O2 0.307964 0.754595 0.689270
O O3 0.220515 0.706638 0.560845
O O4 0.334572 0.740334 0.579150
O O5 0.789471 0.778420 0.287509
O O6 0.681516 0.754815 0.177913
O O7 0.709440 0.000000 0.253469
O O8 0.500000 0.702766 0.500000
O O9 0.587519 0.500000 0.535229
O O10 0.596163 0.729056 0.620572
O O11 0.601977 0.767177 0.495393
O O12 0.803428 0.500000 0.998184
O O13 0.857541 0.703858 0.099438
O O14 0.750000 0.750000 0.000000
O O15 0.839254 0.749980 0.960264
O O16 0.124256 0.764685 0.761944
O O17 0.137925 0.000000 0.704981
O O18 0.845756 0.500000 0.530706
O O19 0.861982 0.500000 0.194169
O O20 0.768370 0.681121 0.139406
O O21 0.174684 0.000000 0.112088
#
# Coordination Sequence:
#
# PCOD8078658 Si02
#       8
#     8   8   8   8   8   8   8   8
#     4  10  19  30  46  65  87 113 141 179 221 262
#     4  10  17  26  41  60  83 110 142 178 213 253
#     4  10  20  34  49  64  86 115 146 183 225 267
#     4   9  15  23  33  48  70 100 136 170 206 247
#     4   9  17  27  40  58  78 104 140 177 213 257
#     4  10  20  32  47  66  86 110 142 181 221 264
#     4   8  15  24  35  50  71 100 133 172 210 245
#     4   9  16  24  34  51  76 105 137 170 207 249
#
# _framework density 15.916814
#
# number of rings (size 3 to 8) (size 9 to 14) (size 15 to 20)
#    0.000    2.625    1.250    2.625    0.000    5.750 
#    0.000    0.000    0.000    0.000    0.000    0.000 
#    0.000    0.000    0.000    1.125    0.000   21.875 
#
# Total GULP energy -396660.385802 kJ/mol
# GULP energy per Si atom -12395.637056 kJ/mol
# Density = 1.588059 g / cm^3
# Si number density = 15.916814 Si / 1000 Ang^3
#
#
#
# Elastic Constant Matrix: (Units=GPa)
#
#
# Indices 1 2 3 4 5 6 
#
# 1 42.3049 31.0569 40.2850 0.0000 -12.5523 0.0000
# 2 31.0569 82.3247 56.1762 0.0000 -18.8248 0.0000
# 3 40.2850 56.1762 127.7463 0.0000 -37.0903 0.0000
# 4 0.0000 0.0000 0.0000 31.6763 0.0000 -10.3438
# 5 -12.5523 -18.8248 -37.0903 0.0000 21.8816 0.0000
# 6 0.0000 0.0000 0.0000 -10.3438 0.0000 17.2994
#
#
#
# Elastic Compliance Matrix: (Units=1/GPa)
#
#
# Indices 1 2 3 4 5 6 
#
# 1 0.037729 -0.008695 -0.007802 0.000000 0.000938 0.000000
# 2 -0.008695 0.019532 -0.004758 0.000000 0.003750 0.000000
# 3 -0.007802 -0.004758 0.019480 0.000000 0.024450 0.000000
# 4 0.000000 0.000000 0.000000 0.039229 0.000000 0.023456
# 5 0.000938 0.003750 0.024450 0.000000 0.090908 0.000000
# 6 0.000000 0.000000 0.000000 0.023456 0.000000 0.071830
#
#
# Mechanical properties :
#
#
# Convention : Reuss Voigt Hill
#
# Bulk Modulus (GPa) = 29.21423 56.37912 42.79667
# Shear Modulus (GPa) = 15.03186 22.49531 18.76358
#
# Velocity S-wave (km/s) = 3.07644 3.76347 3.43717
# Velocity P-wave (km/s) = 5.56898 7.37448 6.53439
#
# Compressibility (1/GPa) = 0.03422989
#
# Stress axis : x y z
#
# Youngs Moduli (GPa) = 26.50498 51.19931 51.33564
#
# Poissons Ratio (x) = 0.44517 0.40051
# Poissons Ratio (y) = 0.23045 0.24427
# Poissons Ratio (z) = 0.20679 0.24363
#
# Static dielectric constant tensor:
#      x y z
#    x 2.492930 0.000000 -0.355510 
#    y 0.000000 3.090920 0.000000 
#    z -0.355510 0.000000 3.651170 
# 
# 
# High freq. dielectric constant tensor:
#      x y z
#    x 1.537790 0.000000 -0.038480 
#    y 0.000000 1.624610 0.000000 
#    z -0.038480 0.000000 1.619170 
# 
# From -- ./inp_files/326623.got.cif
#   From: 2010.06.25/outbox.cif.g09.slc.cpg/sg12_164_cif.got.tgz:326623.got - 2010.06.28 00:19:55.
