data_PCOD8078242
_publ_section_title
;
Structure prediction by ZEFSAII (Michael W. Deem and Ramdas Pophale) SiO2 
 PCOD8078242
Probable space group: C 2/M
;
_chemical_formula_sum "Si O2"
_cell_formula_units_Z 64
_cell_length_a 30.574257
_cell_length_b 9.235587
_cell_length_c 14.922715
_cell_angle_alpha 90.000000
_cell_angle_beta 78.637813
_cell_angle_gamma 90.000000
_cell_volume 4131.161624
_symmetry_space_group_name_H-M "C 2/M"
_symmetry_group_IT_number 12
_symmetry_cell_setting 'monoclinic'
loop_
_space_group_symop_operation_xyz
x,y,z
-x,y,-z
-x,-y,-z
x,-y,z
1/2+x,1/2+y,z
1/2-x,1/2+y,-z
1/2-x,1/2-y,-z
1/2+x,1/2-y,z
loop_
_atom_site_type_symbol
_atom_site_label
_atom_site_fract_x
_atom_site_fract_y
_atom_site_fract_z
Si Si1 0.188514 0.332202 0.592468
Si Si2 0.542639 0.671709 0.872208
Si Si3 0.791454 0.332539 0.802573
Si Si4 0.554113 0.671823 0.067196
Si Si5 0.649145 0.672025 0.084547
Si Si6 0.807841 0.828506 0.117158
Si Si7 0.869817 0.828282 0.254672
Si Si8 0.725415 0.164911 0.389909
O O1 0.184551 0.500000 0.618230
O O2 0.145418 0.248742 0.647635
O O3 0.232849 0.271329 0.621184
O O4 0.190721 0.306078 0.484514
O O5 0.544538 0.500000 0.877128
O O6 0.492236 0.722147 0.866018
O O7 0.579387 0.723800 0.785495
O O8 0.555083 0.733385 0.965429
O O9 0.796080 0.500000 0.827688
O O10 0.828874 0.241509 0.837509
O O11 0.742562 0.272845 0.849177
O O12 0.799755 0.308998 0.693428
O O13 0.555929 0.500000 0.061318
O O14 0.597652 0.726391 0.102943
O O15 0.652702 0.500000 0.090734
O O16 0.673783 0.729273 0.985022
O O17 0.838681 0.772311 0.185803
O O18 0.809493 0.000000 0.118128
O O19 0.866448 0.000000 0.268665
O O20 0.743911 0.000000 0.386973
#
# Coordination Sequence:
#
# PCOD8078242 Si02
#       8
#     8   8   8   8   8   8   8   8
#     4  10  19  29  45  68  89 109 140 183 225 260
#     4   8  13  22  42  66  86 112 146 177 212 260
#     4  10  19  31  44  58  83 120 154 176 203 254
#     4   8  13  23  40  65  89 109 142 187 218 245
#     4  10  18  28  43  64  89 115 146 185 217 241
#     4   9  16  27  42  60  86 119 149 173 203 247
#     4  10  16  27  46  66  89 120 147 170 210 266
#     4   9  18  33  48  61  83 116 148 180 218 259
#
# _framework density 15.492011
#
# number of rings (size 3 to 8) (size 9 to 14) (size 15 to 20)
#    0.000    2.750    2.500    1.500    0.000    1.000 
#    0.000    0.625    0.000    0.750    0.000    2.625 
#    0.000    7.000    0.000    0.000    0.000    0.000 
#
# Total GULP energy -396619.333182 kJ/mol
# GULP energy per Si atom -12394.354162 kJ/mol
# Density = 1.545675 g / cm^3
# Si number density = 15.492011 Si / 1000 Ang^3
#
#
#
# Elastic Constant Matrix: (Units=GPa)
#
#
# Indices 1 2 3 4 5 6 
#
# 1 130.2369 31.9384 66.2063 0.0000 -12.6446 0.0000
# 2 31.9384 35.5701 33.5364 0.0000 -5.8972 0.0000
# 3 66.2063 33.5364 103.1285 0.0000 -12.5851 0.0000
# 4 0.0000 0.0000 0.0000 21.5548 0.0000 1.2314
# 5 -12.6446 -5.8972 -12.5851 0.0000 24.7615 0.0000
# 6 0.0000 0.0000 0.0000 1.2314 0.0000 16.0339
#
#
#
# Elastic Compliance Matrix: (Units=1/GPa)
#
#
# Indices 1 2 3 4 5 6 
#
# 1 0.012090 -0.004956 -0.005907 0.000000 0.001991 0.000000
# 2 -0.004956 0.042808 -0.010452 0.000000 0.002352 0.000000
# 3 -0.005907 -0.010452 0.017288 0.000000 0.003281 0.000000
# 4 0.000000 0.000000 0.000000 0.046598 0.000000 -0.003579
# 5 0.001991 0.002352 0.003281 0.000000 0.043630 0.000000
# 6 0.000000 0.000000 0.000000 -0.003579 0.000000 0.062642
#
#
# Mechanical properties :
#
#
# Convention : Reuss Voigt Hill
#
# Bulk Modulus (GPa) = 33.83417 59.14418 46.48918
# Shear Modulus (GPa) = 18.01560 21.62035 19.81797
#
# Velocity S-wave (km/s) = 3.41383 3.73980 3.58052
# Velocity P-wave (km/s) = 6.11769 7.54375 6.86784
#
# Compressibility (1/GPa) = 0.02955592
#
# Stress axis : x y z
#
# Youngs Moduli (GPa) = 82.71475 23.36017 57.84432
#
# Poissons Ratio (x) = 0.11578 0.34166
# Poissons Ratio (y) = 0.40996 0.60458
# Poissons Ratio (z) = 0.48856 0.24416
#
# Static dielectric constant tensor:
#      x y z
#    x 3.115960 0.000000 -0.218660 
#    y 0.000000 2.632320 0.000000 
#    z -0.218660 0.000000 3.025770 
# 
# 
# High freq. dielectric constant tensor:
#      x y z
#    x 1.582010 0.000000 -0.014420 
#    y 0.000000 1.560070 0.000000 
#    z -0.014420 0.000000 1.583460 
# 
# From -- ./inp_files/248267.got.cif
#   From: 2010.06.25/outbox.cif.g09.slc.cpg/sg12_125_cif.got.tgz:248267.got - 2010.06.28 00:19:55.
