data_PCOD8078569
_publ_section_title
;
Structure prediction by ZEFSAII (Michael W. Deem and Ramdas Pophale) SiO2 
 PCOD8078569
Probable space group: C 2/M
;
_chemical_formula_sum "Si O2"
_cell_formula_units_Z 64
_cell_length_a 19.514692
_cell_length_b 9.323063
_cell_length_c 23.919271
_cell_angle_alpha 90.000000
_cell_angle_beta 59.445945
_cell_angle_gamma 90.000000
_cell_volume 3747.546568
_symmetry_space_group_name_H-M "C 2/M"
_symmetry_group_IT_number 12
_symmetry_cell_setting 'monoclinic'
loop_
_space_group_symop_operation_xyz
x,y,z
-x,y,-z
-x,-y,-z
x,-y,z
1/2+x,1/2+y,z
1/2-x,1/2+y,-z
1/2-x,1/2-y,-z
1/2+x,1/2-y,z
loop_
_atom_site_type_symbol
_atom_site_label
_atom_site_fract_x
_atom_site_fract_y
_atom_site_fract_z
Si Si1 0.542386 0.332010 0.426140
Si Si2 0.670966 0.665778 0.891114
Si Si3 0.181822 0.336683 0.234967
Si Si4 0.782043 0.832725 0.672711
Si Si5 0.058951 0.159471 0.028088
Si Si6 0.506571 0.831466 0.330543
Si Si7 0.443327 0.829589 0.143386
Si Si8 0.888376 0.330685 0.287307
O O1 0.500000 0.279157 0.500000
O O2 0.528810 0.500000 0.421458
O O3 0.636288 0.295056 0.393493
O O4 0.502957 0.248525 0.391127
O O5 0.646736 0.500000 0.889058
O O6 0.766252 0.687617 0.843101
O O7 0.626112 0.766384 0.865940
O O8 0.645303 0.703759 0.965807
O O9 0.187945 0.500000 0.252972
O O10 0.221294 0.242173 0.266405
O O11 0.089514 0.296748 0.263990
O O12 0.704466 0.783176 0.669502
O O13 0.775795 0.000000 0.688114
O O14 0.029548 0.269247 0.087935
O O15 0.062197 0.000000 0.052949
O O16 0.000000 0.164313 0.000000
O O17 0.436714 0.767920 0.320196
O O18 0.496639 0.000000 0.346251
O O19 0.427460 0.777626 0.213232
O O20 0.443700 0.000000 0.137484
O O21 0.896788 0.500000 0.286283
#
# Coordination Sequence:
#
# PCOD8078569 Si02
#       8
#     8   8   8   8   8   8   8   8
#     4   9  18  33  52  72  94 120 149 181 218 261
#     4   9  16  26  40  60  86 113 145 186 230 268
#     4   9  16  27  45  67  87 112 150 193 227 257
#     4   9  16  29  48  67  90 120 150 180 219 265
#     4   8  15  26  37  54  84 117 146 181 226 270
#     4   9  18  32  49  69  93 119 150 184 219 264
#     4  10  17  25  40  62  86 114 149 184 222 265
#     4   9  17  29  45  67  93 120 148 182 226 269
#
# _framework density 17.077840999999999
#
# number of rings (size 3 to 8) (size 9 to 14) (size 15 to 20)
#    0.000    3.000    1.250    1.125    0.000    2.500 
#    0.000    2.500    0.000    0.750    0.000    0.000 
#    0.000    0.000    0.000    0.000    0.000    1.250 
#
# Total GULP energy -396518.391343 kJ/mol
# GULP energy per Si atom -12391.199729 kJ/mol
# Density = 1.703897 g / cm^3
# Si number density = 17.077841 Si / 1000 Ang^3
#
#
#
# Elastic Constant Matrix: (Units=GPa)
#
#
# Indices 1 2 3 4 5 6 
#
# 1 107.8524 28.1195 56.8929 0.0001 -3.5172 0.0003
# 2 28.1195 44.4159 35.5165 0.0003 -0.1525 0.0008
# 3 56.8929 35.5165 125.7866 0.0000 -14.5837 0.0000
# 4 0.0001 0.0003 0.0000 22.9913 0.0000 -1.0066
# 5 -3.5172 -0.1525 -14.5837 0.0000 20.9901 0.0001
# 6 0.0003 0.0008 0.0000 -1.0066 0.0001 14.9186
#
#
#
# Elastic Compliance Matrix: (Units=1/GPa)
#
#
# Indices 1 2 3 4 5 6 
#
# 1 0.012863 -0.004377 -0.004716 0.000000 -0.001153 0.000000
# 2 -0.004377 0.031275 -0.007515 0.000000 -0.005728 -0.000002
# 3 -0.004716 -0.007515 0.013168 0.000000 0.008304 0.000000
# 4 0.000000 0.000000 0.000000 0.043624 0.000000 0.002943
# 5 -0.001153 -0.005728 0.008304 0.000000 0.053176 0.000000
# 6 0.000000 -0.000002 0.000000 0.002943 0.000000 0.067229
#
#
# Mechanical properties :
#
#
# Convention : Reuss Voigt Hill
#
# Bulk Modulus (GPa) = 41.51013 57.67917 49.59465
# Shear Modulus (GPa) = 19.04184 22.28174 20.66179
#
# Velocity S-wave (km/s) = 3.34279 3.61600 3.48208
# Velocity P-wave (km/s) = 6.26563 7.16112 6.72829
#
# Compressibility (1/GPa) = 0.02409050
#
# Stress axis : x y z
#
# Youngs Moduli (GPa) = 77.74220 31.97441 75.94373
#
# Poissons Ratio (x) = 0.13994 0.35814
# Poissons Ratio (y) = 0.34024 0.57073
# Poissons Ratio (z) = 0.36662 0.24029
#
# Static dielectric constant tensor:
#      x y z
#    x 3.195330 0.000000 -0.322640 
#    y 0.000000 3.087190 0.000000 
#    z -0.322640 0.000000 3.420060 
# 
# 
# High freq. dielectric constant tensor:
#      x y z
#    x 1.629790 0.000000 -0.027390 
#    y 0.000000 1.646660 0.000000 
#    z -0.027390 0.000000 1.657440 
# 
# From -- ./inp_files/345517.got.cif
#   From: 2010.06.25/outbox.cif.g09.slc.cpg/sg12_173_cif.got.tgz:345517.got - 2010.06.28 00:19:55.
