data_PCOD8078307
_publ_section_title
;
Structure prediction by ZEFSAII (Michael W. Deem and Ramdas Pophale) SiO2 
 PCOD8078307
Probable space group: C 2/M
;
_chemical_formula_sum "Si O2"
_cell_formula_units_Z 56
_cell_length_a 22.036182
_cell_length_b 14.293154
_cell_length_c 12.254187
_cell_angle_alpha 90.000000
_cell_angle_beta 68.753516
_cell_angle_gamma 90.000000
_cell_volume 3597.318319
_symmetry_space_group_name_H-M "C 2/M"
_symmetry_group_IT_number 12
_symmetry_cell_setting 'monoclinic'
loop_
_space_group_symop_operation_xyz
x,y,z
-x,y,-z
-x,-y,-z
x,-y,z
1/2+x,1/2+y,z
1/2-x,1/2+y,-z
1/2-x,1/2-y,-z
1/2+x,1/2-y,z
loop_
_atom_site_type_symbol
_atom_site_label
_atom_site_fract_x
_atom_site_fract_y
_atom_site_fract_z
Si Si1 0.571200 0.610120 0.490232
Si Si2 0.203229 0.601775 0.893357
Si Si3 0.067475 0.893277 0.106509
Si Si4 0.721364 0.173104 0.100339
Si Si5 0.845881 0.831534 0.755419
Si Si6 0.421653 0.390973 0.263664
Si Si7 0.348556 0.701546 0.125864
O O1 0.500000 0.644539 0.500000
O O2 0.578142 0.500000 0.465665
O O3 0.625921 0.663589 0.384726
O O4 0.583148 0.637808 0.607311
O O5 0.179162 0.500000 0.865927
O O6 0.277325 0.615380 0.806282
O O7 0.159790 0.685682 0.872215
O O8 0.197569 0.594258 0.031031
O O9 0.103658 0.882044 0.197613
O O10 0.992602 0.866623 0.171421
O O11 0.074606 0.000000 0.061724
O O12 0.095887 0.825508 0.996330
O O13 0.663105 0.221318 0.207190
O O14 0.781482 0.145594 0.140232
O O15 0.750000 0.250000 0.000000
O O16 0.405951 0.500000 0.257836
O O17 0.368866 0.329265 0.233521
#
# Coordination Sequence:
#
# PCOD8078307 Si02
#       7
#     8   8   8   8   8   8   8
#     4  10  18  28  43  66  96 124 152 179 211 272
#     4  10  18  30  49  68  89 121 157 194 230 261
#     4  11  17  26  47  70  95 124 144 176 229 283
#     4   8  16  29  44  66  89 115 150 187 226 266
#     4  10  16  29  47  70  93 117 151 187 221 269
#     4  10  21  30  42  69 100 129 149 174 225 279
#     4  10  18  31  42  67  99 120 153 186 226 276
#
# _framework density 15.567151000000001
#
# number of rings (size 3 to 8) (size 9 to 14) (size 15 to 20)
#    0.000    2.429    5.714    2.143    0.000    1.714 
#    0.000    2.857    0.000    1.714    0.000    1.000 
#    0.000    2.286    0.000    0.000    0.000    0.000 
#
# Total GULP energy -347006.984956 kJ/mol
# GULP energy per Si atom -12393.106606 kJ/mol
# Density = 1.553172 g / cm^3
# Si number density = 15.567151 Si / 1000 Ang^3
#
#
#
# Elastic Constant Matrix: (Units=GPa)
#
#
# Indices 1 2 3 4 5 6 
#
# 1 82.3912 37.8327 49.8239 0.0000 11.1630 0.0000
# 2 37.8327 69.0727 41.5471 0.0000 -0.1240 0.0000
# 3 49.8239 41.5471 90.8886 0.0000 12.6194 0.0000
# 4 0.0000 0.0000 0.0000 18.9715 0.0000 -0.4392
# 5 11.1630 -0.1240 12.6194 0.0000 22.4527 0.0000
# 6 0.0000 0.0000 0.0000 -0.4392 0.0000 23.8887
#
#
#
# Elastic Compliance Matrix: (Units=1/GPa)
#
#
# Indices 1 2 3 4 5 6 
#
# 1 0.020516 -0.006894 -0.007239 0.000000 -0.006170 0.000000
# 2 -0.006894 0.022977 -0.007828 0.000000 0.007954 0.000000
# 3 -0.007239 -0.007828 0.019583 0.000000 -0.007451 0.000000
# 4 0.000000 0.000000 0.000000 0.052733 0.000000 0.000969
# 5 -0.006170 0.007954 -0.007451 0.000000 0.051838 0.000000
# 6 0.000000 0.000000 0.000000 0.000969 0.000000 0.041879
#
#
# Mechanical properties :
#
#
# Convention : Reuss Voigt Hill
#
# Bulk Modulus (GPa) = 52.20741 55.63999 53.92370
# Shear Modulus (GPa) = 19.24320 20.60584 19.92452
#
# Velocity S-wave (km/s) = 3.51969 3.64218 3.58146
# Velocity P-wave (km/s) = 7.08007 7.31484 7.19841
#
# Compressibility (1/GPa) = 0.01915437
#
# Stress axis : x y z
#
# Youngs Moduli (GPa) = 48.74183 43.52261 51.06349
#
# Poissons Ratio (x) = 0.30006 0.36962
# Poissons Ratio (y) = 0.33604 0.39973
# Poissons Ratio (z) = 0.35282 0.34070
#
# Static dielectric constant tensor:
#      x y z
#    x 3.044550 0.000000 0.085610 
#    y 0.000000 3.042920 0.000000 
#    z 0.085610 0.000000 3.042650 
# 
# 
# High freq. dielectric constant tensor:
#      x y z
#    x 1.587330 0.000000 0.004180 
#    y 0.000000 1.567870 0.000000 
#    z 0.004180 0.000000 1.589480 
# 
# From -- ./inp_files/175720.got.cif
#   From: 2010.06.25/outbox.cif.g09.slc.cpg/sg12_88_cif.got.tgz:175720.got - 2010.06.28 00:19:55.
