data_PCOD8078555
_publ_section_title
;
Structure prediction by ZEFSAII (Michael W. Deem and Ramdas Pophale) SiO2 
 PCOD8078555
Probable space group: C 2/M
;
_chemical_formula_sum "Si O2"
_cell_formula_units_Z 64
_cell_length_a 25.479433
_cell_length_b 9.258403
_cell_length_c 19.274800
_cell_angle_alpha 90.000000
_cell_angle_beta 116.923778
_cell_angle_gamma 90.000000
_cell_volume 4054.063067
_symmetry_space_group_name_H-M "C 2/M"
_symmetry_group_IT_number 12
_symmetry_cell_setting 'monoclinic'
loop_
_space_group_symop_operation_xyz
x,y,z
-x,y,-z
-x,-y,-z
x,-y,z
1/2+x,1/2+y,z
1/2-x,1/2+y,-z
1/2-x,1/2-y,-z
1/2+x,1/2-y,z
loop_
_atom_site_type_symbol
_atom_site_label
_atom_site_fract_x
_atom_site_fract_y
_atom_site_fract_z
Si Si1 0.164250 0.329612 0.577750
Si Si2 0.561772 0.340152 0.997494
Si Si3 0.637414 0.171791 0.407498
Si Si4 0.704726 0.668380 0.328846
Si Si5 0.049832 0.327845 0.583049
Si Si6 0.105339 0.168316 0.164700
Si Si7 0.505531 0.169438 0.311264
Si Si8 0.992492 0.330777 0.149502
O O1 0.156548 0.500000 0.571908
O O2 0.156719 0.273257 0.494859
O O3 0.227985 0.284404 0.645562
O O4 0.113059 0.264619 0.596602
O O5 0.575986 0.500000 0.977322
O O6 0.609520 0.292753 0.084713
O O7 0.500000 0.338358 0.000000
O O8 0.559209 0.232259 0.930594
O O9 0.681406 0.241776 0.379332
O O10 0.571723 0.231658 0.353894
O O11 0.641449 0.000000 0.401982
O O12 0.700916 0.500000 0.346147
O O13 0.667864 0.702819 0.237172
O O14 0.051535 0.500000 0.585141
O O15 0.034557 0.266043 0.650683
O O16 0.000000 0.273881 0.500000
O O17 0.055738 0.261915 0.172543
O O18 0.087666 0.000000 0.162055
O O19 0.475814 0.204497 0.219262
O O20 0.511219 0.000000 0.326583
O O21 0.997517 0.500000 0.138594
#
# Coordination Sequence:
#
# PCOD8078555 Si02
#       8
#     8   8   8   8   8   8   8   8
#     4   9  17  27  42  62  84 111 147 181 207 242
#     4   8  15  27  40  55  78 111 141 164 199 250
#     4  10  17  28  43  62  87 114 142 172 207 251
#     4  10  19  29  41  63  89 113 142 175 207 246
#     4   9  14  24  41  60  83 111 140 175 215 245
#     4   9  17  28  40  55  83 116 139 163 202 249
#     4   9  16  24  38  62  88 110 136 171 211 248
#     4  10  17  25  39  62  87 106 132 172 209 246
#
# _framework density 15.786631
#
# number of rings (size 3 to 8) (size 9 to 14) (size 15 to 20)
#    0.000    2.750    2.500    1.500    0.000    2.250 
#    0.000    0.000    0.000    0.000    0.000    7.000 
#    0.000    0.000    0.000    0.000    0.000    0.000 
#
# Total GULP energy -396589.565054 kJ/mol
# GULP energy per Si atom -12393.423908 kJ/mol
# Density = 1.575070 g / cm^3
# Si number density = 15.786631 Si / 1000 Ang^3
#
#
#
# Elastic Constant Matrix: (Units=GPa)
#
#
# Indices 1 2 3 4 5 6 
#
# 1 106.5589 25.1558 66.6266 0.0000 -1.6572 0.0000
# 2 25.1558 35.9017 37.6108 0.0000 -4.1124 0.0000
# 3 66.6266 37.6108 142.5960 0.0000 -6.1887 0.0000
# 4 0.0000 0.0000 0.0000 15.8650 0.0000 0.4458
# 5 -1.6572 -4.1124 -6.1887 0.0000 18.0330 0.0000
# 6 0.0000 0.0000 0.0000 0.4458 0.0000 10.0317
#
#
#
# Elastic Compliance Matrix: (Units=1/GPa)
#
#
# Indices 1 2 3 4 5 6 
#
# 1 0.013699 -0.004144 -0.005374 0.000000 -0.001531 0.000000
# 2 -0.004144 0.040262 -0.008427 0.000000 0.005909 0.000000
# 3 -0.005374 -0.008427 0.011818 0.000000 0.001640 0.000000
# 4 0.000000 0.000000 0.000000 0.063111 0.000000 -0.002804
# 5 -0.001531 0.005909 0.001640 0.000000 0.057224 0.000000
# 6 0.000000 0.000000 0.000000 -0.002804 0.000000 0.099808
#
#
# Mechanical properties :
#
#
# Convention : Reuss Voigt Hill
#
# Bulk Modulus (GPa) = 33.45704 60.42699 46.94202
# Shear Modulus (GPa) = 15.07045 19.16351 17.11698
#
# Velocity S-wave (km/s) = 3.09307 3.48790 3.29640
# Velocity P-wave (km/s) = 5.83055 7.38789 6.65494
#
# Compressibility (1/GPa) = 0.02988908
#
# Stress axis : x y z
#
# Youngs Moduli (GPa) = 72.99658 24.83711 84.61904
#
# Poissons Ratio (x) = 0.10293 0.45476
# Poissons Ratio (y) = 0.30251 0.71306
# Poissons Ratio (z) = 0.39230 0.20930
#
# Static dielectric constant tensor:
#      x y z
#    x 2.955020 0.000000 -0.025760 
#    y 0.000000 2.717840 0.000000 
#    z -0.025760 0.000000 3.408140 
# 
# 
# High freq. dielectric constant tensor:
#      x y z
#    x 1.571440 0.000000 -0.003230 
#    y 0.000000 1.571890 0.000000 
#    z -0.003230 0.000000 1.618880 
# 
# From -- ./inp_files/326620.got.cif
#   From: 2010.06.25/outbox.cif.g09.slc.cpg/sg12_164_cif.got.tgz:326620.got - 2010.06.28 00:19:55.
