data_PCOD8078338
_publ_section_title
;
Structure prediction by ZEFSAII (Michael W. Deem and Ramdas Pophale) SiO2 
 PCOD8078338
Probable space group: C 2/M
;
_chemical_formula_sum "Si O2"
_cell_formula_units_Z 64
_cell_length_a 25.582859
_cell_length_b 17.453805
_cell_length_c 9.440470
_cell_angle_alpha 90.000000
_cell_angle_beta 107.459198
_cell_angle_gamma 90.000000
_cell_volume 4021.144756
_symmetry_space_group_name_H-M "C 2/M"
_symmetry_group_IT_number 12
_symmetry_cell_setting 'monoclinic'
loop_
_space_group_symop_operation_xyz
x,y,z
-x,y,-z
-x,-y,-z
x,-y,z
1/2+x,1/2+y,z
1/2-x,1/2+y,-z
1/2-x,1/2-y,-z
1/2+x,1/2-y,z
loop_
_atom_site_type_symbol
_atom_site_label
_atom_site_fract_x
_atom_site_fract_y
_atom_site_fract_z
Si Si1 0.308378 0.269177 0.619681
Si Si2 0.760373 0.084625 0.528799
Si Si3 0.260348 0.413090 0.191958
Si Si4 0.161002 0.668879 0.579731
Si Si5 0.555665 0.088364 0.129264
Si Si6 0.947770 0.589822 0.543450
Si Si7 0.156792 0.678505 0.086158
Si Si8 0.194063 0.763412 0.872518
O O1 0.250000 0.250000 0.500000
O O2 0.309433 0.361553 0.629017
O O3 0.353632 0.233782 0.550594
O O4 0.313517 0.233282 0.777129
O O5 0.757101 0.090762 0.357819
O O6 0.700975 0.105746 0.543302
O O7 0.775671 0.000000 0.591742
O O8 0.273874 0.500000 0.151940
O O9 0.200311 0.388787 0.083916
O O10 0.307404 0.353680 0.173330
O O11 0.104319 0.628776 0.574007
O O12 0.191068 0.708595 0.734733
O O13 0.547426 0.110538 0.286654
O O14 0.600699 0.142884 0.095616
O O15 0.574446 0.000000 0.130512
O O16 0.500000 0.103019 0.000000
O O17 0.941760 0.500000 0.516202
O O18 0.000000 0.621249 0.500000
O O19 0.146083 0.734054 0.940957
O O20 0.250000 0.750000 0.000000
#
# Coordination Sequence:
#
# PCOD8078338 Si02
#       8
#     8   8   8   8   8   8   8   8
#     4  10  16  30  48  68  93 123 164 201 237 282
#     4  10  17  27  47  72  95 125 164 198 235 287
#     4  10  17  29  47  69  96 127 163 195 236 293
#     4  11  18  32  50  68  96 133 169 198 242 289
#     4  10  21  36  52  72  99 132 170 209 248 290
#     4  10  21  35  51  74 101 130 168 213 250 281
#     4  11  19  33  49  69  96 135 168 195 240 297
#     4  10  21  32  45  71 100 130 164 203 244 287
#
# _framework density 15.915865999999999
#
# number of rings (size 3 to 8) (size 9 to 14) (size 15 to 20)
#    0.000    1.750    5.000    3.000    1.750    2.000 
#    0.000    8.750    0.000    0.000    0.000    0.000 
#    0.000    6.000    0.000    0.000    0.000    0.000 
#
# Total GULP energy -396521.390615 kJ/mol
# GULP energy per Si atom -12391.293457 kJ/mol
# Density = 1.587964 g / cm^3
# Si number density = 15.915866 Si / 1000 Ang^3
#
#
#
# Elastic Constant Matrix: (Units=GPa)
#
#
# Indices 1 2 3 4 5 6 
#
# 1 71.6980 44.3185 24.2603 0.0000 -16.5549 0.0000
# 2 44.3185 121.9517 44.5021 0.0000 -11.6265 0.0000
# 3 24.2603 44.5021 72.7172 0.0000 -11.0185 0.0000
# 4 0.0000 0.0000 0.0000 24.5055 0.0000 -3.6677
# 5 -16.5549 -11.6265 -11.0185 0.0000 24.7304 0.0000
# 6 0.0000 0.0000 0.0000 -3.6677 0.0000 21.8793
#
#
#
# Elastic Compliance Matrix: (Units=1/GPa)
#
#
# Indices 1 2 3 4 5 6 
#
# 1 0.020502 -0.005853 -0.001711 0.000000 0.010210 0.000000
# 2 -0.005853 0.012345 -0.005702 0.000000 -0.000654 0.000000
# 3 -0.001711 -0.005702 0.018480 0.000000 0.004408 0.000000
# 4 0.000000 0.000000 0.000000 0.041857 0.000000 0.007017
# 5 0.010210 -0.000654 0.004408 0.000000 0.048927 0.000000
# 6 0.000000 0.000000 0.000000 0.007017 0.000000 0.046882
#
#
# Mechanical properties :
#
#
# Convention : Reuss Voigt Hill
#
# Bulk Modulus (GPa) = 40.32893 54.72541 47.52717
# Shear Modulus (GPa) = 22.34252 24.44212 23.39232
#
# Velocity S-wave (km/s) = 3.75078 3.92306 3.83789
# Velocity P-wave (km/s) = 6.64467 7.41481 7.04028
#
# Compressibility (1/GPa) = 0.02479610
#
# Stress axis : x y z
#
# Youngs Moduli (GPa) = 48.77674 81.00359 54.11273
#
# Poissons Ratio (x) = 0.47409 0.09258
# Poissons Ratio (y) = 0.28548 0.30853
# Poissons Ratio (z) = 0.08345 0.46185
#
# Static dielectric constant tensor:
#      x y z
#    x 2.917220 0.000000 -0.269080 
#    y 0.000000 3.585320 0.000000 
#    z -0.269080 0.000000 3.176610 
# 
# 
# High freq. dielectric constant tensor:
#      x y z
#    x 1.573490 0.000000 -0.019770 
#    y 0.000000 1.609750 0.000000 
#    z -0.019770 0.000000 1.617300 
# 
# From -- ./inp_files/97767.got.cif
#   From: 2010.06.25/outbox.cif.g09.slc.cpg/sg12_49_cif.got.tgz:97767.got - 2010.06.28 00:19:55.
