data_PCOD8078347
_publ_section_title
;
Structure prediction by ZEFSAII (Michael W. Deem and Ramdas Pophale) SiO2 
 PCOD8078347
Probable space group: C 2/M
;
_chemical_formula_sum "Si O2"
_cell_formula_units_Z 56
_cell_length_a 12.443198
_cell_length_b 20.092675
_cell_length_c 26.127013
_cell_angle_alpha 90.000000
_cell_angle_beta 154.798347
_cell_angle_gamma 90.000000
_cell_volume 2781.446388
_symmetry_space_group_name_H-M "C 2/M"
_symmetry_group_IT_number 12
_symmetry_cell_setting 'monoclinic'
loop_
_space_group_symop_operation_xyz
x,y,z
-x,y,-z
-x,-y,-z
x,-y,z
1/2+x,1/2+y,z
1/2-x,1/2+y,-z
1/2-x,1/2-y,-z
1/2+x,1/2-y,z
loop_
_atom_site_type_symbol
_atom_site_label
_atom_site_fract_x
_atom_site_fract_y
_atom_site_fract_z
Si Si1 0.340686 0.864612 0.172273
Si Si2 0.676313 0.421453 0.006070
Si Si3 0.067144 0.140814 0.185905
Si Si4 0.732084 0.292747 0.858791
Si Si5 0.609871 0.686368 0.491453
Si Si6 0.044472 0.423578 0.357598
Si Si7 0.113027 0.235357 0.701063
O O1 0.328566 0.785307 0.162434
O O2 0.546697 0.889640 0.301601
O O3 0.089082 0.900354 0.084038
O O4 0.393883 0.893204 0.137740
O O5 0.700997 0.500000 0.010047
O O6 0.678895 0.385544 0.951545
O O7 0.285687 0.084017 0.279215
O O8 0.194966 0.202943 0.211992
O O9 0.978460 0.162180 0.203799
O O10 0.708712 0.312757 0.788552
O O11 0.000000 0.308626 0.000000
O O12 0.500000 0.677659 0.500000
O O13 0.729023 0.618161 0.519207
O O14 0.380969 0.703226 0.353134
O O15 0.822525 0.743778 0.585466
O O16 0.117984 0.500000 0.385309
#
# Coordination Sequence:
#
# PCOD8078347 Si02
#       7
#     8   8   8   8   8   8   8
#     4  10  16  30  48  81 109 142 179 229 292 326
#     4  10  17  30  51  76 110 149 189 225 270 337
#     4  10  20  34  54  82 112 159 187 231 291 338
#     4  12  21  34  53  86 126 150 193 239 285 343
#     4  10  20  36  58  85 111 151 190 239 299 344
#     4  10  20  38  58  83 113 146 193 240 290 352
#     4  10  20  36  54  80 120 154 189 234 287 353
#
# _framework density 20.133409
#
# number of rings (size 3 to 8) (size 9 to 14) (size 15 to 20)
#    0.000    1.714    5.714    3.857    0.000    2.571 
#    0.000    0.000    0.000    4.286    0.000    0.000 
#    0.000    0.000    0.000    0.000    0.000    0.000 
#
# Total GULP energy -346876.946104 kJ/mol
# GULP energy per Si atom -12388.462361 kJ/mol
# Density = 2.008758 g / cm^3
# Si number density = 20.133409 Si / 1000 Ang^3
#
#
#
# Elastic Constant Matrix: (Units=GPa)
#
#
# Indices 1 2 3 4 5 6 
#
# 1 78.2493 24.6797 29.4291 -0.0018 -22.7270 0.0027
# 2 24.6797 78.2047 28.2750 0.0102 -14.6189 -0.0085
# 3 29.4291 28.2750 84.2805 0.0164 -21.8329 -0.0387
# 4 -0.0018 0.0102 0.0164 12.9506 -0.0017 0.6123
# 5 -22.7270 -14.6189 -21.8329 -0.0017 27.5351 0.0057
# 6 0.0027 -0.0085 -0.0387 0.6123 0.0057 14.5870
#
#
#
# Elastic Compliance Matrix: (Units=1/GPa)
#
#
# Indices 1 2 3 4 5 6 
#
# 1 0.017823 -0.002627 -0.002382 0.000010 0.011428 -0.000016
# 2 -0.002627 0.015473 -0.003407 -0.000008 0.003345 -0.000001
# 3 -0.002382 -0.003407 0.016187 -0.000019 0.009060 0.000039
# 4 0.000010 -0.000008 -0.000019 0.077370 -0.000005 -0.003248
# 5 0.011428 0.003345 0.009060 -0.000005 0.054709 0.000003
# 6 -0.000016 -0.000001 0.000039 -0.003248 0.000003 0.068691
#
#
# Mechanical properties :
#
#
# Convention : Reuss Voigt Hill
#
# Bulk Modulus (GPa) = 30.62712 45.05580 37.84146
# Shear Modulus (GPa) = 17.98760 21.57124 19.77942
#
# Velocity S-wave (km/s) = 2.99226 3.27680 3.13775
# Velocity P-wave (km/s) = 5.21376 6.06166 5.65363
#
# Compressibility (1/GPa) = 0.03265080
#
# Stress axis : x y z
#
# Youngs Moduli (GPa) = 56.10688 64.62784 61.77848
#
# Poissons Ratio (x) = 0.16980 0.14714
# Poissons Ratio (y) = 0.14741 0.21049
# Poissons Ratio (z) = 0.13363 0.22020
#
# Static dielectric constant tensor:
#      x y z
#    x 3.793750 -0.000030 -0.709740 
#    y -0.000030 3.471990 -0.000040 
#    z -0.709740 -0.000040 4.557450 
# 
# 
# High freq. dielectric constant tensor:
#      x y z
#    x 1.762960 0.000000 -0.017130 
#    y 0.000000 1.757340 0.000000 
#    z -0.017130 0.000000 1.785630 
# 
# From -- ./inp_files/336783.got.cif
#   From: 2010.06.25/outbox.cif.g09.slc.cpg/sg12_169_cif.got.tgz:336783.got - 2010.06.28 00:19:55.
