data_PCOD8078542
_publ_section_title
;
Structure prediction by ZEFSAII (Michael W. Deem and Ramdas Pophale) SiO2 
 PCOD8078542
Probable space group: C 2/M
;
_chemical_formula_sum "Si O2"
_cell_formula_units_Z 64
_cell_length_a 33.075656
_cell_length_b 13.765417
_cell_length_c 31.403940
_cell_angle_alpha 90.000000
_cell_angle_beta 18.287108
_cell_angle_gamma 90.000000
_cell_volume 4486.478623
_symmetry_space_group_name_H-M "C 2/M"
_symmetry_group_IT_number 12
_symmetry_cell_setting 'monoclinic'
loop_
_space_group_symop_operation_xyz
x,y,z
-x,y,-z
-x,-y,-z
x,-y,z
1/2+x,1/2+y,z
1/2-x,1/2+y,-z
1/2-x,1/2-y,-z
1/2+x,1/2-y,z
loop_
_atom_site_type_symbol
_atom_site_label
_atom_site_fract_x
_atom_site_fract_y
_atom_site_fract_z
Si Si1 0.097464 0.106717 0.132004
Si Si2 0.491199 0.884646 0.910613
Si Si3 0.902554 0.703581 0.913594
Si Si4 0.008840 0.884649 0.393012
Si Si5 0.250029 0.884867 0.302239
Si Si6 0.750047 0.615189 0.206974
Si Si7 0.597543 0.703586 0.218639
Si Si8 0.597583 0.893286 0.172984
O O1 0.057868 0.184395 0.135442
O O2 0.050435 0.139598 0.225703
O O3 0.040072 0.000000 0.178486
O O4 0.249939 0.103130 0.981404
O O5 0.481012 0.831964 0.875705
O O6 0.623915 0.849341 0.798893
O O7 0.485592 0.000000 0.909179
O O8 0.376569 0.848577 0.055814
O O9 0.949548 0.639582 0.826540
O O10 0.750054 0.691814 0.074170
O O11 0.876098 0.849336 0.546740
O O12 0.123420 0.848624 0.309022
O O13 0.019126 0.831936 0.337641
O O14 0.014430 0.000000 0.380365
O O15 0.250100 0.840471 0.254513
O O16 0.250022 0.000000 0.298878
O O17 0.750113 0.500000 0.209613
O O18 0.558010 0.815620 0.248724
O O19 0.540223 0.000000 0.241274
#
# Coordination Sequence:
#
# PCOD8078542 Si02
#       8
#     8   8   8   8   8   8   8   8
#     4   8  14  23  36  55  82 106 127 163 200 225
#     4  10  17  25  39  57  80 107 133 161 190 229
#     4   9  15  23  37  59  80 102 133 162 192 231
#     4  10  17  25  39  57  80 107 133 161 190 229
#     4   9  18  28  36  53  81 109 133 157 194 236
#     4   9  16  26  40  55  75 105 135 163 192 226
#     4   9  15  23  37  59  80 102 133 162 192 231
#     4   8  14  23  36  55  82 106 127 163 200 225
#
# _framework density 14.265084999999999
#
# number of rings (size 3 to 8) (size 9 to 14) (size 15 to 20)
#    0.000    3.000    1.250    3.000    0.000    4.000 
#    0.000    0.000    0.000    3.000    0.000    2.625 
#    0.000    6.000    0.000    0.000    0.000    0.000 
#
# Total GULP energy -396629.321478 kJ/mol
# GULP energy per Si atom -12394.666296 kJ/mol
# Density = 1.423262 g / cm^3
# Si number density = 14.265085 Si / 1000 Ang^3
#
#
#
# Elastic Constant Matrix: (Units=GPa)
#
#
# Indices 1 2 3 4 5 6 
#
# 1 118.2106 39.4262 55.0590 0.0017 12.2266 0.0007
# 2 39.4262 74.2887 21.3798 0.0047 5.1319 0.0004
# 3 55.0590 21.3798 81.2533 0.0062 -1.8316 0.0012
# 4 0.0017 0.0047 0.0062 7.8449 0.0000 3.3082
# 5 12.2266 5.1319 -1.8316 0.0000 14.0483 -0.0008
# 6 0.0007 0.0004 0.0012 3.3082 -0.0008 19.4256
#
#
#
# Elastic Compliance Matrix: (Units=1/GPa)
#
#
# Indices 1 2 3 4 5 6 
#
# 1 0.016077 -0.004730 -0.009955 0.000008 -0.013562 -0.000002
# 2 -0.004730 0.016449 -0.001169 -0.000008 -0.002044 0.000001
# 3 -0.009955 -0.001169 0.019623 -0.000013 0.011649 0.000002
# 4 0.000008 -0.000008 -0.000013 0.137334 -0.000007 -0.023388
# 5 -0.013562 -0.002044 0.011649 -0.000007 0.085252 0.000004
# 6 -0.000002 0.000001 0.000002 -0.023388 0.000004 0.055461
#
#
# Mechanical properties :
#
#
# Convention : Reuss Voigt Hill
#
# Bulk Modulus (GPa) = 48.92251 56.16474 52.54363
# Shear Modulus (GPa) = 13.56051 18.78960 16.17505
#
# Velocity S-wave (km/s) = 3.08654 3.63323 3.37098
# Velocity P-wave (km/s) = 6.86091 7.55368 7.21561
#
# Compressibility (1/GPa) = 0.02044049
#
# Stress axis : x y z
#
# Youngs Moduli (GPa) = 62.20257 60.79374 50.96065
#
# Poissons Ratio (x) = 0.28757 0.50731
# Poissons Ratio (y) = 0.29424 0.05957
# Poissons Ratio (z) = 0.61922 0.07106
#
# Static dielectric constant tensor:
#      x y z
#    x 2.816620 0.000000 0.060730 
#    y 0.000000 2.867840 0.000000 
#    z 0.060730 0.000000 2.603720 
# 
# 
# High freq. dielectric constant tensor:
#      x y z
#    x 1.547850 0.000000 0.008290 
#    y 0.000000 1.506950 0.000000 
#    z 0.008290 0.000000 1.518790 
# 
# From -- ./inp_files/188916.got.cif
#   From: 2010.06.25/outbox.cif.g09.slc.cpg/sg12_95_cif.got.tgz:188916.got - 2010.06.28 00:19:55.
