data_PCOD8078869
_publ_section_title
;
Structure prediction by ZEFSAII (Michael W. Deem and Ramdas Pophale) SiO2 
 PCOD8078869
Probable space group: C 2/M
;
_chemical_formula_sum "Si O2"
_cell_formula_units_Z 64
_cell_length_a 29.842990
_cell_length_b 13.906517
_cell_length_c 16.935835
_cell_angle_alpha 90.000000
_cell_angle_beta 33.613348
_cell_angle_gamma 90.000000
_cell_volume 3890.918059
_symmetry_space_group_name_H-M "C 2/M"
_symmetry_group_IT_number 12
_symmetry_cell_setting 'monoclinic'
loop_
_space_group_symop_operation_xyz
x,y,z
-x,y,-z
-x,-y,-z
x,-y,z
1/2+x,1/2+y,z
1/2-x,1/2+y,-z
1/2-x,1/2-y,-z
1/2+x,1/2-y,z
loop_
_atom_site_type_symbol
_atom_site_label
_atom_site_fract_x
_atom_site_fract_y
_atom_site_fract_z
Si Si1 0.914168 0.710438 0.965573
Si Si2 0.985695 0.387847 0.430184
Si Si3 0.403605 0.105778 0.134813
Si Si4 0.324341 0.607725 0.111083
Si Si5 0.086895 0.614317 0.707958
Si Si6 0.785242 0.893445 0.991185
Si Si7 0.636019 0.802904 0.130534
Si Si8 0.827760 0.386749 0.575099
O O1 0.874684 0.669465 0.103960
O O2 0.904958 0.826244 0.988717
O O3 0.860145 0.679112 0.969603
O O4 0.005879 0.677424 0.817274
O O5 0.998974 0.500000 0.390646
O O6 0.896787 0.352381 0.534918
O O7 0.000000 0.365367 0.500000
O O8 0.046246 0.324128 0.290541
O O9 0.371451 0.139345 0.268546
O O10 0.370591 0.000000 0.164873
O O11 0.500000 0.106588 0.000000
O O12 0.353152 0.500000 0.091102
O O13 0.276596 0.607386 0.098234
O O14 0.260264 0.652011 0.268891
O O15 0.064399 0.500000 0.736790
O O16 0.149433 0.644811 0.547661
O O17 0.697184 0.875186 0.083392
O O18 0.815551 0.000000 0.919273
O O19 0.845455 0.808760 0.874666
O O20 0.821642 0.500000 0.589347
#
# Coordination Sequence:
#
# PCOD8078869 Si02
#       8
#     8   8   8   8   8   8   8   8
#     4  10  17  27  45  67  89 113 147 181 216 259
#     4  10  18  26  41  65  91 114 138 178 227 261
#     4   8  15  26  42  65  91 114 136 176 229 268
#     4   9  18  31  44  62  90 122 150 175 213 262
#     4   9  16  28  46  69  92 112 138 180 230 270
#     4   9  18  30  42  60  91 121 145 176 218 260
#     4  10  18  27  43  66  87 113 149 183 214 257
#     4   9  16  27  43  63  89 116 143 178 222 264
#
# _framework density 16.448560000000001
#
# number of rings (size 3 to 8) (size 9 to 14) (size 15 to 20)
#    0.000    2.750    1.250    2.250    0.000    3.500 
#    0.000    0.625    0.000    3.750    0.000    3.500 
#    0.000    0.000    0.000    0.000    0.000    0.000 
#
# Total GULP energy -396479.722826 kJ/mol
# GULP energy per Si atom -12389.991338 kJ/mol
# Density = 1.641112 g / cm^3
# Si number density = 16.448560 Si / 1000 Ang^3
#
#
#
# Elastic Constant Matrix: (Units=GPa)
#
#
# Indices 1 2 3 4 5 6 
#
# 1 65.1223 31.8622 9.4930 0.0000 16.8026 0.0000
# 2 31.8622 78.5298 32.3021 0.0000 3.3100 0.0000
# 3 9.4930 32.3021 60.7458 0.0000 8.7621 0.0000
# 4 0.0000 0.0000 0.0000 17.9537 0.0000 -0.1797
# 5 16.8026 3.3100 8.7621 0.0000 21.1338 0.0000
# 6 0.0000 0.0000 0.0000 -0.1797 0.0000 20.1634
#
#
#
# Elastic Compliance Matrix: (Units=1/GPa)
#
#
# Indices 1 2 3 4 5 6 
#
# 1 0.025655 -0.011668 0.005184 0.000000 -0.020719 0.000000
# 2 -0.011668 0.021630 -0.011198 0.000000 0.010532 0.000000
# 3 0.005184 -0.011198 0.023344 0.000000 -0.012046 0.000000
# 4 0.000000 0.000000 0.000000 0.055704 0.000000 0.000497
# 5 -0.020719 0.010532 -0.012046 0.000000 0.067135 0.000000
# 6 0.000000 0.000000 0.000000 0.000497 0.000000 0.049599
#
#
# Mechanical properties :
#
#
# Convention : Reuss Voigt Hill
#
# Bulk Modulus (GPa) = 28.35662 39.07917 33.71789
# Shear Modulus (GPa) = 17.23036 20.56622 18.89829
#
# Velocity S-wave (km/s) = 3.24007 3.53984 3.39327
# Velocity P-wave (km/s) = 5.59235 6.36532 5.99131
#
# Compressibility (1/GPa) = 0.03526514
#
# Stress axis : x y z
#
# Youngs Moduli (GPa) = 38.97943 46.23168 42.83768
#
# Poissons Ratio (x) = 0.53943 -0.22206
# Poissons Ratio (y) = 0.45481 0.47968
# Poissons Ratio (z) = -0.20206 0.51769
#
# Static dielectric constant tensor:
#      x y z
#    x 3.294060 0.000000 0.330490 
#    y 0.000000 3.031400 0.000000 
#    z 0.330490 0.000000 3.038730 
# 
# 
# High freq. dielectric constant tensor:
#      x y z
#    x 1.636610 0.000000 0.023650 
#    y 0.000000 1.612080 0.000000 
#    z 0.023650 0.000000 1.606660 
# 
# From -- ./inp_files/296684.got.cif
#   From: 2010.06.25/outbox.cif.g09.slc.cpg/sg12_149_cif.got.tgz:296684.got - 2010.06.28 00:19:55.
