data_PCOD8078379
_publ_section_title
;
Structure prediction by ZEFSAII (Michael W. Deem and Ramdas Pophale) SiO2 
 PCOD8078379
Probable space group: C 2/M
;
_chemical_formula_sum "Si O2"
_cell_formula_units_Z 28
_cell_length_a 13.155940
_cell_length_b 18.624041
_cell_length_c 9.164004
_cell_angle_alpha 90.000000
_cell_angle_beta 43.838717
_cell_angle_gamma 90.000000
_cell_volume 1555.187776
_symmetry_space_group_name_H-M "C 2/M"
_symmetry_group_IT_number 12
_symmetry_cell_setting 'monoclinic'
loop_
_space_group_symop_operation_xyz
x,y,z
-x,y,-z
-x,-y,-z
x,-y,z
1/2+x,1/2+y,z
1/2-x,1/2+y,-z
1/2-x,1/2-y,-z
1/2+x,1/2-y,z
loop_
_atom_site_type_symbol
_atom_site_label
_atom_site_fract_x
_atom_site_fract_y
_atom_site_fract_z
Si Si1 0.516296 0.000000 0.654829
Si Si2 0.500000 0.253918 0.500000
Si Si3 0.334805 0.000000 0.100069
Si Si4 0.726200 0.154374 0.810253
Si Si5 0.444291 0.155407 0.292960
O O1 0.500000 0.000000 0.500000
O O2 0.598543 0.926730 0.619591
O O3 0.357883 0.000000 0.899945
O O4 0.626442 0.303879 0.300251
O O5 0.427776 0.205085 0.450746
O O6 0.242522 0.069423 0.243203
O O7 0.500000 0.000000 0.000000
O O8 0.664971 0.183598 0.719233
O O9 0.610036 0.162288 0.061352
#
# Coordination Sequence:
#
# PCOD8078379 Si02
#       5
#     4   4   4   8   8
#     4  10  16  30  56  78  88 124 188 214 230 288
#     4  12  22  30  50  82 112 132 160 218 260 302
#     4  10  16  35  58  69  93 137 175 213 240 301
#     4  10  20  35  53  76 102 138 174 205 256 299
#     4  10  19  35  53  75 103 137 173 209 246 303
#
# _framework density 18.004256999999999
#
# number of rings (size 3 to 8) (size 9 to 14) (size 15 to 20)
#    0.000    1.714    7.143    1.714    0.000    0.571 
#    0.000    0.000    0.000    0.000    0.000    4.000 
#    0.000    0.000    0.000    0.000    0.000    0.000 
#
# Total GULP energy -173497.611747 kJ/mol
# GULP energy per Si atom -12392.686553 kJ/mol
# Density = 1.796328 g / cm^3
# Si number density = 18.004257 Si / 1000 Ang^3
#
#
#
# Elastic Constant Matrix: (Units=GPa)
#
#
# Indices 1 2 3 4 5 6 
#
# 1 41.4086 23.4359 21.7541 0.0002 9.9615 -0.0001
# 2 23.4359 109.8022 24.6199 0.0001 -6.5822 0.0000
# 3 21.7541 24.6199 56.4613 0.0002 12.8640 -0.0001
# 4 0.0002 0.0001 0.0002 29.1552 -0.0002 4.7224
# 5 9.9615 -6.5822 12.8640 -0.0002 32.2795 0.0001
# 6 -0.0001 0.0000 -0.0001 4.7224 0.0001 11.8735
#
#
#
# Elastic Compliance Matrix: (Units=1/GPa)
#
#
# Indices 1 2 3 4 5 6 
#
# 1 0.033967 -0.005792 -0.008694 0.000000 -0.008199 0.000000
# 2 -0.005792 0.011626 -0.004163 0.000000 0.005817 0.000000
# 3 -0.008694 -0.004163 0.024701 0.000000 -0.008010 0.000000
# 4 0.000000 0.000000 0.000000 0.036661 0.000000 -0.014581
# 5 -0.008199 0.005817 -0.008010 0.000000 0.037888 -0.000001
# 6 0.000000 0.000000 0.000000 -0.014581 -0.000001 0.090020
#
#
# Mechanical properties :
#
#
# Convention : Reuss Voigt Hill
#
# Bulk Modulus (GPa) = 30.30637 38.58798 34.44717
# Shear Modulus (GPa) = 17.65791 23.85248 20.75520
#
# Velocity S-wave (km/s) = 3.13511 3.64376 3.39897
# Velocity P-wave (km/s) = 5.47491 6.25954 5.88033
#
# Compressibility (1/GPa) = 0.03299637
#
# Stress axis : x y z
#
# Youngs Moduli (GPa) = 29.44013 86.01643 40.48401
#
# Poissons Ratio (x) = 0.49821 0.35196
# Poissons Ratio (y) = 0.17052 0.16854
# Poissons Ratio (z) = 0.25594 0.35809
#
# Static dielectric constant tensor:
#      x y z
#    x 3.056720 0.000000 0.315980 
#    y 0.000000 3.523600 0.000000 
#    z 0.315980 0.000000 3.174000 
# 
# 
# High freq. dielectric constant tensor:
#      x y z
#    x 1.668330 0.000000 0.033600 
#    y 0.000000 1.711330 0.000000 
#    z 0.033600 0.000000 1.677980 
# 
# From -- ./inp_files/47731.got.cif
#   From: 2010.06.25/outbox.cif.g09.slc.cpg/sg12_24_cif.got.tgz:47731.got - 2010.06.28 00:19:55.
