data_PCOD8078457
_publ_section_title
;
Structure prediction by ZEFSAII (Michael W. Deem and Ramdas Pophale) SiO2 
 PCOD8078457
Probable space group: C 2/M
;
_chemical_formula_sum "Si O2"
_cell_formula_units_Z 44
_cell_length_a 11.597699
_cell_length_b 19.736566
_cell_length_c 11.879525
_cell_angle_alpha 90.000000
_cell_angle_beta 131.550017
_cell_angle_gamma 90.000000
_cell_volume 2034.993041
_symmetry_space_group_name_H-M "C 2/M"
_symmetry_group_IT_number 12
_symmetry_cell_setting 'monoclinic'
loop_
_space_group_symop_operation_xyz
x,y,z
-x,y,-z
-x,-y,-z
x,-y,z
1/2+x,1/2+y,z
1/2-x,1/2+y,-z
1/2-x,1/2-y,-z
1/2+x,1/2-y,z
loop_
_atom_site_type_symbol
_atom_site_label
_atom_site_fract_x
_atom_site_fract_y
_atom_site_fract_z
Si Si1 0.500000 0.774335 0.000000
Si Si2 0.081930 0.155458 0.897282
Si Si3 0.724247 0.173461 0.444065
Si Si4 0.790855 0.078716 0.692870
Si Si5 0.183813 0.806702 0.733969
Si Si6 0.627416 0.843533 0.766227
O O1 0.527341 0.728364 0.906705
O O2 0.357309 0.822987 0.885225
O O3 0.075025 0.157702 0.755789
O O4 0.957166 0.099193 0.855273
O O5 0.254039 0.141777 0.054674
O O6 0.750000 0.250000 0.500000
O O7 0.776689 0.119408 0.568460
O O8 0.834127 0.164930 0.404573
O O9 0.545576 0.157748 0.298608
O O10 0.653503 0.097681 0.690113
O O11 0.784874 0.000000 0.662055
O O12 0.163678 0.725573 0.722918
#
# Coordination Sequence:
#
# PCOD8078457 Si02
#       6
#     4   8   8   8   8   8
#     4  10  16  36  59 102 129 156 214 270 334 384
#     4  11  21  39  63  96 128 168 214 273 332 383
#     4  12  24  41  63  97 135 175 218 270 334 398
#     4  12  26  44  65  93 131 178 228 272 323 391
#     4  11  20  34  63  96 130 164 208 272 331 385
#     4  11  22  39  65  93 128 168 221 272 325 386
#
# _framework density 21.621696
#
# number of rings (size 3 to 8) (size 9 to 14) (size 15 to 20)
#    0.000    0.727    5.455    6.000    0.000    5.091 
#    0.000    1.818    0.000    0.000    0.000    5.091 
#    0.000    0.000    0.000    0.000    0.000    0.000 
#
# Total GULP energy -272726.666035 kJ/mol
# GULP energy per Si atom -12396.666638 kJ/mol
# Density = 2.157248 g / cm^3
# Si number density = 21.621696 Si / 1000 Ang^3
#
#
#
# Elastic Constant Matrix: (Units=GPa)
#
#
# Indices 1 2 3 4 5 6 
#
# 1 124.4084 16.1624 35.5006 0.0000 -22.7651 0.0000
# 2 16.1624 92.2869 28.5863 0.0000 -6.6434 0.0000
# 3 35.5006 28.5863 63.4925 0.0000 -16.7701 0.0000
# 4 0.0000 0.0000 0.0000 17.7624 0.0000 -5.0609
# 5 -22.7651 -6.6434 -16.7701 0.0000 56.5524 0.0000
# 6 0.0000 0.0000 0.0000 -5.0609 0.0000 19.6234
#
#
#
# Elastic Compliance Matrix: (Units=1/GPa)
#
#
# Indices 1 2 3 4 5 6 
#
# 1 0.009889 -0.000051 -0.004835 0.000000 0.002541 0.000000
# 2 -0.000051 0.012595 -0.005703 0.000000 -0.000232 0.000000
# 3 -0.004835 -0.005703 0.022058 0.000000 0.003925 0.000000
# 4 0.000000 0.000000 0.000000 0.060764 0.000000 0.015671
# 5 0.002541 -0.000232 0.003925 0.000000 0.019842 0.000000
# 6 0.000000 0.000000 0.000000 0.015671 0.000000 0.055001
#
#
# Mechanical properties :
#
#
# Convention : Reuss Voigt Hill
#
# Bulk Modulus (GPa) = 42.80373 48.96516 45.88445
# Shear Modulus (GPa) = 23.91019 32.11687 28.01353
#
# Velocity S-wave (km/s) = 3.32903 3.85827 3.60338
# Velocity P-wave (km/s) = 5.88355 6.52256 6.21128
#
# Compressibility (1/GPa) = 0.02336245
#
# Stress axis : x y z
#
# Youngs Moduli (GPa) = 101.11787 79.39898 45.33550
#
# Poissons Ratio (x) = 0.00407 0.21921
# Poissons Ratio (y) = 0.00519 0.25856
# Poissons Ratio (z) = 0.48893 0.45283
#
# Static dielectric constant tensor:
#      x y z
#    x 4.374800 0.000000 0.119130 
#    y 0.000000 3.314870 0.000000 
#    z 0.119130 0.000000 4.212230 
# 
# 
# High freq. dielectric constant tensor:
#      x y z
#    x 1.872390 0.000000 0.004060 
#    y 0.000000 1.769470 0.000000 
#    z 0.004060 0.000000 1.869170 
# 
# From -- ./inp_files/133482.got.cif
#   From: 2010.06.25/outbox.cif.g09.slc.cpg/sg12_67_cif.got.tgz:133482.got - 2010.06.28 00:19:55.
