data_PCOD8078343
_publ_section_title
;
Structure prediction by ZEFSAII (Michael W. Deem and Ramdas Pophale) SiO2 
 PCOD8078343
Probable space group: C 2/M
;
_chemical_formula_sum "Si O2"
_cell_formula_units_Z 64
_cell_length_a 5.198912
_cell_length_b 17.702186
_cell_length_c 37.059046
_cell_angle_alpha 90.000000
_cell_angle_beta 86.722384
_cell_angle_gamma 90.000000
_cell_volume 3405.043099
_symmetry_space_group_name_H-M "C 2/M"
_symmetry_group_IT_number 12
_symmetry_cell_setting 'monoclinic'
loop_
_space_group_symop_operation_xyz
x,y,z
-x,y,-z
-x,-y,-z
x,-y,z
1/2+x,1/2+y,z
1/2-x,1/2+y,-z
1/2-x,1/2-y,-z
1/2+x,1/2-y,z
loop_
_atom_site_type_symbol
_atom_site_label
_atom_site_fract_x
_atom_site_fract_y
_atom_site_fract_z
Si Si1 0.529113 0.589534 0.916548
Si Si2 0.224910 0.700648 0.598427
Si Si3 0.487863 0.089644 0.040464
Si Si4 0.404969 0.297735 0.229280
Si Si5 0.336052 0.588162 0.291929
Si Si6 0.183493 0.411535 0.663174
Si Si7 0.243479 0.665680 0.515881
Si Si8 0.088142 0.201862 0.853582
O O1 0.531349 0.500000 0.910753
O O2 0.764610 0.617548 0.939415
O O3 0.549625 0.626817 0.877247
O O4 0.269640 0.618300 0.937888
O O5 0.497492 0.739037 0.604576
O O6 0.181686 0.631722 0.625614
O O7 0.222995 0.664982 0.558860
O O8 0.485272 0.000000 0.038252
O O9 0.500000 0.123741 0.000000
O O10 0.677777 0.261960 0.237991
O O11 0.359283 0.371244 0.253531
O O12 0.406711 0.324763 0.187893
O O13 0.348115 0.500000 0.283365
O O14 0.567716 0.613243 0.316084
O O15 0.069101 0.611679 0.312562
O O16 0.186349 0.500000 0.654199
O O17 0.500000 0.622880 0.500000
O O18 0.250000 0.750000 0.500000
O O19 0.000000 0.622867 0.500000
O O20 0.356458 0.240139 0.862493
#
# Coordination Sequence:
#
# PCOD8078343 Si02
#       8
#     8   8   8   8   8   8   8   8
#     4  10  19  32  54  79 102 134 180 225 257 308
#     4  12  21  32  55  84 101 135 182 220 255 303
#     4   9  17  30  50  77 105 134 173 224 274 309
#     4  10  21  36  58  82 107 137 175 220 260 308
#     4  10  21  39  58  77 106 146 176 209 262 314
#     4  10  23  39  53  76 114 145 168 208 268 319
#     4  10  16  30  48  73 103 131 162 219 265 295
#     4  10  21  37  54  77 109 144 170 206 274 322
#
# _framework density 18.795650999999999
#
# number of rings (size 3 to 8) (size 9 to 14) (size 15 to 20)
#    0.000    1.875    2.500    2.625    0.000    5.000 
#    0.000    0.000    0.000   17.250    0.000    0.000 
#    0.000    0.000    0.000    0.000    0.000    0.000 
#
# Total GULP energy -396851.317159 kJ/mol
# GULP energy per Si atom -12401.603661 kJ/mol
# Density = 1.875287 g / cm^3
# Si number density = 18.795651 Si / 1000 Ang^3
#
#
#
# Elastic Constant Matrix: (Units=GPa)
#
#
# Indices 1 2 3 4 5 6 
#
# 1 139.7317 20.9763 44.1208 0.0000 -10.2407 0.0000
# 2 20.9763 41.7724 59.9866 0.0000 -7.5588 0.0000
# 3 44.1208 59.9866 142.2375 0.0000 -10.4687 0.0000
# 4 0.0000 0.0000 0.0000 18.7625 0.0000 -0.8914
# 5 -10.2407 -7.5588 -10.4687 0.0000 27.5200 0.0000
# 6 0.0000 0.0000 0.0000 -0.8914 0.0000 6.7512
#
#
#
# Elastic Compliance Matrix: (Units=1/GPa)
#
#
# Indices 1 2 3 4 5 6 
#
# 1 0.008060 -0.000774 -0.002025 0.000000 0.002016 0.000000
# 2 -0.000774 0.062169 -0.025456 0.000000 0.007104 0.000000
# 3 -0.002025 -0.025456 0.018338 0.000000 -0.000770 0.000000
# 4 0.000000 0.000000 0.000000 0.053634 0.000000 0.007081
# 5 0.002016 0.007104 -0.000770 0.000000 0.038746 0.000000
# 6 0.000000 0.000000 0.000000 0.007081 0.000000 0.149057
#
#
# Mechanical properties :
#
#
# Convention : Reuss Voigt Hill
#
# Bulk Modulus (GPa) = 31.19543 63.76766 47.48154
# Shear Modulus (GPa) = 12.58814 23.85060 18.21937
#
# Velocity S-wave (km/s) = 2.59073 3.56609 3.11680
# Velocity P-wave (km/s) = 5.05790 7.13838 6.18623
#
# Compressibility (1/GPa) = 0.03205598
#
# Stress axis : x y z
#
# Youngs Moduli (GPa) = 124.06884 16.08525 54.53266
#
# Poissons Ratio (x) = 0.01245 0.11044
# Poissons Ratio (y) = 0.09606 1.38817
# Poissons Ratio (z) = 0.25127 0.40946
#
# Static dielectric constant tensor:
#      x y z
#    x 3.453560 0.000000 -0.009190 
#    y 0.000000 2.972090 0.000000 
#    z -0.009190 0.000000 3.511810 
# 
# 
# High freq. dielectric constant tensor:
#      x y z
#    x 1.760430 0.000000 -0.001720 
#    y 0.000000 1.688600 0.000000 
#    z -0.001720 0.000000 1.740090 
# 
# From -- ./inp_files/371611.got.cif
#   From: 2010.06.25/outbox.cif.g09.slc.cpg/sg12_186_cif.got.tgz:371611.got - 2010.06.28 00:19:55.
