data_PCOD8078415
_publ_section_title
;
Structure prediction by ZEFSAII (Michael W. Deem and Ramdas Pophale) SiO2 
 PCOD8078415
Probable space group: C 2/M
;
_chemical_formula_sum "Si O2"
_cell_formula_units_Z 48
_cell_length_a 20.949307
_cell_length_b 19.734193
_cell_length_c 7.812798
_cell_angle_alpha 90.000000
_cell_angle_beta 111.896908
_cell_angle_gamma 90.000000
_cell_volume 2996.928536
_symmetry_space_group_name_H-M "C 2/M"
_symmetry_group_IT_number 12
_symmetry_cell_setting 'monoclinic'
loop_
_space_group_symop_operation_xyz
x,y,z
-x,y,-z
-x,-y,-z
x,-y,z
1/2+x,1/2+y,z
1/2-x,1/2+y,-z
1/2-x,1/2-y,-z
1/2+x,1/2-y,z
loop_
_atom_site_type_symbol
_atom_site_label
_atom_site_fract_x
_atom_site_fract_y
_atom_site_fract_z
Si Si1 0.144715 0.921366 0.894715
Si Si2 0.577068 0.654091 0.127549
Si Si3 0.922932 0.154091 0.473414
Si Si4 0.174049 0.720964 0.607031
Si Si5 0.174048 0.279036 0.241066
Si Si6 0.723721 0.828184 0.973721
O O1 0.102321 0.905137 0.679144
O O2 0.161892 0.000000 0.911892
O O3 0.102321 0.905137 0.025499
O O4 0.216388 0.882162 0.966388
O O5 0.583199 0.631257 0.333199
O O6 0.622691 0.719665 0.134474
O O7 0.500000 0.673508 0.000000
O O8 0.877309 0.219664 0.389092
O O9 0.000000 0.173508 0.500000
O O10 0.150600 0.689468 0.400600
O O11 0.250000 0.750000 0.660773
O O12 0.176084 0.663142 0.756396
O O13 0.176084 0.336858 0.095772
O O14 0.750000 0.750000 0.000000
#
# Coordination Sequence:
#
# PCOD8078415 Si02
#       6
#     8   8   8   8   8   8
#     4  12  24  36  48  72 101 138 174 200 238 294
#     4  11  21  34  50  70 100 138 169 203 238 291
#     4  11  21  34  50  70 100 138 169 203 238 291
#     4   9  16  28  51  72  88 119 162 207 254 277
#     4   9  16  28  51  72  88 119 162 207 254 277
#     4  10  16  32  56  66  88 126 161 210 252 276
#
# _framework density 16.016397000000001
#
# number of rings (size 3 to 8) (size 9 to 14) (size 15 to 20)
#    0.000    1.667    8.333    0.000    0.000    1.333 
#    0.000    0.000    0.000    0.000    0.000    0.000 
#    0.000    1.333    0.000    0.000    0.000    0.000 
#
# Total GULP energy -297322.284344 kJ/mol
# GULP energy per Si atom -12388.428514 kJ/mol
# Density = 1.597994 g / cm^3
# Si number density = 16.016397 Si / 1000 Ang^3
#
#
#
# Elastic Constant Matrix: (Units=GPa)
#
#
# Indices 1 2 3 4 5 6 
#
# 1 80.4046 60.5783 46.9781 0.0000 -6.9801 0.0000
# 2 60.5783 61.9158 43.1427 0.0000 8.7001 0.0000
# 3 46.9781 43.1427 133.5981 0.0000 -19.5617 0.0000
# 4 0.0000 0.0000 0.0000 15.8743 0.0000 -0.6346
# 5 -6.9801 8.7001 -19.5617 0.0000 29.9861 0.0000
# 6 0.0000 0.0000 0.0000 -0.6346 0.0000 14.6024
#
#
#
# Elastic Compliance Matrix: (Units=1/GPa)
#
#
# Indices 1 2 3 4 5 6 
#
# 1 0.084893 -0.097295 0.009502 0.000000 0.054189 0.000000
# 2 -0.097295 0.136717 -0.021075 0.000000 -0.076063 0.000000
# 3 0.009502 -0.021075 0.013454 0.000000 0.017103 0.000000
# 4 0.000000 0.000000 0.000000 0.063104 0.000000 0.002742
# 5 0.054189 -0.076063 0.017103 0.000000 0.079189 0.000000
# 6 0.000000 0.000000 0.000000 0.002742 0.000000 0.068601
#
#
# Mechanical properties :
#
#
# Convention : Reuss Voigt Hill
#
# Bulk Modulus (GPa) = 57.70630 64.14629 60.92630
# Shear Modulus (GPa) = 7.46861 20.44053 13.95457
#
# Velocity S-wave (km/s) = 2.16176 3.57630 2.95493
# Velocity P-wave (km/s) = 6.50682 7.56245 7.05441
#
# Compressibility (1/GPa) = 0.01732913
#
# Stress axis : x y z
#
# Youngs Moduli (GPa) = 11.77951 7.31439 74.32902
#
# Poissons Ratio (x) = 0.71165 -0.70628
# Poissons Ratio (y) = 1.14608 1.56645
# Poissons Ratio (z) = -0.11193 0.15415
#
# Static dielectric constant tensor:
#      x y z
#    x 3.459710 0.000000 -0.975730 
#    y 0.000000 2.972860 0.000000 
#    z -0.975730 0.000000 5.415200 
# 
# 
# High freq. dielectric constant tensor:
#      x y z
#    x 1.614130 0.000000 -0.019000 
#    y 0.000000 1.544440 0.000000 
#    z -0.019000 0.000000 1.652210 
# 
# From -- ./inp_files/85943.got.cif
#   From: 2010.06.25/outbox.cif.g09.slc.cpg/sg12_43_cif.got.tgz:85943.got - 2010.06.28 00:19:55.
