data_PCOD8078169
_publ_section_title
;
Structure prediction by ZEFSAII (Michael W. Deem and Ramdas Pophale) SiO2 
 PCOD8078169
Probable space group: C 2/M
;
_chemical_formula_sum "Si O2"
_cell_formula_units_Z 48
_cell_length_a 5.263075
_cell_length_b 15.222810
_cell_length_c 30.180596
_cell_angle_alpha 90.000000
_cell_angle_beta 69.209435
_cell_angle_gamma 90.000000
_cell_volume 2260.580566
_symmetry_space_group_name_H-M "C 2/M"
_symmetry_group_IT_number 12
_symmetry_cell_setting 'monoclinic'
loop_
_space_group_symop_operation_xyz
x,y,z
-x,y,-z
-x,-y,-z
x,-y,z
1/2+x,1/2+y,z
1/2-x,1/2+y,-z
1/2-x,1/2-y,-z
1/2+x,1/2-y,z
loop_
_atom_site_type_symbol
_atom_site_label
_atom_site_fract_x
_atom_site_fract_y
_atom_site_fract_z
Si Si1 0.190940 0.851892 0.152882
Si Si2 0.137628 0.694989 0.447857
Si Si3 0.216661 0.897505 0.647722
Si Si4 0.891832 0.605266 0.298890
Si Si5 0.390660 0.153753 0.807019
Si Si6 0.055455 0.305270 0.949635
O O1 0.394255 0.897814 0.175232
O O2 0.156828 0.750112 0.169380
O O3 0.307065 0.865829 0.096154
O O4 0.896618 0.897918 0.174025
O O5 0.436240 0.729794 0.442191
O O6 0.172746 0.622736 0.407912
O O7 0.000000 0.651350 0.500000
O O8 0.424539 0.860662 0.671631
O O9 0.913517 0.860157 0.673585
O O10 0.202630 0.000000 0.654106
O O11 0.907788 0.500000 0.291259
O O12 0.998752 0.656717 0.249478
O O13 0.269050 0.227575 0.947529
O O14 0.000000 0.355712 0.000000
#
# Coordination Sequence:
#
# PCOD8078169 Si02
#       6
#     8   8   8   8   8   8
#     4  10  17  30  43  68 100 121 154 208 242 298
#     4  10  21  39  59  84 115 141 169 216 269 315
#     4  10  21  39  58  79 106 140 181 221 254 307
#     4  10  21  37  53  72 102 136 174 216 250 291
#     4  10  18  30  45  64  95 129 156 198 245 289
#     4  10  16  25  41  61  92 127 154 187 247 308
#
# _framework density 21.233485000000002
#
# number of rings (size 3 to 8) (size 9 to 14) (size 15 to 20)
#    0.000    2.000    3.333    2.000    0.000    0.333 
#   18.000    0.000    0.000    6.000    0.000    0.000 
#    0.000    7.333    0.000    0.000    0.000    0.000 
#
# Total GULP energy -297405.704946 kJ/mol
# GULP energy per Si atom -12391.904373 kJ/mol
# Density = 2.118516 g / cm^3
# Si number density = 21.233485 Si / 1000 Ang^3
#
#
#
# Elastic Constant Matrix: (Units=GPa)
#
#
# Indices 1 2 3 4 5 6 
#
# 1 200.5544 2.8650 70.1392 0.0000 -0.4468 0.0000
# 2 2.8650 8.5701 9.3590 0.0000 -0.5132 0.0000
# 3 70.1392 9.3590 205.2338 0.0000 7.0467 0.0000
# 4 0.0000 0.0000 0.0000 2.2354 0.0000 -0.7516
# 5 -0.4468 -0.5132 7.0467 0.0000 41.0050 0.0000
# 6 0.0000 0.0000 0.0000 -0.7516 0.0000 1.5683
#
#
#
# Elastic Compliance Matrix: (Units=1/GPa)
#
#
# Indices 1 2 3 4 5 6 
#
# 1 0.005670 0.000273 -0.001964 0.000000 0.000403 0.000000
# 2 0.000273 0.123071 -0.005793 0.000000 0.002539 0.000000
# 3 -0.001964 -0.005793 0.005846 0.000000 -0.001098 0.000000
# 4 0.000000 0.000000 0.000000 0.533278 0.000000 0.255576
# 5 0.000403 0.002539 -0.001098 0.000000 0.024612 0.000000
# 6 0.000000 0.000000 0.000000 0.255576 0.000000 0.760119
#
#
# Mechanical properties :
#
#
# Convention : Reuss Voigt Hill
#
# Bulk Modulus (GPa) = 8.35983 64.34276 36.35130
# Shear Modulus (GPa) = 3.31689 31.09475 17.20582
#
# Velocity S-wave (km/s) = 1.25120 3.83093 2.84969
# Velocity P-wave (km/s) = 2.45621 7.06656 5.29005
#
# Compressibility (1/GPa) = 0.11961959
#
# Stress axis : x y z
#
# Youngs Moduli (GPa) = 176.36530 8.12540 171.06898
#
# Poissons Ratio (x) = -0.00222 0.33599
# Poissons Ratio (y) = -0.04823 0.99098
# Poissons Ratio (z) = 0.34639 0.04707
#
# Static dielectric constant tensor:
#      x y z
#    x 6.039750 0.000000 -0.073180 
#    y 0.000000 2.973520 0.000000 
#    z -0.073180 0.000000 4.146020 
# 
# 
# High freq. dielectric constant tensor:
#      x y z
#    x 1.872610 0.000000 0.000210 
#    y 0.000000 1.750530 0.000000 
#    z 0.000210 0.000000 1.854130 
# 
# From -- ./inp_files/330996.got.cif
#   From: 2010.06.25/outbox.cif.g09.slc.cpg/sg12_166_cif.got.tgz:330996.got - 2010.06.28 00:19:55.
