data_PCOD8078783
_publ_section_title
;
Structure prediction by ZEFSAII (Michael W. Deem and Ramdas Pophale) SiO2 
 PCOD8078783
Probable space group: C 2/M
;
_chemical_formula_sum "Si O2"
_cell_formula_units_Z 64
_cell_length_a 24.423612
_cell_length_b 9.193264
_cell_length_c 18.682227
_cell_angle_alpha 90.000000
_cell_angle_beta 77.783341
_cell_angle_gamma 90.000000
_cell_volume 4099.778043
_symmetry_space_group_name_H-M "C 2/M"
_symmetry_group_IT_number 12
_symmetry_cell_setting 'monoclinic'
loop_
_space_group_symop_operation_xyz
x,y,z
-x,y,-z
-x,-y,-z
x,-y,z
1/2+x,1/2+y,z
1/2-x,1/2+y,-z
1/2-x,1/2-y,-z
1/2+x,1/2-y,z
loop_
_atom_site_type_symbol
_atom_site_label
_atom_site_fract_x
_atom_site_fract_y
_atom_site_fract_z
Si Si1 0.985271 0.839263 0.346903
Si Si2 0.546049 0.672080 0.192277
Si Si3 0.169651 0.330345 0.986828
Si Si4 0.455327 0.169356 0.951290
Si Si5 0.262513 0.166687 0.893291
Si Si6 0.893221 0.836064 0.616284
Si Si7 0.145945 0.670235 0.242495
Si Si8 0.060457 0.663391 0.519846
O O1 0.944012 0.728085 0.398636
O O2 0.994650 0.796011 0.261406
O O3 0.045689 0.838850 0.366787
O O4 0.958778 0.000000 0.360799
O O5 0.558866 0.500000 0.185629
O O6 0.527111 0.733584 0.121240
O O7 0.601397 0.755487 0.202320
O O8 0.174761 0.500000 0.972516
O O9 0.105159 0.280609 0.002557
O O10 0.195116 0.281587 0.056001
O O11 0.204374 0.254862 0.913105
O O12 0.454147 0.000000 0.928922
O O13 0.500000 0.200966 0.000000
O O14 0.292663 0.191979 0.808870
O O15 0.246785 0.000000 0.909003
O O16 0.852680 0.745119 0.679995
O O17 0.895721 0.758039 0.538390
O O18 0.870078 0.000000 0.613229
O O19 0.130615 0.500000 0.254247
O O20 0.083574 0.500000 0.519126
O O21 0.000000 0.666304 0.500000
#
# Coordination Sequence:
#
# PCOD8078783 Si02
#       8
#     8   8   8   8   8   8   8   8
#     4   8  15  25  35  49  71 100 131 168 206 240
#     4  10  19  29  42  60  81 105 138 175 213 253
#     4   9  17  30  44  62  82 105 137 172 212 255
#     4  10  20  34  49  63  83 111 141 176 217 257
#     4   9  17  28  43  62  83 108 136 173 214 250
#     4   9  16  24  34  51  76 105 136 167 204 244
#     4  10  17  27  41  58  82 108 139 174 209 248
#     4   9  15  22  33  50  70  99 136 169 201 238
#
# _framework density 15.610602
#
# number of rings (size 3 to 8) (size 9 to 14) (size 15 to 20)
#    0.000    2.750    1.250    2.250    0.000    6.750 
#    0.000    0.000    0.000    0.000    0.000    0.000 
#    0.000    0.000    0.000    1.125    0.000   14.625 
#
# Total GULP energy -396698.168091 kJ/mol
# GULP energy per Si atom -12396.817753 kJ/mol
# Density = 1.557507 g / cm^3
# Si number density = 15.610602 Si / 1000 Ang^3
#
#
#
# Elastic Constant Matrix: (Units=GPa)
#
#
# Indices 1 2 3 4 5 6 
#
# 1 50.0320 28.7760 39.6762 0.0000 -9.2939 0.0000
# 2 28.7760 106.4258 71.6846 0.0000 -14.6113 0.0000
# 3 39.6762 71.6846 119.6361 0.0000 -25.3914 0.0000
# 4 0.0000 0.0000 0.0000 32.3817 0.0000 -7.0986
# 5 -9.2939 -14.6113 -25.3914 0.0000 14.7465 0.0000
# 6 0.0000 0.0000 0.0000 -7.0986 0.0000 13.8156
#
#
#
# Elastic Compliance Matrix: (Units=1/GPa)
#
#
# Indices 1 2 3 4 5 6 
#
# 1 0.027481 -0.002192 -0.007227 0.000000 0.002705 0.000000
# 2 -0.002192 0.015939 -0.009085 0.000000 -0.001231 0.000000
# 3 -0.007227 -0.009085 0.020994 0.000000 0.022592 0.000000
# 4 0.000000 0.000000 0.000000 0.034802 0.000000 0.017882
# 5 0.002705 -0.001231 0.022592 0.000000 0.107198 0.000000
# 6 0.000000 0.000000 0.000000 0.017882 0.000000 0.081570
#
#
# Mechanical properties :
#
#
# Convention : Reuss Voigt Hill
#
# Bulk Modulus (GPa) = 36.48608 61.81860 49.15234
# Shear Modulus (GPa) = 14.96445 21.25257 18.10851
#
# Velocity S-wave (km/s) = 3.09950 3.69374 3.40959
# Velocity P-wave (km/s) = 6.01935 7.60776 6.85969
#
# Compressibility (1/GPa) = 0.02740771
#
# Stress axis : x y z
#
# Youngs Moduli (GPa) = 36.38888 62.73889 47.63290
#
# Poissons Ratio (x) = 0.13749 0.34422
# Poissons Ratio (y) = 0.07975 0.43275
# Poissons Ratio (z) = 0.26296 0.56999
#
# Static dielectric constant tensor:
#      x y z
#    x 2.474410 0.000000 -0.283280 
#    y 0.000000 3.118020 0.000000 
#    z -0.283280 0.000000 3.141400 
# 
# 
# High freq. dielectric constant tensor:
#      x y z
#    x 1.525780 0.000000 -0.033420 
#    y 0.000000 1.611910 0.000000 
#    z -0.033420 0.000000 1.601590 
# 
# From -- ./inp_files/287572.got.cif
#   From: 2010.06.25/outbox.cif.g09.slc.cpg/sg12_144_cif.got.tgz:287572.got - 2010.06.28 00:19:55.
