data_PCOD8078936
_publ_section_title
;
Structure prediction by ZEFSAII (Michael W. Deem and Ramdas Pophale) SiO2 
 PCOD8078936
Probable space group: C 2/M
;
_chemical_formula_sum "Si O2"
_cell_formula_units_Z 64
_cell_length_a 29.309947
_cell_length_b 8.781204
_cell_length_c 15.770033
_cell_angle_alpha 90.000000
_cell_angle_beta 117.567135
_cell_angle_gamma 90.000000
_cell_volume 3598.034667
_symmetry_space_group_name_H-M "C 2/M"
_symmetry_group_IT_number 12
_symmetry_cell_setting 'monoclinic'
loop_
_space_group_symop_operation_xyz
x,y,z
-x,y,-z
-x,-y,-z
x,-y,z
1/2+x,1/2+y,z
1/2-x,1/2+y,-z
1/2-x,1/2-y,-z
1/2+x,1/2-y,z
loop_
_atom_site_type_symbol
_atom_site_label
_atom_site_fract_x
_atom_site_fract_y
_atom_site_fract_z
Si Si1 0.706105 0.179995 0.770392
Si Si2 0.923643 0.819456 0.762303
Si Si3 0.326205 0.821988 0.594357
Si Si4 0.274485 0.677314 0.392498
Si Si5 0.191659 0.819554 0.056281
Si Si6 0.462028 0.320123 0.149756
Si Si7 0.908575 0.180671 0.938389
Si Si8 0.637162 0.680273 0.841234
O O1 0.710867 0.231508 0.678352
O O2 0.753827 0.247691 0.866322
O O3 0.653695 0.242609 0.767254
O O4 0.705308 0.000000 0.771576
O O5 0.882176 0.729859 0.672029
O O6 0.922021 0.756835 0.857141
O O7 0.980027 0.775321 0.774166
O O8 0.913017 0.000000 0.748002
O O9 0.313309 0.728465 0.499167
O O10 0.284161 0.784494 0.630858
O O11 0.326028 0.000000 0.572353
O O12 0.282183 0.500000 0.381707
O O13 0.148674 0.763933 0.086233
O O14 0.193348 0.000000 0.058234
O O15 0.176501 0.764010 0.948965
O O16 0.456381 0.500000 0.138426
O O17 0.420581 0.262986 0.183980
O O18 0.448113 0.255781 0.043827
O O19 0.912009 0.000000 0.938809
O O20 0.638775 0.500000 0.831290
#
# Coordination Sequence:
#
# PCOD8078936 Si02
#       8
#     8   8   8   8   8   8   8   8
#     4  11  20  30  48  74 100 126 161 203 248 291
#     4  10  17  27  49  76  99 128 166 203 240 283
#     4  10  21  36  53  75 102 127 152 189 239 292
#     4  10  21  37  55  74  97 126 158 191 234 290
#     4   8  15  26  42  67  99 132 163 198 239 283
#     4   8  15  27  45  70  98 131 172 210 236 268
#     4   8  13  23  42  70 100 128 163 204 238 272
#     4   9  17  31  47  65  96 136 174 206 235 273
#
# _framework density 17.787488
#
# number of rings (size 3 to 8) (size 9 to 14) (size 15 to 20)
#    0.000    2.750    0.000    4.125    0.000    4.000 
#    0.000    1.250    0.000    5.250    0.000    5.250 
#    0.000    0.000    0.000    0.000    0.000    0.000 
#
# Total GULP energy -396657.034611 kJ/mol
# GULP energy per Si atom -12395.532332 kJ/mol
# Density = 1.774700 g / cm^3
# Si number density = 17.787488 Si / 1000 Ang^3
#
#
#
# Elastic Constant Matrix: (Units=GPa)
#
#
# Indices 1 2 3 4 5 6 
#
# 1 121.4072 26.1629 59.3685 0.0000 0.3102 0.0000
# 2 26.1629 33.5460 17.0984 0.0000 -1.2004 0.0000
# 3 59.3685 17.0984 70.9339 0.0000 4.4756 0.0000
# 4 0.0000 0.0000 0.0000 20.4245 0.0000 2.1585
# 5 0.3102 -1.2004 4.4756 0.0000 30.2979 0.0000
# 6 0.0000 0.0000 0.0000 2.1585 0.0000 19.2837
#
#
#
# Elastic Compliance Matrix: (Units=1/GPa)
#
#
# Indices 1 2 3 4 5 6 
#
# 1 0.014985 -0.005938 -0.011190 0.000000 0.001264 0.000000
# 2 -0.005938 0.036540 -0.003970 0.000000 0.002095 0.000000
# 3 -0.011190 -0.003970 0.024653 0.000000 -0.003684 0.000000
# 4 0.000000 0.000000 0.000000 0.049547 0.000000 -0.005546
# 5 0.001264 0.002095 -0.003684 0.000000 0.033620 0.000000
# 6 0.000000 0.000000 0.000000 -0.005546 0.000000 0.052478
#
#
# Mechanical properties :
#
#
# Convention : Reuss Voigt Hill
#
# Bulk Modulus (GPa) = 29.42848 47.90519 38.66683
# Shear Modulus (GPa) = 18.84327 22.21838 20.53082
#
# Velocity S-wave (km/s) = 3.25830 3.53810 3.40108
# Velocity P-wave (km/s) = 5.54399 6.60918 6.09988
#
# Compressibility (1/GPa) = 0.03398069
#
# Stress axis : x y z
#
# Youngs Moduli (GPa) = 66.73178 27.36761 40.56301
#
# Poissons Ratio (x) = 0.16251 0.45392
# Poissons Ratio (y) = 0.39627 0.16103
# Poissons Ratio (z) = 0.74676 0.10865
#
# Static dielectric constant tensor:
#      x y z
#    x 3.540930 0.000000 0.041730 
#    y 0.000000 2.914300 0.000000 
#    z 0.041730 0.000000 3.208440 
# 
# 
# High freq. dielectric constant tensor:
#      x y z
#    x 1.693050 0.000000 -0.000810 
#    y 0.000000 1.654350 0.000000 
#    z -0.000810 0.000000 1.670030 
# 
# From -- ./inp_files/249210.got.cif
#   From: 2010.06.25/outbox.cif.g09.slc.cpg/sg12_125_cif.got.tgz:249210.got - 2010.06.28 00:19:55.
