data_PCOD8078520
_publ_section_title
;
Structure prediction by ZEFSAII (Michael W. Deem and Ramdas Pophale) SiO2 
 PCOD8078520
Probable space group: C 2/M
;
_chemical_formula_sum "Si O2"
_cell_formula_units_Z 64
_cell_length_a 20.804348
_cell_length_b 8.909153
_cell_length_c 20.198804
_cell_angle_alpha 90.000000
_cell_angle_beta 105.507676
_cell_angle_gamma 90.000000
_cell_volume 3607.535044
_symmetry_space_group_name_H-M "C 2/M"
_symmetry_group_IT_number 12
_symmetry_cell_setting 'monoclinic'
loop_
_space_group_symop_operation_xyz
x,y,z
-x,y,-z
-x,-y,-z
x,-y,z
1/2+x,1/2+y,z
1/2-x,1/2+y,-z
1/2-x,1/2-y,-z
1/2+x,1/2-y,z
loop_
_atom_site_type_symbol
_atom_site_label
_atom_site_fract_x
_atom_site_fract_y
_atom_site_fract_z
Si Si1 0.464661 0.322203 0.342848
Si Si2 0.911003 0.177783 0.930229
Si Si3 0.208039 0.324453 0.353327
Si Si4 0.122898 0.674542 0.205216
Si Si5 0.552221 0.175165 0.937945
Si Si6 0.022392 0.327486 0.786986
Si Si7 0.642520 0.321672 0.582833
Si Si8 0.891203 0.821717 0.572362
O O1 0.463743 0.500000 0.344159
O O2 0.447162 0.268946 0.264086
O O3 0.409453 0.256487 0.377855
O O4 0.537014 0.260136 0.384450
O O5 0.861709 0.233625 0.858221
O O6 0.983473 0.238551 0.931341
O O7 0.909132 0.000000 0.935173
O O8 0.892739 0.250207 0.997523
O O9 0.202085 0.500000 0.367727
O O10 0.181929 0.289070 0.272466
O O11 0.283663 0.265907 0.377982
O O12 0.166002 0.237028 0.395836
O O13 0.118845 0.500000 0.185318
O O14 0.053101 0.726284 0.218721
O O15 0.569374 0.196649 0.864880
O O16 0.543447 0.000000 0.952088
O O17 0.021722 0.500000 0.764771
O O18 0.639502 0.500000 0.582428
O O19 0.622517 0.260297 0.505133
O O20 0.889916 0.000000 0.573422
#
# Coordination Sequence:
#
# PCOD8078520 Si02
#       8
#     8   8   8   8   8   8   8   8
#     4  10  19  31  49  71  96 128 161 197 242 291
#     4  10  17  24  39  65  94 122 154 194 236 278
#     4  10  19  33  52  70  93 127 166 203 237 285
#     4   9  17  29  44  63  90 125 159 193 236 284
#     4   9  16  27  41  60  92 129 158 188 232 282
#     4   9  17  29  45  66  93 124 160 196 233 280
#     4   9  19  34  50  70  96 127 163 199 241 293
#     4  10  19  32  51  73  97 124 157 201 249 293
#
# _framework density 17.740646000000002
#
# number of rings (size 3 to 8) (size 9 to 14) (size 15 to 20)
#    0.000    2.500    1.250    3.750    0.000    4.500 
#    0.000    1.250    0.000    1.500    0.000    0.875 
#    0.000    0.000    0.000    0.000    0.000    0.000 
#
# Total GULP energy -396661.643049 kJ/mol
# GULP energy per Si atom -12395.676345 kJ/mol
# Density = 1.770027 g / cm^3
# Si number density = 17.740646 Si / 1000 Ang^3
#
#
#
# Elastic Constant Matrix: (Units=GPa)
#
#
# Indices 1 2 3 4 5 6 
#
# 1 87.7595 22.1741 58.4270 0.0000 -5.1695 0.0000
# 2 22.1741 47.6879 46.5808 0.0000 -1.0727 0.0000
# 3 58.4270 46.5808 166.8943 0.0000 -1.4685 0.0000
# 4 0.0000 0.0000 0.0000 26.4927 0.0000 -3.5669
# 5 -5.1695 -1.0727 -1.4685 0.0000 7.8358 0.0000
# 6 0.0000 0.0000 0.0000 -3.5669 0.0000 13.6791
#
#
#
# Elastic Compliance Matrix: (Units=1/GPa)
#
#
# Indices 1 2 3 4 5 6 
#
# 1 0.015706 -0.002482 -0.004725 0.000000 0.009136 0.000000
# 2 -0.002482 0.029268 -0.007291 0.000000 0.001003 0.000000
# 3 -0.004725 -0.007291 0.009661 0.000000 -0.002305 0.000000
# 4 0.000000 0.000000 0.000000 0.039120 0.000000 0.010201
# 5 0.009136 0.001003 -0.002305 0.000000 0.133352 0.000000
# 6 0.000000 0.000000 0.000000 0.010201 0.000000 0.075764
#
#
# Mechanical properties :
#
#
# Convention : Reuss Voigt Hill
#
# Bulk Modulus (GPa) = 39.00430 61.85617 50.43024
# Shear Modulus (GPa) = 14.68803 21.27884 17.98343
#
# Velocity S-wave (km/s) = 2.88050 3.46705 3.18730
# Velocity P-wave (km/s) = 5.75297 7.13932 6.48330
#
# Compressibility (1/GPa) = 0.02563820
#
# Stress axis : x y z
#
# Youngs Moduli (GPa) = 63.66994 34.16681 103.51134
#
# Poissons Ratio (x) = 0.08480 0.48912
# Poissons Ratio (y) = 0.15802 0.75472
# Poissons Ratio (z) = 0.30086 0.24912
#
# Static dielectric constant tensor:
#      x y z
#    x 2.996920 0.000000 0.111030 
#    y 0.000000 3.067630 0.000000 
#    z 0.111030 0.000000 3.983130 
# 
# 
# High freq. dielectric constant tensor:
#      x y z
#    x 1.632430 0.000000 0.003640 
#    y 0.000000 1.669880 0.000000 
#    z 0.003640 0.000000 1.713400 
# 
# From -- ./inp_files/319212.got.cif
#   From: 2010.06.25/outbox.cif.g09.slc.cpg/sg12_160_cif.got.tgz:319212.got - 2010.06.28 00:19:55.
