data_PCOD8078540
_publ_section_title
;
Structure prediction by ZEFSAII (Michael W. Deem and Ramdas Pophale) SiO2 
 PCOD8078540
Probable space group: C 2/M
;
_chemical_formula_sum "Si O2"
_cell_formula_units_Z 64
_cell_length_a 24.531533
_cell_length_b 9.293120
_cell_length_c 27.712840
_cell_angle_alpha 90.000000
_cell_angle_beta 42.103915
_cell_angle_gamma 90.000000
_cell_volume 4235.955191
_symmetry_space_group_name_H-M "C 2/M"
_symmetry_group_IT_number 12
_symmetry_cell_setting 'monoclinic'
loop_
_space_group_symop_operation_xyz
x,y,z
-x,y,-z
-x,-y,-z
x,-y,z
1/2+x,1/2+y,z
1/2-x,1/2+y,-z
1/2-x,1/2-y,-z
1/2+x,1/2-y,z
loop_
_atom_site_type_symbol
_atom_site_label
_atom_site_fract_x
_atom_site_fract_y
_atom_site_fract_z
Si Si1 0.618545 0.333479 0.225170
Si Si2 0.842959 0.833573 0.986477
Si Si3 0.585710 0.330108 0.960254
Si Si4 0.914718 0.840598 0.527745
Si Si5 0.026868 0.164620 0.375987
Si Si6 0.657207 0.164369 0.348499
Si Si7 0.152339 0.666283 0.111566
Si Si8 0.746812 0.333103 0.803715
O O1 0.637300 0.500000 0.200996
O O2 0.536179 0.319051 0.311972
O O3 0.603154 0.246677 0.186156
O O4 0.694458 0.268895 0.204352
O O5 0.872984 0.737686 0.922268
O O6 0.862313 0.000000 0.962515
O O7 0.889947 0.774520 0.002584
O O8 0.747609 0.812747 0.059019
O O9 0.577106 0.500000 0.968902
O O10 0.654483 0.287914 0.876079
O O11 0.500000 0.260410 0.000000
O O12 0.844835 0.741763 0.597782
O O13 0.000000 0.823731 0.500000
O O14 0.936068 0.803115 0.457267
O O15 0.879196 0.000000 0.554984
O O16 0.087160 0.276879 0.360307
O O17 0.050600 0.000000 0.375436
O O18 0.740048 0.186312 0.262925
O O19 0.639873 0.000000 0.371120
O O20 0.126982 0.500000 0.127232
O O21 0.763460 0.500000 0.807837
#
# Coordination Sequence:
#
# PCOD8078540 Si02
#       8
#     8   8   8   8   8   8   8   8
#     4  10  17  25  39  57  76 101 132 162 195 231
#     4   9  17  29  43  60  78  99 131 164 196 237
#     4   9  16  28  46  62  77 101 133 168 202 234
#     4   8  13  22  32  42  63  93 125 155 183 218
#     4   8  15  24  32  45  67  96 126 155 185 221
#     4   9  15  20  31  48  68  92 121 158 192 221
#     4  10  18  28  42  59  81 104 127 162 202 234
#     4   9  16  27  38  54  77  99 128 165 200 234
#
# _framework density 15.108753
#
# number of rings (size 3 to 8) (size 9 to 14) (size 15 to 20)
#    0.000    3.000    1.250    1.875    0.000    3.750 
#    0.000    0.000    0.000    1.500    0.000    0.000 
#    0.000    0.000    0.000    1.125    0.000   10.375 
#
# Total GULP energy -396428.268413 kJ/mol
# GULP energy per Si atom -12388.383388 kJ/mol
# Density = 1.507436 g / cm^3
# Si number density = 15.108753 Si / 1000 Ang^3
#
#
#
# Elastic Constant Matrix: (Units=GPa)
#
#
# Indices 1 2 3 4 5 6 
#
# 1 50.2410 21.1526 41.7938 0.0004 7.9980 -0.0005
# 2 21.1526 80.7179 62.0979 0.0017 12.5894 0.0001
# 3 41.7938 62.0979 145.8505 -0.0001 26.2720 0.0003
# 4 0.0004 0.0017 -0.0001 24.5349 0.0000 7.5335
# 5 7.9980 12.5894 26.2720 0.0000 14.5451 -0.0005
# 6 -0.0005 0.0001 0.0003 7.5335 -0.0005 9.9423
#
#
#
# Elastic Compliance Matrix: (Units=1/GPa)
#
#
# Indices 1 2 3 4 5 6 
#
# 1 0.026287 -0.001600 -0.006666 -0.000001 -0.001029 0.000002
# 2 -0.001600 0.018589 -0.006991 -0.000002 -0.002583 0.000001
# 3 -0.006666 -0.006991 0.014812 0.000002 -0.017038 -0.000003
# 4 -0.000001 -0.000002 0.000002 0.053116 -0.000002 -0.040248
# 5 -0.001029 -0.002583 -0.017038 -0.000002 0.102328 0.000007
# 6 0.000002 0.000001 -0.000003 -0.040248 0.000007 0.131076
#
#
# Mechanical properties :
#
#
# Convention : Reuss Voigt Hill
#
# Bulk Modulus (GPa) = 34.27662 58.54424 46.41043
# Shear Modulus (GPa) = 12.93839 19.92212 16.43026
#
# Velocity S-wave (km/s) = 2.92952 3.63517 3.30125
# Velocity P-wave (km/s) = 5.84625 7.51345 6.73166
#
# Compressibility (1/GPa) = 0.02917441
#
# Stress axis : x y z
#
# Youngs Moduli (GPa) = 38.04207 53.79478 67.51288
#
# Poissons Ratio (x) = 0.08606 0.45004
# Poissons Ratio (y) = 0.06086 0.47198
# Poissons Ratio (z) = 0.25359 0.37608
#
# Static dielectric constant tensor:
#      x y z
#    x 2.448570 0.000000 0.235960 
#    y 0.000000 2.933050 0.000000 
#    z 0.235960 0.000000 3.503470 
# 
# 
# High freq. dielectric constant tensor:
#      x y z
#    x 1.496650 0.000000 0.030470 
#    y 0.000000 1.579220 0.000000 
#    z 0.030470 0.000000 1.597920 
# 
# From -- ./inp_files/367036.got.cif
#   From: 2010.06.25/outbox.cif.g09.slc.cpg/sg12_184_cif.got.tgz:367036.got - 2010.06.28 00:19:55.
