data_PCOD8078940
_publ_section_title
;
Structure prediction by ZEFSAII (Michael W. Deem and Ramdas Pophale) SiO2 
 PCOD8078940
Probable space group: C 2/M
;
_chemical_formula_sum "Si O2"
_cell_formula_units_Z 40
_cell_length_a 12.580017
_cell_length_b 23.485310
_cell_length_c 8.964037
_cell_angle_alpha 90.000000
_cell_angle_beta 128.397510
_cell_angle_gamma 90.000000
_cell_volume 2075.593707
_symmetry_space_group_name_H-M "C 2/M"
_symmetry_group_IT_number 12
_symmetry_cell_setting 'monoclinic'
loop_
_space_group_symop_operation_xyz
x,y,z
-x,y,-z
-x,-y,-z
x,-y,z
1/2+x,1/2+y,z
1/2-x,1/2+y,-z
1/2-x,1/2-y,-z
1/2+x,1/2-y,z
loop_
_atom_site_type_symbol
_atom_site_label
_atom_site_fract_x
_atom_site_fract_y
_atom_site_fract_z
Si Si1 0.514538 0.880786 0.338343
Si Si2 0.223555 0.935410 0.566638
Si Si3 0.592652 0.775438 0.227553
Si Si4 0.884662 0.817983 0.518744
Si Si5 0.125694 0.564446 0.018275
O O1 0.500000 0.883053 0.500000
O O2 0.635587 0.923451 0.395579
O O3 0.537072 0.816341 0.308377
O O4 0.372547 0.901740 0.137351
O O5 0.116288 0.885494 0.437310
O O6 0.241611 0.930830 0.763319
O O7 0.173605 0.000000 0.482676
O O8 0.743920 0.797321 0.318803
O O9 0.593362 0.713270 0.303826
O O10 0.500000 0.774376 0.000000
O O11 0.000000 0.804374 0.500000
O O12 0.090184 0.500000 0.948243
O O13 0.000000 0.592672 0.000000
#
# Coordination Sequence:
#
# PCOD8078940 Si02
#       5
#     8   8   8   8   8
#     4  10  17  27  49  80 110 139 175 224 276 319
#     4   9  18  33  51  73 107 146 180 218 263 317
#     4  10  21  38  58  81 111 142 177 227 277 322
#     4  10  21  37  57  83 109 139 184 224 266 325
#     4   8  14  26  45  70 101 137 175 215 262 312
#
# _framework density 19.271594
#
# number of rings (size 3 to 8) (size 9 to 14) (size 15 to 20)
#    0.000    2.600    0.000    5.400    0.000    2.800 
#    0.000    6.000    0.000    0.600    0.000    0.000 
#    0.000    0.000    0.000    0.000    0.000    0.000 
#
# Total GULP energy -247779.065380 kJ/mol
# GULP energy per Si atom -12388.953269 kJ/mol
# Density = 1.922773 g / cm^3
# Si number density = 19.271594 Si / 1000 Ang^3
#
#
#
# Elastic Constant Matrix: (Units=GPa)
#
#
# Indices 1 2 3 4 5 6 
#
# 1 74.7990 34.8630 45.9694 0.0000 -9.6214 0.0000
# 2 34.8630 142.8437 53.1463 0.0000 -9.1272 0.0000
# 3 45.9694 53.1463 114.2422 0.0000 -23.4558 0.0000
# 4 0.0000 0.0000 0.0000 29.8497 0.0000 0.4871
# 5 -9.6214 -9.1272 -23.4558 0.0000 25.1539 0.0000
# 6 0.0000 0.0000 0.0000 0.4871 0.0000 11.3514
#
#
#
# Elastic Compliance Matrix: (Units=1/GPa)
#
#
# Indices 1 2 3 4 5 6 
#
# 1 0.018263 -0.002089 -0.006305 0.000000 0.000348 0.000000
# 2 -0.002089 0.008716 -0.003375 0.000000 -0.000784 0.000000
# 3 -0.006305 -0.003375 0.014983 0.000000 0.010335 0.000000
# 4 0.000000 0.000000 0.000000 0.033525 0.000000 -0.001439
# 5 0.000348 -0.000784 0.010335 0.000000 0.049241 0.000000
# 6 0.000000 0.000000 0.000000 -0.001439 0.000000 0.088157
#
#
# Mechanical properties :
#
#
# Convention : Reuss Voigt Hill
#
# Bulk Modulus (GPa) = 54.28217 66.64914 60.46566
# Shear Modulus (GPa) = 20.61315 26.46473 23.53894
#
# Velocity S-wave (km/s) = 3.27404 3.70976 3.49869
# Velocity P-wave (km/s) = 6.52078 7.28073 6.91121
#
# Compressibility (1/GPa) = 0.01842225
#
# Stress axis : x y z
#
# Youngs Moduli (GPa) = 54.75636 114.72893 66.74448
#
# Poissons Ratio (x) = 0.23968 0.42085
# Poissons Ratio (y) = 0.11439 0.22527
# Poissons Ratio (z) = 0.34526 0.38722
#
# Static dielectric constant tensor:
#      x y z
#    x 3.101280 0.000000 -0.030490 
#    y 0.000000 3.800010 0.000000 
#    z -0.030490 0.000000 3.523060 
# 
# 
# High freq. dielectric constant tensor:
#      x y z
#    x 1.702000 0.000000 -0.008440 
#    y 0.000000 1.768940 0.000000 
#    z -0.008440 0.000000 1.732910 
# 
# From -- ./inp_files/50963.got.cif
#   From: 2010.06.25/outbox.cif.g09.slc.cpg/sg12_26_cif.got.tgz:50963.got - 2010.06.28 00:19:55.
