data_PCOD8078287
_publ_section_title
;
Structure prediction by ZEFSAII (Michael W. Deem and Ramdas Pophale) SiO2 
 PCOD8078287
Probable space group: C 2/M
;
_chemical_formula_sum "Si O2"
_cell_formula_units_Z 48
_cell_length_a 20.437708
_cell_length_b 18.342032
_cell_length_c 15.381103
_cell_angle_alpha 90.000000
_cell_angle_beta 24.209618
_cell_angle_gamma 90.000000
_cell_volume 2364.458087
_symmetry_space_group_name_H-M "C 2/M"
_symmetry_group_IT_number 12
_symmetry_cell_setting 'monoclinic'
loop_
_space_group_symop_operation_xyz
x,y,z
-x,y,-z
-x,-y,-z
x,-y,z
1/2+x,1/2+y,z
1/2-x,1/2+y,-z
1/2-x,1/2-y,-z
1/2+x,1/2-y,z
loop_
_atom_site_type_symbol
_atom_site_label
_atom_site_fract_x
_atom_site_fract_y
_atom_site_fract_z
Si Si1 0.183022 0.415120 0.291380
Si Si2 0.583805 0.084769 0.739411
Si Si3 0.665280 0.312134 0.476017
Si Si4 0.753661 0.149643 0.386329
Si Si5 0.373835 0.194916 0.075254
Si Si6 0.569645 0.334556 0.101587
O O1 0.205435 0.500000 0.283134
O O2 0.255589 0.367943 0.282217
O O3 0.000000 0.394196 0.500000
O O4 0.282825 0.391098 0.084834
O O5 0.725687 0.123774 0.618730
O O6 0.616371 0.099596 0.597654
O O7 0.579779 0.000000 0.765601
O O8 0.417558 0.119296 0.974347
O O9 0.717445 0.233896 0.450627
O O10 0.695901 0.312170 0.334391
O O11 0.485361 0.326960 0.729869
O O12 0.925390 0.132288 0.219329
O O13 0.500000 0.214661 0.000000
O O14 0.372802 0.256727 0.003714
#
# Coordination Sequence:
#
# PCOD8078287 Si02
#       6
#     8   8   8   8   8   8
#     4  11  25  40  55  81 115 145 180 233 287 331
#     4  10  19  29  48  82 118 148 175 222 281 328
#     4  10  19  30  54  83 113 143 180 232 270 319
#     4  11  18  35  60  84 108 146 187 229 271 332
#     4  10  16  28  49  77 112 147 171 219 269 325
#     4  11  18  34  59  82 109 145 182 226 275 324
#
# _framework density 20.300635
#
# number of rings (size 3 to 8) (size 9 to 14) (size 15 to 20)
#    0.000    1.500    6.667    2.000    0.000    7.000 
#    0.000    0.833    0.000    0.000    0.000    0.000 
#    0.000    5.333    0.000    0.000    0.000    0.000 
#
# Total GULP energy -297417.646643 kJ/mol
# GULP energy per Si atom -12392.401943 kJ/mol
# Density = 2.025443 g / cm^3
# Si number density = 20.300635 Si / 1000 Ang^3
#
#
#
# Elastic Constant Matrix: (Units=GPa)
#
#
# Indices 1 2 3 4 5 6 
#
# 1 17.7856 19.5541 38.0154 -0.0037 17.2910 0.0044
# 2 19.5541 113.6779 51.0131 0.0003 7.7272 0.0018
# 3 38.0154 51.0131 178.2695 -0.0013 41.5719 0.0070
# 4 -0.0037 0.0003 -0.0013 33.4222 0.0039 6.9448
# 5 17.2910 7.7272 41.5719 0.0039 36.0329 -0.0048
# 6 0.0044 0.0018 0.0070 6.9448 -0.0048 11.7550
#
#
#
# Elastic Compliance Matrix: (Units=1/GPa)
#
#
# Indices 1 2 3 4 5 6 
#
# 1 0.167632 -0.017048 -0.017734 0.000045 -0.056326 -0.000099
# 2 -0.017048 0.011894 -0.001479 -0.000005 0.007337 0.000012
# 3 -0.017734 -0.001479 0.010611 -0.000001 -0.003415 0.000000
# 4 0.000045 -0.000005 -0.000001 0.034107 -0.000026 -0.020151
# 5 -0.056326 0.007337 -0.003415 -0.000026 0.057148 0.000060
# 6 -0.000099 0.000012 0.000000 -0.020151 0.000060 0.096976
#
#
# Mechanical properties :
#
#
# Convention : Reuss Voigt Hill
#
# Bulk Modulus (GPa) = 8.50228 58.54426 33.52327
# Shear Modulus (GPa) = 10.20211 29.65204 19.92707
#
# Velocity S-wave (km/s) = 2.24420 3.82599 3.13645
# Velocity P-wave (km/s) = 3.30341 6.95836 5.44662
#
# Compressibility (1/GPa) = 0.11761549
#
# Stress axis : x y z
#
# Youngs Moduli (GPa) = 5.96544 84.07380 94.24466
#
# Poissons Ratio (x) = 1.43331 1.67130
# Poissons Ratio (y) = 0.10170 0.13939
# Poissons Ratio (z) = 0.10579 0.12435
#
# Static dielectric constant tensor:
#      x y z
#    x 3.249610 0.000000 0.726910 
#    y 0.000000 3.519260 0.000020 
#    z 0.726910 0.000020 4.397830 
# 
# 
# High freq. dielectric constant tensor:
#      x y z
#    x 1.730520 0.000000 0.050840 
#    y 0.000000 1.788280 0.000000 
#    z 0.050840 0.000000 1.806790 
# 
# From -- ./inp_files/61729.got.cif
#   From: 2010.06.25/outbox.cif.g09.slc.cpg/sg12_31_cif.got.tgz:61729.got - 2010.06.28 00:19:55.
