data_PCOD8078955
_publ_section_title
;
Structure prediction by ZEFSAII (Michael W. Deem and Ramdas Pophale) SiO2 
 PCOD8078955
Probable space group: C 2/M
;
_chemical_formula_sum "Si O2"
_cell_formula_units_Z 64
_cell_length_a 28.470698
_cell_length_b 9.058729
_cell_length_c 30.462742
_cell_angle_alpha 90.000000
_cell_angle_beta 147.506624
_cell_angle_gamma 90.000000
_cell_volume 4220.579411
_symmetry_space_group_name_H-M "C 2/M"
_symmetry_group_IT_number 12
_symmetry_cell_setting 'monoclinic'
loop_
_space_group_symop_operation_xyz
x,y,z
-x,y,-z
-x,-y,-z
x,-y,z
1/2+x,1/2+y,z
1/2-x,1/2+y,-z
1/2-x,1/2-y,-z
1/2+x,1/2-y,z
loop_
_atom_site_type_symbol
_atom_site_label
_atom_site_fract_x
_atom_site_fract_y
_atom_site_fract_z
Si Si1 0.613202 0.172302 0.173923
Si Si2 0.591603 0.828705 0.983976
Si Si3 0.722748 0.335144 0.544779
Si Si4 0.663395 0.827590 0.947513
Si Si5 0.603860 0.666453 0.079674
Si Si6 0.618985 0.836759 0.398529
Si Si7 0.014898 0.326982 0.235998
Si Si8 0.164196 0.175648 0.299441
O O1 0.642140 0.236640 0.149620
O O2 0.668686 0.259036 0.254094
O O3 0.636182 0.000000 0.193723
O O4 0.511162 0.201355 0.102326
O O5 0.638374 0.774108 0.976558
O O6 0.633651 0.736989 0.057049
O O7 0.608519 0.000000 0.006871
O O8 0.702591 0.500000 0.545784
O O9 0.635386 0.272620 0.452210
O O10 0.799957 0.336090 0.570631
O O11 0.750149 0.232774 0.607157
O O12 0.680959 0.000000 0.961422
O O13 0.750000 0.750000 0.000000
O O14 0.585329 0.786807 0.852511
O O15 0.640132 0.500000 0.111474
O O16 0.500000 0.668941 0.000000
O O17 0.534569 0.790144 0.302807
O O18 0.605997 0.000000 0.408048
O O19 0.034625 0.500000 0.241416
O O20 0.075714 0.230543 0.252576
O O21 0.165209 0.000000 0.298914
#
# Coordination Sequence:
#
# PCOD8078955 Si02
#       8
#     8   8   8   8   8   8   8   8
#     4  10  17  28  43  58  80 110 140 166 204 250
#     4   9  17  30  45  57  76 107 139 169 208 256
#     4   9  16  25  36  52  77 105 132 162 200 242
#     4  10  20  33  46  62  82 107 142 180 218 255
#     4   9  17  27  40  61  83 100 130 171 207 242
#     4   8  14  24  39  54  71  97 133 170 201 237
#     4   9  17  31  44  55  75 106 138 171 212 255
#     4  11  19  25  38  59  82 106 138 173 204 238
#
# _framework density 15.163793999999999
#
# number of rings (size 3 to 8) (size 9 to 14) (size 15 to 20)
#    0.000    2.625    1.250    3.000    0.000    6.000 
#    0.000    0.000    0.000    0.000    0.000    0.000 
#    0.000    0.000    0.000    1.125    0.000   21.750 
#
# Total GULP energy -396704.958275 kJ/mol
# GULP energy per Si atom -12397.029946 kJ/mol
# Density = 1.512928 g / cm^3
# Si number density = 15.163794 Si / 1000 Ang^3
#
#
#
# Elastic Constant Matrix: (Units=GPa)
#
#
# Indices 1 2 3 4 5 6 
#
# 1 59.0713 35.7710 49.3172 -0.0001 -15.5048 0.0000
# 2 35.7710 104.8259 60.0354 -0.0006 -21.5884 0.0019
# 3 49.3172 60.0354 110.2038 0.0001 -27.9336 0.0000
# 4 -0.0001 -0.0006 0.0001 25.8175 0.0000 -7.5801
# 5 -15.5048 -21.5884 -27.9336 0.0000 20.3085 0.0000
# 6 0.0000 0.0019 0.0000 -7.5801 0.0000 20.9631
#
#
#
# Elastic Compliance Matrix: (Units=1/GPa)
#
#
# Indices 1 2 3 4 5 6 
#
# 1 0.028158 -0.003041 -0.009695 0.000000 0.004930 0.000000
# 2 -0.003041 0.014810 -0.005074 0.000000 0.006442 -0.000001
# 3 -0.009695 -0.005074 0.019856 0.000000 0.014516 0.000000
# 4 0.000000 0.000000 0.000000 0.043334 0.000000 0.015669
# 5 0.004930 0.006442 0.014516 0.000000 0.079819 -0.000001
# 6 0.000000 -0.000001 0.000000 0.015669 -0.000001 0.053369
#
#
# Mechanical properties :
#
#
# Convention : Reuss Voigt Hill
#
# Bulk Modulus (GPa) = 36.75838 62.70537 49.73187
# Shear Modulus (GPa) = 17.60347 22.01630 19.80988
#
# Velocity S-wave (km/s) = 3.41088 3.81451 3.61833
# Velocity P-wave (km/s) = 6.30917 7.80016 7.09394
#
# Compressibility (1/GPa) = 0.02720468
#
# Stress axis : x y z
#
# Youngs Moduli (GPa) = 35.51365 67.52071 50.36220
#
# Poissons Ratio (x) = 0.20534 0.48824
# Poissons Ratio (y) = 0.10800 0.25555
# Poissons Ratio (z) = 0.34429 0.34262
#
# Static dielectric constant tensor:
#      x y z
#    x 2.562240 0.000000 -0.370160 
#    y 0.000000 3.024220 0.000000 
#    z -0.370160 0.000000 3.045980 
# 
# 
# High freq. dielectric constant tensor:
#      x y z
#    x 1.523930 0.000000 -0.042900 
#    y 0.000000 1.590920 0.000000 
#    z -0.042900 0.000000 1.571720 
# 
# From -- ./inp_files/384578.got.cif
#   From: 2010.06.25/outbox.cif.g09.slc.cpg/sg12_193_cif.got.tgz:384578.got - 2010.06.28 00:19:55.
