data_PCOD8078045
_publ_section_title
;
Structure prediction by ZEFSAII (Michael W. Deem and Ramdas Pophale) SiO2 
 PCOD8078045
Probable space group: C 2/M
;
_chemical_formula_sum "Si O2"
_cell_formula_units_Z 60
_cell_length_a 5.311745
_cell_length_b 23.245315
_cell_length_c 30.270553
_cell_angle_alpha 90.000000
_cell_angle_beta 79.965239
_cell_angle_gamma 90.000000
_cell_volume 3680.424607
_symmetry_space_group_name_H-M "C 2/M"
_symmetry_group_IT_number 12
_symmetry_cell_setting 'monoclinic'
loop_
_space_group_symop_operation_xyz
x,y,z
-x,y,-z
-x,-y,-z
x,-y,z
1/2+x,1/2+y,z
1/2-x,1/2+y,-z
1/2-x,1/2-y,-z
1/2+x,1/2-y,z
loop_
_atom_site_type_symbol
_atom_site_label
_atom_site_fract_x
_atom_site_fract_y
_atom_site_fract_z
Si Si1 0.645801 0.818500 0.856387
Si Si2 0.580762 0.628114 0.418682
Si Si3 0.317720 0.308769 0.180390
Si Si4 0.000000 0.213159 0.500000
Si Si5 0.713930 0.808032 0.284636
Si Si6 0.948651 0.568100 0.551697
Si Si7 0.583334 0.213535 0.951600
Si Si8 0.322601 0.318962 0.678572
O O1 0.657365 0.749848 0.847976
O O2 0.417930 0.845143 0.833352
O O3 0.591293 0.830429 0.909945
O O4 0.919471 0.845132 0.833167
O O5 0.543540 0.675607 0.456140
O O6 0.326218 0.589598 0.422916
O O7 0.626320 0.663027 0.372724
O O8 0.826985 0.589623 0.422906
O O9 0.265457 0.292215 0.232473
O O10 0.750000 0.250000 0.500000
O O11 0.684359 0.750020 0.314521
O O12 0.451866 0.844416 0.297424
O O13 0.950723 0.844404 0.297387
O O14 0.947247 0.500000 0.553193
O O15 0.000000 0.590012 0.500000
O O16 0.369089 0.261735 0.948292
O O17 0.500000 0.181874 0.000000
#
# Coordination Sequence:
#
# PCOD8078045 Si02
#       8
#     8   8   8   4   8   8   8   8
#     4  10  14  22  31  48  56  86 114 171 206 244
#     4  12  23  39  54  80  98 125 158 180 217 273
#     4  10  16  23  38  46  69  86 138 167 196 235
#     4  12  26  36  53  74 107 134 154 176 204 246
#     4  10  19  32  40  63  80 125 143 173 204 247
#     4  11  22  41  62  79  96 117 149 198 232 254
#     4  10  16  22  28  39  59  80 109 149 215 284
#     4  10  20  30  47  59  92 110 145 165 203 249
#
# _framework density 16.302465999999999
#
# number of rings (size 3 to 8) (size 9 to 14) (size 15 to 20)
#    0.000    1.467    4.000    6.000    3.733    1.067 
#    0.000    0.000    0.000    0.000    0.000    0.000 
#    0.000    0.000    0.000    0.000    0.000    0.000 
#
# Total GULP energy -371716.849102 kJ/mol
# GULP energy per Si atom -12390.561637 kJ/mol
# Density = 1.626536 g / cm^3
# Si number density = 16.302466 Si / 1000 Ang^3
#
#
#
# Elastic Constant Matrix: (Units=GPa)
#
#
# Indices 1 2 3 4 5 6 
#
# 1 182.8735 19.0847 50.2225 0.0000 1.6802 0.0000
# 2 19.0847 28.1158 23.2460 0.0000 -0.1168 0.0000
# 3 50.2225 23.2460 141.6696 0.0000 -1.1055 0.0000
# 4 0.0000 0.0000 0.0000 5.5947 0.0000 0.2159
# 5 1.6802 -0.1168 -1.1055 0.0000 23.7346 0.0000
# 6 0.0000 0.0000 0.0000 0.2159 0.0000 14.9344
#
#
#
# Elastic Compliance Matrix: (Units=1/GPa)
#
#
# Indices 1 2 3 4 5 6 
#
# 1 0.006248 -0.002787 -0.001762 0.000000 -0.000538 0.000000
# 2 -0.002787 0.042393 -0.005967 0.000000 0.000128 0.000000
# 3 -0.001762 -0.005967 0.008666 0.000000 0.000499 0.000000
# 4 0.000000 0.000000 0.000000 0.178841 0.000000 -0.002586
# 5 -0.000538 0.000128 0.000499 0.000000 0.042195 0.000000
# 6 0.000000 0.000000 0.000000 -0.002586 0.000000 0.066997
#
#
# Mechanical properties :
#
#
# Convention : Reuss Voigt Hill
#
# Bulk Modulus (GPa) = 27.56658 59.75173 43.65915
# Shear Modulus (GPa) = 13.21134 26.19311 19.70222
#
# Velocity S-wave (km/s) = 2.84982 4.01271 3.48018
# Velocity P-wave (km/s) = 5.27018 7.62893 6.55650
#
# Compressibility (1/GPa) = 0.03627581
#
# Stress axis : x y z
#
# Youngs Moduli (GPa) = 160.05461 23.58883 115.38943
#
# Poissons Ratio (x) = 0.06573 0.20330
# Poissons Ratio (y) = 0.44600 0.68856
# Poissons Ratio (z) = 0.28199 0.14076
#
# Static dielectric constant tensor:
#      x y z
#    x 4.856140 0.000000 0.024820 
#    y 0.000000 2.359830 0.000000 
#    z 0.024820 0.000000 3.222970 
# 
# 
# High freq. dielectric constant tensor:
#      x y z
#    x 1.675990 0.000000 0.000730 
#    y 0.000000 1.518880 0.000000 
#    z 0.000730 0.000000 1.641150 
# 
# From -- ./inp_files/355055.got.cif
#   From: 2010.06.25/outbox.cif.g09.slc.cpg/sg12_178_cif.got.tgz:355055.got - 2010.06.28 00:19:55.
