data_PCOD8078889
_publ_section_title
;
Structure prediction by ZEFSAII (Michael W. Deem and Ramdas Pophale) SiO2 
 PCOD8078889
Probable space group: C 2/M
;
_chemical_formula_sum "Si O2"
_cell_formula_units_Z 56
_cell_length_a 24.021092
_cell_length_b 12.435698
_cell_length_c 23.389484
_cell_angle_alpha 90.000000
_cell_angle_beta 30.254926
_cell_angle_gamma 90.000000
_cell_volume 3520.329402
_symmetry_space_group_name_H-M "C 2/M"
_symmetry_group_IT_number 12
_symmetry_cell_setting 'monoclinic'
loop_
_space_group_symop_operation_xyz
x,y,z
-x,y,-z
-x,-y,-z
x,-y,z
1/2+x,1/2+y,z
1/2-x,1/2+y,-z
1/2-x,1/2-y,-z
1/2+x,1/2-y,z
loop_
_atom_site_type_symbol
_atom_site_label
_atom_site_fract_x
_atom_site_fract_y
_atom_site_fract_z
Si Si1 0.241042 0.625020 0.444791
Si Si2 0.431072 0.248218 0.331916
Si Si3 0.076207 0.373737 0.982188
Si Si4 0.967936 0.377123 0.192118
Si Si5 0.501951 0.378011 0.626495
Si Si6 0.227259 0.189976 0.373454
Si Si7 0.802251 0.874310 0.725731
O O1 0.241172 0.500000 0.430226
O O2 0.352640 0.656743 0.378611
O O3 0.138895 0.653403 0.576429
O O4 0.231495 0.688348 0.393227
O O5 0.498657 0.194442 0.220129
O O6 0.514003 0.302417 0.303869
O O7 0.052725 0.500000 0.004888
O O8 0.203796 0.347046 0.857069
O O9 0.000000 0.322326 0.000000
O O10 0.038990 0.327359 0.076650
O O11 0.000861 0.500000 0.175365
O O12 0.837932 0.372456 0.292951
O O13 0.473768 0.500000 0.668883
O O14 0.625695 0.372313 0.492601
O O15 0.416517 0.339289 0.653690
O O16 0.212994 0.194539 0.318063
O O17 0.801295 0.000000 0.709584
#
# Coordination Sequence:
#
# PCOD8078889 Si02
#       7
#     8   8   8   8   8   8   8
#     4   9  17  29  44  64  91 118 147 183 217 255
#     4   9  18  28  43  65  88 118 151 178 215 259
#     4   9  16  27  44  66  91 113 139 180 223 261
#     4  10  17  27  46  69  91 113 144 185 224 257
#     4  10  19  29  43  64  94 122 144 175 216 266
#     4  10  18  27  45  70  91 115 145 177 222 267
#     4  10  18  29  45  67  93 118 142 177 224 266
#
# _framework density 15.907602000000001
#
# number of rings (size 3 to 8) (size 9 to 14) (size 15 to 20)
#    0.000    2.429    1.429    3.429    0.000    1.143 
#    0.000    0.714    0.000    7.714    0.000    9.000 
#    0.000    0.000    0.000    0.000    0.000    0.000 
#
# Total GULP energy -347186.470405 kJ/mol
# GULP energy per Si atom -12399.516800 kJ/mol
# Density = 1.587140 g / cm^3
# Si number density = 15.907602 Si / 1000 Ang^3
#
#
#
# Elastic Constant Matrix: (Units=GPa)
#
#
# Indices 1 2 3 4 5 6 
#
# 1 98.3800 34.5879 34.0091 0.0000 19.3114 0.0000
# 2 34.5879 72.5794 16.3314 0.0001 11.9162 0.0000
# 3 34.0091 16.3314 68.5426 0.0002 20.3420 -0.0001
# 4 0.0000 0.0001 0.0002 12.9499 -0.0001 6.5033
# 5 19.3114 11.9162 20.3420 -0.0001 31.7838 0.0000
# 6 0.0000 0.0000 -0.0001 6.5033 0.0000 21.5255
#
#
#
# Elastic Compliance Matrix: (Units=1/GPa)
#
#
# Indices 1 2 3 4 5 6 
#
# 1 0.014366 -0.005156 -0.004793 0.000000 -0.003728 0.000000
# 2 -0.005156 0.016832 -0.000629 0.000000 -0.002776 0.000000
# 3 -0.004793 -0.000629 0.019978 0.000000 -0.009638 0.000000
# 4 0.000000 0.000000 0.000000 0.091032 0.000001 -0.027503
# 5 -0.003728 -0.002776 -0.009638 0.000001 0.040937 0.000000
# 6 0.000000 0.000000 0.000000 -0.027503 0.000000 0.054766
#
#
# Mechanical properties :
#
#
# Convention : Reuss Voigt Hill
#
# Bulk Modulus (GPa) = 33.31001 45.48432 39.39717
# Shear Modulus (GPa) = 18.58235 23.55675 21.06955
#
# Velocity S-wave (km/s) = 3.42152 3.85235 3.64331
# Velocity P-wave (km/s) = 6.04931 6.96006 6.52061
#
# Compressibility (1/GPa) = 0.03002100
#
# Stress axis : x y z
#
# Youngs Moduli (GPa) = 69.60893 59.41033 50.05527
#
# Poissons Ratio (x) = 0.30629 0.23993
# Poissons Ratio (y) = 0.35887 0.03147
# Poissons Ratio (z) = 0.33365 0.03735
#
# Static dielectric constant tensor:
#      x y z
#    x 3.105920 0.000000 0.155620 
#    y 0.000000 2.688540 0.000000 
#    z 0.155620 0.000000 2.999950 
# 
# 
# High freq. dielectric constant tensor:
#      x y z
#    x 1.613340 0.000000 0.013030 
#    y 0.000000 1.572680 0.000000 
#    z 0.013030 0.000000 1.601390 
# 
# From -- ./inp_files/173872.got.cif
#   From: 2010.06.25/outbox.cif.g09.slc.cpg/sg12_87_cif.got.tgz:173872.got - 2010.06.28 00:19:55.
