data_PCOD8078769
_publ_section_title
;
Structure prediction by ZEFSAII (Michael W. Deem and Ramdas Pophale) SiO2 
 PCOD8078769
Probable space group: C 2/M
;
_chemical_formula_sum "Si O2"
_cell_formula_units_Z 64
_cell_length_a 16.850901
_cell_length_b 17.894185
_cell_length_c 19.303570
_cell_angle_alpha 90.000000
_cell_angle_beta 136.092485
_cell_angle_gamma 90.000000
_cell_volume 4036.610565
_symmetry_space_group_name_H-M "C 2/M"
_symmetry_group_IT_number 12
_symmetry_cell_setting 'monoclinic'
loop_
_space_group_symop_operation_xyz
x,y,z
-x,y,-z
-x,-y,-z
x,-y,z
1/2+x,1/2+y,z
1/2-x,1/2+y,-z
1/2-x,1/2-y,-z
1/2+x,1/2-y,z
loop_
_atom_site_type_symbol
_atom_site_label
_atom_site_fract_x
_atom_site_fract_y
_atom_site_fract_z
Si Si1 0.661965 0.913293 0.713942
Si Si2 0.015008 0.829077 0.353079
Si Si3 0.918657 0.087853 0.890368
Si Si4 0.690691 0.843213 0.590511
Si Si5 0.956046 0.339436 0.633647
Si Si6 0.112807 0.083366 0.616513
Si Si7 0.237009 0.173524 0.585546
Si Si8 0.926052 0.913454 0.740841
O O1 0.786367 0.893153 0.823758
O O2 0.637213 0.859436 0.632367
O O3 0.563647 0.896031 0.709496
O O4 0.658441 0.000000 0.689428
O O5 0.988955 0.742372 0.329067
O O6 0.141719 0.839045 0.465967
O O7 0.003710 0.866657 0.270981
O O8 0.914153 0.865621 0.334537
O O9 0.954171 0.116764 0.836012
O O10 0.937763 0.000000 0.902316
O O11 0.000000 0.125360 0.000000
O O12 0.595681 0.857940 0.473652
O O13 0.737502 0.758594 0.612377
O O14 0.791778 0.902319 0.642487
O O15 0.860690 0.348779 0.633107
O O16 0.215171 0.119656 0.636829
O O17 0.000000 0.080014 0.500000
O O18 0.149256 0.000000 0.662542
O O19 0.956850 0.000000 0.751001
#
# Coordination Sequence:
#
# PCOD8078769 Si02
#       8
#     8   8   8   8   8   8   8   8
#     4  10  21  31  45  71  93 118 155 191 234 277
#     4  10  17  31  43  62  88 122 164 190 216 260
#     4   8  16  32  50  68  91 115 143 185 240 292
#     4  10  17  31  42  62  91 125 160 180 217 267
#     4  11  19  29  43  63  96 128 152 180 218 273
#     4   9  18  28  39  56  80 116 160 199 221 238
#     4  10  18  30  43  59  88 133 164 180 217 264
#     4  10  17  26  47  71  88 112 152 198 230 259
#
# _framework density 15.854884999999999
#
# number of rings (size 3 to 8) (size 9 to 14) (size 15 to 20)
#    0.000    2.250    2.500    3.375    0.000    4.500 
#    0.000    0.000    0.000    0.750    0.000    0.000 
#    0.000    0.000    0.000    7.500    0.000    0.000 
#
# Total GULP energy -396650.102352 kJ/mol
# GULP energy per Si atom -12395.315698 kJ/mol
# Density = 1.581880 g / cm^3
# Si number density = 15.854885 Si / 1000 Ang^3
#
#
#
# Elastic Constant Matrix: (Units=GPa)
#
#
# Indices 1 2 3 4 5 6 
#
# 1 127.3255 43.0370 46.6288 0.0000 2.2112 0.0000
# 2 43.0370 54.8164 35.5421 0.0000 -4.5466 0.0000
# 3 46.6288 35.5421 65.8133 0.0000 -4.6003 0.0000
# 4 0.0000 0.0000 0.0000 9.5092 0.0000 -0.9373
# 5 2.2112 -4.5466 -4.6003 0.0000 14.9886 0.0000
# 6 0.0000 0.0000 0.0000 -0.9373 0.0000 29.1516
#
#
#
# Elastic Compliance Matrix: (Units=1/GPa)
#
#
# Indices 1 2 3 4 5 6 
#
# 1 0.012131 -0.006395 -0.005521 0.000000 -0.005424 0.000000
# 2 -0.006395 0.031674 -0.012097 0.000000 0.006839 0.000000
# 3 -0.005521 -0.012097 0.025997 0.000000 0.005124 0.000000
# 4 0.000000 0.000000 0.000000 0.105495 0.000000 0.003392
# 5 -0.005424 0.006839 0.005124 0.000000 0.071164 0.000000
# 6 0.000000 0.000000 0.000000 0.003392 0.000000 0.034412
#
#
# Mechanical properties :
#
#
# Convention : Reuss Voigt Hill
#
# Bulk Modulus (GPa) = 45.91832 55.37456 50.64644
# Shear Modulus (GPa) = 14.87398 18.91305 16.89352
#
# Velocity S-wave (km/s) = 3.06622 3.45756 3.26775
# Velocity P-wave (km/s) = 6.44671 7.13732 6.80079
#
# Compressibility (1/GPa) = 0.02177780
#
# Stress axis : x y z
#
# Youngs Moduli (GPa) = 82.43099 31.57188 38.46628
#
# Poissons Ratio (x) = 0.20189 0.21236
# Poissons Ratio (y) = 0.52713 0.46531
# Poissons Ratio (z) = 0.45508 0.38191
#
# Static dielectric constant tensor:
#      x y z
#    x 3.164520 0.000000 -0.103520 
#    y 0.000000 3.045210 0.000000 
#    z -0.103520 0.000000 2.790460 
# 
# 
# High freq. dielectric constant tensor:
#      x y z
#    x 1.620620 0.000000 -0.002290 
#    y 0.000000 1.604490 0.000000 
#    z -0.002290 0.000000 1.548380 
# 
# From -- ./inp_files/317038.got.cif
#   From: 2010.06.25/outbox.cif.g09.slc.cpg/sg12_159_cif.got.tgz:317038.got - 2010.06.28 00:19:55.
