data_PCOD8078454
_publ_section_title
;
Structure prediction by ZEFSAII (Michael W. Deem and Ramdas Pophale) SiO2 
 PCOD8078454
Probable space group: C 2/M
;
_chemical_formula_sum "Si O2"
_cell_formula_units_Z 52
_cell_length_a 20.584171
_cell_length_b 23.210282
_cell_length_c 12.154759
_cell_angle_alpha 90.000000
_cell_angle_beta 150.122032
_cell_angle_gamma 90.000000
_cell_volume 2892.837783
_symmetry_space_group_name_H-M "C 2/M"
_symmetry_group_IT_number 12
_symmetry_cell_setting 'monoclinic'
loop_
_space_group_symop_operation_xyz
x,y,z
-x,y,-z
-x,-y,-z
x,-y,z
1/2+x,1/2+y,z
1/2-x,1/2+y,-z
1/2-x,1/2-y,-z
1/2+x,1/2-y,z
loop_
_atom_site_type_symbol
_atom_site_label
_atom_site_fract_x
_atom_site_fract_y
_atom_site_fract_z
Si Si1 0.855544 0.644436 0.083305
Si Si2 0.509612 0.295926 0.891490
Si Si3 0.060628 0.665512 0.204565
Si Si4 0.144922 0.932059 0.675270
Si Si5 0.735349 0.741280 0.779421
Si Si6 0.309287 0.354674 0.460217
Si Si7 0.500000 0.186662 0.500000
O O1 0.916665 0.646585 0.295281
O O2 0.976481 0.635880 0.177032
O O3 0.752687 0.592297 0.919151
O O4 0.774478 0.703738 0.944341
O O5 0.436883 0.234335 0.773316
O O6 0.448939 0.341369 0.717814
O O7 0.500000 0.320624 0.000000
O O8 0.661047 0.292099 0.082672
O O9 0.207101 0.638827 0.412261
O O10 0.000000 0.647886 0.000000
O O11 0.174500 0.909550 0.595302
O O12 0.000000 0.912347 0.500000
O O13 0.157689 0.000000 0.692895
O O14 0.745878 0.698653 0.691604
O O15 0.594214 0.769920 0.573340
#
# Coordination Sequence:
#
# PCOD8078454 Si02
#       7
#     8   8   8   8   8   8   4
#     4  10  22  36  55  79 115 146 184 229 280 324
#     4  10  19  29  48  81 116 151 176 204 267 339
#     4  10  16  35  51  81 111 145 176 217 263 324
#     4  10  23  42  61  79 100 139 196 245 283 322
#     4  10  20  32  49  78 114 153 183 213 258 331
#     4  11  20  33  57  76 111 144 186 230 272 320
#     4  12  24  32  49  84 121 154 178 216 276 352
#
# _framework density 17.975428999999998
#
# number of rings (size 3 to 8) (size 9 to 14) (size 15 to 20)
#    0.000    1.692    6.154    2.769    8.615    0.000 
#    0.000    1.923    0.000    0.462    0.000    0.000 
#    0.000    0.000    0.000    0.000    0.000    0.000 
#
# Total GULP energy -322314.115314 kJ/mol
# GULP energy per Si atom -12396.696743 kJ/mol
# Density = 1.793452 g / cm^3
# Si number density = 17.975429 Si / 1000 Ang^3
#
#
#
# Elastic Constant Matrix: (Units=GPa)
#
#
# Indices 1 2 3 4 5 6 
#
# 1 78.3984 33.4216 37.3716 0.0000 17.2330 0.0000
# 2 33.4216 57.4939 43.4395 0.0000 5.1977 0.0000
# 3 37.3716 43.4395 112.9115 0.0000 -0.5554 0.0000
# 4 0.0000 0.0000 0.0000 16.3644 0.0000 0.4484
# 5 17.2330 5.1977 -0.5554 0.0000 40.2261 0.0000
# 6 0.0000 0.0000 0.0000 0.4484 0.0000 8.0544
#
#
#
# Elastic Compliance Matrix: (Units=1/GPa)
#
#
# Indices 1 2 3 4 5 6 
#
# 1 0.019408 -0.008093 -0.003346 0.000000 -0.007315 0.000000
# 2 -0.008093 0.028341 -0.008226 0.000000 -0.000309 0.000000
# 3 -0.003346 -0.008226 0.013142 0.000000 0.002678 0.000000
# 4 0.000000 0.000000 0.000000 0.061202 0.000000 -0.003407
# 5 -0.007315 -0.000309 0.002678 0.000000 0.028070 0.000000
# 6 0.000000 0.000000 0.000000 -0.003407 0.000000 0.124345
#
#
# Mechanical properties :
#
#
# Convention : Reuss Voigt Hill
#
# Bulk Modulus (GPa) = 46.38078 53.02992 49.70535
# Shear Modulus (GPa) = 15.57507 21.90039 18.73773
#
# Velocity S-wave (km/s) = 2.94677 3.49428 3.23214
# Velocity P-wave (km/s) = 6.11852 6.77092 6.45297
#
# Compressibility (1/GPa) = 0.02156065
#
# Stress axis : x y z
#
# Youngs Moduli (GPa) = 51.52410 35.28496 76.09121
#
# Poissons Ratio (x) = 0.28554 0.25463
# Poissons Ratio (y) = 0.41696 0.62595
# Poissons Ratio (z) = 0.17242 0.29027
#
# Static dielectric constant tensor:
#      x y z
#    x 3.468880 0.000000 0.180440 
#    y 0.000000 2.770530 0.000000 
#    z 0.180440 0.000000 3.550670 
# 
# 
# High freq. dielectric constant tensor:
#      x y z
#    x 1.705090 0.000000 0.013810 
#    y 0.000000 1.626850 0.000000 
#    z 0.013810 0.000000 1.706090 
# 
# From -- ./inp_files/170337.got.cif
#   From: 2010.06.25/outbox.cif.g09.slc.cpg/sg12_86_cif.got.tgz:170337.got - 2010.06.28 00:19:55.
