data_PCOD8078774
_publ_section_title
;
Structure prediction by ZEFSAII (Michael W. Deem and Ramdas Pophale) SiO2 
 PCOD8078774
Probable space group: C 2/M
;
_chemical_formula_sum "Si O2"
_cell_formula_units_Z 64
_cell_length_a 29.491984
_cell_length_b 12.812842
_cell_length_c 18.362934
_cell_angle_alpha 90.000000
_cell_angle_beta 147.724117
_cell_angle_gamma 90.000000
_cell_volume 3705.356129
_symmetry_space_group_name_H-M "C 2/M"
_symmetry_group_IT_number 12
_symmetry_cell_setting 'monoclinic'
loop_
_space_group_symop_operation_xyz
x,y,z
-x,y,-z
-x,-y,-z
x,-y,z
1/2+x,1/2+y,z
1/2-x,1/2+y,-z
1/2-x,1/2-y,-z
1/2+x,1/2-y,z
loop_
_atom_site_type_symbol
_atom_site_label
_atom_site_fract_x
_atom_site_fract_y
_atom_site_fract_z
Si Si1 0.282623 0.121678 0.586979
Si Si2 0.043031 0.886392 0.984521
Si Si3 0.688265 0.621145 0.692549
Si Si4 0.072227 0.116969 0.658517
Si Si5 0.347440 0.119787 0.515918
Si Si6 0.045367 0.801714 0.392146
Si Si7 0.697823 0.745650 0.246837
Si Si8 0.591916 0.381207 0.308304
O O1 0.340320 0.135348 0.593558
O O2 0.322885 0.182086 0.710767
O O3 0.187104 0.169335 0.441961
O O4 0.274836 0.000000 0.597996
O O5 0.117188 0.805375 0.100046
O O6 0.073821 0.000000 0.993300
O O7 0.000000 0.915701 0.000000
O O8 0.970732 0.830295 0.836457
O O9 0.712191 0.500000 0.724566
O O10 0.658093 0.654792 0.733503
O O11 0.614009 0.641418 0.534679
O O12 0.768298 0.686881 0.774978
O O13 0.000000 0.115225 0.500000
O O14 0.045276 0.194585 0.688275
O O15 0.084445 0.000000 0.706583
O O16 0.427803 0.184266 0.593842
O O17 0.261982 0.155255 0.359259
O O18 0.363716 0.000000 0.518300
O O19 0.041524 0.871702 0.315125
O O20 0.606162 0.500000 0.304148
#
# Coordination Sequence:
#
# PCOD8078774 Si02
#       8
#     8   8   8   8   8   8   8   8
#     4  10  19  31  50  75  98 123 165 212 250 284
#     4  10  22  35  47  67 100 137 169 206 242 280
#     4   9  16  28  49  78 102 121 151 200 256 297
#     4   8  14  25  44  73 104 121 142 195 259 301
#     4  10  20  29  42  67  98 129 163 203 242 287
#     4  10  17  26  48  71  97 126 159 199 245 298
#     4  11  19  30  52  71  96 132 168 199 240 298
#     4  10  18  30  49  73  98 123 163 211 248 282
#
# _framework density 17.272293999999999
#
# number of rings (size 3 to 8) (size 9 to 14) (size 15 to 20)
#    0.000    2.250    2.500    3.750    1.750    2.000 
#    0.000    0.000    0.000   13.875    0.000    0.000 
#    0.000    0.000    0.000    0.000    0.000    0.000 
#
# Total GULP energy -396461.480029 kJ/mol
# GULP energy per Si atom -12389.421251 kJ/mol
# Density = 1.723298 g / cm^3
# Si number density = 17.272294 Si / 1000 Ang^3
#
#
#
# Elastic Constant Matrix: (Units=GPa)
#
#
# Indices 1 2 3 4 5 6 
#
# 1 124.0067 43.5332 26.1302 0.0000 -0.2722 0.0000
# 2 43.5332 81.5864 23.6540 0.0000 7.4635 0.0000
# 3 26.1302 23.6540 65.7137 0.0000 -2.8215 0.0000
# 4 0.0000 0.0000 0.0000 20.8679 0.0000 1.2989
# 5 -0.2722 7.4635 -2.8215 0.0000 13.5859 0.0000
# 6 0.0000 0.0000 0.0000 1.2989 0.0000 30.5452
#
#
#
# Elastic Compliance Matrix: (Units=1/GPa)
#
#
# Indices 1 2 3 4 5 6 
#
# 1 0.010320 -0.005118 -0.002151 0.000000 0.002572 0.000000
# 2 -0.005118 0.017302 -0.004647 0.000000 -0.010573 0.000000
# 3 -0.002151 -0.004647 0.018014 0.000000 0.006251 0.000000
# 4 0.000000 0.000000 0.000000 0.048048 0.000000 -0.002043
# 5 0.002572 -0.010573 0.006251 0.000000 0.080764 0.000000
# 6 0.000000 0.000000 0.000000 -0.002043 0.000000 0.032825
#
#
# Mechanical properties :
#
#
# Convention : Reuss Voigt Hill
#
# Bulk Modulus (GPa) = 45.86255 50.88244 48.37249
# Shear Modulus (GPa) = 20.97561 24.86576 22.92068
#
# Velocity S-wave (km/s) = 3.48862 3.79837 3.64678
# Velocity P-wave (km/s) = 6.54504 6.98282 6.76747
#
# Compressibility (1/GPa) = 0.02180428
#
# Stress axis : x y z
#
# Youngs Moduli (GPa) = 96.90234 57.79566 55.51299
#
# Poissons Ratio (x) = 0.29580 0.11940
# Poissons Ratio (y) = 0.49596 0.25796
# Poissons Ratio (z) = 0.20841 0.26857
#
# Static dielectric constant tensor:
#      x y z
#    x 3.748840 0.000000 -0.028360 
#    y 0.000000 3.267060 0.000000 
#    z -0.028360 0.000000 2.790310 
# 
# 
# High freq. dielectric constant tensor:
#      x y z
#    x 1.667590 0.000000 -0.009490 
#    y 0.000000 1.666160 0.000000 
#    z -0.009490 0.000000 1.617590 
# 
# From -- ./inp_files/296702.got.cif
#   From: 2010.06.25/outbox.cif.g09.slc.cpg/sg12_149_cif.got.tgz:296702.got - 2010.06.28 00:19:55.
