data_PCOD8078631
_publ_section_title
;
Structure prediction by ZEFSAII (Michael W. Deem and Ramdas Pophale) SiO2 
 PCOD8078631
Probable space group: C 2/M
;
_chemical_formula_sum "Si O2"
_cell_formula_units_Z 64
_cell_length_a 25.761191
_cell_length_b 13.030410
_cell_length_c 14.192058
_cell_angle_alpha 90.000000
_cell_angle_beta 113.907148
_cell_angle_gamma 90.000000
_cell_volume 4355.241382
_symmetry_space_group_name_H-M "C 2/M"
_symmetry_group_IT_number 12
_symmetry_cell_setting 'monoclinic'
loop_
_space_group_symop_operation_xyz
x,y,z
-x,y,-z
-x,-y,-z
x,-y,z
1/2+x,1/2+y,z
1/2-x,1/2+y,-z
1/2-x,1/2-y,-z
1/2+x,1/2-y,z
loop_
_atom_site_type_symbol
_atom_site_label
_atom_site_fract_x
_atom_site_fract_y
_atom_site_fract_z
Si Si1 0.089227 0.113522 0.292020
Si Si2 0.416027 0.378702 0.431507
Si Si3 0.057047 0.379855 0.996056
Si Si4 0.995592 0.382761 0.229397
Si Si5 0.391782 0.814101 0.790881
Si Si6 0.497945 0.307808 0.351821
Si Si7 0.801483 0.382733 0.582950
Si Si8 0.825279 0.186246 0.489376
O O1 0.104171 0.191929 0.220093
O O2 0.024951 0.131890 0.282820
O O3 0.134520 0.125702 0.408944
O O4 0.093297 0.000000 0.252367
O O5 0.419013 0.500000 0.453942
O O6 0.437118 0.355083 0.340038
O O7 0.458058 0.316286 0.530475
O O8 0.353235 0.332228 0.406204
O O9 0.060071 0.500000 0.013747
O O10 0.108613 0.332079 0.095883
O O11 0.054953 0.354071 0.882903
O O12 0.000000 0.334077 0.000000
O O13 0.989179 0.500000 0.258636
O O14 0.056428 0.371396 0.223409
O O15 0.989702 0.310995 0.316356
O O16 0.334149 0.858385 0.703984
O O17 0.811934 0.500000 0.558386
O O18 0.822531 0.307029 0.514692
O O19 0.735760 0.365272 0.555728
#
# Coordination Sequence:
#
# PCOD8078631 Si02
#       8
#     8   8   8   8   8   8   8   8
#     4   9  15  25  38  53  77 104 129 156 188 224
#     4  10  17  28  42  55  75 101 131 160 185 217
#     4   8  13  23  38  54  74 100 125 150 185 227
#     4   9  16  26  39  56  80 103 122 150 191 233
#     4   9  16  23  38  59  77 101 129 155 185 225
#     4   9  16  25  40  58  71  95 132 160 183 218
#     4  10  17  26  39  57  82 103 126 157 185 219
#     4   9  18  27  38  57  77 105 132 152 186 223
#
# _framework density 14.694936999999999
#
# number of rings (size 3 to 8) (size 9 to 14) (size 15 to 20)
#    0.000    2.875    0.000    6.000    0.000    0.000 
#    0.000    1.875    0.000   10.875    0.000    0.875 
#    0.000    0.000    0.000    0.000    0.000    0.000 
#
# Total GULP energy -396449.324898 kJ/mol
# GULP energy per Si atom -12389.041403 kJ/mol
# Density = 1.466149 g / cm^3
# Si number density = 14.694937 Si / 1000 Ang^3
#
#
#
# Elastic Constant Matrix: (Units=GPa)
#
#
# Indices 1 2 3 4 5 6 
#
# 1 70.9547 34.8390 26.4968 0.0000 -0.1748 0.0000
# 2 34.8390 121.6316 41.7266 0.0000 -2.3279 0.0000
# 3 26.4968 41.7266 55.0678 0.0000 5.5139 0.0000
# 4 0.0000 0.0000 0.0000 19.3899 0.0000 -1.3184
# 5 -0.1748 -2.3279 5.5139 0.0000 10.0204 0.0000
# 6 0.0000 0.0000 0.0000 -1.3184 0.0000 13.2977
#
#
#
# Elastic Compliance Matrix: (Units=1/GPa)
#
#
# Indices 1 2 3 4 5 6 
#
# 1 0.018038 -0.002703 -0.006984 0.000000 0.003530 0.000000
# 2 -0.002703 0.012095 -0.008616 0.000000 0.007504 0.000000
# 3 -0.006984 -0.008616 0.029909 0.000000 -0.018581 0.000000
# 4 0.000000 0.000000 0.000000 0.051923 0.000000 0.005148
# 5 0.003530 0.007504 -0.018581 0.000000 0.111826 0.000000
# 6 0.000000 0.000000 0.000000 0.005148 0.000000 0.075711
#
#
# Mechanical properties :
#
#
# Convention : Reuss Voigt Hill
#
# Bulk Modulus (GPa) = 42.67000 50.41988 46.54494
# Shear Modulus (GPa) = 14.53829 18.18105 16.35967
#
# Velocity S-wave (km/s) = 3.14879 3.52125 3.34021
# Velocity P-wave (km/s) = 6.50539 7.13567 6.82781
#
# Compressibility (1/GPa) = 0.02343567
#
# Stress axis : x y z
#
# Youngs Moduli (GPa) = 55.43990 82.67910 33.43483
#
# Poissons Ratio (x) = 0.22347 0.23353
# Poissons Ratio (y) = 0.14985 0.28806
# Poissons Ratio (z) = 0.38722 0.71232
#
# Static dielectric constant tensor:
#      x y z
#    x 2.933370 0.000000 0.017360 
#    y 0.000000 2.894890 0.000000 
#    z 0.017360 0.000000 2.835300 
# 
# 
# High freq. dielectric constant tensor:
#      x y z
#    x 1.531830 0.000000 0.008950 
#    y 0.000000 1.567590 0.000000 
#    z 0.008950 0.000000 1.531210 
# 
# From -- ./inp_files/245138.got.cif
#   From: 2010.06.25/outbox.cif.g09.slc.cpg/sg12_123_cif.got.tgz:245138.got - 2010.06.28 00:19:55.
