data_PCOD8078688
_publ_section_title
;
Structure prediction by ZEFSAII (Michael W. Deem and Ramdas Pophale) SiO2 
 PCOD8078688
Probable space group: C 2/M
;
_chemical_formula_sum "Si O2"
_cell_formula_units_Z 48
_cell_length_a 19.738169
_cell_length_b 8.738035
_cell_length_c 18.741440
_cell_angle_alpha 90.000000
_cell_angle_beta 56.104739
_cell_angle_gamma 90.000000
_cell_volume 2683.071562
_symmetry_space_group_name_H-M "C 2/M"
_symmetry_group_IT_number 12
_symmetry_cell_setting 'monoclinic'
loop_
_space_group_symop_operation_xyz
x,y,z
-x,y,-z
-x,-y,-z
x,-y,z
1/2+x,1/2+y,z
1/2-x,1/2+y,-z
1/2-x,1/2-y,-z
1/2+x,1/2-y,z
loop_
_atom_site_type_symbol
_atom_site_label
_atom_site_fract_x
_atom_site_fract_y
_atom_site_fract_z
Si Si1 0.985754 0.180976 0.397015
Si Si2 0.539852 0.320498 0.071573
Si Si3 0.543813 0.679407 0.741291
Si Si4 0.368964 0.319296 0.590711
Si Si5 0.879243 0.680936 0.095852
Si Si6 0.702132 0.319457 0.731264
O O1 0.974199 0.255596 0.325231
O O2 0.908846 0.225382 0.491403
O O3 0.070241 0.238361 0.382439
O O4 0.991678 0.000000 0.388811
O O5 0.539937 0.500000 0.055758
O O6 0.533311 0.287713 0.160509
O O7 0.459781 0.246241 0.084971
O O8 0.619527 0.243586 0.987248
O O9 0.555460 0.500000 0.723597
O O10 0.628078 0.743649 0.725311
O O11 0.352252 0.500000 0.605881
O O12 0.285596 0.226969 0.644782
O O13 0.877903 0.500000 0.095471
O O14 0.802800 0.742851 0.186830
O O15 0.696303 0.500000 0.744507
#
# Coordination Sequence:
#
# PCOD8078688 Si02
#       6
#     8   8   8   8   8   8
#     4   8  15  30  49  68  90 119 155 187 221 269
#     4   9  15  25  42  65  93 122 150 182 225 271
#     4   8  15  27  45  68  93 122 152 183 222 268
#     4   9  17  30  50  70  89 118 154 190 224 266
#     4  10  17  26  42  64  91 121 153 187 222 266
#     4  10  19  30  45  67  95 122 150 188 231 271
#
# _framework density 17.889945000000001
#
# number of rings (size 3 to 8) (size 9 to 14) (size 15 to 20)
#    0.000    3.000    0.000    5.500    0.000    0.667 
#    0.000    1.667    0.000   12.000    0.000    0.000 
#    0.000    0.000    0.000    0.000    0.000    0.000 
#
# Total GULP energy -297355.112190 kJ/mol
# GULP energy per Si atom -12389.796341 kJ/mol
# Density = 1.784923 g / cm^3
# Si number density = 17.889945 Si / 1000 Ang^3
#
#
#
# Elastic Constant Matrix: (Units=GPa)
#
#
# Indices 1 2 3 4 5 6 
#
# 1 58.7765 15.5044 55.2229 -0.0001 18.3498 -0.0006
# 2 15.5044 75.7899 33.7713 -0.0001 7.7431 -0.0014
# 3 55.2229 33.7713 137.7716 -0.0001 33.3431 0.0000
# 4 -0.0001 -0.0001 -0.0001 25.3138 0.0001 -9.6140
# 5 18.3498 7.7431 33.3431 0.0001 16.2528 0.0000
# 6 -0.0006 -0.0014 0.0000 -9.6140 0.0000 10.7529
#
#
#
# Elastic Compliance Matrix: (Units=1/GPa)
#
#
# Indices 1 2 3 4 5 6 
#
# 1 0.029823 -0.000985 -0.007303 0.000001 -0.018219 0.000003
# 2 -0.000985 0.014850 -0.003579 0.000001 0.001381 0.000003
# 3 -0.007303 -0.003579 0.017190 0.000000 -0.025314 -0.000001
# 4 0.000001 0.000001 0.000000 0.059815 -0.000001 0.053480
# 5 -0.018219 0.001381 -0.025314 -0.000001 0.133372 -0.000002
# 6 0.000003 0.000003 -0.000001 0.053480 -0.000002 0.140813
#
#
# Mechanical properties :
#
#
# Convention : Reuss Voigt Hill
#
# Bulk Modulus (GPa) = 26.22828 53.48169 39.85499
# Shear Modulus (GPa) = 11.56585 21.65321 16.60953
#
# Velocity S-wave (km/s) = 2.54540 3.48279 3.05032
# Velocity P-wave (km/s) = 4.83026 6.79212 5.89340
#
# Compressibility (1/GPa) = 0.03812678
#
# Stress axis : x y z
#
# Youngs Moduli (GPa) = 33.53120 67.34114 58.17490
#
# Poissons Ratio (x) = 0.06635 0.42486
# Poissons Ratio (y) = 0.03304 0.20822
# Poissons Ratio (z) = 0.24488 0.24103
#
# Static dielectric constant tensor:
#      x y z
#    x 3.205870 0.000000 0.390530 
#    y 0.000000 3.010720 0.000000 
#    z 0.390530 0.000000 4.244300 
# 
# 
# High freq. dielectric constant tensor:
#      x y z
#    x 1.641510 0.000000 0.009380 
#    y 0.000000 1.668240 0.000000 
#    z 0.009380 0.000000 1.717620 
# 
# From -- ./inp_files/313219.got.cif
#   From: 2010.06.25/outbox.cif.g09.slc.cpg/sg12_157_cif.got.tgz:313219.got - 2010.06.28 00:19:55.
