data_PCOD8078557
_publ_section_title
;
Structure prediction by ZEFSAII (Michael W. Deem and Ramdas Pophale) SiO2 
 PCOD8078557
Probable space group: C 2/M
;
_chemical_formula_sum "Si O2"
_cell_formula_units_Z 64
_cell_length_a 26.916292
_cell_length_b 9.087728
_cell_length_c 23.892632
_cell_angle_alpha 90.000000
_cell_angle_beta 135.195351
_cell_angle_gamma 90.000000
_cell_volume 4118.449567
_symmetry_space_group_name_H-M "C 2/M"
_symmetry_group_IT_number 12
_symmetry_cell_setting 'monoclinic'
loop_
_space_group_symop_operation_xyz
x,y,z
-x,y,-z
-x,-y,-z
x,-y,z
1/2+x,1/2+y,z
1/2-x,1/2+y,-z
1/2-x,1/2-y,-z
1/2+x,1/2-y,z
loop_
_atom_site_type_symbol
_atom_site_label
_atom_site_fract_x
_atom_site_fract_y
_atom_site_fract_z
Si Si1 0.697338 0.672518 0.831531
Si Si2 0.680492 0.174147 0.466779
Si Si3 0.344702 0.670443 0.322036
Si Si4 0.361606 0.171263 0.442577
Si Si5 0.697205 0.167707 0.996639
Si Si6 0.041639 0.830135 0.323242
Si Si7 0.413373 0.173375 0.175279
Si Si8 0.503305 0.333613 0.418809
O O1 0.675462 0.500000 0.817697
O O2 0.697935 0.723074 0.767205
O O3 0.640184 0.764374 0.820859
O O4 0.777762 0.699746 0.919279
O O5 0.750000 0.250000 0.500000
O O6 0.675479 0.212361 0.528595
O O7 0.615217 0.243356 0.380877
O O8 0.682073 0.000000 0.457481
O O9 0.331628 0.500000 0.322823
O O10 0.318661 0.756441 0.356596
O O11 0.426276 0.708701 0.377704
O O12 0.441630 0.228701 0.506480
O O13 0.363252 0.000000 0.433700
O O14 0.617531 0.205728 0.912658
O O15 0.710816 0.000000 0.993341
O O16 0.750000 0.250000 0.000000
O O17 0.004717 0.813569 0.353549
O O18 0.988408 0.755347 0.236664
O O19 0.055063 0.000000 0.317894
O O20 0.424291 0.000000 0.194995
O O21 0.523450 0.500000 0.451630
#
# Coordination Sequence:
#
# PCOD8078557 Si02
#       8
#     8   8   8   8   8   8   8   8
#     4   9  16  28  41  56  82 120 158 186 216 255
#     4  10  21  37  53  69  88 111 140 179 224 269
#     4  10  18  28  42  60  84 117 154 184 209 250
#     4  10  21  32  43  63  86 109 139 178 221 259
#     4   8  15  25  38  55  80 114 151 187 220 252
#     4  10  18  30  47  66  88 118 150 182 219 259
#     4  10  17  25  39  62  88 115 149 189 224 256
#     4   9  17  29  42  58  82 115 151 181 209 247
#
# _framework density 15.539828999999999
#
# number of rings (size 3 to 8) (size 9 to 14) (size 15 to 20)
#    0.000    2.500    1.250    1.875    0.000    5.000 
#    0.000    0.000    0.000    0.000    0.000    0.000 
#    0.000    1.000    0.000   11.500    0.000    2.875 
#
# Total GULP energy -396532.072879 kJ/mol
# GULP energy per Si atom -12391.627277 kJ/mol
# Density = 1.550446 g / cm^3
# Si number density = 15.539829 Si / 1000 Ang^3
#
#
#
# Elastic Constant Matrix: (Units=GPa)
#
#
# Indices 1 2 3 4 5 6 
#
# 1 47.3774 32.7552 50.3962 0.0000 5.2809 0.0000
# 2 32.7552 72.0677 61.6079 0.0000 2.7353 0.0000
# 3 50.3962 61.6079 148.0646 0.0000 -4.5292 0.0000
# 4 0.0000 0.0000 0.0000 24.0841 0.0000 0.3637
# 5 5.2809 2.7353 -4.5292 0.0000 15.7329 0.0000
# 6 0.0000 0.0000 0.0000 0.3637 0.0000 19.4056
#
#
#
# Elastic Compliance Matrix: (Units=1/GPa)
#
#
# Indices 1 2 3 4 5 6 
#
# 1 0.039803 -0.008625 -0.010414 0.000000 -0.014859 0.000000
# 2 -0.008625 0.024059 -0.007178 0.000000 -0.003354 0.000000
# 3 -0.010414 -0.007178 0.013549 0.000000 0.008644 0.000000
# 4 0.000000 0.000000 0.000000 0.041533 0.000000 -0.000778
# 5 -0.014859 -0.003354 0.008644 0.000000 0.071620 0.000000
# 6 0.000000 0.000000 0.000000 -0.000778 0.000000 0.051546
#
#
# Mechanical properties :
#
#
# Convention : Reuss Voigt Hill
#
# Bulk Modulus (GPa) = 40.03277 61.89204 50.96240
# Shear Modulus (GPa) = 16.50876 20.02787 18.26832
#
# Velocity S-wave (km/s) = 3.26291 3.59389 3.43239
# Velocity P-wave (km/s) = 6.32556 7.55883 6.96953
#
# Compressibility (1/GPa) = 0.02497954
#
# Stress axis : x y z
#
# Youngs Moduli (GPa) = 25.12353 41.56426 73.80503
#
# Poissons Ratio (x) = 0.35848 0.76857
# Poissons Ratio (y) = 0.21668 0.52975
# Poissons Ratio (z) = 0.26163 0.29834
#
# Static dielectric constant tensor:
#      x y z
#    x 2.555610 0.000000 -0.105450 
#    y 0.000000 3.047510 0.000000 
#    z -0.105450 0.000000 3.597460 
# 
# 
# High freq. dielectric constant tensor:
#      x y z
#    x 1.533350 0.000000 -0.006280 
#    y 0.000000 1.606610 0.000000 
#    z -0.006280 0.000000 1.609990 
# 
# From -- ./inp_files/350974.got.cif
#   From: 2010.06.25/outbox.cif.g09.slc.cpg/sg12_176_cif.got.tgz:350974.got - 2010.06.28 00:19:55.
