data_PCOD8078999
_publ_section_title
;
Structure prediction by ZEFSAII (Michael W. Deem and Ramdas Pophale) SiO2 
 PCOD8078999
Probable space group: C 2/M
;
_chemical_formula_sum "Si O2"
_cell_formula_units_Z 48
_cell_length_a 30.376624
_cell_length_b 9.093306
_cell_length_c 10.439234
_cell_angle_alpha 90.000000
_cell_angle_beta 77.266666
_cell_angle_gamma 90.000000
_cell_volume 2812.649257
_symmetry_space_group_name_H-M "C 2/M"
_symmetry_group_IT_number 12
_symmetry_cell_setting 'monoclinic'
loop_
_space_group_symop_operation_xyz
x,y,z
-x,y,-z
-x,-y,-z
x,-y,z
1/2+x,1/2+y,z
1/2-x,1/2+y,-z
1/2-x,1/2-y,-z
1/2+x,1/2-y,z
loop_
_atom_site_type_symbol
_atom_site_label
_atom_site_fract_x
_atom_site_fract_y
_atom_site_fract_z
Si Si1 0.385429 0.173011 0.306361
Si Si2 0.532095 0.172982 0.360581
Si Si3 0.113472 0.825758 0.424047
Si Si4 0.787084 0.162847 0.637613
Si Si5 0.019096 0.327246 0.856535
Si Si6 0.702329 0.664090 0.673072
O O1 0.395343 0.247473 0.435525
O O2 0.427849 0.208227 0.188125
O O3 0.341233 0.237802 0.264713
O O4 0.378900 0.000000 0.333567
O O5 0.500000 0.210201 0.500000
O O6 0.578682 0.262106 0.343199
O O7 0.508163 0.234359 0.248106
O O8 0.542731 0.000000 0.347847
O O9 0.163979 0.788874 0.339679
O O10 0.107639 0.000000 0.446886
O O11 0.747428 0.270719 0.710581
O O12 0.791021 0.163533 0.482406
O O13 0.774433 0.000000 0.693866
O O14 0.011071 0.500000 0.863324
O O15 0.000000 0.255874 0.000000
O O16 0.694839 0.500000 0.731010
#
# Coordination Sequence:
#
# PCOD8078999 Si02
#       6
#     8   8   8   8   8   8
#     4  10  17  28  46  66  91 124 160 194 233 277
#     4  10  18  31  49  71  93 121 161 196 232 278
#     4  10  19  29  44  68  96 124 155 192 237 280
#     4   8  15  26  38  58  89 122 153 185 226 280
#     4   9  18  32  49  69  94 124 160 198 231 273
#     4   9  16  25  39  62  91 121 153 189 234 281
#
# _framework density 17.065761999999999
#
# number of rings (size 3 to 8) (size 9 to 14) (size 15 to 20)
#    0.000    2.667    1.667    2.500    0.000    5.000 
#    0.000    0.000    0.000    4.500    0.000    1.167 
#    0.000    0.000    0.000    0.000    0.000    0.000 
#
# Total GULP energy -297505.882664 kJ/mol
# GULP energy per Si atom -12396.078444 kJ/mol
# Density = 1.702692 g / cm^3
# Si number density = 17.065762 Si / 1000 Ang^3
#
#
#
# Elastic Constant Matrix: (Units=GPa)
#
#
# Indices 1 2 3 4 5 6 
#
# 1 159.7406 66.0500 49.8072 0.0000 -14.8602 0.0000
# 2 66.0500 87.3978 28.1768 0.0000 -9.0944 0.0000
# 3 49.8072 28.1768 70.9956 0.0000 -2.9554 0.0000
# 4 0.0000 0.0000 0.0000 6.0421 0.0000 -2.9390
# 5 -14.8602 -9.0944 -2.9554 0.0000 14.7451 0.0000
# 6 0.0000 0.0000 0.0000 -2.9390 0.0000 34.6168
#
#
#
# Elastic Compliance Matrix: (Units=1/GPa)
#
#
# Indices 1 2 3 4 5 6 
#
# 1 0.010860 -0.005942 -0.004999 0.000000 0.006278 0.000000
# 2 -0.005942 0.017155 -0.002469 0.000000 0.004097 0.000000
# 3 -0.004999 -0.002469 0.018453 0.000000 -0.002862 0.000000
# 4 0.000000 0.000000 0.000000 0.172636 0.000000 0.014657
# 5 0.006278 0.004097 -0.002862 0.000000 0.076099 0.000000
# 6 0.000000 0.000000 0.000000 0.014657 0.000000 0.030132
#
#
# Mechanical properties :
#
#
# Convention : Reuss Voigt Hill
#
# Bulk Modulus (GPa) = 50.89758 67.35578 59.12668
# Shear Modulus (GPa) = 13.93899 22.68745 18.31322
#
# Velocity S-wave (km/s) = 2.86104 3.65007 3.27937
# Velocity P-wave (km/s) = 6.38774 7.57087 7.00433
#
# Compressibility (1/GPa) = 0.01964730
#
# Stress axis : x y z
#
# Youngs Moduli (GPa) = 92.08177 58.29142 54.19080
#
# Poissons Ratio (x) = 0.34639 0.27090
# Poissons Ratio (y) = 0.54718 0.13380
# Poissons Ratio (z) = 0.46033 0.14393
#
# Static dielectric constant tensor:
#      x y z
#    x 3.526100 0.000000 -0.116400 
#    y 0.000000 3.178350 0.000000 
#    z -0.116400 0.000000 2.829910 
# 
# 
# High freq. dielectric constant tensor:
#      x y z
#    x 1.676740 0.000000 -0.016560 
#    y 0.000000 1.652520 0.000000 
#    z -0.016560 0.000000 1.592950 
# 
# From -- ./inp_files/185751.got.cif
#   From: 2010.06.25/outbox.cif.g09.slc.cpg/sg12_93_cif.got.tgz:185751.got - 2010.06.28 00:19:55.
