data_PCOD8078392
_publ_section_title
;
Structure prediction by ZEFSAII (Michael W. Deem and Ramdas Pophale) SiO2 
 PCOD8078392
Probable space group: C 2/M
;
_chemical_formula_sum "Si O2"
_cell_formula_units_Z 40
_cell_length_a 24.438371
_cell_length_b 12.561183
_cell_length_c 20.061131
_cell_angle_alpha 90.000000
_cell_angle_beta 22.417192
_cell_angle_gamma 90.000000
_cell_volume 2348.439778
_symmetry_space_group_name_H-M "C 2/M"
_symmetry_group_IT_number 12
_symmetry_cell_setting 'monoclinic'
loop_
_space_group_symop_operation_xyz
x,y,z
-x,y,-z
-x,-y,-z
x,-y,z
1/2+x,1/2+y,z
1/2-x,1/2+y,-z
1/2-x,1/2-y,-z
1/2+x,1/2-y,z
loop_
_atom_site_type_symbol
_atom_site_label
_atom_site_fract_x
_atom_site_fract_y
_atom_site_fract_z
Si Si1 0.575704 0.164197 0.749098
Si Si2 0.143624 0.883668 0.637646
Si Si3 0.555151 0.662272 0.258810
Si Si4 0.374872 0.000000 0.193908
Si Si5 0.627177 0.117346 0.133146
Si Si6 0.546748 0.500000 0.523358
O O1 0.687476 0.130258 0.565504
O O2 0.586165 0.291404 0.751655
O O3 0.603498 0.105181 0.786473
O O4 0.423365 0.136502 0.886801
O O5 0.071976 0.874577 0.645994
O O6 0.113652 0.000000 0.703179
O O7 0.562384 0.791714 0.255430
O O8 0.521351 0.606846 0.367384
O O9 0.701542 0.621336 0.061146
O O10 0.219519 0.000000 0.334426
O O11 0.500000 0.000000 0.000000
O O12 0.580402 0.000000 0.211501
O O13 0.500000 0.500000 0.500000
#
# Coordination Sequence:
#
# PCOD8078392 Si02
#       6
#     8   8   8   4   8   4
#     4  10  19  30  50  78 104 129 169 212 267 308
#     4  10  16  31  53  75 104 132 159 219 270 311
#     4  10  19  32  50  76 108 137 173 206 259 311
#     4  12  24  38  52  74 108 142 179 220 246 310
#     4  10  18  29  53  81 108 130 161 222 266 308
#     4  12  24  38  54  70 108 150 179 206 249 319
#
# _framework density 17.032585999999998
#
# number of rings (size 3 to 8) (size 9 to 14) (size 15 to 20)
#    0.000    1.600    6.000    0.000    2.800    0.000 
#    0.000    0.000    0.000    1.200    0.000    0.000 
#    0.000    0.000    0.000    0.000    0.000    0.000 
#
# Total GULP energy -247887.896547 kJ/mol
# GULP energy per Si atom -12394.394827 kJ/mol
# Density = 1.699382 g / cm^3
# Si number density = 17.032586 Si / 1000 Ang^3
#
#
#
# Elastic Constant Matrix: (Units=GPa)
#
#
# Indices 1 2 3 4 5 6 
#
# 1 79.5382 39.9488 23.0494 0.0007 4.7198 -0.0004
# 2 39.9488 197.8376 32.7551 0.0005 13.5722 -0.0004
# 3 23.0494 32.7551 56.8738 0.0007 0.6384 -0.0005
# 4 0.0007 0.0005 0.0007 19.2711 -0.0007 -1.1665
# 5 4.7198 13.5722 0.6384 -0.0007 22.2425 0.0005
# 6 -0.0004 -0.0004 -0.0005 -1.1665 0.0005 20.2596
#
#
#
# Elastic Compliance Matrix: (Units=1/GPa)
#
#
# Indices 1 2 3 4 5 6 
#
# 1 0.015168 -0.002129 -0.004901 0.000000 -0.001779 0.000000
# 2 -0.002129 0.006142 -0.002638 0.000000 -0.003220 0.000000
# 3 -0.004901 -0.002638 0.021066 0.000000 0.002045 0.000000
# 4 0.000000 0.000000 0.000000 0.052073 0.000002 0.002998
# 5 -0.001779 -0.003220 0.002045 0.000002 0.047243 -0.000001
# 6 0.000000 0.000000 0.000000 0.002998 -0.000001 0.049532
#
#
# Mechanical properties :
#
#
# Convention : Reuss Voigt Hill
#
# Bulk Modulus (GPa) = 43.40551 58.41735 50.91143
# Shear Modulus (GPa) = 22.91058 28.25439 25.58249
#
# Velocity S-wave (km/s) = 3.67154 4.07731 3.87973
# Velocity P-wave (km/s) = 6.59642 7.51916 7.07285
#
# Compressibility (1/GPa) = 0.02303855
#
# Stress axis : x y z
#
# Youngs Moduli (GPa) = 65.92912 162.80279 47.47095
#
# Poissons Ratio (x) = 0.34667 0.23264
# Poissons Ratio (y) = 0.14039 0.12525
# Poissons Ratio (z) = 0.32310 0.42954
#
# Static dielectric constant tensor:
#      x y z
#    x 2.956220 0.000000 -0.401470 
#    y 0.000000 3.927880 0.000000 
#    z -0.401470 0.000000 3.081040 
# 
# 
# High freq. dielectric constant tensor:
#      x y z
#    x 1.626740 0.000000 -0.054760 
#    y 0.000000 1.679750 0.000000 
#    z -0.054760 0.000000 1.635560 
# 
# From -- ./inp_files/328102.got.cif
#   From: 2010.06.25/outbox.cif.g09.slc.cpg/sg12_165_cif.got.tgz:328102.got - 2010.06.28 00:19:55.
