data_PCOD8078410
_publ_section_title
;
Structure prediction by ZEFSAII (Michael W. Deem and Ramdas Pophale) SiO2 
 PCOD8078410
Probable space group: C 2/M
;
_chemical_formula_sum "Si O2"
_cell_formula_units_Z 44
_cell_length_a 9.415209
_cell_length_b 25.115839
_cell_length_c 12.801497
_cell_angle_alpha 90.000000
_cell_angle_beta 124.327620
_cell_angle_gamma 90.000000
_cell_volume 2499.926573
_symmetry_space_group_name_H-M "C 2/M"
_symmetry_group_IT_number 12
_symmetry_cell_setting 'monoclinic'
loop_
_space_group_symop_operation_xyz
x,y,z
-x,y,-z
-x,-y,-z
x,-y,z
1/2+x,1/2+y,z
1/2-x,1/2+y,-z
1/2-x,1/2-y,-z
1/2+x,1/2-y,z
loop_
_atom_site_type_symbol
_atom_site_label
_atom_site_fract_x
_atom_site_fract_y
_atom_site_fract_z
Si Si1 0.363226 0.000000 0.034884
Si Si2 0.787150 0.613575 0.077938
Si Si3 0.425143 0.387528 0.815155
Si Si4 0.378155 0.290783 0.663703
Si Si5 0.487073 0.500000 0.866307
Si Si6 0.000000 0.750025 0.500000
Si Si7 0.569564 0.777719 0.915863
O O1 0.376515 0.945273 0.109544
O O2 0.500000 0.000000 0.000000
O O3 0.179740 0.000000 0.901494
O O4 0.722273 0.630651 0.165519
O O5 0.922678 0.658820 0.100989
O O6 0.619453 0.615701 0.936416
O O7 0.413452 0.351779 0.708169
O O8 0.385502 0.449652 0.778207
O O9 0.172053 0.285405 0.574449
O O10 0.477015 0.285333 0.594605
O O11 0.452062 0.249157 0.778520
O O12 0.500000 0.500000 0.000000
O O13 0.500000 0.766077 0.000000
O O14 0.750000 0.750000 0.000000
#
# Coordination Sequence:
#
# PCOD8078410 Si02
#       7
#     4   8   8   8   4   4   8
#     4  10  18  30  44  70 118 157 169 200 252 335
#     4  10  18  30  48  80 116 145 168 210 270 340
#     4  10  17  31  56  79 108 147 178 215 267 336
#     4  11  22  38  58  77 109 149 189 232 279 323
#     4  10  16  32  52  80 114 150 175 202 272 357
#     4  10  24  42  54  74 104 152 202 234 264 322
#     4  12  22  32  52  86 116 137 173 227 290 345
#
# _framework density 17.600515999999999
#
# number of rings (size 3 to 8) (size 9 to 14) (size 15 to 20)
#    0.000    1.455    5.455    3.818    0.000    0.000 
#    0.000    0.000    0.000    1.091    0.000    5.091 
#    0.000    0.000    0.000    0.000    0.000    0.000 
#
# Total GULP energy -272581.617286 kJ/mol
# GULP energy per Si atom -12390.073513 kJ/mol
# Density = 1.756046 g / cm^3
# Si number density = 17.600516 Si / 1000 Ang^3
#
#
#
# Elastic Constant Matrix: (Units=GPa)
#
#
# Indices 1 2 3 4 5 6 
#
# 1 108.5641 30.8205 37.6309 0.0000 -18.5307 0.0000
# 2 30.8205 148.6754 47.0059 0.0000 -14.6443 0.0000
# 3 37.6309 47.0059 76.7719 0.0000 -19.9442 0.0000
# 4 0.0000 0.0000 0.0000 20.4057 0.0000 -2.6439
# 5 -18.5307 -14.6443 -19.9442 0.0000 28.7881 0.0000
# 6 0.0000 0.0000 0.0000 -2.6439 0.0000 22.0680
#
#
#
# Elastic Compliance Matrix: (Units=1/GPa)
#
#
# Indices 1 2 3 4 5 6 
#
# 1 0.011564 -0.000665 -0.004165 0.000000 0.004220 0.000000
# 2 -0.000665 0.008396 -0.004654 0.000000 0.000619 0.000000
# 3 -0.004165 -0.004654 0.020250 0.000000 0.008980 0.000000
# 4 0.000000 0.000000 0.000000 0.049779 0.000000 0.005964
# 5 0.004220 0.000619 0.008980 0.000000 0.043989 0.000000
# 6 0.000000 0.000000 0.000000 0.005964 0.000000 0.046029
#
#
# Mechanical properties :
#
#
# Convention : Reuss Voigt Hill
#
# Bulk Modulus (GPa) = 47.07641 62.76956 54.92298
# Shear Modulus (GPa) = 24.26533 28.82264 26.54399
#
# Velocity S-wave (km/s) = 3.71707 4.05112 3.88769
# Velocity P-wave (km/s) = 6.72513 7.59098 7.17114
#
# Compressibility (1/GPa) = 0.02124206
#
# Stress axis : x y z
#
# Youngs Moduli (GPa) = 86.47656 119.09944 49.38325
#
# Poissons Ratio (x) = 0.07917 0.20568
# Poissons Ratio (y) = 0.05748 0.22985
# Poissons Ratio (z) = 0.36017 0.55433
#
# Static dielectric constant tensor:
#      x y z
#    x 3.424870 0.000000 -0.077140 
#    y 0.000000 3.774860 0.000000 
#    z -0.077140 0.000000 3.049820 
# 
# 
# High freq. dielectric constant tensor:
#      x y z
#    x 1.694370 0.000000 -0.012100 
#    y 0.000000 1.693360 0.000000 
#    z -0.012100 0.000000 1.633380 
# 
# From -- ./inp_files/122148.got.cif
#   From: 2010.06.25/outbox.cif.g09.slc.cpg/sg12_62_cif.got.tgz:122148.got - 2010.06.28 00:19:55.
