data_PCOD8078478
_publ_section_title
;
Structure prediction by ZEFSAII (Michael W. Deem and Ramdas Pophale) SiO2 
 PCOD8078478
Probable space group: C 2/M
;
_chemical_formula_sum "Si O2"
_cell_formula_units_Z 64
_cell_length_a 28.120950
_cell_length_b 9.327906
_cell_length_c 16.441341
_cell_angle_alpha 90.000000
_cell_angle_beta 81.325967
_cell_angle_gamma 90.000000
_cell_volume 4263.393776
_symmetry_space_group_name_H-M "C 2/M"
_symmetry_group_IT_number 12
_symmetry_cell_setting 'monoclinic'
loop_
_space_group_symop_operation_xyz
x,y,z
-x,y,-z
-x,-y,-z
x,-y,z
1/2+x,1/2+y,z
1/2-x,1/2+y,-z
1/2-x,1/2-y,-z
1/2+x,1/2-y,z
loop_
_atom_site_type_symbol
_atom_site_label
_atom_site_fract_x
_atom_site_fract_y
_atom_site_fract_z
Si Si1 0.923930 0.337795 0.548756
Si Si2 0.184056 0.662026 0.174774
Si Si3 0.621160 0.332707 0.306260
Si Si4 0.042246 0.165330 0.052661
Si Si5 0.476841 0.161108 0.380756
Si Si6 0.138219 0.668823 0.012340
Si Si7 0.222956 0.166474 0.936816
Si Si8 0.476496 0.665374 0.760703
O O1 0.903972 0.500000 0.553266
O O2 0.885187 0.235181 0.602228
O O3 0.934701 0.285318 0.453283
O O4 0.973172 0.331182 0.585216
O O5 0.169963 0.500000 0.202251
O O6 0.167840 0.766720 0.250886
O O7 0.157281 0.703148 0.097803
O O8 0.242060 0.676400 0.150794
O O9 0.629346 0.500000 0.315173
O O10 0.575576 0.295025 0.261832
O O11 0.085106 0.269159 0.015249
O O12 0.022410 0.212378 0.145847
O O13 0.060072 0.000000 0.050704
O O14 0.000000 0.187429 0.000000
O O15 0.480430 0.255394 0.298368
O O16 0.465464 0.000000 0.356195
O O17 0.138921 0.500000 0.993073
O O18 0.171999 0.752599 0.937980
O O19 0.214740 0.000000 0.962948
O O20 0.250000 0.250000 0.000000
O O21 0.487696 0.500000 0.746596
#
# Coordination Sequence:
#
# PCOD8078478 Si02
#       8
#     8   8   8   8   8   8   8   8
#     4   8  14  24  35  50  73  99 129 159 191 234
#     4   9  17  27  39  57  79 106 134 162 198 240
#     4  10  17  23  36  56  78 104 133 165 199 231
#     4  10  20  33  46  59  79 108 140 175 215 252
#     4   8  14  24  38  52  68  97 130 160 195 236
#     4  10  19  30  44  60  78 103 135 173 213 247
#     4   9  17  28  42  60  80 103 134 167 203 245
#     4   9  17  27  38  55  74  98 132 170 207 239
#
# _framework density 15.011516
#
# number of rings (size 3 to 8) (size 9 to 14) (size 15 to 20)
#    0.000    2.875    1.250    2.625    0.000    4.250 
#    0.000    2.500    0.000    0.000    0.000    0.000 
#    0.000    0.000    0.000    1.125    0.000   13.500 
#
# Total GULP energy -396600.024408 kJ/mol
# GULP energy per Si atom -12393.750763 kJ/mol
# Density = 1.497735 g / cm^3
# Si number density = 15.011516 Si / 1000 Ang^3
#
#
#
# Elastic Constant Matrix: (Units=GPa)
#
#
# Indices 1 2 3 4 5 6 
#
# 1 58.1437 47.4877 44.0985 0.0000 -21.5430 0.0000
# 2 47.4877 94.9186 49.5508 0.0000 -25.4126 0.0000
# 3 44.0985 49.5508 79.2377 0.0000 -27.5712 0.0000
# 4 0.0000 0.0000 0.0000 24.1806 0.0000 -10.4344
# 5 -21.5430 -25.4126 -27.5712 0.0000 23.5658 0.0000
# 6 0.0000 0.0000 0.0000 -10.4344 0.0000 21.1724
#
#
#
# Elastic Compliance Matrix: (Units=1/GPa)
#
#
# Indices 1 2 3 4 5 6 
#
# 1 0.037925 -0.010441 -0.010848 0.000000 0.010719 0.000000
# 2 -0.010441 0.019780 -0.004145 0.000000 0.006935 0.000000
# 3 -0.010848 -0.004145 0.027397 0.000000 0.017667 0.000000
# 4 0.000000 0.000000 0.000000 0.052526 0.000000 0.025887
# 5 0.010719 0.006935 0.017667 0.000000 0.080382 0.000000
# 6 0.000000 0.000000 0.000000 0.025887 0.000000 0.059989
#
#
# Mechanical properties :
#
#
# Convention : Reuss Voigt Hill
#
# Bulk Modulus (GPa) = 29.21086 57.17488 43.19287
# Shear Modulus (GPa) = 14.69387 19.86128 17.27758
#
# Velocity S-wave (km/s) = 3.13204 3.64135 3.39625
# Velocity P-wave (km/s) = 5.70795 7.47324 6.64944
#
# Compressibility (1/GPa) = 0.03423384
#
# Stress axis : x y z
#
# Youngs Moduli (GPa) = 26.36761 50.55675 36.50084
#
# Poissons Ratio (x) = 0.52788 0.39594
# Poissons Ratio (y) = 0.27531 0.15130
# Poissons Ratio (z) = 0.28602 0.20956
#
# Static dielectric constant tensor:
#      x y z
#    x 2.770750 0.000000 -0.476580 
#    y 0.000000 3.006360 0.000000 
#    z -0.476580 0.000000 2.949260 
# 
# 
# High freq. dielectric constant tensor:
#      x y z
#    x 1.531600 0.000000 -0.045620 
#    y 0.000000 1.585010 0.000000 
#    z -0.045620 0.000000 1.550380 
# 
# From -- ./inp_files/248384.got.cif
#   From: 2010.06.25/outbox.cif.g09.slc.cpg/sg12_125_cif.got.tgz:248384.got - 2010.06.28 00:19:55.
