data_PCOD8078735
_publ_section_title
;
Structure prediction by ZEFSAII (Michael W. Deem and Ramdas Pophale) SiO2 
 PCOD8078735
Probable space group: C 2/M
;
_chemical_formula_sum "Si O2"
_cell_formula_units_Z 40
_cell_length_a 20.909639
_cell_length_b 9.290391
_cell_length_c 14.224538
_cell_angle_alpha 90.000000
_cell_angle_beta 120.429575
_cell_angle_gamma 90.000000
_cell_volume 2382.610675
_symmetry_space_group_name_H-M "C 2/M"
_symmetry_group_IT_number 12
_symmetry_cell_setting 'monoclinic'
loop_
_space_group_symop_operation_xyz
x,y,z
-x,y,-z
-x,-y,-z
x,-y,z
1/2+x,1/2+y,z
1/2-x,1/2+y,-z
1/2-x,1/2-y,-z
1/2+x,1/2-y,z
loop_
_atom_site_type_symbol
_atom_site_label
_atom_site_fract_x
_atom_site_fract_y
_atom_site_fract_z
Si Si1 0.519796 0.331673 0.722424
Si Si2 0.068956 0.340684 0.481027
Si Si3 0.949762 0.831276 0.044700
Si Si4 0.351663 0.833365 0.283510
Si Si5 0.284725 0.667547 0.939145
O O1 0.523695 0.500000 0.704110
O O2 0.446850 0.267916 0.616387
O O3 0.512025 0.298164 0.826985
O O4 0.595786 0.261881 0.743130
O O5 0.081808 0.500000 0.448282
O O6 0.138865 0.292459 0.598475
O O7 0.000000 0.339926 0.500000
O O8 0.943843 0.000000 0.022039
O O9 0.866179 0.768276 0.978063
O O10 0.000000 0.760012 0.000000
O O11 0.266504 0.808212 0.190889
O O12 0.375399 0.000000 0.286887
O O13 0.289602 0.500000 0.970596
O O14 0.250000 0.750000 0.000000
#
# Coordination Sequence:
#
# PCOD8078735 Si02
#       5
#     8   8   8   8   8
#     4  10  17  26  44  68  90 117 152 189 226 263
#     4   8  15  27  41  61  90 121 148 181 225 272
#     4   9  18  31  46  67  95 124 154 187 227 277
#     4   9  17  28  44  66  92 119 148 183 229 276
#     4  10  18  30  49  70  92 120 153 192 232 269
#
# _framework density 16.788308000000001
#
# number of rings (size 3 to 8) (size 9 to 14) (size 15 to 20)
#    0.000    2.800    2.000    1.800    0.000    3.600 
#    0.000    0.000    0.000    6.600    0.000    0.000 
#    0.000    0.000    0.000    0.000    0.000    2.000 
#
# Total GULP energy -247868.506551 kJ/mol
# GULP energy per Si atom -12393.425328 kJ/mol
# Density = 1.675010 g / cm^3
# Si number density = 16.788308 Si / 1000 Ang^3
#
#
#
# Elastic Constant Matrix: (Units=GPa)
#
#
# Indices 1 2 3 4 5 6 
#
# 1 92.7555 29.3701 63.7810 0.0000 -0.1736 0.0000
# 2 29.3701 58.8072 48.9147 0.0000 -3.1913 0.0000
# 3 63.7810 48.9147 152.8227 0.0000 9.6875 0.0000
# 4 0.0000 0.0000 0.0000 26.1729 0.0000 0.9604
# 5 -0.1736 -3.1913 9.6875 0.0000 19.6814 0.0000
# 6 0.0000 0.0000 0.0000 0.9604 0.0000 10.5805
#
#
#
# Elastic Compliance Matrix: (Units=1/GPa)
#
#
# Indices 1 2 3 4 5 6 
#
# 1 0.015671 -0.002886 -0.005776 0.000000 0.002513 0.000000
# 2 -0.002886 0.024877 -0.007238 0.000000 0.007571 0.000000
# 3 -0.005776 -0.007238 0.011714 0.000000 -0.006990 0.000000
# 4 0.000000 0.000000 0.000000 0.038335 0.000000 -0.003480
# 5 0.002513 0.007571 -0.006990 0.000000 0.055500 0.000000
# 6 0.000000 0.000000 0.000000 -0.003480 0.000000 0.094829
#
#
# Mechanical properties :
#
#
# Convention : Reuss Voigt Hill
#
# Bulk Modulus (GPa) = 48.86968 65.39075 57.13022
# Shear Modulus (GPa) = 17.88602 22.10828 19.99715
#
# Velocity S-wave (km/s) = 3.26757 3.63283 3.45503
# Velocity P-wave (km/s) = 6.58851 7.52538 7.07248
#
# Compressibility (1/GPa) = 0.02046259
#
# Stress axis : x y z
#
# Youngs Moduli (GPa) = 63.81084 40.19706 85.36744
#
# Poissons Ratio (x) = 0.11600 0.49309
# Poissons Ratio (y) = 0.18415 0.61790
# Poissons Ratio (z) = 0.36858 0.29095
#
# Static dielectric constant tensor:
#      x y z
#    x 2.954390 0.000000 0.238010 
#    y 0.000000 3.039310 0.000000 
#    z 0.238010 0.000000 3.805410 
# 
# 
# High freq. dielectric constant tensor:
#      x y z
#    x 1.593630 0.000000 0.013460 
#    y 0.000000 1.629890 0.000000 
#    z 0.013460 0.000000 1.671240 
# 
# From -- ./inp_files/180308.got.cif
#   From: 2010.06.25/outbox.cif.g09.slc.cpg/sg12_91_cif.got.tgz:180308.got - 2010.06.28 00:19:55.
