data_PCOD8078380
_publ_section_title
;
Structure prediction by ZEFSAII (Michael W. Deem and Ramdas Pophale) SiO2 
 PCOD8078380
Probable space group: C 2/M
;
_chemical_formula_sum "Si O2"
_cell_formula_units_Z 44
_cell_length_a 27.405083
_cell_length_b 11.930317
_cell_length_c 13.162114
_cell_angle_alpha 90.000000
_cell_angle_beta 30.626688
_cell_angle_gamma 90.000000
_cell_volume 2192.318990
_symmetry_space_group_name_H-M "C 2/M"
_symmetry_group_IT_number 12
_symmetry_cell_setting 'monoclinic'
loop_
_space_group_symop_operation_xyz
x,y,z
-x,y,-z
-x,-y,-z
x,-y,z
1/2+x,1/2+y,z
1/2-x,1/2+y,-z
1/2-x,1/2-y,-z
1/2+x,1/2-y,z
loop_
_atom_site_type_symbol
_atom_site_label
_atom_site_fract_x
_atom_site_fract_y
_atom_site_fract_z
Si Si1 0.888918 0.500000 0.225229
Si Si2 0.444392 0.000000 0.704962
Si Si3 0.292499 0.125116 0.235550
Si Si4 0.407588 0.776516 0.853420
Si Si5 0.867652 0.258284 0.553522
Si Si6 0.886414 0.874180 0.716307
Si Si7 0.124054 0.500000 0.512455
O O1 0.840129 0.611231 0.261983
O O2 0.868062 0.500000 0.380725
O O3 0.000000 0.500000 0.000000
O O4 0.500000 0.000000 0.500000
O O5 0.385980 0.115253 0.819438
O O6 0.512782 0.000000 0.681500
O O7 0.187720 0.182447 0.431057
O O8 0.285195 0.000000 0.198860
O O9 0.356949 0.208357 0.051938
O O10 0.520015 0.755199 0.672272
O O11 0.362213 0.673312 0.871859
O O12 0.840793 0.204934 0.711095
O O13 0.828860 0.386885 0.618089
O O14 0.000000 0.872453 0.500000
O O15 0.845344 0.000000 0.780641
#
# Coordination Sequence:
#
# PCOD8078380 Si02
#       7
#     4   4   8   8   8   8   4
#     4  10  20  38  62  89 114 144 199 252 296 344
#     4  10  16  30  56  86 112 143 195 238 287 345
#     4  10  22  38  59  87 114 154 196 245 292 347
#     4  10  18  34  57  84 118 159 194 238 298 342
#     4  10  20  36  57  85 119 152 198 244 289 353
#     4   9  18  32  53  83 120 160 194 233 292 354
#     4  10  20  34  56  83 115 151 187 242 299 331
#
# _framework density 20.070073000000001
#
# number of rings (size 3 to 8) (size 9 to 14) (size 15 to 20)
#    0.545    1.636    0.909    5.455    0.000    2.182 
#    1.636    0.000    0.000    0.000    0.000    1.909 
#    0.000    0.000    0.000    0.000    0.000    0.000 
#
# Total GULP energy -272596.929072 kJ/mol
# GULP energy per Si atom -12390.769503 kJ/mol
# Density = 2.002439 g / cm^3
# Si number density = 20.070073 Si / 1000 Ang^3
#
#
#
# Elastic Constant Matrix: (Units=GPa)
#
#
# Indices 1 2 3 4 5 6 
#
# 1 124.1015 71.9798 23.4532 0.0000 11.9821 0.0000
# 2 71.9798 146.9863 35.6438 0.0000 5.2778 0.0000
# 3 23.4532 35.6438 42.0763 0.0000 6.0974 0.0000
# 4 0.0000 0.0000 0.0000 20.3775 0.0000 -1.9185
# 5 11.9821 5.2778 6.0974 0.0000 31.9044 0.0000
# 6 0.0000 0.0000 0.0000 -1.9185 0.0000 39.2995
#
#
#
# Elastic Compliance Matrix: (Units=1/GPa)
#
#
# Indices 1 2 3 4 5 6 
#
# 1 0.011706 -0.005220 -0.001636 0.000000 -0.003220 0.000000
# 2 -0.005220 0.010890 -0.006519 0.000000 0.001405 0.000000
# 3 -0.001636 -0.006519 0.030809 0.000000 -0.004195 0.000000
# 4 0.000000 0.000000 0.000000 0.049300 0.000000 0.002407
# 5 -0.003220 0.001405 -0.004195 0.000000 0.033122 0.000000
# 6 0.000000 0.000000 0.000000 0.002407 0.000000 0.025563
#
#
# Mechanical properties :
#
#
# Convention : Reuss Voigt Hill
#
# Bulk Modulus (GPa) = 37.51791 63.92419 50.72105
# Shear Modulus (GPa) = 25.37746 30.45545 27.91646
#
# Velocity S-wave (km/s) = 3.55976 3.89968 3.73359
# Velocity P-wave (km/s) = 5.96908 7.22470 6.62670
#
# Compressibility (1/GPa) = 0.02665394
#
# Stress axis : x y z
#
# Youngs Moduli (GPa) = 85.42923 91.82730 32.45826
#
# Poissons Ratio (x) = 0.47933 0.05311
# Poissons Ratio (y) = 0.44593 0.21160
# Poissons Ratio (z) = 0.13977 0.59864
#
# Static dielectric constant tensor:
#      x y z
#    x 3.644210 0.000000 -0.155570 
#    y 0.000000 4.033070 0.000000 
#    z -0.155570 0.000000 3.241230 
# 
# 
# High freq. dielectric constant tensor:
#      x y z
#    x 1.773640 0.000000 -0.012960 
#    y 0.000000 1.787650 0.000000 
#    z -0.012960 0.000000 1.749190 
# 
# From -- ./inp_files/250493.got.cif
#   From: 2010.06.25/outbox.cif.g09.slc.cpg/sg12_126_cif.got.tgz:250493.got - 2010.06.28 00:19:55.
