data_PCOD8078374
_publ_section_title
;
Structure prediction by ZEFSAII (Michael W. Deem and Ramdas Pophale) SiO2 
 PCOD8078374
Probable space group: C 2/M
;
_chemical_formula_sum "Si O2"
_cell_formula_units_Z 56
_cell_length_a 9.937195
_cell_length_b 18.869217
_cell_length_c 18.491635
_cell_angle_alpha 90.000000
_cell_angle_beta 74.874768
_cell_angle_gamma 90.000000
_cell_volume 3347.197363
_symmetry_space_group_name_H-M "C 2/M"
_symmetry_group_IT_number 12
_symmetry_cell_setting 'monoclinic'
loop_
_space_group_symop_operation_xyz
x,y,z
-x,y,-z
-x,-y,-z
x,-y,z
1/2+x,1/2+y,z
1/2-x,1/2+y,-z
1/2-x,1/2-y,-z
1/2+x,1/2-y,z
loop_
_atom_site_type_symbol
_atom_site_label
_atom_site_fract_x
_atom_site_fract_y
_atom_site_fract_z
Si Si1 0.684322 0.684367 0.194267
Si Si2 0.873812 0.195547 0.190991
Si Si3 0.346861 0.673541 0.551461
Si Si4 0.851972 0.734492 0.050680
Si Si5 0.697500 0.581157 0.689015
Si Si6 0.890136 0.080285 0.680796
Si Si7 0.845015 0.664761 0.549562
O O1 0.764393 0.743455 0.232286
O O2 0.529151 0.713024 0.197583
O O3 0.677611 0.609770 0.236022
O O4 0.776302 0.672716 0.108413
O O5 0.820676 0.121035 0.231384
O O6 0.872758 0.197211 0.102277
O O7 0.500000 0.670396 0.500000
O O8 0.330070 0.625986 0.624174
O O9 0.248958 0.640078 0.504204
O O10 0.306673 0.754435 0.576219
O O11 0.750000 0.750000 0.000000
O O12 0.000000 0.707792 0.000000
O O13 0.736045 0.500000 0.701140
O O14 0.556762 0.586672 0.661730
O O15 0.818637 0.616193 0.623545
O O16 0.841008 0.000000 0.677767
O O17 0.000000 0.655265 0.500000
#
# Coordination Sequence:
#
# PCOD8078374 Si02
#       7
#     8   8   8   8   8   8   8
#     4   9  18  32  53  80 103 133 167 212 254 306
#     4   9  18  32  54  80 102 132 167 216 252 304
#     4  10  19  35  54  76 100 133 177 220 260 297
#     4  10  16  30  52  83 104 126 166 214 253 299
#     4  10  20  35  53  74 107 141 173 210 257 311
#     4  10  20  34  54  76 103 138 180 215 248 306
#     4  10  21  35  53  77 103 135 173 224 265 299
#
# _framework density 16.730414
#
# number of rings (size 3 to 8) (size 9 to 14) (size 15 to 20)
#    0.857    1.429    2.857    0.857    0.000    1.143 
#    2.571    0.000    0.000    1.714    0.000    0.000 
#    0.000    0.000    0.000    0.000    0.000    0.000 
#
# Total GULP energy -346936.513829 kJ/mol
# GULP energy per Si atom -12390.589780 kJ/mol
# Density = 1.669234 g / cm^3
# Si number density = 16.730414 Si / 1000 Ang^3
#
#
#
# Elastic Constant Matrix: (Units=GPa)
#
#
# Indices 1 2 3 4 5 6 
#
# 1 84.0596 29.9007 34.0531 0.0000 2.1378 0.0000
# 2 29.9007 91.9117 54.3247 0.0000 -0.7630 0.0000
# 3 34.0531 54.3247 107.0222 0.0000 -0.4390 0.0000
# 4 0.0000 0.0000 0.0000 13.6897 0.0000 -1.9108
# 5 2.1378 -0.7630 -0.4390 0.0000 27.1619 0.0000
# 6 0.0000 0.0000 0.0000 -1.9108 0.0000 19.0772
#
#
#
# Elastic Compliance Matrix: (Units=1/GPa)
#
#
# Indices 1 2 3 4 5 6 
#
# 1 0.014176 -0.002790 -0.003099 0.000000 -0.001244 0.000000
# 2 -0.002790 0.016095 -0.007280 0.000000 0.000554 0.000000
# 3 -0.003099 -0.007280 0.014026 0.000000 0.000266 0.000000
# 4 0.000000 0.000000 0.000000 0.074083 0.000000 0.007420
# 5 -0.001244 0.000554 0.000266 0.000000 0.036934 0.000000
# 6 0.000000 0.000000 0.000000 0.007420 0.000000 0.053162
#
#
# Mechanical properties :
#
#
# Convention : Reuss Voigt Hill
#
# Bulk Modulus (GPa) = 55.68338 57.72781 56.70560
# Shear Modulus (GPa) = 20.76394 22.96674 21.86534
#
# Velocity S-wave (km/s) = 3.52673 3.70909 3.61906
# Velocity P-wave (km/s) = 7.06674 7.27480 7.17152
#
# Compressibility (1/GPa) = 0.01795868
#
# Stress axis : x y z
#
# Youngs Moduli (GPa) = 70.54150 62.13083 71.29401
#
# Poissons Ratio (x) = 0.17335 0.22097
# Poissons Ratio (y) = 0.19682 0.51901
# Poissons Ratio (z) = 0.21864 0.45230
#
# Static dielectric constant tensor:
#      x y z
#    x 3.205920 0.000000 -0.098950 
#    y 0.000000 2.967740 0.000000 
#    z -0.098950 0.000000 3.206270 
# 
# 
# High freq. dielectric constant tensor:
#      x y z
#    x 1.648430 0.000000 -0.002090 
#    y 0.000000 1.612060 0.000000 
#    z -0.002090 0.000000 1.647760 
# 
# From -- ./inp_files/263814.got.cif
#   From: 2010.06.25/outbox.cif.g09.slc.cpg/sg12_132_cif.got.tgz:263814.got - 2010.06.28 00:19:55.
