data_PCOD8078191
_publ_section_title
;
Structure prediction by ZEFSAII (Michael W. Deem and Ramdas Pophale) SiO2 
 PCOD8078191
Probable space group: C 2/M
;
_chemical_formula_sum "Si O2"
_cell_formula_units_Z 60
_cell_length_a 22.424440
_cell_length_b 14.221708
_cell_length_c 12.647684
_cell_angle_alpha 90.000000
_cell_angle_beta 83.178955
_cell_angle_gamma 90.000000
_cell_volume 4004.971980
_symmetry_space_group_name_H-M "C 2/M"
_symmetry_group_IT_number 12
_symmetry_cell_setting 'monoclinic'
loop_
_space_group_symop_operation_xyz
x,y,z
-x,y,-z
-x,-y,-z
x,-y,z
1/2+x,1/2+y,z
1/2-x,1/2+y,-z
1/2-x,1/2-y,-z
1/2+x,1/2-y,z
loop_
_atom_site_type_symbol
_atom_site_label
_atom_site_fract_x
_atom_site_fract_y
_atom_site_fract_z
Si Si1 0.016318 0.109107 0.384021
Si Si2 0.500000 0.713576 0.000000
Si Si3 0.437084 0.612086 0.205172
Si Si4 0.616660 0.756349 0.064269
Si Si5 0.736763 0.105580 0.830349
Si Si6 0.371013 0.393775 0.765333
Si Si7 0.781489 0.607775 0.921942
Si Si8 0.322554 0.708396 0.159833
O O1 0.087475 0.125356 0.346316
O O2 0.000000 0.157754 0.500000
O O3 0.974373 0.149223 0.298829
O O4 0.000998 0.000000 0.395073
O O5 0.529267 0.645728 0.906796
O O6 0.449936 0.783996 0.961973
O O7 0.430656 0.500000 0.203240
O O8 0.370036 0.657664 0.226979
O O9 0.605805 0.676754 0.152293
O O10 0.652443 0.845999 0.100705
O O11 0.652697 0.708233 0.963052
O O12 0.800262 0.119744 0.757066
O O13 0.690694 0.184545 0.796549
O O14 0.711367 0.000000 0.814782
O O15 0.746204 0.121974 0.954412
O O16 0.382622 0.500000 0.804133
O O17 0.790059 0.500000 0.892171
O O18 0.740007 0.652098 0.838848
#
# Coordination Sequence:
#
# PCOD8078191 Si02
#       8
#     8   4   8   8   8   8   8   8
#     4   9  18  31  44  62  88 116 144 174 215 262
#     4  10  19  26  41  62  92 112 143 184 217 250
#     4  10  19  27  41  65  91 118 140 171 218 262
#     4  10  17  27  38  61  87 117 143 176 213 253
#     4   9  16  26  41  62  86 117 151 175 205 251
#     4  10  16  25  44  64  81 109 144 177 210 250
#     4  10  17  26  39  57  88 124 149 171 206 258
#     4  10  17  26  39  63  92 116 140 176 212 255
#
# _framework density 14.981377999999999
#
# number of rings (size 3 to 8) (size 9 to 14) (size 15 to 20)
#    0.000    2.267    4.000    1.400    0.000    2.133 
#    0.000    0.333    0.000    1.600    0.000    0.000 
#    0.000    1.067    0.000    0.000    0.000    0.000 
#
# Total GULP energy -371739.740545 kJ/mol
# GULP energy per Si atom -12391.324685 kJ/mol
# Density = 1.494728 g / cm^3
# Si number density = 14.981378 Si / 1000 Ang^3
#
#
#
# Elastic Constant Matrix: (Units=GPa)
#
#
# Indices 1 2 3 4 5 6 
#
# 1 109.9882 51.4226 35.4366 0.0000 1.7268 0.0000
# 2 51.4226 69.6419 24.5831 0.0000 -0.5461 0.0000
# 3 35.4366 24.5831 57.5514 0.0000 -5.2043 0.0000
# 4 0.0000 0.0000 0.0000 6.5701 0.0000 1.5484
# 5 1.7268 -0.5461 -5.2043 0.0000 17.3065 0.0000
# 6 0.0000 0.0000 0.0000 1.5484 0.0000 23.4635
#
#
#
# Elastic Compliance Matrix: (Units=1/GPa)
#
#
# Indices 1 2 3 4 5 6 
#
# 1 0.015385 -0.009338 -0.005808 0.000000 -0.003576 0.000000
# 2 -0.009338 0.022624 -0.003871 0.000000 0.000482 0.000000
# 3 -0.005808 -0.003871 0.023280 0.000000 0.007458 0.000000
# 4 0.000000 0.000000 0.000000 0.154610 0.000000 -0.010203
# 5 -0.003576 0.000482 0.007458 0.000000 0.060397 0.000000
# 6 0.000000 0.000000 0.000000 -0.010203 0.000000 0.043293
#
#
# Mechanical properties :
#
#
# Convention : Reuss Voigt Hill
#
# Bulk Modulus (GPa) = 42.99961 51.11845 47.05903
# Shear Modulus (GPa) = 13.68465 17.85063 15.76764
#
# Velocity S-wave (km/s) = 3.02560 3.45559 3.24772
# Velocity P-wave (km/s) = 6.40079 7.07932 6.74859
#
# Compressibility (1/GPa) = 0.02325602
#
# Stress axis : x y z
#
# Youngs Moduli (GPa) = 64.99835 44.20022 42.95601
#
# Poissons Ratio (x) = 0.41274 0.24948
# Poissons Ratio (y) = 0.60696 0.16627
# Poissons Ratio (z) = 0.37750 0.17108
#
# Static dielectric constant tensor:
#      x y z
#    x 3.178460 0.000000 -0.003070 
#    y 0.000000 2.815290 0.000000 
#    z -0.003070 0.000000 2.677130 
# 
# 
# High freq. dielectric constant tensor:
#      x y z
#    x 1.583320 0.000000 -0.004100 
#    y 0.000000 1.555140 0.000000 
#    z -0.004100 0.000000 1.522710 
# 
# From -- ./inp_files/166730.got.cif
#   From: 2010.06.25/outbox.cif.g09.slc.cpg/sg12_84_cif.got.tgz:166730.got - 2010.06.28 00:19:55.
