data_PCOD8078120
_publ_section_title
;
Structure prediction by ZEFSAII (Michael W. Deem and Ramdas Pophale) SiO2 
 PCOD8078120
Probable space group: C 2/M
;
_chemical_formula_sum "Si O2"
_cell_formula_units_Z 64
_cell_length_a 18.256144
_cell_length_b 8.904504
_cell_length_c 21.420719
_cell_angle_alpha 90.000000
_cell_angle_beta 101.248425
_cell_angle_gamma 90.000000
_cell_volume 3415.302248
_symmetry_space_group_name_H-M "C 2/M"
_symmetry_group_IT_number 12
_symmetry_cell_setting 'monoclinic'
loop_
_space_group_symop_operation_xyz
x,y,z
-x,y,-z
-x,-y,-z
x,-y,z
1/2+x,1/2+y,z
1/2-x,1/2+y,-z
1/2-x,1/2-y,-z
1/2+x,1/2-y,z
loop_
_atom_site_type_symbol
_atom_site_label
_atom_site_fract_x
_atom_site_fract_y
_atom_site_fract_z
Si Si1 0.591575 0.678148 0.058195
Si Si2 0.997032 0.322710 0.319358
Si Si3 0.136210 0.166772 0.195097
Si Si4 0.960911 0.170443 0.191732
Si Si5 0.934249 0.321365 0.065348
Si Si6 0.223233 0.176846 0.558778
Si Si7 0.056029 0.174526 0.564873
Si Si8 0.663533 0.823630 0.319497
O O1 0.574632 0.500000 0.050575
O O2 0.651068 0.708448 0.124433
O O3 0.517203 0.768965 0.062627
O O4 0.620227 0.745708 0.996592
O O5 0.992459 0.500000 0.310537
O O6 0.947534 0.247770 0.256549
O O7 0.964489 0.275255 0.379912
O O8 0.082733 0.265583 0.329147
O O9 0.179495 0.272927 0.250837
O O10 0.047807 0.178335 0.189910
O O11 0.165029 0.000000 0.214021
O O12 0.913865 0.259529 0.130928
O O13 0.931849 0.000000 0.189671
O O14 0.926565 0.500000 0.062920
O O15 0.250000 0.250000 0.500000
O O16 0.138094 0.221576 0.556615
O O17 0.273456 0.241591 0.623871
O O18 0.233384 0.000000 0.553991
O O19 0.000000 0.213729 0.500000
O O20 0.051439 0.000000 0.582983
O O21 0.666944 0.000000 0.320625
#
# Coordination Sequence:
#
# PCOD8078120 Si02
#       8
#     8   8   8   8   8   8   8   8
#     4   9  15  23  33  49  78 117 157 194 236 285
#     4  10  19  31  49  72  96 123 158 199 242 285
#     4   8  15  25  39  59  83 116 157 195 232 281
#     4   9  16  27  41  58  85 121 157 193 236 285
#     4  10  16  21  32  53  81 115 156 198 238 280
#     4  10  21  36  53  74  98 125 158 194 235 282
#     4  10  21  36  53  73  98 128 160 193 232 283
#     4   9  18  31  47  68  95 124 155 196 242 285
#
# _framework density 18.739191000000002
#
# number of rings (size 3 to 8) (size 9 to 14) (size 15 to 20)
#    0.000    2.625    0.000    4.500    0.000    5.250 
#    0.000    0.000    0.000    0.000    0.000    0.000 
#    0.000    1.000    0.000    3.000    0.000    8.875 
#
# Total GULP energy -396605.229086 kJ/mol
# GULP energy per Si atom -12393.913409 kJ/mol
# Density = 1.869654 g / cm^3
# Si number density = 18.739191 Si / 1000 Ang^3
#
#
#
# Elastic Constant Matrix: (Units=GPa)
#
#
# Indices 1 2 3 4 5 6 
#
# 1 55.2182 26.7851 51.9225 0.0000 7.4274 0.0000
# 2 26.7851 78.9328 60.3902 0.0000 2.4197 0.0000
# 3 51.9225 60.3902 186.5142 0.0000 19.5592 0.0000
# 4 0.0000 0.0000 0.0000 41.3448 0.0000 0.0564
# 5 7.4274 2.4197 19.5592 0.0000 16.1731 0.0000
# 6 0.0000 0.0000 0.0000 0.0564 0.0000 10.5397
#
#
#
# Elastic Compliance Matrix: (Units=1/GPa)
#
#
# Indices 1 2 3 4 5 6 
#
# 1 0.025916 -0.004678 -0.005182 0.000000 -0.004934 0.000000
# 2 -0.004678 0.017999 -0.005117 0.000000 0.005644 0.000000
# 3 -0.005182 -0.005117 0.009312 0.000000 -0.008116 0.000000
# 4 0.000000 0.000000 0.000000 0.024187 0.000000 -0.000129
# 5 -0.004934 0.005644 -0.008116 0.000000 0.073069 0.000000
# 6 0.000000 0.000000 0.000000 -0.000129 0.000000 0.094880
#
#
# Mechanical properties :
#
#
# Convention : Reuss Voigt Hill
#
# Bulk Modulus (GPa) = 42.97133 66.54008 54.75571
# Shear Modulus (GPa) = 17.66314 25.71599 21.68956
#
# Velocity S-wave (km/s) = 3.07347 3.70849 3.40581
# Velocity P-wave (km/s) = 5.96456 7.34321 6.68950
#
# Compressibility (1/GPa) = 0.02327133
#
# Stress axis : x y z
#
# Youngs Moduli (GPa) = 38.58604 55.56007 107.38554
#
# Poissons Ratio (x) = 0.25992 0.55652
# Poissons Ratio (y) = 0.18051 0.54951
# Poissons Ratio (z) = 0.19997 0.28431
#
# Static dielectric constant tensor:
#      x y z
#    x 2.995330 0.000000 0.302830 
#    y 0.000000 3.389570 0.000000 
#    z 0.302830 0.000000 4.171960 
# 
# 
# High freq. dielectric constant tensor:
#      x y z
#    x 1.655920 0.000000 0.014250 
#    y 0.000000 1.728420 0.000000 
#    z 0.014250 0.000000 1.757420 
# 
# From -- ./inp_files/314197.got.cif
#   From: 2010.06.25/outbox.cif.g09.slc.cpg/sg12_158_cif.got.tgz:314197.got - 2010.06.28 00:19:55.
