data_PCOD8078389
_publ_section_title
;
Structure prediction by ZEFSAII (Michael W. Deem and Ramdas Pophale) SiO2 
 PCOD8078389
Probable space group: C 2/M
;
_chemical_formula_sum "Si O2"
_cell_formula_units_Z 56
_cell_length_a 17.915311
_cell_length_b 19.354254
_cell_length_c 26.122266
_cell_angle_alpha 90.000000
_cell_angle_beta 158.237596
_cell_angle_gamma 90.000000
_cell_volume 3358.170642
_symmetry_space_group_name_H-M "C 2/M"
_symmetry_group_IT_number 12
_symmetry_cell_setting 'monoclinic'
loop_
_space_group_symop_operation_xyz
x,y,z
-x,y,-z
-x,-y,-z
x,-y,z
1/2+x,1/2+y,z
1/2-x,1/2+y,-z
1/2-x,1/2-y,-z
1/2+x,1/2-y,z
loop_
_atom_site_type_symbol
_atom_site_label
_atom_site_fract_x
_atom_site_fract_y
_atom_site_fract_z
Si Si1 0.529319 0.777758 0.865518
Si Si2 0.763578 0.880845 0.442298
Si Si3 0.159681 0.280435 0.145138
Si Si4 0.828672 0.739515 0.431395
Si Si5 0.910596 0.425199 0.771293
Si Si6 0.924913 0.699193 0.594949
Si Si7 0.315181 0.424353 0.271302
O O1 0.436535 0.761232 0.861568
O O2 0.391385 0.740426 0.734637
O O3 0.555441 0.859908 0.872257
O O4 0.750000 0.750000 0.000000
O O5 0.864774 0.812149 0.482819
O O6 0.668413 0.926324 0.336919
O O7 0.593027 0.865455 0.377257
O O8 0.945260 0.921941 0.584437
O O9 0.355775 0.233622 0.260748
O O10 0.208704 0.362315 0.172553
O O11 0.000000 0.261433 0.000000
O O12 0.865692 0.680042 0.498189
O O13 0.000000 0.727532 0.500000
O O14 0.019138 0.500000 0.849347
O O15 0.727837 0.416839 0.695229
O O16 0.750000 0.750000 0.500000
O O17 0.239606 0.500000 0.203289
#
# Coordination Sequence:
#
# PCOD8078389 Si02
#       7
#     8   8   8   8   8   8   8
#     4  10  21  32  51  77 103 137 178 219 256 310
#     4  10  17  26  49  75 100 128 168 211 258 305
#     4  11  22  33  47  72 109 141 170 215 264 311
#     4  10  16  31  49  67 101 129 170 211 259 302
#     4   9  18  31  49  74 107 138 170 214 263 313
#     4  10  19  31  49  72 101 140 167 210 264 303
#     4  10  18  31  48  72 102 142 175 202 254 322
#
# _framework density 16.675746
#
# number of rings (size 3 to 8) (size 9 to 14) (size 15 to 20)
#    0.000    2.000    4.286    2.571    6.000    1.429 
#    0.000    0.000    0.000    0.000    0.000    3.000 
#    0.000    2.857    0.000    0.000    0.000    0.000 
#
# Total GULP energy -346897.531642 kJ/mol
# GULP energy per Si atom -12389.197559 kJ/mol
# Density = 1.663779 g / cm^3
# Si number density = 16.675746 Si / 1000 Ang^3
#
#
#
# Elastic Constant Matrix: (Units=GPa)
#
#
# Indices 1 2 3 4 5 6 
#
# 1 92.3150 29.0499 42.5353 0.0231 0.9180 0.0014
# 2 29.0499 56.7605 36.8634 0.0129 8.7097 0.0015
# 3 42.5353 36.8634 115.6509 -0.0262 4.5194 0.0097
# 4 0.0231 0.0129 -0.0262 15.1619 0.0072 0.7584
# 5 0.9180 8.7097 4.5194 0.0072 30.3792 0.0019
# 6 0.0014 0.0015 0.0097 0.7584 0.0019 18.3337
#
#
#
# Elastic Compliance Matrix: (Units=1/GPa)
#
#
# Indices 1 2 3 4 5 6 
#
# 1 0.014089 -0.005104 -0.003617 -0.000024 0.001576 0.000002
# 2 -0.005104 0.024964 -0.005841 -0.000021 -0.006134 0.000003
# 3 -0.003617 -0.005841 0.011838 0.000031 0.000023 -0.000007
# 4 -0.000024 -0.000021 0.000031 0.066092 -0.000013 -0.002734
# 5 0.001576 -0.006134 0.000023 -0.000013 0.034625 -0.000003
# 6 0.000002 0.000003 -0.000007 -0.002734 -0.000003 0.054658
#
#
# Mechanical properties :
#
#
# Convention : Reuss Voigt Hill
#
# Bulk Modulus (GPa) = 45.93591 53.51375 49.72483
# Shear Modulus (GPa) = 20.60632 23.19347 21.89989
#
# Velocity S-wave (km/s) = 3.51907 3.73346 3.62785
# Velocity P-wave (km/s) = 6.64215 7.12358 6.88707
#
# Compressibility (1/GPa) = 0.02176946
#
# Stress axis : x y z
#
# Youngs Moduli (GPa) = 70.97584 40.05700 84.47610
#
# Poissons Ratio (x) = 0.20444 0.30552
# Poissons Ratio (y) = 0.36224 0.49339
# Poissons Ratio (z) = 0.25670 0.23395
#
# Static dielectric constant tensor:
#      x y z
#    x 4.029580 -0.000190 -0.198410 
#    y -0.000190 3.178250 -0.000590 
#    z -0.198410 -0.000590 3.215210 
# 
# 
# High freq. dielectric constant tensor:
#      x y z
#    x 1.648480 0.000000 -0.007400 
#    y 0.000000 1.607540 -0.000010 
#    z -0.007400 -0.000010 1.625860 
# 
# From -- ./inp_files/158237.got.cif
#   From: 2010.06.25/outbox.cif.g09.slc.cpg/sg12_80_cif.got.tgz:158237.got - 2010.06.28 00:19:55.
