data_PCOD8078914
_publ_section_title
;
Structure prediction by ZEFSAII (Michael W. Deem and Ramdas Pophale) SiO2 
 PCOD8078914
Probable space group: C 2/M
;
_chemical_formula_sum "Si O2"
_cell_formula_units_Z 64
_cell_length_a 24.473176
_cell_length_b 17.424304
_cell_length_c 25.667431
_cell_angle_alpha 90.000000
_cell_angle_beta 158.226762
_cell_angle_gamma 90.000000
_cell_volume 4059.989885
_symmetry_space_group_name_H-M "C 2/M"
_symmetry_group_IT_number 12
_symmetry_cell_setting 'monoclinic'
loop_
_space_group_symop_operation_xyz
x,y,z
-x,y,-z
-x,-y,-z
x,-y,z
1/2+x,1/2+y,z
1/2-x,1/2+y,-z
1/2-x,1/2-y,-z
1/2+x,1/2-y,z
loop_
_atom_site_type_symbol
_atom_site_label
_atom_site_fract_x
_atom_site_fract_y
_atom_site_fract_z
Si Si1 0.624519 0.772069 0.821712
Si Si2 0.704747 0.915297 0.946182
Si Si3 0.119262 0.762011 0.307758
Si Si4 0.574601 0.321710 0.413753
Si Si5 0.367699 0.088025 0.921332
Si Si6 0.541184 0.412555 0.279090
Si Si7 0.403606 0.172735 0.059988
Si Si8 0.457711 0.589040 0.404897
O O1 0.671357 0.861097 0.866598
O O2 0.497211 0.755627 0.750340
O O3 0.554047 0.743682 0.704600
O O4 0.768620 0.723184 0.961493
O O5 0.669711 0.000000 0.894952
O O6 0.593840 0.897205 0.896293
O O7 0.870684 0.908235 0.113258
O O8 0.271677 0.721580 0.455004
O O9 0.132815 0.855554 0.320970
O O10 0.051531 0.725401 0.194636
O O11 0.558973 0.385907 0.354841
O O12 0.558658 0.363023 0.454876
O O13 0.383233 0.143748 0.983873
O O14 0.214762 0.104578 0.756976
O O15 0.376015 0.000000 0.947735
O O16 0.500000 0.107716 0.000000
O O17 0.600416 0.500000 0.325845
O O18 0.500000 0.616822 0.500000
O O19 0.496766 0.500000 0.431887
#
# Coordination Sequence:
#
# PCOD8078914 Si02
#       8
#     8   8   8   8   8   8   8   8
#     4  10  17  32  47  67  96 126 163 199 238 283
#     4  10  17  27  47  72  95 125 163 197 233 283
#     4  10  20  31  45  72  97 127 164 201 237 283
#     4  11  20  32  49  69  96 135 166 193 239 292
#     4  10  21  35  51  73  98 128 167 209 244 276
#     4  10  17  29  47  69  96 127 163 193 233 289
#     4  11  17  32  50  67  96 131 166 196 240 285
#     4  10  21  36  51  70  98 131 167 205 244 284
#
# _framework density 15.763586
#
# number of rings (size 3 to 8) (size 9 to 14) (size 15 to 20)
#    0.000    1.750    5.000    3.000    1.750    2.000 
#    0.000    8.750    0.000    0.000    0.000    0.000 
#    0.000    6.000    0.000    0.000    0.000    0.000 
#
# Total GULP energy -396542.932298 kJ/mol
# GULP energy per Si atom -12391.966634 kJ/mol
# Density = 1.572771 g / cm^3
# Si number density = 15.763586 Si / 1000 Ang^3
#
#
#
# Elastic Constant Matrix: (Units=GPa)
#
#
# Indices 1 2 3 4 5 6 
#
# 1 56.2535 42.6928 23.0440 0.0023 -10.6663 0.0018
# 2 42.6928 128.1840 51.0169 0.0166 -8.4530 0.0067
# 3 23.0440 51.0169 77.8068 0.0187 -8.0787 0.0076
# 4 0.0023 0.0166 0.0187 25.1070 0.0046 -1.1208
# 5 -10.6663 -8.4530 -8.0787 0.0046 26.8592 -0.0007
# 6 0.0018 0.0067 0.0076 -1.1208 -0.0007 17.8735
#
#
#
# Elastic Compliance Matrix: (Units=1/GPa)
#
#
# Indices 1 2 3 4 5 6 
#
# 1 0.025439 -0.007166 -0.002086 0.000003 0.007220 0.000002
# 2 -0.007166 0.012618 -0.006228 -0.000003 -0.000748 -0.000002
# 3 -0.002086 -0.006228 0.017821 -0.000010 0.002572 -0.000006
# 4 0.000003 -0.000003 -0.000010 0.039941 -0.000010 0.002505
# 5 0.007220 -0.000748 0.002572 -0.000010 0.040636 0.000000
# 6 0.000002 -0.000002 -0.000006 0.002505 0.000000 0.056106
#
#
# Mechanical properties :
#
#
# Convention : Reuss Voigt Hill
#
# Bulk Modulus (GPa) = 40.13420 55.08352 47.60886
# Shear Modulus (GPa) = 21.56775 23.66731 22.61753
#
# Velocity S-wave (km/s) = 3.70293 3.87898 3.79198
# Velocity P-wave (km/s) = 6.61798 7.42168 7.03132
#
# Compressibility (1/GPa) = 0.02491641
#
# Stress axis : x y z
#
# Youngs Moduli (GPa) = 39.30995 79.25363 56.11346
#
# Poissons Ratio (x) = 0.56797 0.11703
# Poissons Ratio (y) = 0.28171 0.34950
# Poissons Ratio (z) = 0.08199 0.49363
#
# Static dielectric constant tensor:
#      x y z
#    x 2.721470 0.000000 -0.101350 
#    y 0.000000 3.411690 -0.000030 
#    z -0.101350 -0.000030 3.228340 
# 
# 
# High freq. dielectric constant tensor:
#      x y z
#    x 1.560150 0.000000 -0.001250 
#    y 0.000000 1.603750 0.000000 
#    z -0.001250 0.000000 1.618230 
# 
# From -- ./inp_files/97756.got.cif
#   From: 2010.06.25/outbox.cif.g09.slc.cpg/sg12_49_cif.got.tgz:97756.got - 2010.06.28 00:19:55.
