data_PCOD8078294
_publ_section_title
;
Structure prediction by ZEFSAII (Michael W. Deem and Ramdas Pophale) SiO2 
 PCOD8078294
Probable space group: C 2/M
;
_chemical_formula_sum "Si O2"
_cell_formula_units_Z 64
_cell_length_a 23.743553
_cell_length_b 13.556953
_cell_length_c 9.703449
_cell_angle_alpha 90.000000
_cell_angle_beta 96.477498
_cell_angle_gamma 90.000000
_cell_volume 3103.506118
_symmetry_space_group_name_H-M "C 2/M"
_symmetry_group_IT_number 12
_symmetry_cell_setting 'monoclinic'
loop_
_space_group_symop_operation_xyz
x,y,z
-x,y,-z
-x,-y,-z
x,-y,z
1/2+x,1/2+y,z
1/2-x,1/2+y,-z
1/2-x,1/2-y,-z
1/2+x,1/2-y,z
loop_
_atom_site_type_symbol
_atom_site_label
_atom_site_fract_x
_atom_site_fract_y
_atom_site_fract_z
Si Si1 0.363606 0.891768 0.811469
Si Si2 0.572144 0.707284 0.222283
Si Si3 0.798576 0.610632 0.506062
Si Si4 0.578448 0.610995 0.511562
Si Si5 0.806855 0.810379 0.389223
Si Si6 0.142919 0.115126 0.017341
Si Si7 0.457823 0.615264 0.201965
Si Si8 0.249264 0.115640 0.887614
O O1 0.418227 0.821832 0.813218
O O2 0.328366 0.891069 0.661459
O O3 0.317242 0.861507 0.919135
O O4 0.388311 0.000000 0.849731
O O5 0.575487 0.688757 0.386636
O O6 0.511285 0.672091 0.148735
O O7 0.624583 0.652861 0.162075
O O8 0.802028 0.500000 0.440725
O O9 0.826587 0.696085 0.419526
O O10 0.733427 0.645717 0.502034
O O11 0.567489 0.500000 0.452990
O O12 0.639617 0.617607 0.599148
O O13 0.537072 0.634656 0.630196
O O14 0.775811 0.814611 0.236000
O O15 0.099828 0.156182 0.885630
O O16 0.209702 0.141690 0.009265
O O17 0.135537 0.000000 0.015557
O O18 0.465118 0.500000 0.174051
O O19 0.242469 0.000000 0.845468
#
# Coordination Sequence:
#
# PCOD8078294 Si02
#       8
#     8   8   8   8   8   8   8   8
#     4   9  19  35  53  73 103 142 182 218 257 312
#     4  12  22  33  52  81 107 138 174 221 265 302
#     4   9  17  29  48  75 104 136 178 219 257 311
#     4  11  20  32  51  81 111 136 167 213 266 315
#     4  10  16  28  51  76 102 137 177 211 258 313
#     4  10  20  35  56  80 107 139 172 210 260 324
#     4  10  21  37  55  76 109 146 171 202 263 335
#     4   9  17  33  55  78 104 141 180 208 252 326
#
# _framework density 20.621838
#
# number of rings (size 3 to 8) (size 9 to 14) (size 15 to 20)
#    0.000    2.000    2.500    3.750    0.000    2.500 
#    0.000    0.000    0.000    4.500    0.000    0.000 
#    0.000    0.000    0.000    0.000    0.000    0.000 
#
# Total GULP energy -396475.926866 kJ/mol
# GULP energy per Si atom -12389.872715 kJ/mol
# Density = 2.057490 g / cm^3
# Si number density = 20.621838 Si / 1000 Ang^3
#
#
#
# Elastic Constant Matrix: (Units=GPa)
#
#
# Indices 1 2 3 4 5 6 
#
# 1 87.4987 48.8143 13.7380 0.0000 -22.6321 0.0000
# 2 48.8143 69.5537 15.6965 0.0000 -14.3752 0.0000
# 3 13.7380 15.6965 44.3298 0.0000 -15.3212 0.0000
# 4 0.0000 0.0000 0.0000 13.8859 0.0000 -6.7553
# 5 -22.6321 -14.3752 -15.3212 0.0000 23.4611 0.0000
# 6 0.0000 0.0000 0.0000 -6.7553 0.0000 25.8653
#
#
#
# Elastic Compliance Matrix: (Units=1/GPa)
#
#
# Indices 1 2 3 4 5 6 
#
# 1 0.022265 -0.013130 0.003089 0.000000 0.015451 0.000000
# 2 -0.013130 0.024525 -0.004906 0.000000 -0.000843 0.000000
# 3 0.003089 -0.004906 0.030129 0.000000 0.019650 0.000000
# 4 0.000000 0.000000 0.000000 0.082497 0.000000 0.021546
# 5 0.015451 -0.000843 0.019650 0.000000 0.069844 0.000000
# 6 0.000000 0.000000 0.000000 0.021546 0.000000 0.044289
#
#
# Mechanical properties :
#
#
# Convention : Reuss Voigt Hill
#
# Bulk Modulus (GPa) = 21.26507 39.76442 30.51475
# Shear Modulus (GPa) = 15.66808 20.85135 18.25971
#
# Velocity S-wave (km/s) = 2.75940 3.18328 2.97889
# Velocity P-wave (km/s) = 4.52622 5.73023 5.16344
#
# Compressibility (1/GPa) = 0.04702547
#
# Stress axis : x y z
#
# Youngs Moduli (GPa) = 44.91314 40.77415 33.19020
#
# Poissons Ratio (x) = 0.53537 -0.10253
# Poissons Ratio (y) = 0.58971 0.16284
# Poissons Ratio (z) = -0.13874 0.20005
#
# Static dielectric constant tensor:
#      x y z
#    x 3.957890 0.000000 -0.249520 
#    y 0.000000 3.738740 0.000000 
#    z -0.249520 0.000000 3.503900 
# 
# 
# High freq. dielectric constant tensor:
#      x y z
#    x 1.802560 0.000000 -0.015170 
#    y 0.000000 1.789150 0.000000 
#    z -0.015170 0.000000 1.779930 
# 
# From -- ./inp_files/182079.got.cif
#   From: 2010.06.25/outbox.cif.g09.slc.cpg/sg12_92_cif.got.tgz:182079.got - 2010.06.28 00:19:55.
