data_PCOD8078843
_publ_section_title
;
Structure prediction by ZEFSAII (Michael W. Deem and Ramdas Pophale) SiO2 
 PCOD8078843
Probable space group: C 2/M
;
_chemical_formula_sum "Si O2"
_cell_formula_units_Z 48
_cell_length_a 24.391428
_cell_length_b 9.279129
_cell_length_c 14.162454
_cell_angle_alpha 90.000000
_cell_angle_beta 111.370266
_cell_angle_gamma 90.000000
_cell_volume 2985.017811
_symmetry_space_group_name_H-M "C 2/M"
_symmetry_group_IT_number 12
_symmetry_cell_setting 'monoclinic'
loop_
_space_group_symop_operation_xyz
x,y,z
-x,y,-z
-x,-y,-z
x,-y,z
1/2+x,1/2+y,z
1/2-x,1/2+y,-z
1/2-x,1/2-y,-z
1/2+x,1/2-y,z
loop_
_atom_site_type_symbol
_atom_site_label
_atom_site_fract_x
_atom_site_fract_y
_atom_site_fract_z
Si Si1 0.038429 0.832401 0.432569
Si Si2 0.019872 0.670526 0.234349
Si Si3 0.328297 0.667598 0.480599
Si Si4 0.276004 0.664786 0.647478
Si Si5 0.559863 0.841265 0.979107
Si Si6 0.613592 0.667729 0.166946
O O1 0.011300 0.736646 0.332200
O O2 0.105016 0.782925 0.496731
O O3 0.000000 0.801992 0.500000
O O4 0.037046 0.000000 0.401396
O O5 0.032544 0.500000 0.247097
O O6 0.074595 0.746362 0.217585
O O7 0.958820 0.701660 0.139221
O O8 0.320866 0.500000 0.457885
O O9 0.312052 0.712561 0.577059
O O10 0.284113 0.745267 0.379702
O O11 0.256960 0.500000 0.627164
O O12 0.317961 0.690755 0.763924
O O13 0.589407 0.000000 0.999726
O O14 0.500000 0.844835 0.000000
O O15 0.604251 0.726768 0.054461
O O16 0.596021 0.500000 0.160586
#
# Coordination Sequence:
#
# PCOD8078843 Si02
#       6
#     8   8   8   8   8   8
#     4  10  20  34  50  67  90 120 155 193 227 264
#     4  10  19  30  44  63  92 123 152 187 224 268
#     4   9  17  30  44  63  89 118 151 183 222 269
#     4   9  17  28  43  65  92 119 148 182 221 269
#     4   8  16  28  40  61  91 120 149 181 222 272
#     4  10  17  27  44  67  93 120 151 184 224 272
#
# _framework density 16.080307000000001
#
# number of rings (size 3 to 8) (size 9 to 14) (size 15 to 20)
#    0.000    2.667    1.667    2.000    0.000    6.000 
#    0.000    0.000    0.000    0.000    0.000    1.167 
#    0.000    0.000    0.000    0.000    0.000    0.000 
#
# Total GULP energy -297517.022467 kJ/mol
# GULP energy per Si atom -12396.542603 kJ/mol
# Density = 1.604371 g / cm^3
# Si number density = 16.080307 Si / 1000 Ang^3
#
#
#
# Elastic Constant Matrix: (Units=GPa)
#
#
# Indices 1 2 3 4 5 6 
#
# 1 70.6967 36.3713 49.7063 0.0000 11.0800 0.0000
# 2 36.3713 86.7982 70.6584 0.0000 10.9056 0.0000
# 3 49.7063 70.6584 121.3299 0.0000 20.1340 0.0000
# 4 0.0000 0.0000 0.0000 31.8202 0.0000 6.4979
# 5 11.0800 10.9056 20.1340 0.0000 19.4931 0.0000
# 6 0.0000 0.0000 0.0000 6.4979 0.0000 17.4651
#
#
#
# Elastic Compliance Matrix: (Units=1/GPa)
#
#
# Indices 1 2 3 4 5 6 
#
# 1 0.020584 -0.003416 -0.005816 0.000000 -0.003782 0.000000
# 2 -0.003416 0.022493 -0.011989 0.000000 0.001740 0.000000
# 3 -0.005816 -0.011989 0.019243 0.000000 -0.009863 0.000000
# 4 0.000000 0.000000 0.000000 0.034011 0.000000 -0.012654
# 5 -0.003782 0.001740 -0.009863 0.000000 0.062663 0.000000
# 6 0.000000 0.000000 0.000000 -0.012654 0.000000 0.061965
#
#
# Mechanical properties :
#
#
# Convention : Reuss Voigt Hill
#
# Bulk Modulus (GPa) = 50.30310 65.81076 58.05693
# Shear Modulus (GPa) = 18.51673 21.89494 20.20583
#
# Velocity S-wave (km/s) = 3.39708 3.69399 3.54864
# Velocity P-wave (km/s) = 6.83646 7.69475 7.27827
#
# Compressibility (1/GPa) = 0.01987949
#
# Stress axis : x y z
#
# Youngs Moduli (GPa) = 48.58098 44.45837 51.96638
#
# Poissons Ratio (x) = 0.15185 0.30225
# Poissons Ratio (y) = 0.16593 0.62301
# Poissons Ratio (z) = 0.28256 0.53300
#
# Static dielectric constant tensor:
#      x y z
#    x 2.695820 0.000000 0.263830 
#    y 0.000000 3.117770 0.000000 
#    z 0.263830 0.000000 3.327760 
# 
# 
# High freq. dielectric constant tensor:
#      x y z
#    x 1.566930 0.000000 0.027980 
#    y 0.000000 1.625470 0.000000 
#    z 0.027980 0.000000 1.618070 
# 
# From -- ./inp_files/179330.got.cif
#   From: 2010.06.25/outbox.cif.g09.slc.cpg/sg12_90_cif.got.tgz:179330.got - 2010.06.28 00:19:55.
