data_PCOD8078623
_publ_section_title
;
Structure prediction by ZEFSAII (Michael W. Deem and Ramdas Pophale) SiO2 
 PCOD8078623
Probable space group: C 2/M
;
_chemical_formula_sum "Si O2"
_cell_formula_units_Z 44
_cell_length_a 17.382647
_cell_length_b 23.494278
_cell_length_c 11.785977
_cell_angle_alpha 90.000000
_cell_angle_beta 143.050587
_cell_angle_gamma 90.000000
_cell_volume 2893.325633
_symmetry_space_group_name_H-M "C 2/M"
_symmetry_group_IT_number 12
_symmetry_cell_setting 'monoclinic'
loop_
_space_group_symop_operation_xyz
x,y,z
-x,y,-z
-x,-y,-z
x,-y,z
1/2+x,1/2+y,z
1/2-x,1/2+y,-z
1/2-x,1/2-y,-z
1/2+x,1/2-y,z
loop_
_atom_site_type_symbol
_atom_site_label
_atom_site_fract_x
_atom_site_fract_y
_atom_site_fract_z
Si Si1 0.011274 0.111487 0.877674
Si Si2 0.425629 0.270750 0.799131
Si Si3 0.274625 0.937236 0.196653
Si Si4 0.646837 0.819769 0.462809
Si Si5 0.749154 0.562186 0.434456
Si Si6 0.500000 0.141217 0.500000
O O1 0.997925 0.177052 0.821567
O O2 0.895906 0.072795 0.692831
O O3 0.145326 0.087825 0.988317
O O4 0.000000 0.112381 0.000000
O O5 0.425985 0.216866 0.716865
O O6 0.282065 0.292168 0.657885
O O7 0.500000 0.251795 0.000000
O O8 0.250243 0.940403 0.300835
O O9 0.396189 0.898084 0.312782
O O10 0.301210 0.000000 0.177696
O O11 0.662410 0.883748 0.428053
O O12 0.564313 0.819589 0.480527
O O13 0.795444 0.500000 0.536831
#
# Coordination Sequence:
#
# PCOD8078623 Si02
#       6
#     8   8   8   8   8   4
#     4   8  13  22  37  56  75  99 134 169 198 232
#     4   9  16  30  46  59  78 108 142 174 199 228
#     4   9  15  22  34  54  82 109 128 153 198 252
#     4   9  18  28  42  62  84 108 136 166 202 244
#     4   8  13  22  37  56  77 102 132 165 198 233
#     4  10  17  26  36  58  88 110 129 158 202 250
#
# _framework density 15.207414
#
# number of rings (size 3 to 8) (size 9 to 14) (size 15 to 20)
#    0.000    3.273    0.000    4.091    0.000    2.909 
#    0.000    3.636    0.000    0.545    0.000    0.000 
#    0.000    0.000    0.000   21.273    0.000    2.909 
#
# Total GULP energy -272580.060644 kJ/mol
# GULP energy per Si atom -12390.002757 kJ/mol
# Density = 1.517280 g / cm^3
# Si number density = 15.207414 Si / 1000 Ang^3
#
#
#
# Elastic Constant Matrix: (Units=GPa)
#
#
# Indices 1 2 3 4 5 6 
#
# 1 51.5075 38.0469 30.5080 0.0000 13.0909 0.0000
# 2 38.0469 125.0367 36.9205 0.0000 -4.6431 0.0000
# 3 30.5080 36.9205 54.1234 0.0000 3.2802 0.0000
# 4 0.0000 0.0000 0.0000 24.8693 0.0000 -1.6780
# 5 13.0909 -4.6431 3.2802 0.0000 16.7104 0.0000
# 6 0.0000 0.0000 0.0000 -1.6780 0.0000 13.3587
#
#
#
# Elastic Compliance Matrix: (Units=1/GPa)
#
#
# Indices 1 2 3 4 5 6 
#
# 1 0.046078 -0.010415 -0.016704 0.000000 -0.035712 0.000000
# 2 -0.010415 0.012665 -0.003519 0.000000 0.012369 0.000000
# 3 -0.016704 -0.003519 0.029914 0.000000 0.006236 0.000000
# 4 0.000000 0.000000 0.000000 0.040554 0.000000 0.005094
# 5 -0.035712 0.012369 0.006236 0.000000 0.090032 0.000000
# 6 0.000000 0.000000 0.000000 0.005094 0.000000 0.075498
#
#
# Mechanical properties :
#
#
# Convention : Reuss Voigt Hill
#
# Bulk Modulus (GPa) = 36.51992 49.06871 42.79431
# Shear Modulus (GPa) = 13.69326 19.33382 16.51354
#
# Velocity S-wave (km/s) = 3.00398 3.56946 3.29886
# Velocity P-wave (km/s) = 6.00820 7.02313 6.53540
#
# Compressibility (1/GPa) = 0.02738232
#
# Stress axis : x y z
#
# Youngs Moduli (GPa) = 21.70233 78.95813 33.42878
#
# Poissons Ratio (x) = 0.82232 0.55840
# Poissons Ratio (y) = 0.22602 0.11762
# Poissons Ratio (z) = 0.36252 0.27782
#
# Static dielectric constant tensor:
#      x y z
#    x 2.482640 0.000000 0.343220 
#    y 0.000000 3.383210 0.000000 
#    z 0.343220 0.000000 2.880590 
# 
# 
# High freq. dielectric constant tensor:
#      x y z
#    x 1.526630 0.000000 0.043300 
#    y 0.000000 1.597110 0.000000 
#    z 0.043300 0.000000 1.560340 
# 
# From -- ./inp_files/148722.got.cif
#   From: 2010.06.25/outbox.cif.g09.slc.cpg/sg12_75_cif.got.tgz:148722.got - 2010.06.28 00:19:55.
