data_PCOD8078351
_publ_section_title
;
Structure prediction by ZEFSAII (Michael W. Deem and Ramdas Pophale) SiO2 
 PCOD8078351
Probable space group: C 2/M
;
_chemical_formula_sum "Si O2"
_cell_formula_units_Z 36
_cell_length_a 5.215933
_cell_length_b 26.031005
_cell_length_c 16.038031
_cell_angle_alpha 90.000000
_cell_angle_beta 89.511644
_cell_angle_gamma 90.000000
_cell_volume 2177.500246
_symmetry_space_group_name_H-M "C 2/M"
_symmetry_group_IT_number 12
_symmetry_cell_setting 'monoclinic'
loop_
_space_group_symop_operation_xyz
x,y,z
-x,y,-z
-x,-y,-z
x,-y,z
1/2+x,1/2+y,z
1/2-x,1/2+y,-z
1/2-x,1/2-y,-z
1/2+x,1/2-y,z
loop_
_atom_site_type_symbol
_atom_site_label
_atom_site_fract_x
_atom_site_fract_y
_atom_site_fract_z
Si Si1 0.744873 0.441660 0.655168
Si Si2 0.775320 0.381043 0.337077
Si Si3 0.774135 0.783216 0.774110
Si Si4 0.750903 0.192495 0.963611
Si Si5 0.000000 0.405999 0.500000
O O1 0.719577 0.500000 0.686426
O O2 0.484083 0.412369 0.677601
O O3 0.984106 0.413583 0.701432
O O4 0.805197 0.440997 0.555309
O O5 0.757655 0.325913 0.295655
O O6 0.829683 0.371811 0.436147
O O7 0.553615 0.741216 0.762603
O O8 0.750235 0.809040 0.864373
O O9 0.500000 0.163544 0.000000
O O10 0.750000 0.250000 0.000000
O O11 0.000000 0.163540 0.000000
#
# Coordination Sequence:
#
# PCOD8078351 Si02
#       5
#     8   8   8   8   4
#     4  10  19  35  57  75  98 129 165 218 271 294
#     4  10  22  33  49  78 103 131 174 208 243 311
#     4  12  21  34  52  71 108 144 166 200 252 288
#     4  10  16  30  49  75  93 127 160 214 243 294
#     4   8  21  34  52  74 104 122 172 218 253 300
#
# _framework density 16.532720000000001
#
# number of rings (size 3 to 8) (size 9 to 14) (size 15 to 20)
#    1.333    0.444    4.444    3.000    0.000    0.889 
#    0.000    1.111    0.000    0.000    0.000    0.000 
#    0.000   17.778    0.000    0.000    0.000    0.000 
#
# Total GULP energy -222995.594350 kJ/mol
# GULP energy per Si atom -12388.644131 kJ/mol
# Density = 1.649509 g / cm^3
# Si number density = 16.532720 Si / 1000 Ang^3
#
#
#
# Elastic Constant Matrix: (Units=GPa)
#
#
# Indices 1 2 3 4 5 6 
#
# 1 140.8954 26.3073 18.3545 0.0000 0.2108 0.0000
# 2 26.3073 54.3898 28.4428 0.0000 6.6621 0.0000
# 3 18.3545 28.4428 39.2416 0.0000 8.8706 0.0000
# 4 0.0000 0.0000 0.0000 0.5984 0.0000 -0.3137
# 5 0.2108 6.6621 8.8706 0.0000 20.5533 0.0000
# 6 0.0000 0.0000 0.0000 -0.3137 0.0000 -0.3160
#
#
#
# Elastic Compliance Matrix: (Units=1/GPa)
#
#
# Indices 1 2 3 4 5 6 
#
# 1 0.007910 -0.003057 -0.001872 0.000000 0.001718 0.000000
# 2 -0.003057 0.030793 -0.020655 0.000000 -0.001035 0.000000
# 3 -0.001872 -0.020655 0.044116 0.000000 -0.012326 0.000000
# 4 0.000000 0.000000 0.000000 1.098978 0.000000 -1.091168
# 5 0.001718 -0.001035 -0.012326 0.000000 0.054292 0.000000
# 6 0.000000 0.000000 0.000000 -1.091168 0.000000 -2.081480
#
#
# Mechanical properties :
#
#
# Convention : Reuss Voigt Hill
#
# Bulk Modulus (GPa) = 31.59559 42.30402 36.94980
# Shear Modulus (GPa) = -6.38021 14.92863 4.27421
#
# Velocity S-wave (km/s) = -1.96660 3.00821 1.60963
# Velocity P-wave (km/s) = 3.74109 6.14080 5.08454
#
# Compressibility (1/GPa) = 0.03164999
#
# Stress axis : x y z
#
# Youngs Moduli (GPa) = 126.42901 32.47524 22.66754
#
# Poissons Ratio (x) = 0.09928 0.04243
# Poissons Ratio (y) = 0.38652 0.46820
# Poissons Ratio (z) = 0.23667 0.67078
#
# Static dielectric constant tensor:
#      x y z
#    x 1.928560 0.000000 0.042010 
#    y 0.000000 2.687630 0.000000 
#    z 0.042010 0.000000 2.928830 
# 
# 
# High freq. dielectric constant tensor:
#      x y z
#    x 1.669910 0.000000 -0.001180 
#    y 0.000000 1.584310 0.000000 
#    z -0.001180 0.000000 1.613100 
# 
# From -- ./inp_files/252727.got.cif
#   From: 2010.06.25/outbox.cif.g09.slc.cpg/sg12_127_cif.got.tgz:252727.got - 2010.06.28 00:19:55.
