data_PCOD8078393
_publ_section_title
;
Structure prediction by ZEFSAII (Michael W. Deem and Ramdas Pophale) SiO2 
 PCOD8078393
Probable space group: C 2/M
;
_chemical_formula_sum "Si O2"
_cell_formula_units_Z 48
_cell_length_a 14.028633
_cell_length_b 18.979528
_cell_length_c 20.114277
_cell_angle_alpha 90.000000
_cell_angle_beta 151.614422
_cell_angle_gamma 90.000000
_cell_volume 2546.049847
_symmetry_space_group_name_H-M "C 2/M"
_symmetry_group_IT_number 12
_symmetry_cell_setting 'monoclinic'
loop_
_space_group_symop_operation_xyz
x,y,z
-x,y,-z
-x,-y,-z
x,-y,z
1/2+x,1/2+y,z
1/2-x,1/2+y,-z
1/2-x,1/2-y,-z
1/2+x,1/2-y,z
loop_
_atom_site_type_symbol
_atom_site_label
_atom_site_fract_x
_atom_site_fract_y
_atom_site_fract_z
Si Si1 0.813620 0.729889 0.343634
Si Si2 0.277076 0.888014 0.688919
Si Si3 0.913430 0.075955 0.553556
Si Si4 0.601271 0.700432 0.867080
Si Si5 0.608435 0.081473 0.997034
Si Si6 0.467570 0.277678 0.646709
O O1 0.764387 0.805488 0.344254
O O2 0.607580 0.683990 0.221355
O O3 0.000000 0.696345 0.500000
O O4 0.873680 0.740121 0.304154
O O5 0.280352 0.914137 0.613979
O O6 0.478462 0.905695 0.851481
O O7 0.104409 0.927140 0.622975
O O8 0.950981 0.137424 0.629690
O O9 0.895153 0.000000 0.579313
O O10 0.539275 0.744051 0.763610
O O11 0.750000 0.750000 0.000000
O O12 0.696971 0.628275 0.898605
O O13 0.671888 0.000000 0.042347
O O14 0.500000 0.105359 0.000000
O O15 0.250000 0.250000 0.500000
#
# Coordination Sequence:
#
# PCOD8078393 Si02
#       6
#     8   8   8   8   8   8
#     4  11  19  38  60  86 121 157 202 251 303 359
#     4  10  16  31  53  82 116 152 188 236 299 365
#     4  10  18  29  53  83 112 149 193 242 299 362
#     4  12  25  37  61  91 122 159 208 249 308 372
#     4  11  23  38  57  87 129 163 197 254 320 371
#     4  11  22  38  60  83 118 160 201 254 307 360
#
# _framework density 18.852734000000002
#
# number of rings (size 3 to 8) (size 9 to 14) (size 15 to 20)
#    0.000    1.167    6.667    4.000    0.000    2.000 
#    0.000    0.000    0.000    1.500    0.000    1.167 
#    0.000    0.000    0.000    0.000    0.000    0.000 
#
# Total GULP energy -297361.573318 kJ/mol
# GULP energy per Si atom -12390.065555 kJ/mol
# Density = 1.880982 g / cm^3
# Si number density = 18.852734 Si / 1000 Ang^3
#
#
#
# Elastic Constant Matrix: (Units=GPa)
#
#
# Indices 1 2 3 4 5 6 
#
# 1 100.0038 34.3267 51.6732 0.1031 9.4821 0.0049
# 2 34.3267 64.4937 23.2442 0.1310 16.6089 0.0071
# 3 51.6732 23.2442 133.1687 0.1583 -1.2812 0.0112
# 4 0.1031 0.1310 0.1583 -291.7523 0.1709 -8.9078
# 5 9.4821 16.6089 -1.2812 0.1709 39.2086 0.0094
# 6 0.0049 0.0071 0.0112 -8.9078 0.0094 19.8268
#
#
#
# Elastic Compliance Matrix: (Units=1/GPa)
#
#
# Indices 1 2 3 4 5 6 
#
# 1 0.014470 -0.005717 -0.004629 -0.000001 -0.001229 0.000001
# 2 -0.005717 0.021053 -0.001529 0.000002 -0.007585 -0.000001
# 3 -0.004629 -0.001529 0.009592 0.000004 0.002081 -0.000003
# 4 -0.000001 0.000002 0.000004 -0.003381 0.000014 -0.001519
# 5 -0.001229 -0.007585 0.002081 0.000014 0.029083 -0.000005
# 6 0.000001 -0.000001 -0.000003 -0.001519 -0.000005 0.049754
#
#
# Mechanical properties :
#
#
# Convention : Reuss Voigt Hill
#
# Bulk Modulus (GPa) = 46.80510 57.35049 52.07779
# Shear Modulus (GPa) = 33.01556 -33.98190 -0.48317
#
# Velocity S-wave (km/s) = 4.18932 -4.25018 -0.50680
# Velocity P-wave (km/s) = 6.94846 2.53000 5.22886
#
# Compressibility (1/GPa) = 0.02136519
#
# Stress axis : x y z
#
# Youngs Moduli (GPa) = 69.10703 47.49938 104.24983
#
# Poissons Ratio (x) = 0.27156 0.48255
# Poissons Ratio (y) = 0.39509 0.15943
# Poissons Ratio (z) = 0.31988 0.07264
#
# Static dielectric constant tensor:
#      x y z
#    x 3.479930 0.000010 -0.081620 
#    y 0.000010 3.429840 0.000000 
#    z -0.081620 0.000000 3.909260 
# 
# 
# High freq. dielectric constant tensor:
#      x y z
#    x 1.704120 0.000000 -0.014880 
#    y 0.000000 1.706280 0.000000 
#    z -0.014880 0.000000 1.751000 
# 
# From -- ./inp_files/311382.got.cif
#   From: 2010.06.25/outbox.cif.g09.slc.cpg/sg12_156_cif.got.tgz:311382.got - 2010.06.28 00:19:55.
