data_PCOD8078458
_publ_section_title
;
Structure prediction by ZEFSAII (Michael W. Deem and Ramdas Pophale) SiO2 
 PCOD8078458
Probable space group: C 2/M
;
_chemical_formula_sum "Si O2"
_cell_formula_units_Z 52
_cell_length_a 17.726143
_cell_length_b 25.192161
_cell_length_c 12.096560
_cell_angle_alpha 90.000000
_cell_angle_beta 150.711914
_cell_angle_gamma 90.000000
_cell_volume 2642.585115
_symmetry_space_group_name_H-M "C 2/M"
_symmetry_group_IT_number 12
_symmetry_cell_setting 'monoclinic'
loop_
_space_group_symop_operation_xyz
x,y,z
-x,y,-z
-x,-y,-z
x,-y,z
1/2+x,1/2+y,z
1/2-x,1/2+y,-z
1/2-x,1/2-y,-z
1/2+x,1/2-y,z
loop_
_atom_site_type_symbol
_atom_site_label
_atom_site_fract_x
_atom_site_fract_y
_atom_site_fract_z
Si Si1 0.043640 0.681296 0.430571
Si Si2 0.500000 0.203577 0.000000
Si Si3 0.147865 0.899312 0.616876
Si Si4 0.861427 0.841164 0.744032
Si Si5 0.168255 0.212425 0.526292
Si Si6 0.044674 0.382024 0.875108
Si Si7 0.272562 0.440304 0.511677
O O1 0.212254 0.657678 0.629352
O O2 0.040034 0.743341 0.389902
O O3 0.000000 0.674698 0.500000
O O4 0.928993 0.644603 0.211706
O O5 0.338404 0.236170 0.782095
O O6 0.490624 0.166293 0.881896
O O7 0.134045 0.838983 0.556495
O O8 0.171193 0.938207 0.543458
O O9 0.000000 0.915438 0.500000
O O10 0.295591 0.907816 0.884132
O O11 0.840679 0.799949 0.615636
O O12 0.881326 0.900741 0.721230
O O13 0.000000 0.823953 0.000000
O O14 0.907867 0.425054 0.706547
O O15 0.294961 0.500000 0.584093
#
# Coordination Sequence:
#
# PCOD8078458 Si02
#       7
#     8   4   8   8   8   8   8
#     4  11  23  36  54  86 119 154 194 235 284 335
#     4  10  16  36  61  80 110 146 197 244 268 322
#     4  10  20  35  56  85 121 145 177 242 302 334
#     4  10  22  38  59  81 114 156 196 232 282 344
#     4  10  20  36  57  84 112 157 198 229 279 334
#     4  10  19  38  58  81 112 154 192 235 279 343
#     4  10  20  38  61  84 108 144 197 238 287 350
#
# _framework density 19.677702
#
# number of rings (size 3 to 8) (size 9 to 14) (size 15 to 20)
#    0.000    1.846    6.154    0.923    1.077    5.538 
#    0.000    4.615    0.000    7.385    0.000    0.000 
#    0.000    0.000    0.000    0.000    0.000    0.000 
#
# Total GULP energy -322309.180153 kJ/mol
# GULP energy per Si atom -12396.506929 kJ/mol
# Density = 1.963291 g / cm^3
# Si number density = 19.677702 Si / 1000 Ang^3
#
#
#
# Elastic Constant Matrix: (Units=GPa)
#
#
# Indices 1 2 3 4 5 6 
#
# 1 124.9441 30.4134 22.5929 0.0000 -19.5430 0.0000
# 2 30.4134 70.7632 13.9603 0.0000 -13.4276 0.0000
# 3 22.5929 13.9603 82.7568 0.0000 -17.3155 0.0000
# 4 0.0000 0.0000 0.0000 16.6103 0.0000 -0.8423
# 5 -19.5430 -13.4276 -17.3155 0.0000 26.9525 0.0000
# 6 0.0000 0.0000 0.0000 -0.8423 0.0000 14.2212
#
#
#
# Elastic Compliance Matrix: (Units=1/GPa)
#
#
# Indices 1 2 3 4 5 6 
#
# 1 0.009697 -0.003035 -0.001133 0.000000 0.004791 0.000000
# 2 -0.003035 0.016654 -0.000815 0.000000 0.005573 0.000000
# 3 -0.001133 -0.000815 0.014180 0.000000 0.007882 0.000000
# 4 0.000000 0.000000 0.000000 0.060385 0.000000 0.003577
# 5 0.004791 0.005573 0.007882 0.000000 0.048417 0.000000
# 6 0.000000 0.000000 0.000000 0.003577 0.000000 0.070529
#
#
# Mechanical properties :
#
#
# Convention : Reuss Voigt Hill
#
# Bulk Modulus (GPa) = 32.71670 45.82192 39.26931
# Shear Modulus (GPa) = 20.83204 25.65663 23.24433
#
# Velocity S-wave (km/s) = 3.25724 3.61479 3.44066
# Velocity P-wave (km/s) = 5.55054 6.38428 5.98196
#
# Compressibility (1/GPa) = 0.03056543
#
# Stress axis : x y z
#
# Youngs Moduli (GPa) = 103.12936 60.04479 70.52411
#
# Poissons Ratio (x) = 0.18223 0.07989
# Poissons Ratio (y) = 0.31298 0.05746
# Poissons Ratio (z) = 0.11682 0.04893
#
# Static dielectric constant tensor:
#      x y z
#    x 3.382150 0.000000 -0.101920 
#    y 0.000000 3.424590 0.000000 
#    z -0.101920 0.000000 3.635570 
# 
# 
# High freq. dielectric constant tensor:
#      x y z
#    x 1.755590 0.000000 -0.010710 
#    y 0.000000 1.753920 0.000000 
#    z -0.010710 0.000000 1.762350 
# 
# From -- ./inp_files/160834.got.cif
#   From: 2010.06.25/outbox.cif.g09.slc.cpg/sg12_81_cif.got.tgz:160834.got - 2010.06.28 00:19:55.
