data_PCOD8078757
_publ_section_title
;
Structure prediction by ZEFSAII (Michael W. Deem and Ramdas Pophale) SiO2 
 PCOD8078757
Probable space group: C 2/M
;
_chemical_formula_sum "Si O2"
_cell_formula_units_Z 40
_cell_length_a 17.990993
_cell_length_b 8.665365
_cell_length_c 20.956574
_cell_angle_alpha 90.000000
_cell_angle_beta 142.299999
_cell_angle_gamma 90.000000
_cell_volume 1997.919361
_symmetry_space_group_name_H-M "C 2/M"
_symmetry_group_IT_number 12
_symmetry_cell_setting 'monoclinic'
loop_
_space_group_symop_operation_xyz
x,y,z
-x,y,-z
-x,-y,-z
x,-y,z
1/2+x,1/2+y,z
1/2-x,1/2+y,-z
1/2-x,1/2-y,-z
1/2+x,1/2-y,z
loop_
_atom_site_type_symbol
_atom_site_label
_atom_site_fract_x
_atom_site_fract_y
_atom_site_fract_z
Si Si1 0.151748 0.180784 0.980333
Si Si2 0.445274 0.180371 0.373298
Si Si3 0.234825 0.680811 0.166057
Si Si4 0.160096 0.178802 0.571062
Si Si5 0.401436 0.179136 0.796387
O O1 0.018283 0.216371 0.861991
O O2 0.172261 0.000000 0.000380
O O3 0.250000 0.250000 0.000000
O O4 0.161547 0.259550 0.055719
O O5 0.366890 0.233786 0.258739
O O6 0.394347 0.278718 0.397318
O O7 0.589844 0.223830 0.467773
O O8 0.429562 0.000000 0.374518
O O9 0.258310 0.500000 0.176052
O O10 0.155174 0.723472 0.173634
O O11 0.304430 0.214440 0.673646
O O12 0.137983 0.000000 0.542481
O O13 0.439162 0.000000 0.821570
#
# Coordination Sequence:
#
# PCOD8078757 Si02
#       5
#     8   8   8   8   8
#     4  12  25  39  56  77 105 140 179 222 268 319
#     4  10  17  26  45  76 110 139 173 216 259 307
#     4  10  20  36  57  80 109 142 177 218 265 316
#     4   9  16  28  47  73 107 143 174 210 261 313
#     4   9  19  35  56  81 109 141 177 218 263 313
#
# _framework density 20.020826
#
# number of rings (size 3 to 8) (size 9 to 14) (size 15 to 20)
#    0.000    2.000    0.000    7.800    0.000    7.200 
#    0.000    0.000    0.000    1.200    0.000    0.000 
#    0.000    0.000    0.000    0.000    0.000    0.000 
#
# Total GULP energy -247915.439827 kJ/mol
# GULP energy per Si atom -12395.771991 kJ/mol
# Density = 1.997526 g / cm^3
# Si number density = 20.020826 Si / 1000 Ang^3
#
#
#
# Elastic Constant Matrix: (Units=GPa)
#
#
# Indices 1 2 3 4 5 6 
#
# 1 48.6441 30.7161 28.8224 0.0000 18.6973 0.0000
# 2 30.7161 75.4717 39.6221 0.0000 15.9565 0.0000
# 3 28.8224 39.6221 124.0230 0.0000 36.4857 0.0000
# 4 0.0000 0.0000 0.0000 40.0723 0.0000 5.4925
# 5 18.6973 15.9565 36.4857 0.0000 17.9066 0.0000
# 6 0.0000 0.0000 0.0000 5.4925 0.0000 21.1464
#
#
#
# Elastic Compliance Matrix: (Units=1/GPa)
#
#
# Indices 1 2 3 4 5 6 
#
# 1 0.042623 -0.010885 0.009515 0.000000 -0.054192 0.000000
# 2 -0.010885 0.019381 -0.004806 0.000000 0.003886 0.000000
# 3 0.009515 -0.004806 0.022592 0.000000 -0.051685 0.000000
# 4 0.000000 0.000000 0.000000 0.025876 0.000000 -0.006721
# 5 -0.054192 0.003886 -0.051685 0.000000 0.214280 0.000000
# 6 0.000000 0.000000 0.000000 -0.006721 0.000000 0.049035
#
#
# Mechanical properties :
#
#
# Convention : Reuss Voigt Hill
#
# Bulk Modulus (GPa) = 13.84177 49.60665 31.72421
# Shear Modulus (GPa) = 12.18859 25.75694 18.97277
#
# Velocity S-wave (km/s) = 2.47006 3.59068 3.08173
# Velocity P-wave (km/s) = 3.88118 6.48244 5.34255
#
# Compressibility (1/GPa) = 0.07224511
#
# Stress axis : x y z
#
# Youngs Moduli (GPa) = 23.46159 51.59674 44.26310
#
# Poissons Ratio (x) = 0.56160 -0.42114
# Poissons Ratio (y) = 0.25537 0.21271
# Poissons Ratio (z) = -0.22323 0.24795
#
# Static dielectric constant tensor:
#      x y z
#    x 3.102970 0.000000 0.299970 
#    y 0.000000 3.579170 0.000000 
#    z 0.299970 0.000000 4.617250 
# 
# 
# High freq. dielectric constant tensor:
#      x y z
#    x 1.714250 0.000000 0.022090 
#    y 0.000000 1.789040 0.000000 
#    z 0.022090 0.000000 1.811510 
# 
# From -- ./inp_files/162646.got.cif
#   From: 2010.06.25/outbox.cif.g09.slc.cpg/sg12_82_cif.got.tgz:162646.got - 2010.06.28 00:19:55.
