data_PCOD8078672
_publ_section_title
;
Structure prediction by ZEFSAII (Michael W. Deem and Ramdas Pophale) SiO2 
 PCOD8078672
Probable space group: C 2/M
;
_chemical_formula_sum "Si O2"
_cell_formula_units_Z 64
_cell_length_a 19.160739
_cell_length_b 8.917689
_cell_length_c 30.171531
_cell_angle_alpha 90.000000
_cell_angle_beta 133.707142
_cell_angle_gamma 90.000000
_cell_volume 3726.737027
_symmetry_space_group_name_H-M "C 2/M"
_symmetry_group_IT_number 12
_symmetry_cell_setting 'monoclinic'
loop_
_space_group_symop_operation_xyz
x,y,z
-x,y,-z
-x,-y,-z
x,-y,z
1/2+x,1/2+y,z
1/2-x,1/2+y,-z
1/2-x,1/2-y,-z
1/2+x,1/2-y,z
loop_
_atom_site_type_symbol
_atom_site_label
_atom_site_fract_x
_atom_site_fract_y
_atom_site_fract_z
Si Si1 0.415620 0.325047 0.331181
Si Si2 0.783409 0.174077 0.756035
Si Si3 0.841153 0.823086 0.062924
Si Si4 0.584000 0.834155 0.825716
Si Si5 0.410266 0.325782 0.431034
Si Si6 0.287011 0.673543 0.653992
Si Si7 0.030955 0.678045 0.307947
Si Si8 0.469708 0.166734 0.858275
O O1 0.412601 0.500000 0.319264
O O2 0.314262 0.254260 0.271633
O O3 0.436414 0.291731 0.391638
O O4 0.502188 0.248263 0.342270
O O5 0.803427 0.201806 0.713145
O O6 0.870514 0.244375 0.822999
O O7 0.774927 0.000000 0.763943
O O8 0.841896 0.776575 0.115783
O O9 0.938186 0.758588 0.081500
O O10 0.836951 0.000000 0.056097
O O11 0.750000 0.750000 0.000000
O O12 0.550413 0.770143 0.763578
O O13 0.486700 0.847580 0.812763
O O14 0.631426 0.000000 0.841693
O O15 0.500000 0.273746 0.500000
O O16 0.385878 0.500000 0.427311
O O17 0.318452 0.230666 0.406370
O O18 0.296378 0.500000 0.646039
O O19 0.364343 0.763466 0.659356
O O20 0.034779 0.500000 0.312818
O O21 0.463878 0.000000 0.877167
#
# Coordination Sequence:
#
# PCOD8078672 Si02
#       8
#     8   8   8   8   8   8   8   8
#     4  10  21  34  51  74 102 129 159 203 249 295
#     4  10  18  30  48  72  98 127 163 200 244 296
#     4  10  17  26  41  65  97 130 165 206 247 288
#     4   8  17  29  44  66  95 128 159 197 242 288
#     4   9  19  37  57  74  95 128 167 204 245 293
#     4  10  19  30  50  76 100 127 161 201 244 292
#     4  11  20  33  51  74 104 133 163 200 247 299
#     4   9  16  27  43  66  94 124 160 199 241 285
#
# _framework density 17.173200000000001
#
# number of rings (size 3 to 8) (size 9 to 14) (size 15 to 20)
#    0.750    1.625    1.250    2.625    0.000    2.750 
#    0.000    0.625    0.000    0.000    0.000    0.875 
#    0.000    7.000    0.000    0.000    0.000    0.000 
#
# Total GULP energy -396623.918642 kJ/mol
# GULP energy per Si atom -12394.497458 kJ/mol
# Density = 1.713411 g / cm^3
# Si number density = 17.173200 Si / 1000 Ang^3
#
#
#
# Elastic Constant Matrix: (Units=GPa)
#
#
# Indices 1 2 3 4 5 6 
#
# 1 82.3335 46.2445 33.7377 0.0000 11.5737 0.0000
# 2 46.2445 121.4700 58.4358 0.0000 14.9077 0.0001
# 3 33.7377 58.4358 108.7919 0.0000 19.1194 0.0000
# 4 0.0000 0.0000 0.0000 27.8638 0.0000 6.3057
# 5 11.5737 14.9077 19.1194 0.0000 18.3617 0.0000
# 6 0.0000 0.0001 0.0000 6.3057 0.0000 27.9071
#
#
#
# Elastic Compliance Matrix: (Units=1/GPa)
#
#
# Indices 1 2 3 4 5 6 
#
# 1 0.016156 -0.004807 -0.001621 0.000000 -0.004593 0.000000
# 2 -0.004807 0.012711 -0.004964 0.000000 -0.002121 0.000000
# 3 -0.001621 -0.004964 0.014043 0.000000 -0.009570 0.000000
# 4 0.000000 0.000000 0.000000 0.037823 0.000000 -0.008546
# 5 -0.004593 -0.002121 -0.009570 0.000000 0.069043 0.000000
# 6 0.000000 0.000000 0.000000 -0.008546 0.000000 0.037764
#
#
# Mechanical properties :
#
#
# Convention : Reuss Voigt Hill
#
# Bulk Modulus (GPa) = 49.68866 65.49237 57.59052
# Shear Modulus (GPa) = 23.03807 26.43833 24.73820
#
# Velocity S-wave (km/s) = 3.66664 3.92792 3.79953
# Velocity P-wave (km/s) = 6.84999 7.66750 7.27024
#
# Compressibility (1/GPa) = 0.02012532
#
# Stress axis : x y z
#
# Youngs Moduli (GPa) = 61.89833 78.67238 71.21120
#
# Poissons Ratio (x) = 0.37819 0.11542
# Poissons Ratio (y) = 0.29755 0.35349
# Poissons Ratio (z) = 0.10033 0.39053
#
# Static dielectric constant tensor:
#      x y z
#    x 2.923390 0.000000 0.089850 
#    y 0.000000 3.254730 0.000000 
#    z 0.089850 0.000000 3.057950 
# 
# 
# High freq. dielectric constant tensor:
#      x y z
#    x 1.629490 0.000000 0.017260 
#    y 0.000000 1.677140 0.000000 
#    z 0.017260 0.000000 1.646110 
# 
# From -- ./inp_files/378435.got.cif
#   From: 2010.06.25/outbox.cif.g09.slc.cpg/sg12_190_cif.got.tgz:378435.got - 2010.06.28 00:19:55.
