data_PCOD8078026
_publ_section_title
;
Structure prediction by ZEFSAII (Michael W. Deem and Ramdas Pophale) SiO2 
 PCOD8078026
Probable space group: P 21/M
;
_chemical_formula_sum "Si O2"
_cell_formula_units_Z 28
_cell_length_a 24.000000
_cell_length_b 9.000000
_cell_length_c 12.000000
_cell_angle_alpha 90.000000
_cell_angle_beta 130.000000
_cell_angle_gamma 90.000000
_cell_volume 1985.587197
_symmetry_space_group_name_H-M "P 21/M"
_symmetry_group_IT_number 11
_symmetry_cell_setting 'monoclinic'
loop_
_space_group_symop_operation_xyz
x,y,z
-x,1/2+y,-z
-x,-y,-z
x,1/2-y,z
loop_
_atom_site_type_symbol
_atom_site_label
_atom_site_fract_x
_atom_site_fract_y
_atom_site_fract_z
Si Si1 0.134387 0.916288 0.001233
Si Si2 0.586672 0.082125 0.721467
Si Si3 0.303299 0.418857 0.439293
Si Si4 0.727424 0.917007 0.861610
Si Si5 0.979879 0.574664 0.858961
Si Si6 0.554850 0.418324 0.419478
Si Si7 0.838436 0.419368 0.701310
O O1 0.151740 0.750000 0.983721
O O2 0.145627 0.929060 0.147620
O O3 0.191435 0.020657 0.009451
O O4 0.049244 0.955717 0.865717
O O5 0.588820 0.250000 0.768745
O O6 0.570782 0.077587 0.570515
O O7 0.665099 0.008182 0.846646
O O8 0.522569 0.996307 0.704506
O O9 0.307878 0.250000 0.487642
O O10 0.287338 0.424942 0.288136
O O11 0.380430 0.498028 0.562994
O O12 0.238660 0.501440 0.423112
O O13 0.724485 0.750000 0.902816
O O14 0.968546 0.750000 0.862028
O O15 0.904153 0.502016 0.718647
O O16 0.000000 0.500000 0.000000
O O17 0.550961 0.250000 0.370677
O O18 0.834062 0.250000 0.654148
#
# Coordination Sequence:
#
# PCOD8078026 Si02
#       7
#     4   4   4   4   4   4   4
#     4   8  14  21  26  31  38  45  50  55  62  69
#     4   9  15  21  27  32  38  45  50  55  62  69
#     4   9  15  21  27  33  39  45  51  56  62  69
#     4   9  15  20  26  33  38  43  50  57  62  67
#     4   9  15  21  27  33  39  45  51  57  63  69
#     4   9  15  21  27  33  39  44  50  57  62  67
#     4   9  15  21  27  33  39  45  51  57  63  68
#
# _framework density 14.101622000000001
#
# number of rings (size 3 to 8) (size 9 to 14) (size 15 to 20)
#    0.000    3.143    0.000    3.429    0.000   10.857 
#    0.000    0.000    0.000    0.000    0.000    0.000 
#    0.000    0.000    0.000    0.000    0.000    0.000 
#
# Total GULP energy -346953.567475 kJ/mol
# GULP energy per Si atom -12391.198838 kJ/mol
# Density = 1.406953 g / cm^3
# Si number density = 14.101622 Si / 1000 Ang^3
#
#
#
# Elastic Constant Matrix: (Units=GPa)
#
#
# Indices 1 2 3 4 5 6 
#
# 1 98.6486 67.1654 30.5773 0.0000 55.0003 0.0000
# 2 67.1654 137.4858 21.3774 0.0000 37.9264 0.0000
# 3 30.5773 21.3774 10.4537 0.0000 18.0515 0.0000
# 4 0.0000 0.0000 0.0000 8.6234 0.0000 15.7155
# 5 55.0003 37.9264 18.0515 0.0000 31.4397 0.0000
# 6 0.0000 0.0000 0.0000 15.7155 0.0000 27.5975
#
#
#
# Elastic Compliance Matrix: (Units=1/GPa)
#
#
# Indices 1 2 3 4 5 6 
#
# 1 -0.111565 -0.004534 -1.272629 0.000000 0.931337 0.000000
# 2 -0.004534 0.010932 -0.002087 0.000000 -0.004057 0.000000
# 3 -1.272629 -0.002087 -3.090408 0.000000 4.003240 0.000000
# 4 0.000000 0.000000 0.000000 -3.069310 0.000000 1.747827
# 5 0.931337 -0.004057 4.003240 0.000000 -3.891081 0.000000
# 6 0.000000 0.000000 0.000000 1.747827 0.000000 -0.959070
#
#
# Mechanical properties :
#
#
# Convention : Reuss Voigt Hill
#
# Bulk Modulus (GPa) = -0.17393 53.86983 26.84795
# Shear Modulus (GPa) = -0.47762 22.03000 10.77619
#
# Velocity S-wave (km/s) = -0.58261 3.95680 2.76738
# Velocity P-wave (km/s) = 0.75907 7.69149 5.41216
#
# Compressibility (1/GPa) = -5.74954178
#
# Stress axis : x y z
#
# Youngs Moduli (GPa) = -8.96335 91.47139 -0.32358
#
# Poissons Ratio (x) = 0.41476 -0.41180
# Poissons Ratio (y) = -0.04064 -0.00068
# Poissons Ratio (z) = -11.40703 0.19090
#
# Static dielectric constant tensor:
#      x y z
#    x 3.051330 0.000000 0.721570 
#    y 0.000000 2.984880 0.000000 
#    z 0.721570 0.000000 2.126460 
# 
# 
# High freq. dielectric constant tensor:
#      x y z
#    x 1.530330 0.000000 0.079310 
#    y 0.000000 1.559700 0.000000 
#    z 0.079310 0.000000 1.435490 
# 
# From -- ./inp_files/42148.got.cif
#   From: 2010.06.25/outbox.ucp.g09.slc.cvg/sg11_22_cif.got.tgz:42148.got - 2010.06.28 13:43:20.
