data_PCOD8078702
_publ_section_title
;
Structure prediction by ZEFSAII (Michael W. Deem and Ramdas Pophale) SiO2 
 PCOD8078702
Probable space group: C 2/M
;
_chemical_formula_sum "Si O2"
_cell_formula_units_Z 48
_cell_length_a 13.083419
_cell_length_b 28.958308
_cell_length_c 8.624919
_cell_angle_alpha 90.000000
_cell_angle_beta 131.154589
_cell_angle_gamma 90.000000
_cell_volume 2460.412599
_symmetry_space_group_name_H-M "C 2/M"
_symmetry_group_IT_number 12
_symmetry_cell_setting 'monoclinic'
loop_
_space_group_symop_operation_xyz
x,y,z
-x,y,-z
-x,-y,-z
x,-y,z
1/2+x,1/2+y,z
1/2-x,1/2+y,-z
1/2-x,1/2-y,-z
1/2+x,1/2-y,z
loop_
_atom_site_type_symbol
_atom_site_label
_atom_site_fract_x
_atom_site_fract_y
_atom_site_fract_z
Si Si1 0.776307 0.183736 0.973937
Si Si2 0.830025 0.500000 0.148065
Si Si3 0.679255 0.093962 0.015358
Si Si4 0.357376 0.904793 0.669472
Si Si5 0.628369 0.178265 0.525411
Si Si6 0.966175 0.739708 0.144473
Si Si7 0.652433 0.000000 0.487719
O O1 0.773082 0.129680 0.012973
O O2 0.745580 0.193501 0.761144
O O3 0.662667 0.206490 0.967912
O O4 0.922426 0.208015 0.150624
O O5 0.774863 0.543839 0.998410
O O6 0.778472 0.500000 0.273749
O O7 0.991005 0.500000 0.323004
O O8 0.519771 0.099845 0.826258
O O9 0.706257 0.100560 0.224155
O O10 0.307470 0.863184 0.510956
O O11 0.300418 0.953607 0.551730
O O12 0.500000 0.160818 0.500000
O O13 0.587919 0.221816 0.376278
O O14 0.000000 0.736159 0.000000
#
# Coordination Sequence:
#
# PCOD8078702 Si02
#       7
#     8   4   8   8   8   8   4
#     4  10  20  32  50  70  92 129 162 193 243 286
#     4   9  17  25  41  61  93 126 155 195 224 276
#     4  10  17  28  43  64  93 125 160 189 232 282
#     4  10  17  26  43  63  95 128 157 190 226 281
#     4  10  18  30  48  66  92 128 159 194 237 281
#     4  10  20  34  49  68  94 123 160 205 239 280
#     4   9  17  23  37  65  91 127 162 181 223 280
#
# _framework density 19.508921999999998
#
# number of rings (size 3 to 8) (size 9 to 14) (size 15 to 20)
#    0.000    2.167    3.333    2.500    2.333    2.667 
#    0.000    3.333    0.000    0.000    0.000    0.583 
#    0.000    0.000    0.000   25.583    0.000    3.500 
#
# Total GULP energy -297484.539898 kJ/mol
# GULP energy per Si atom -12395.189162 kJ/mol
# Density = 1.946452 g / cm^3
# Si number density = 19.508922 Si / 1000 Ang^3
#
#
#
# Elastic Constant Matrix: (Units=GPa)
#
#
# Indices 1 2 3 4 5 6 
#
# 1 29.5738 40.3114 45.9856 0.0000 -20.9221 0.0000
# 2 40.3114 160.6147 66.5792 0.0000 -14.1839 0.0000
# 3 45.9856 66.5792 86.0193 0.0000 -35.7145 0.0000
# 4 0.0000 0.0000 0.0000 26.1931 0.0000 -12.1886
# 5 -20.9221 -14.1839 -35.7145 0.0000 25.8378 0.0000
# 6 0.0000 0.0000 0.0000 -12.1886 0.0000 13.2468
#
#
#
# Elastic Compliance Matrix: (Units=1/GPa)
#
#
# Indices 1 2 3 4 5 6 
#
# 1 0.240160 -0.018032 -0.088712 0.000000 0.061947 0.000000
# 2 -0.018032 0.012150 -0.007175 0.000000 -0.017849 0.000000
# 3 -0.088712 -0.007175 0.077784 0.000000 0.031744 0.000000
# 4 0.000000 0.000000 0.000000 0.066764 0.000000 0.061431
# 5 0.061947 -0.017849 0.031744 0.000000 0.122945 0.000000
# 6 0.000000 0.000000 0.000000 0.061431 0.000000 0.132013
#
#
# Mechanical properties :
#
#
# Convention : Reuss Voigt Hill
#
# Bulk Modulus (GPa) = 9.77942 64.66224 37.22083
# Shear Modulus (GPa) = 5.47203 21.27765 13.37484
#
# Velocity S-wave (km/s) = 1.67660 3.30610 2.62119
# Velocity P-wave (km/s) = 2.96170 6.91308 5.31800
#
# Compressibility (1/GPa) = 0.10225558
#
# Stress axis : x y z
#
# Youngs Moduli (GPa) = 4.16390 82.30654 12.85614
#
# Poissons Ratio (x) = 1.48412 1.14049
# Poissons Ratio (y) = 0.07508 0.09224
# Poissons Ratio (z) = 0.36939 0.59056
#
# Static dielectric constant tensor:
#      x y z
#    x 3.029070 0.000000 -0.341930 
#    y 0.000000 3.806020 0.000000 
#    z -0.341930 0.000000 3.622650 
# 
# 
# High freq. dielectric constant tensor:
#      x y z
#    x 1.698610 0.000000 -0.048250 
#    y 0.000000 1.768950 0.000000 
#    z -0.048250 0.000000 1.751950 
# 
# From -- ./inp_files/66324.got.cif
#   From: 2010.06.25/outbox.cif.g09.slc.cpg/sg12_34_cif.got.tgz:66324.got - 2010.06.28 00:19:55.
