data_PCOD8078750
_publ_section_title
;
Structure prediction by ZEFSAII (Michael W. Deem and Ramdas Pophale) SiO2 
 PCOD8078750
Probable space group: C 2/M
;
_chemical_formula_sum "Si O2"
_cell_formula_units_Z 64
_cell_length_a 23.488098
_cell_length_b 8.579438
_cell_length_c 21.582997
_cell_angle_alpha 90.000000
_cell_angle_beta 56.831421
_cell_angle_gamma 90.000000
_cell_volume 3640.636758
_symmetry_space_group_name_H-M "C 2/M"
_symmetry_group_IT_number 12
_symmetry_cell_setting 'monoclinic'
loop_
_space_group_symop_operation_xyz
x,y,z
-x,y,-z
-x,-y,-z
x,-y,z
1/2+x,1/2+y,z
1/2-x,1/2+y,-z
1/2-x,1/2-y,-z
1/2+x,1/2-y,z
loop_
_atom_site_type_symbol
_atom_site_label
_atom_site_fract_x
_atom_site_fract_y
_atom_site_fract_z
Si Si1 0.548292 0.316710 0.413373
Si Si2 0.550514 0.821618 0.767294
Si Si3 0.687343 0.181120 0.368285
Si Si4 0.477801 0.180896 0.930270
Si Si5 0.318386 0.816537 0.230137
Si Si6 0.547748 0.682779 0.637248
Si Si7 0.813010 0.182371 0.497976
Si Si8 0.103938 0.182211 0.923873
O O1 0.500000 0.275153 0.500000
O O2 0.564867 0.500000 0.403124
O O3 0.617976 0.221422 0.374332
O O4 0.512538 0.257743 0.371405
O O5 0.485558 0.797423 0.851654
O O6 0.620195 0.768907 0.759873
O O7 0.534530 0.721368 0.716463
O O8 0.557347 0.000000 0.742651
O O9 0.751059 0.223609 0.287742
O O10 0.692012 0.282277 0.427066
O O11 0.689623 0.000000 0.383810
O O12 0.535026 0.287143 0.927513
O O13 0.490369 0.000000 0.939910
O O14 0.405626 0.241565 0.001208
O O15 0.335401 0.766155 0.149531
O O16 0.305106 0.000000 0.240326
O O17 0.552527 0.500000 0.625612
O O18 0.618738 0.757494 0.571819
O O19 0.750000 0.250000 0.500000
O O20 0.812915 0.000000 0.488060
O O21 0.119463 0.000000 0.920648
#
# Coordination Sequence:
#
# PCOD8078750 Si02
#       8
#     8   8   8   8   8   8   8   8
#     4  10  20  40  60  73  95 132 174 217 263 313
#     4   9  19  32  49  74 105 137 171 211 253 300
#     4  12  24  36  53  79 103 131 171 219 264 307
#     4   9  16  28  44  66 100 143 178 202 245 311
#     4  10  20  35  52  72 104 145 175 206 256 316
#     4  10  21  35  54  74  97 132 172 212 258 306
#     4  11  22  37  53  75 104 138 172 209 255 313
#     4  10  17  26  44  72 102 133 171 217 255 293
#
# _framework density 17.579342
#
# number of rings (size 3 to 8) (size 9 to 14) (size 15 to 20)
#    0.000    1.875    1.250    5.625    0.000    6.750 
#    0.000    0.000    0.000    0.000    0.000    0.875 
#    0.000    0.000    0.000    0.000    0.000    0.000 
#
# Total GULP energy -396716.993349 kJ/mol
# GULP energy per Si atom -12397.406042 kJ/mol
# Density = 1.753933 g / cm^3
# Si number density = 17.579342 Si / 1000 Ang^3
#
#
#
# Elastic Constant Matrix: (Units=GPa)
#
#
# Indices 1 2 3 4 5 6 
#
# 1 94.1032 21.3416 45.6883 0.0006 2.7993 -0.0019
# 2 21.3416 49.6395 12.5540 0.0012 3.8975 0.0002
# 3 45.6883 12.5540 123.7176 0.0007 1.7445 0.0007
# 4 0.0006 0.0012 0.0007 30.0191 -0.0005 1.4423
# 5 2.7993 3.8975 1.7445 -0.0005 4.6597 -0.0001
# 6 -0.0019 0.0002 0.0007 1.4423 -0.0001 22.8026
#
#
#
# Elastic Compliance Matrix: (Units=1/GPa)
#
#
# Indices 1 2 3 4 5 6 
#
# 1 0.014028 -0.004629 -0.004671 0.000000 -0.002806 0.000001
# 2 -0.004629 0.023564 -0.000445 -0.000001 -0.016762 -0.000001
# 3 -0.004671 -0.000445 0.009860 0.000000 -0.000513 -0.000001
# 4 0.000000 -0.000001 0.000000 0.033414 0.000004 -0.002113
# 5 -0.002806 -0.016762 -0.000513 0.000004 0.230506 0.000001
# 6 0.000001 -0.000001 -0.000001 -0.002113 0.000001 0.043988
#
#
# Mechanical properties :
#
#
# Convention : Reuss Voigt Hill
#
# Bulk Modulus (GPa) = 35.76387 47.40313 41.58350
# Shear Modulus (GPa) = 13.01501 24.02136 18.51819
#
# Velocity S-wave (km/s) = 2.72390 3.70057 3.24914
# Velocity P-wave (km/s) = 5.50284 6.72924 6.14671
#
# Compressibility (1/GPa) = 0.02796118
#
# Stress axis : x y z
#
# Youngs Moduli (GPa) = 71.28666 42.43721 101.41626
#
# Poissons Ratio (x) = 0.19646 0.47373
# Poissons Ratio (y) = 0.33001 0.04515
# Poissons Ratio (z) = 0.33299 0.01889
#
# Static dielectric constant tensor:
#      x y z
#    x 3.084720 0.000000 -0.132930 
#    y 0.000000 3.198660 0.000000 
#    z -0.132930 0.000000 3.682030 
# 
# 
# High freq. dielectric constant tensor:
#      x y z
#    x 1.635030 0.000000 -0.001900 
#    y 0.000000 1.683250 0.000000 
#    z -0.001900 0.000000 1.695410 
# 
# From -- ./inp_files/319801.got.cif
#   From: 2010.06.25/outbox.cif.g09.slc.cpg/sg12_160_cif.got.tgz:319801.got - 2010.06.28 00:19:55.
