data_PCOD8078464
_publ_section_title
;
Structure prediction by ZEFSAII (Michael W. Deem and Ramdas Pophale) SiO2 
 PCOD8078464
Probable space group: C 2/M
;
_chemical_formula_sum "Si O2"
_cell_formula_units_Z 64
_cell_length_a 24.634883
_cell_length_b 9.302806
_cell_length_c 18.759865
_cell_angle_alpha 90.000000
_cell_angle_beta 79.148407
_cell_angle_gamma 90.000000
_cell_volume 4222.385696
_symmetry_space_group_name_H-M "C 2/M"
_symmetry_group_IT_number 12
_symmetry_cell_setting 'monoclinic'
loop_
_space_group_symop_operation_xyz
x,y,z
-x,y,-z
-x,-y,-z
x,-y,z
1/2+x,1/2+y,z
1/2-x,1/2+y,-z
1/2-x,1/2-y,-z
1/2+x,1/2-y,z
loop_
_atom_site_type_symbol
_atom_site_label
_atom_site_fract_x
_atom_site_fract_y
_atom_site_fract_z
Si Si1 0.455084 0.669159 0.955922
Si Si2 0.897454 0.170264 0.618343
Si Si3 0.453864 0.837531 0.813129
Si Si4 0.655063 0.165394 0.251042
Si Si5 0.168206 0.833076 0.000469
Si Si6 0.562263 0.840437 0.514142
Si Si7 0.998486 0.665486 0.657946
Si Si8 0.727460 0.833548 0.107809
O O1 0.462141 0.500000 0.945758
O O2 0.465401 0.733566 0.875652
O O3 0.394653 0.710985 0.001754
O O4 0.500000 0.731648 0.000000
O O5 0.847080 0.235441 0.677736
O O6 0.897247 0.229636 0.536741
O O7 0.953561 0.221990 0.641061
O O8 0.892843 0.000000 0.617811
O O9 0.396001 0.801590 0.789089
O O10 0.503181 0.814979 0.742278
O O11 0.453518 0.000000 0.842254
O O12 0.711345 0.202589 0.193577
O O13 0.653864 0.000000 0.276073
O O14 0.187140 0.751432 0.065895
O O15 0.171978 0.000000 0.018242
O O16 0.208251 0.794512 0.923597
O O17 0.500000 0.830559 0.500000
O O18 0.556169 0.805372 0.600985
O O19 0.586723 0.000000 0.497000
O O20 0.978725 0.500000 0.646862
O O21 0.715709 0.000000 0.095291
#
# Coordination Sequence:
#
# PCOD8078464 Si02
#       8
#     8   8   8   8   8   8   8   8
#     4  10  20  31  41  56  81 108 130 157 197 242
#     4  10  17  21  30  50  74  97 125 156 185 220
#     4   9  16  27  41  56  72  94 130 168 195 226
#     4   9  16  26  38  52  73  99 126 158 196 231
#     4   9  17  28  42  59  77  98 127 161 199 237
#     4   8  13  23  35  45  64  96 128 153 185 224
#     4   8  15  26  37  48  66  95 126 159 194 225
#     4   9  16  27  43  59  75  97 127 166 201 231
#
# _framework density 15.157306999999999
#
# number of rings (size 3 to 8) (size 9 to 14) (size 15 to 20)
#    0.000    3.000    1.250    2.625    0.000    5.000 
#    0.000    0.000    0.000    0.000    0.000    0.000 
#    0.000    0.000    0.000    1.125    0.000   10.375 
#
# Total GULP energy -396432.132298 kJ/mol
# GULP energy per Si atom -12388.504134 kJ/mol
# Density = 1.512281 g / cm^3
# Si number density = 15.157307 Si / 1000 Ang^3
#
#
#
# Elastic Constant Matrix: (Units=GPa)
#
#
# Indices 1 2 3 4 5 6 
#
# 1 53.7730 24.8787 43.2410 0.0000 -13.2503 0.0000
# 2 24.8787 64.5624 48.7685 0.0000 -15.1941 0.0000
# 3 43.2410 48.7685 125.1987 0.0000 -34.0259 0.0000
# 4 0.0000 0.0000 0.0000 24.9118 0.0000 -3.0583
# 5 -13.2503 -15.1941 -34.0259 0.0000 19.9163 0.0000
# 6 0.0000 0.0000 0.0000 -3.0583 0.0000 9.1345
#
#
#
# Elastic Compliance Matrix: (Units=1/GPa)
#
#
# Indices 1 2 3 4 5 6 
#
# 1 0.026813 -0.004604 -0.006671 0.000000 0.002929 0.000000
# 2 -0.004604 0.022908 -0.006377 0.000000 0.003519 0.000000
# 3 -0.006671 -0.006377 0.019129 0.000000 0.023377 0.000000
# 4 0.000000 0.000000 0.000000 0.041862 0.000000 0.014016
# 5 0.002929 0.003519 0.023377 0.000000 0.094781 0.000000
# 6 0.000000 0.000000 0.000000 0.014016 0.000000 0.114167
#
#
# Mechanical properties :
#
#
# Convention : Reuss Voigt Hill
#
# Bulk Modulus (GPa) = 29.80993 53.03451 41.42222
# Shear Modulus (GPa) = 13.65574 19.23558 16.44566
#
# Velocity S-wave (km/s) = 3.00481 3.56626 3.29751
# Velocity P-wave (km/s) = 5.63456 7.21269 6.47191
#
# Compressibility (1/GPa) = 0.03354587
#
# Stress axis : x y z
#
# Youngs Moduli (GPa) = 37.29522 43.65296 52.27737
#
# Poissons Ratio (x) = 0.20096 0.34877
# Poissons Ratio (y) = 0.17169 0.33337
# Poissons Ratio (z) = 0.24881 0.27837
#
# Static dielectric constant tensor:
#      x y z
#    x 2.584690 0.000000 -0.456650 
#    y 0.000000 2.856000 0.000000 
#    z -0.456650 0.000000 3.410240 
# 
# 
# High freq. dielectric constant tensor:
#      x y z
#    x 1.507430 0.000000 -0.042010 
#    y 0.000000 1.579200 0.000000 
#    z -0.042010 0.000000 1.592050 
# 
# From -- ./inp_files/323374.got.cif
#   From: 2010.06.25/outbox.cif.g09.slc.cpg/sg12_162_cif.got.tgz:323374.got - 2010.06.28 00:19:55.
