data_PCOD8078009
_publ_section_title
;
Structure prediction by ZEFSAII (Michael W. Deem and Ramdas Pophale) SiO2 
 PCOD8078009
Probable space group: P 21/M
;
_chemical_formula_sum "Si O2"
_cell_formula_units_Z 32
_cell_length_a 24.000000
_cell_length_b 9.000000
_cell_length_c 15.000000
_cell_angle_alpha 90.000000
_cell_angle_beta 30.000000
_cell_angle_gamma 90.000000
_cell_volume 1620.000000
_symmetry_space_group_name_H-M "P 21/M"
_symmetry_group_IT_number 11
_symmetry_cell_setting 'monoclinic'
loop_
_space_group_symop_operation_xyz
x,y,z
-x,1/2+y,-z
-x,-y,-z
x,1/2-y,z
loop_
_atom_site_type_symbol
_atom_site_label
_atom_site_fract_x
_atom_site_fract_y
_atom_site_fract_z
Si Si1 0.613680 0.920572 0.826257
Si Si2 0.785179 0.575984 0.445486
Si Si3 0.760083 0.075615 0.293857
Si Si4 0.477520 0.920224 0.438616
Si Si5 0.148280 0.924111 0.025645
Si Si6 0.932890 0.073794 0.390797
Si Si7 0.790884 0.574482 0.726218
Si Si8 0.706839 0.921688 0.038985
O O1 0.589963 0.750000 0.874180
O O2 0.662510 0.950249 0.658878
O O3 0.695937 0.977379 0.789211
O O4 0.500000 0.000000 0.000000
O O5 0.814732 0.750000 0.401380
O O6 0.802012 0.510518 0.323431
O O7 0.868443 0.497249 0.397504
O O8 0.763507 0.250000 0.310539
O O9 0.635571 0.017066 0.447998
O O10 0.835652 0.039244 0.101947
O O11 0.458452 0.750000 0.491277
O O12 0.572799 0.937081 0.230730
O O13 0.500000 0.000000 0.500000
O O14 0.120934 0.750000 0.075541
O O15 0.256884 0.968642 0.931577
O O16 0.059085 0.029686 0.196628
O O17 0.917831 0.250000 0.413036
O O18 0.899479 0.009580 0.535477
O O19 0.812958 0.750000 0.691721
O O20 0.755420 0.525532 0.875434
O O21 0.741823 0.750000 0.007656
#
# Coordination Sequence:
#
# PCOD8078009 Si02
#       8
#     4   4   4   4   4   4   4   4
#     4   9  19  34  54  81 113 150 190 232 283 339
#     4  10  22  40  60  85 117 153 192 239 292 345
#     4  10  22  38  59  88 119 155 197 238 287 344
#     4  10  20  36  58  85 120 158 195 239 287 340
#     4  11  23  40  61  86 118 154 194 243 292 345
#     4  11  23  41  64  87 113 150 194 244 295 347
#     4   9  20  39  59  83 117 154 192 238 291 342
#     4  10  21  37  60  88 119 156 197 240 288 343
#
# _framework density 19.753086
#
# number of rings (size 3 to 8) (size 9 to 14) (size 15 to 20)
#    0.000    2.000    1.250    2.625    1.750    5.500 
#    0.000    0.000    0.000    0.000    0.000    0.000 
#    0.000    0.000    0.000    0.000    0.000    0.000 
#
# Total GULP energy -396631.944185 kJ/mol
# GULP energy per Si atom -12394.748256 kJ/mol
# Density = 1.970813 g / cm^3
# Si number density = 19.753086 Si / 1000 Ang^3
#
#
#
# Elastic Constant Matrix: (Units=GPa)
#
#
# Indices 1 2 3 4 5 6 
#
# 1 71.5211 26.4012 22.2421 0.0000 32.2693 0.0000
# 2 26.4012 74.0056 31.6362 0.0000 14.1188 0.0000
# 3 22.2421 31.6362 108.6840 0.0000 24.3253 0.0000
# 4 0.0000 0.0000 0.0000 34.7915 0.0000 5.0775
# 5 32.2693 14.1188 24.3253 0.0000 41.0334 0.0000
# 6 0.0000 0.0000 0.0000 5.0775 0.0000 35.1716
#
#
#
# Elastic Compliance Matrix: (Units=1/GPa)
#
#
# Indices 1 2 3 4 5 6 
#
# 1 0.023413 -0.005365 0.000551 0.000000 -0.016893 0.000000
# 2 -0.005365 0.017001 -0.004019 0.000000 0.000752 0.000000
# 3 0.000551 -0.004019 0.011582 0.000000 -0.005917 0.000000
# 4 0.000000 0.000000 0.000000 0.029361 0.000000 -0.004239
# 5 -0.016893 0.000752 -0.005917 0.000000 0.040904 0.000000
# 6 0.000000 0.000000 0.000000 -0.004239 0.000000 0.029044
#
#
# Mechanical properties :
#
#
# Convention : Reuss Voigt Hill
#
# Bulk Modulus (GPa) = 29.12897 46.08553 37.60725
# Shear Modulus (GPa) = 27.71387 33.79471 30.75429
#
# Velocity S-wave (km/s) = 3.74975 4.14074 3.95008
# Velocity P-wave (km/s) = 5.79017 6.80018 6.31539
#
# Compressibility (1/GPa) = 0.03433009
#
# Stress axis : x y z
#
# Youngs Moduli (GPa) = 42.71170 58.81967 86.33815
#
# Poissons Ratio (x) = 0.31558 -0.04759
# Poissons Ratio (y) = 0.22916 0.34700
# Poissons Ratio (z) = -0.02354 0.23640
#
# Static dielectric constant tensor:
#      x y z
#    x 3.583940 0.000000 0.181730 
#    y 0.000000 3.626970 0.000000 
#    z 0.181730 0.000000 3.912400 
# 
# 
# High freq. dielectric constant tensor:
#      x y z
#    x 1.764470 0.000000 0.017650 
#    y 0.000000 1.767950 0.000000 
#    z 0.017650 0.000000 1.790340 
# 
# From -- ./inp_files/51631.got.cif
#   From: 2010.06.25/outbox.ucp.g09.slc.cvg/sg11_26_cif.got.tgz:51631.got - 2010.06.28 13:43:20.
