data_PCOD8078764
_publ_section_title
;
Structure prediction by ZEFSAII (Michael W. Deem and Ramdas Pophale) SiO2 
 PCOD8078764
Probable space group: C 2/M
;
_chemical_formula_sum "Si O2"
_cell_formula_units_Z 64
_cell_length_a 20.614616
_cell_length_b 9.199719
_cell_length_c 25.105656
_cell_angle_alpha 90.000000
_cell_angle_beta 49.868933
_cell_angle_gamma 90.000000
_cell_volume 3640.321933
_symmetry_space_group_name_H-M "C 2/M"
_symmetry_group_IT_number 12
_symmetry_cell_setting 'monoclinic'
loop_
_space_group_symop_operation_xyz
x,y,z
-x,y,-z
-x,-y,-z
x,-y,z
1/2+x,1/2+y,z
1/2-x,1/2+y,-z
1/2-x,1/2-y,-z
1/2+x,1/2-y,z
loop_
_atom_site_type_symbol
_atom_site_label
_atom_site_fract_x
_atom_site_fract_y
_atom_site_fract_z
Si Si1 0.418397 0.830012 0.773655
Si Si2 0.023774 0.330387 0.369929
Si Si3 0.160336 0.330719 0.799548
Si Si4 0.023533 0.672459 0.143158
Si Si5 0.174652 0.169022 0.009816
Si Si6 0.172956 0.829984 0.349172
Si Si7 0.230149 0.167387 0.861289
Si Si8 0.079076 0.839004 0.497951
O O1 0.480158 0.796562 0.691119
O O2 0.460489 0.769531 0.805225
O O3 0.324695 0.762655 0.814021
O O4 0.404526 0.000000 0.788574
O O5 0.027224 0.500000 0.380207
O O6 0.109745 0.260769 0.346027
O O7 0.939053 0.267029 0.442762
O O8 0.161786 0.500000 0.811864
O O9 0.231782 0.290521 0.718037
O O10 0.174423 0.249616 0.847359
O O11 0.071390 0.282281 0.821775
O O12 0.038709 0.500000 0.129858
O O13 0.085945 0.756576 0.070826
O O14 0.175398 0.000000 0.026129
O O15 0.250000 0.250000 0.000000
O O16 0.184732 0.186859 0.941594
O O17 0.159822 0.790282 0.419038
O O18 0.151670 0.000000 0.352053
O O19 0.235021 0.000000 0.841335
O O20 0.000000 0.836077 0.500000
O O21 0.093160 0.000000 0.514026
#
# Coordination Sequence:
#
# PCOD8078764 Si02
#       8
#     8   8   8   8   8   8   8   8
#     4   9  17  32  52  74 101 136 170 207 257 306
#     4  10  17  26  46  74  98 126 169 212 250 297
#     4  10  21  35  55  80 104 136 177 219 253 298
#     4  10  21  39  57  76 106 138 174 215 258 309
#     4  11  22  37  58  81 105 137 173 213 260 309
#     4   9  17  30  46  69 101 134 166 202 255 305
#     4  10  20  36  56  76 104 139 170 207 260 313
#     4   8  15  27  42  64 100 135 161 202 254 301
#
# _framework density 17.580863000000001
#
# number of rings (size 3 to 8) (size 9 to 14) (size 15 to 20)
#    0.000    2.375    2.500    1.500    0.000    4.250 
#    0.000    3.750    0.000    0.750    0.000    0.000 
#    0.000    0.000    0.000    0.000    0.000    1.250 
#
# Total GULP energy -396712.469888 kJ/mol
# GULP energy per Si atom -12397.264684 kJ/mol
# Density = 1.754085 g / cm^3
# Si number density = 17.580863 Si / 1000 Ang^3
#
#
#
# Elastic Constant Matrix: (Units=GPa)
#
#
# Indices 1 2 3 4 5 6 
#
# 1 105.7599 41.8230 61.0700 0.0000 0.3368 0.0004
# 2 41.8230 64.0372 54.5319 -0.0001 -0.4556 0.0010
# 3 61.0700 54.5319 140.0773 0.0000 0.2356 0.0001
# 4 0.0000 -0.0001 0.0000 31.6679 0.0000 2.2001
# 5 0.3368 -0.4556 0.2356 0.0000 22.1743 0.0001
# 6 0.0004 0.0010 0.0001 2.2001 0.0001 20.2111
#
#
#
# Elastic Compliance Matrix: (Units=1/GPa)
#
#
# Indices 1 2 3 4 5 6 
#
# 1 0.013983 -0.005899 -0.003799 0.000000 -0.000293 0.000000
# 2 -0.005899 0.025856 -0.007495 0.000000 0.000700 -0.000001
# 3 -0.003799 -0.007495 0.011713 0.000000 -0.000221 0.000000
# 4 0.000000 0.000000 0.000000 0.031818 0.000000 -0.003464
# 5 -0.000293 0.000700 -0.000221 0.000000 0.045119 0.000000
# 6 0.000000 -0.000001 0.000000 -0.003464 0.000000 0.049855
#
#
# Mechanical properties :
#
#
# Convention : Reuss Voigt Hill
#
# Bulk Modulus (GPa) = 58.25541 69.41381 63.83461
# Shear Modulus (GPa) = 22.88821 24.97395 23.93108
#
# Velocity S-wave (km/s) = 3.61207 3.77307 3.69345
# Velocity P-wave (km/s) = 7.11363 7.65178 7.38761
#
# Compressibility (1/GPa) = 0.01716579
#
# Stress axis : x y z
#
# Youngs Moduli (GPa) = 71.51573 38.67532 85.37188
#
# Poissons Ratio (x) = 0.22815 0.32434
# Poissons Ratio (y) = 0.42188 0.63987
# Poissons Ratio (z) = 0.27170 0.28988
#
# Static dielectric constant tensor:
#      x y z
#    x 3.043770 0.000000 0.029450 
#    y 0.000000 3.220730 0.000000 
#    z 0.029450 0.000000 3.697810 
# 
# 
# High freq. dielectric constant tensor:
#      x y z
#    x 1.645100 0.000000 0.006950 
#    y 0.000000 1.668640 0.000000 
#    z 0.006950 0.000000 1.699500 
# 
# From -- ./inp_files/365186.got.cif
#   From: 2010.06.25/outbox.cif.g09.slc.cpg/sg12_183_cif.got.tgz:365186.got - 2010.06.28 00:19:55.
