data_PCOD8078057
_publ_section_title
;
Structure prediction by ZEFSAII (Michael W. Deem and Ramdas Pophale) SiO2 
 PCOD8078057
Probable space group: C 2/M
;
_chemical_formula_sum "Si O2"
_cell_formula_units_Z 32
_cell_length_a 14.310943
_cell_length_b 18.643423
_cell_length_c 11.444106
_cell_angle_alpha 90.000000
_cell_angle_beta 150.199474
_cell_angle_gamma 90.000000
_cell_volume 1517.456929
_symmetry_space_group_name_H-M "C 2/M"
_symmetry_group_IT_number 12
_symmetry_cell_setting 'monoclinic'
loop_
_space_group_symop_operation_xyz
x,y,z
-x,y,-z
-x,-y,-z
x,-y,z
1/2+x,1/2+y,z
1/2-x,1/2+y,-z
1/2-x,1/2-y,-z
1/2+x,1/2-y,z
loop_
_atom_site_type_symbol
_atom_site_label
_atom_site_fract_x
_atom_site_fract_y
_atom_site_fract_z
Si Si1 0.222822 0.000000 0.768593
Si Si2 0.500000 0.736730 0.000000
Si Si3 0.223673 0.000000 0.274278
Si Si4 0.297332 0.351934 0.340299
Si Si5 0.115149 0.878830 0.307763
Si Si6 0.681461 0.500000 0.980734
O O1 0.303928 0.072358 0.799675
O O2 0.291277 0.000000 0.978157
O O3 0.000000 0.000000 0.500000
O O4 0.677127 0.786315 0.159559
O O5 0.541704 0.688251 0.156380
O O6 0.263614 0.072400 0.392465
O O7 0.318798 0.000000 0.246443
O O8 0.000000 0.000000 0.000000
O O9 0.500000 0.346034 0.500000
O O10 0.294736 0.346759 0.477846
O O11 0.942152 0.928429 0.156958
#
# Coordination Sequence:
#
# PCOD8078057 Si02
#       6
#     4   4   4   8   8   4
#     4  10  17  35  58  80 108 143 196 229 267 325
#     4  12  24  36  56  88 120 146 180 228 290 344
#     4   8  15  28  59  83 102 148 197 234 256 324
#     4  11  23  38  58  84 113 152 185 232 280 328
#     4  10  17  35  56  86 112 144 195 226 273 336
#     4  10  14  32  64  82 101 154 197 230 266 324
#
# _framework density 21.087913
#
# number of rings (size 3 to 8) (size 9 to 14) (size 15 to 20)
#    0.000    2.000    8.750    1.500    0.000    1.500 
#    0.000    0.000    0.000    0.000    0.000    8.750 
#    0.000    0.000    0.000    0.000    0.000    0.000 
#
# Total GULP energy -198265.706316 kJ/mol
# GULP energy per Si atom -12391.606645 kJ/mol
# Density = 2.103992 g / cm^3
# Si number density = 21.087913 Si / 1000 Ang^3
#
#
#
# Elastic Constant Matrix: (Units=GPa)
#
#
# Indices 1 2 3 4 5 6 
#
# 1 109.1895 50.7430 51.4376 0.0000 -47.9661 0.0000
# 2 50.7430 183.3597 50.8913 0.0000 -14.0466 0.0000
# 3 51.4376 50.8913 52.0817 0.0000 -25.1900 0.0000
# 4 0.0000 0.0000 0.0000 48.8899 0.0000 48.8185
# 5 -47.9661 -14.0466 -25.1900 0.0000 40.4715 0.0000
# 6 0.0000 0.0000 0.0000 48.8185 0.0000 63.6916
#
#
#
# Elastic Compliance Matrix: (Units=1/GPa)
#
#
# Indices 1 2 3 4 5 6 
#
# 1 0.025703 -0.001805 -0.013149 0.000000 0.021652 0.000000
# 2 -0.001805 0.007838 -0.008005 0.000000 -0.004401 0.000000
# 3 -0.013149 -0.008005 0.044534 0.000000 0.009356 0.000000
# 4 0.000000 0.000000 0.000000 0.087174 0.000000 -0.066817
# 5 0.021652 -0.004401 0.009356 0.000000 0.054666 0.000000
# 6 0.000000 0.000000 0.000000 -0.066817 0.000000 0.066915
#
#
# Mechanical properties :
#
#
# Convention : Reuss Voigt Hill
#
# Bulk Modulus (GPa) = 31.09697 72.30830 51.70263
# Shear Modulus (GPa) = 14.55739 43.38121 28.96930
#
# Velocity S-wave (km/s) = 2.63024 4.54051 3.71042
# Velocity P-wave (km/s) = 4.89924 7.86459 6.55188
#
# Compressibility (1/GPa) = 0.03215747
#
# Stress axis : x y z
#
# Youngs Moduli (GPa) = 38.90554 127.58707 22.45458
#
# Poissons Ratio (x) = 0.23027 0.29526
# Poissons Ratio (y) = 0.07022 0.17974
# Poissons Ratio (z) = 0.51159 1.02130
#
# Static dielectric constant tensor:
#      x y z
#    x 4.190630 0.000000 -0.645100 
#    y 0.000000 4.268980 0.000000 
#    z -0.645100 0.000000 3.554450 
# 
# 
# High freq. dielectric constant tensor:
#      x y z
#    x 1.819570 0.000000 -0.042650 
#    y 0.000000 1.839320 0.000000 
#    z -0.042650 0.000000 1.793540 
# 
# From -- ./inp_files/146307.got.cif
#   From: 2010.06.25/outbox.cif.g09.slc.cpg/sg12_74_cif.got.tgz:146307.got - 2010.06.28 00:19:55.
