data_PCOD8078216
_publ_section_title
;
Structure prediction by ZEFSAII (Michael W. Deem and Ramdas Pophale) SiO2 
 PCOD8078216
Probable space group: C 2/M
;
_chemical_formula_sum "Si O2"
_cell_formula_units_Z 56
_cell_length_a 19.705553
_cell_length_b 17.914176
_cell_length_c 17.704030
_cell_angle_alpha 90.000000
_cell_angle_beta 28.258163
_cell_angle_gamma 90.000000
_cell_volume 2958.879544
_symmetry_space_group_name_H-M "C 2/M"
_symmetry_group_IT_number 12
_symmetry_cell_setting 'monoclinic'
loop_
_space_group_symop_operation_xyz
x,y,z
-x,y,-z
-x,-y,-z
x,-y,z
1/2+x,1/2+y,z
1/2-x,1/2+y,-z
1/2-x,1/2-y,-z
1/2+x,1/2-y,z
loop_
_atom_site_type_symbol
_atom_site_label
_atom_site_fract_x
_atom_site_fract_y
_atom_site_fract_z
Si Si1 0.661503 0.322799 0.813589
Si Si2 0.929863 0.085892 0.232736
Si Si3 0.242019 0.912450 0.455233
Si Si4 0.745880 0.412209 0.870545
Si Si5 0.196998 0.654715 0.754548
Si Si6 0.106774 0.586568 0.982915
Si Si7 0.051112 0.586744 0.200076
O O1 0.667405 0.367250 0.729387
O O2 0.755841 0.367165 0.782649
O O3 0.728089 0.241857 0.734553
O O4 0.500000 0.316025 0.000000
O O5 0.885615 0.106393 0.361754
O O6 0.895308 0.000000 0.249163
O O7 0.096630 0.103527 0.059454
O O8 0.205049 0.874505 0.410748
O O9 0.391510 0.880417 0.343731
O O10 0.258879 0.000000 0.423354
O O11 0.762517 0.500000 0.836572
O O12 0.869170 0.379180 0.804995
O O13 0.229699 0.613567 0.803287
O O14 0.033208 0.636606 0.894343
O O15 0.068989 0.500000 0.006246
O O16 0.149730 0.599927 0.028284
O O17 0.037171 0.500000 0.230635
#
# Coordination Sequence:
#
# PCOD8078216 Si02
#       7
#     8   8   8   8   8   8   8
#     4  10  18  29  45  67  94 124 162 191 225 273
#     4   9  18  31  48  69  94 123 160 198 231 272
#     4   9  17  30  49  74  96 118 153 197 240 281
#     4   9  17  31  50  70  93 124 158 195 232 274
#     4  10  16  26  45  69  97 121 152 192 234 275
#     4   9  15  26  46  71  94 120 153 197 237 273
#     4   8  15  28  48  72  95 116 152 198 239 276
#
# _framework density 18.926083999999999
#
# number of rings (size 3 to 8) (size 9 to 14) (size 15 to 20)
#    0.000    2.857    1.429    3.000    0.000    2.286 
#    0.000    1.429    0.000    4.286    3.714    5.000 
#    0.000    0.000    0.000    0.000    0.000    0.000 
#
# Total GULP energy -346965.048279 kJ/mol
# GULP energy per Si atom -12391.608867 kJ/mol
# Density = 1.888301 g / cm^3
# Si number density = 18.926084 Si / 1000 Ang^3
#
#
#
# Elastic Constant Matrix: (Units=GPa)
#
#
# Indices 1 2 3 4 5 6 
#
# 1 51.9911 27.2319 6.3736 0.0065 8.7755 -0.0022
# 2 27.2319 75.6939 23.6750 0.0056 11.9486 -0.0016
# 3 6.3736 23.6750 50.8314 0.0052 20.6455 -0.0002
# 4 0.0065 0.0056 0.0052 15.3746 -0.0036 3.8994
# 5 8.7755 11.9486 20.6455 -0.0036 24.8104 0.0024
# 6 -0.0022 -0.0016 -0.0002 3.8994 0.0024 4.6974
#
#
#
# Elastic Compliance Matrix: (Units=1/GPa)
#
#
# Indices 1 2 3 4 5 6 
#
# 1 0.024776 -0.009006 0.004359 -0.000017 -0.008053 0.000027
# 2 -0.009006 0.018817 -0.007927 -0.000001 0.000720 0.000002
# 3 0.004359 -0.007927 0.033071 -0.000025 -0.025244 0.000034
# 4 -0.000017 -0.000001 -0.000025 0.082389 0.000046 -0.068392
# 5 -0.008053 0.000720 -0.025244 0.000046 0.063814 -0.000075
# 6 0.000027 0.000002 0.000034 -0.068392 -0.000075 0.269655
#
#
# Mechanical properties :
#
#
# Convention : Reuss Voigt Hill
#
# Bulk Modulus (GPa) = 19.41136 32.56417 25.98776
# Shear Modulus (GPa) = 9.34857 17.05888 13.20373
#
# Velocity S-wave (km/s) = 2.22491 3.00549 2.64417
# Velocity P-wave (km/s) = 4.10841 5.41178 4.80449
#
# Compressibility (1/GPa) = 0.05151622
#
# Stress axis : x y z
#
# Youngs Moduli (GPa) = 40.36177 53.14418 30.23765
#
# Poissons Ratio (x) = 0.47859 -0.13180
# Poissons Ratio (y) = 0.36348 0.23970
# Poissons Ratio (z) = -0.17592 0.42128
#
# Static dielectric constant tensor:
#      x y z
#    x 3.669270 0.000000 0.448080 
#    y 0.000000 3.293770 0.000000 
#    z 0.448080 0.000000 3.381660 
# 
# 
# High freq. dielectric constant tensor:
#      x y z
#    x 1.726050 0.000000 0.039930 
#    y 0.000000 1.715090 0.000000 
#    z 0.039930 0.000000 1.705700 
# 
# From -- ./inp_files/284531.got.cif
#   From: 2010.06.25/outbox.cif.g09.slc.cpg/sg12_143_cif.got.tgz:284531.got - 2010.06.28 00:19:55.
