data_PCOD8078348
_publ_section_title
;
Structure prediction by ZEFSAII (Michael W. Deem and Ramdas Pophale) SiO2 
 PCOD8078348
Probable space group: C 2/M
;
_chemical_formula_sum "Si O2"
_cell_formula_units_Z 52
_cell_length_a 5.217981
_cell_length_b 33.605313
_cell_length_c 22.382259
_cell_angle_alpha 90.000000
_cell_angle_beta 110.300430
_cell_angle_gamma 90.000000
_cell_volume 3680.989354
_symmetry_space_group_name_H-M "C 2/M"
_symmetry_group_IT_number 12
_symmetry_cell_setting 'monoclinic'
loop_
_space_group_symop_operation_xyz
x,y,z
-x,y,-z
-x,-y,-z
x,-y,z
1/2+x,1/2+y,z
1/2-x,1/2+y,-z
1/2-x,1/2-y,-z
1/2+x,1/2-y,z
loop_
_atom_site_type_symbol
_atom_site_label
_atom_site_fract_x
_atom_site_fract_y
_atom_site_fract_z
Si Si1 0.961233 0.547498 0.289411
Si Si2 0.712574 0.547168 0.143279
Si Si3 0.893326 0.452503 0.927798
Si Si4 0.144481 0.767451 0.429207
Si Si5 0.433595 0.571307 0.637851
Si Si6 0.312797 0.640966 0.542214
Si Si7 0.812936 0.000000 0.542052
O O1 0.970880 0.500000 0.298963
O O2 0.264624 0.565281 0.311458
O O3 0.819083 0.560287 0.216451
O O4 0.789796 0.567291 0.328416
O O5 0.707214 0.500000 0.138213
O O6 0.409713 0.564402 0.108420
O O7 0.910369 0.564480 0.108063
O O8 0.891278 0.500000 0.926719
O O9 0.000000 0.436625 0.000000
O O10 0.250000 0.750000 0.500000
O O11 0.340828 0.750025 0.393107
O O12 0.146548 0.814689 0.430760
O O13 0.405991 0.614118 0.605138
O O14 0.380122 0.539141 0.583359
O O15 0.500000 0.632243 0.500000
O O16 0.000000 0.632231 0.500000
O O17 0.500000 0.000000 0.500000
O O18 0.000000 0.000000 0.500000
#
# Coordination Sequence:
#
# PCOD8078348 Si02
#       7
#     8   8   8   8   8   8   4
#     4  11  20  36  47  57  77 109 151 181 206 246
#     4   9  17  26  42  57  72 104 136 164 203 249
#     4   9  15  24  37  60  84  98 119 162 215 256
#     4  10  16  30  49  67  85 103 119 145 200 270
#     4  12  23  34  47  61  79 106 138 182 218 249
#     4  12  21  33  48  67  85 101 129 166 216 279
#     4  12  22  36  46  56  76 100 131 170 229 270
#
# _framework density 14.126636
#
# number of rings (size 3 to 8) (size 9 to 14) (size 15 to 20)
#    0.000    1.385    4.615    4.154    0.000    4.308 
#    0.000    0.000    0.000    0.000    0.000    0.000 
#    0.000    0.000    0.000    0.000    0.000    0.000 
#
# Total GULP energy -322384.726762 kJ/mol
# GULP energy per Si atom -12399.412568 kJ/mol
# Density = 1.409448 g / cm^3
# Si number density = 14.126636 Si / 1000 Ang^3
#
#
#
# Elastic Constant Matrix: (Units=GPa)
#
#
# Indices 1 2 3 4 5 6 
#
# 1 117.4202 13.9403 33.1880 0.0000 5.1448 0.0000
# 2 13.9403 65.2324 25.8277 0.0000 0.6327 0.0000
# 3 33.1880 25.8277 77.5182 0.0000 4.0156 0.0000
# 4 0.0000 0.0000 0.0000 5.9510 0.0000 -0.6727
# 5 5.1448 0.6327 4.0156 0.0000 27.8609 0.0000
# 6 0.0000 0.0000 0.0000 -0.6727 0.0000 13.5884
#
#
#
# Elastic Compliance Matrix: (Units=1/GPa)
#
#
# Indices 1 2 3 4 5 6 
#
# 1 0.009744 -0.000511 -0.003938 0.000000 -0.001220 0.000000
# 2 -0.000511 0.017692 -0.005702 0.000000 0.000515 0.000000
# 3 -0.003938 -0.005702 0.016565 0.000000 -0.001531 0.000000
# 4 0.000000 0.000000 0.000000 0.168984 0.000000 0.008366
# 5 -0.001220 0.000515 -0.001531 0.000000 0.036327 0.000000
# 6 0.000000 0.000000 0.000000 0.008366 0.000000 0.074006
#
#
# Mechanical properties :
#
#
# Convention : Reuss Voigt Hill
#
# Bulk Modulus (GPa) = 42.19831 45.12031 43.65931
# Shear Modulus (GPa) = 14.22394 21.96107 18.09251
#
# Velocity S-wave (km/s) = 3.17659 3.94710 3.58262
# Velocity P-wave (km/s) = 6.58716 7.26512 6.93443
#
# Compressibility (1/GPa) = 0.02369763
#
# Stress axis : x y z
#
# Youngs Moduli (GPa) = 102.63124 56.52335 60.36676
#
# Poissons Ratio (x) = 0.02889 0.23773
# Poissons Ratio (y) = 0.05247 0.34423
# Poissons Ratio (z) = 0.40416 0.32232
#
# Static dielectric constant tensor:
#      x y z
#    x 2.861920 0.000000 0.013770 
#    y 0.000000 2.493960 0.000000 
#    z 0.013770 0.000000 2.708310 
# 
# 
# High freq. dielectric constant tensor:
#      x y z
#    x 1.573160 0.000000 0.002450 
#    y 0.000000 1.488920 0.000000 
#    z 0.002450 0.000000 1.519450 
# 
# From -- ./inp_files/298487.got.cif
#   From: 2010.06.25/outbox.cif.g09.slc.cpg/sg12_150_cif.got.tgz:298487.got - 2010.06.28 00:19:55.
