data_PCOD8078987
_publ_section_title
;
Structure prediction by ZEFSAII (Michael W. Deem and Ramdas Pophale) SiO2 
 PCOD8078987
Probable space group: C 2/M
;
_chemical_formula_sum "Si O2"
_cell_formula_units_Z 64
_cell_length_a 28.290878
_cell_length_b 14.430831
_cell_length_c 8.846467
_cell_angle_alpha 90.000000
_cell_angle_beta 79.550644
_cell_angle_gamma 90.000000
_cell_volume 3551.769084
_symmetry_space_group_name_H-M "C 2/M"
_symmetry_group_IT_number 12
_symmetry_cell_setting 'monoclinic'
loop_
_space_group_symop_operation_xyz
x,y,z
-x,y,-z
-x,-y,-z
x,-y,z
1/2+x,1/2+y,z
1/2-x,1/2+y,-z
1/2-x,1/2-y,-z
1/2+x,1/2-y,z
loop_
_atom_site_type_symbol
_atom_site_label
_atom_site_fract_x
_atom_site_fract_y
_atom_site_fract_z
Si Si1 0.239775 0.106471 0.144932
Si Si2 0.566482 0.604169 0.337673
Si Si3 0.841266 0.188988 0.625545
Si Si4 0.775440 0.334093 0.574689
Si Si5 0.623166 0.708969 0.727726
Si Si6 0.329412 0.895761 0.270319
Si Si7 0.965607 0.104350 0.299668
Si Si8 0.299703 0.606330 0.143226
O O1 0.199692 0.117165 0.298496
O O2 0.291544 0.146258 0.169107
O O3 0.249747 0.000000 0.111123
O O4 0.222641 0.151434 0.996524
O O5 0.583585 0.500000 0.285876
O O6 0.611453 0.674894 0.296372
O O7 0.522020 0.633915 0.254565
O O8 0.548457 0.605233 0.518407
O O9 0.818281 0.291373 0.655350
O O10 0.854310 0.171177 0.442290
O O11 0.750000 0.250000 0.500000
O O12 0.799954 0.404523 0.443990
O O13 0.738582 0.388355 0.699952
O O14 0.627242 0.821210 0.739505
O O15 0.567417 0.677676 0.772402
O O16 0.651921 0.661629 0.847120
O O17 0.348705 0.000000 0.220988
O O18 0.958521 0.000000 0.238933
O O19 0.314103 0.500000 0.108055
#
# Coordination Sequence:
#
# PCOD8078987 Si02
#       8
#     8   8   8   8   8   8   8   8
#     4  10  20  30  42  65  94 125 153 183 227 270
#     4   8  14  24  41  66  91 114 143 183 230 273
#     4  10  17  28  45  65  88 120 155 187 218 269
#     4  11  18  32  44  67  88 121 159 187 228 259
#     4  10  18  30  47  69  88 117 158 191 231 270
#     4  10  19  32  46  63  91 123 156 191 226 272
#     4   8  14  25  42  67  93 113 141 185 232 273
#     4  11  21  31  45  66  95 124 154 189 226 271
#
# _framework density 18.019189000000001
#
# number of rings (size 3 to 8) (size 9 to 14) (size 15 to 20)
#    0.000    2.250    3.750    1.875    0.000    4.500 
#    0.000    0.000    0.000    0.750    0.000   20.125 
#    0.000    0.000    0.000    5.750    0.000    4.000 
#
# Total GULP energy -396459.011977 kJ/mol
# GULP energy per Si atom -12389.344124 kJ/mol
# Density = 1.797818 g / cm^3
# Si number density = 18.019189 Si / 1000 Ang^3
#
#
#
# Elastic Constant Matrix: (Units=GPa)
#
#
# Indices 1 2 3 4 5 6 
#
# 1 117.4875 54.1507 13.0442 0.0000 31.1352 0.0000
# 2 54.1507 74.3979 17.6255 0.0000 18.2832 0.0000
# 3 13.0442 17.6255 41.4369 0.0000 17.5462 0.0000
# 4 0.0000 0.0000 0.0000 16.4052 0.0000 5.3420
# 5 31.1352 18.2832 17.5462 0.0000 19.9964 0.0000
# 6 0.0000 0.0000 0.0000 5.3420 0.0000 28.4728
#
#
#
# Elastic Compliance Matrix: (Units=1/GPa)
#
#
# Indices 1 2 3 4 5 6 
#
# 1 0.020433 -0.009421 0.011774 0.000000 -0.033532 0.000000
# 2 -0.009421 0.021709 -0.006484 0.000000 0.000509 0.000000
# 3 0.011774 -0.006484 0.045250 0.000000 -0.052110 0.000000
# 4 0.000000 0.000000 0.000000 0.064923 0.000000 -0.012181
# 5 -0.033532 0.000509 -0.052110 0.000000 0.147479 0.000000
# 6 0.000000 0.000000 0.000000 -0.012181 0.000000 0.037407
#
#
# Mechanical properties :
#
#
# Convention : Reuss Voigt Hill
#
# Bulk Modulus (GPa) = 12.63739 44.77368 28.70554
# Shear Modulus (GPa) = 13.44668 22.87500 18.16084
#
# Velocity S-wave (km/s) = 2.73471 3.56684 3.17813
# Velocity P-wave (km/s) = 4.12311 6.47031 5.42517
#
# Compressibility (1/GPa) = 0.07913028
#
# Stress axis : x y z
#
# Youngs Moduli (GPa) = 48.94101 46.06311 22.09938
#
# Poissons Ratio (x) = 0.43396 -0.26020
# Poissons Ratio (y) = 0.46107 0.14329
# Poissons Ratio (z) = -0.57623 0.29868
#
# Static dielectric constant tensor:
#      x y z
#    x 3.726540 0.000000 0.329360 
#    y 0.000000 3.177550 0.000000 
#    z 0.329360 0.000000 3.235220 
# 
# 
# High freq. dielectric constant tensor:
#      x y z
#    x 1.684150 0.000000 0.020640 
#    y 0.000000 1.674180 0.000000 
#    z 0.020640 0.000000 1.673260 
# 
# From -- ./inp_files/111222.got.cif
#   From: 2010.06.25/outbox.cif.g09.slc.cpg/sg12_56_cif.got.tgz:111222.got - 2010.06.28 00:19:55.
