data_PCOD8078944
_publ_section_title
;
Structure prediction by ZEFSAII (Michael W. Deem and Ramdas Pophale) SiO2 
 PCOD8078944
Probable space group: C 2/M
;
_chemical_formula_sum "Si O2"
_cell_formula_units_Z 44
_cell_length_a 19.194465
_cell_length_b 21.880349
_cell_length_c 11.861337
_cell_angle_alpha 90.000000
_cell_angle_beta 147.642301
_cell_angle_gamma 90.000000
_cell_volume 2666.138308
_symmetry_space_group_name_H-M "C 2/M"
_symmetry_group_IT_number 12
_symmetry_cell_setting 'monoclinic'
loop_
_space_group_symop_operation_xyz
x,y,z
-x,y,-z
-x,-y,-z
x,-y,z
1/2+x,1/2+y,z
1/2-x,1/2+y,-z
1/2-x,1/2-y,-z
1/2+x,1/2-y,z
loop_
_atom_site_type_symbol
_atom_site_label
_atom_site_fract_x
_atom_site_fract_y
_atom_site_fract_z
Si Si1 0.052245 0.740642 0.190029
Si Si2 0.234817 0.342521 0.559276
Si Si3 0.903232 0.165865 0.135273
Si Si4 0.553212 0.570702 0.197905
Si Si5 0.000000 0.209673 0.500000
Si Si6 0.358087 0.173239 0.328399
O O1 0.102453 0.678613 0.317837
O O2 0.164026 0.788041 0.313746
O O3 0.946735 0.773430 0.126219
O O4 0.000000 0.717269 0.000000
O O5 0.299135 0.403084 0.592858
O O6 0.205655 0.356868 0.649250
O O7 0.961539 0.104441 0.161879
O O8 0.951647 0.168046 0.330525
O O9 0.745119 0.162931 0.914502
O O10 0.555510 0.500000 0.232973
O O11 0.500000 0.583310 0.000000
O O12 0.118826 0.253693 0.621756
O O13 0.500000 0.141907 0.500000
#
# Coordination Sequence:
#
# PCOD8078944 Si02
#       6
#     8   8   8   8   4   8
#     4  10  17  27  51  75 101 131 159 208 260 299
#     4  10  17  30  48  77 104 123 167 208 255 299
#     4  11  18  34  48  75 106 133 171 201 247 309
#     4  10  20  34  57  75  91 126 172 225 255 277
#     4  10  22  28  47  76 109 142 154 190 258 310
#     4  10  19  30  45  74 110 138 158 194 249 308
#
# _framework density 16.503269
#
# number of rings (size 3 to 8) (size 9 to 14) (size 15 to 20)
#    0.545    1.273    5.455    1.636    0.000    0.000 
#    0.000    0.455    0.000    2.727    0.000    0.000 
#    0.000    0.000    0.000    0.000    0.000    0.000 
#
# Total GULP energy -272668.385238 kJ/mol
# GULP energy per Si atom -12394.017511 kJ/mol
# Density = 1.646571 g / cm^3
# Si number density = 16.503269 Si / 1000 Ang^3
#
#
#
# Elastic Constant Matrix: (Units=GPa)
#
#
# Indices 1 2 3 4 5 6 
#
# 1 70.0950 21.1334 45.4024 0.0000 3.5653 0.0000
# 2 21.1334 80.7689 40.3480 0.0000 4.0242 0.0000
# 3 45.4024 40.3480 114.5481 0.0000 -7.3568 0.0000
# 4 0.0000 0.0000 0.0000 12.4256 0.0000 -2.1453
# 5 3.5653 4.0242 -7.3568 0.0000 32.7256 0.0000
# 6 0.0000 0.0000 0.0000 -2.1453 0.0000 7.5322
#
#
#
# Elastic Compliance Matrix: (Units=1/GPa)
#
#
# Indices 1 2 3 4 5 6 
#
# 1 0.019773 -0.001156 -0.007670 0.000000 -0.003736 0.000000
# 2 -0.001156 0.015405 -0.005156 0.000000 -0.002927 0.000000
# 3 -0.007670 -0.005156 0.013881 0.000000 0.004590 0.000000
# 4 0.000000 0.000000 0.000000 0.084641 0.000000 0.024107
# 5 -0.003736 -0.002927 0.004590 0.000000 0.032356 0.000000
# 6 0.000000 0.000000 0.000000 0.024107 0.000000 0.139629
#
#
# Mechanical properties :
#
#
# Convention : Reuss Voigt Hill
#
# Bulk Modulus (GPa) = 47.40469 53.24216 50.32342
# Shear Modulus (GPa) = 14.67649 21.10523 17.89086
#
# Velocity S-wave (km/s) = 2.98536 3.57998 3.29611
# Velocity P-wave (km/s) = 6.37730 7.02993 6.71156
#
# Compressibility (1/GPa) = 0.02109496
#
# Stress axis : x y z
#
# Youngs Moduli (GPa) = 50.57398 64.91390 72.04092
#
# Poissons Ratio (x) = 0.07504 0.55256
# Poissons Ratio (y) = 0.05846 0.37145
# Poissons Ratio (z) = 0.38790 0.33470
#
# Static dielectric constant tensor:
#      x y z
#    x 3.030160 0.000000 0.079390 
#    y 0.000000 2.796430 0.000000 
#    z 0.079390 0.000000 3.360460 
# 
# 
# High freq. dielectric constant tensor:
#      x y z
#    x 1.633580 0.000000 0.003700 
#    y 0.000000 1.583740 0.000000 
#    z 0.003700 0.000000 1.639800 
# 
# From -- ./inp_files/170081.got.cif
#   From: 2010.06.25/outbox.cif.g09.slc.cpg/sg12_86_cif.got.tgz:170081.got - 2010.06.28 00:19:55.
