data_PCOD8078173
_publ_section_title
;
Structure prediction by ZEFSAII (Michael W. Deem and Ramdas Pophale) SiO2 
 PCOD8078173
Probable space group: C 2/M
;
_chemical_formula_sum "Si O2"
_cell_formula_units_Z 48
_cell_length_a 5.304592
_cell_length_b 15.627343
_cell_length_c 28.043226
_cell_angle_alpha 90.000000
_cell_angle_beta 73.632307
_cell_angle_gamma 90.000000
_cell_volume 2230.477627
_symmetry_space_group_name_H-M "C 2/M"
_symmetry_group_IT_number 12
_symmetry_cell_setting 'monoclinic'
loop_
_space_group_symop_operation_xyz
x,y,z
-x,y,-z
-x,-y,-z
x,-y,z
1/2+x,1/2+y,z
1/2-x,1/2+y,-z
1/2-x,1/2-y,-z
1/2+x,1/2-y,z
loop_
_atom_site_type_symbol
_atom_site_label
_atom_site_fract_x
_atom_site_fract_y
_atom_site_fract_z
Si Si1 0.084224 0.158475 0.441528
Si Si2 0.447261 0.101687 0.868421
Si Si3 0.146094 0.650849 0.400004
Si Si4 0.533627 0.600713 0.810804
Si Si5 0.788122 0.804474 0.291199
Si Si6 0.781259 0.346007 0.979017
O O1 0.120355 0.248960 0.413571
O O2 0.360310 0.107255 0.423572
O O3 0.000000 0.173473 0.500000
O O4 0.858068 0.107456 0.424505
O O5 0.244709 0.132626 0.838535
O O6 0.369399 0.152765 0.919795
O O7 0.740247 0.131979 0.839195
O O8 0.431420 0.000000 0.878089
O O9 0.239958 0.638388 0.340789
O O10 0.540296 0.500000 0.807740
O O11 0.608967 0.634375 0.755298
O O12 0.510095 0.765381 0.290313
O O13 0.500000 0.393577 0.000000
O O14 0.750000 0.250000 0.000000
O O15 0.000000 0.393585 0.000000
#
# Coordination Sequence:
#
# PCOD8078173 Si02
#       6
#     8   8   8   8   8   8
#     4  10  16  25  41  63 101 145 176 214 276 332
#     4  10  21  41  63  82 109 150 190 228 267 323
#     4  10  16  27  41  65 104 137 167 224 273 330
#     4  10  23  42  61  84 114 149 193 232 274 331
#     4  12  21  37  54  84 114 146 181 234 290 336
#     4  10  21  38  56  84 119 146 175 225 274 321
#
# _framework density 21.520056
#
# number of rings (size 3 to 8) (size 9 to 14) (size 15 to 20)
#    0.000    1.667    3.333    4.500    0.000    0.667 
#   18.000    0.000    0.000    0.000    0.000    0.000 
#    0.000    7.333    0.000    0.000    0.000    0.000 
#
# Total GULP energy -297506.705507 kJ/mol
# GULP energy per Si atom -12396.112729 kJ/mol
# Density = 2.147107 g / cm^3
# Si number density = 21.520056 Si / 1000 Ang^3
#
#
#
# Elastic Constant Matrix: (Units=GPa)
#
#
# Indices 1 2 3 4 5 6 
#
# 1 236.3886 10.5460 83.2218 0.0000 -0.8696 0.0000
# 2 10.5460 11.8615 22.2168 0.0000 -0.4344 0.0000
# 3 83.2218 22.2168 215.4501 0.0000 -1.6457 0.0000
# 4 0.0000 0.0000 0.0000 -3.3519 0.0000 0.0992
# 5 -0.8696 -0.4344 -1.6457 0.0000 45.0958 0.0000
# 6 0.0000 0.0000 0.0000 0.0992 0.0000 0.7118
#
#
#
# Elastic Compliance Matrix: (Units=1/GPa)
#
#
# Indices 1 2 3 4 5 6 
#
# 1 0.004906 -0.001006 -0.001791 0.000000 0.000020 0.000000
# 2 -0.001006 0.104710 -0.010404 0.000000 0.000610 0.000000
# 3 -0.001791 -0.010404 0.006407 0.000000 0.000099 0.000000
# 4 0.000000 0.000000 0.000000 -0.297114 0.000000 0.041401
# 5 0.000020 0.000610 0.000099 0.000000 0.022185 0.000000
# 6 0.000000 0.000000 0.000000 0.041401 0.000000 1.399111
#
#
# Mechanical properties :
#
#
# Convention : Reuss Voigt Hill
#
# Bulk Modulus (GPa) = 11.15824 77.29661 44.22742
# Shear Modulus (GPa) = 3.85659 31.67219 17.76439
#
# Velocity S-wave (km/s) = 1.34014 3.84050 2.87623
# Velocity P-wave (km/s) = 2.75517 7.46072 5.62376
#
# Compressibility (1/GPa) = 0.08961987
#
# Stress axis : x y z
#
# Youngs Moduli (GPa) = 203.83875 9.55016 156.08200
#
# Poissons Ratio (x) = 0.00961 0.27955
# Poissons Ratio (y) = 0.20513 1.62390
# Poissons Ratio (z) = 0.36509 0.09936
#
# Static dielectric constant tensor:
#      x y z
#    x 7.845480 0.000000 0.046520 
#    y 0.000000 3.110020 0.000000 
#    z 0.046520 0.000000 4.002450 
# 
# 
# High freq. dielectric constant tensor:
#      x y z
#    x 1.888270 0.000000 -0.000180 
#    y 0.000000 1.775600 0.000000 
#    z -0.000180 0.000000 1.860450 
# 
# From -- ./inp_files/331048.got.cif
#   From: 2010.06.25/outbox.cif.g09.slc.cpg/sg12_166_cif.got.tgz:331048.got - 2010.06.28 00:19:55.
