data_PCOD8078923
_publ_section_title
;
Structure prediction by ZEFSAII (Michael W. Deem and Ramdas Pophale) SiO2 
 PCOD8078923
Probable space group: C 2/M
;
_chemical_formula_sum "Si O2"
_cell_formula_units_Z 56
_cell_length_a 22.918067
_cell_length_b 13.190626
_cell_length_c 19.625192
_cell_angle_alpha 90.000000
_cell_angle_beta 147.383927
_cell_angle_gamma 90.000000
_cell_volume 3197.803600
_symmetry_space_group_name_H-M "C 2/M"
_symmetry_group_IT_number 12
_symmetry_cell_setting 'monoclinic'
loop_
_space_group_symop_operation_xyz
x,y,z
-x,y,-z
-x,-y,-z
x,-y,z
1/2+x,1/2+y,z
1/2-x,1/2+y,-z
1/2-x,1/2-y,-z
1/2+x,1/2-y,z
loop_
_atom_site_type_symbol
_atom_site_label
_atom_site_fract_x
_atom_site_fract_y
_atom_site_fract_z
Si Si1 0.866536 0.116376 0.616391
Si Si2 0.964858 0.384642 0.199314
Si Si3 0.174947 0.693809 0.342946
Si Si4 0.562968 0.390436 0.495071
Si Si5 0.791964 0.618327 0.917136
Si Si6 0.203115 0.380509 0.230759
Si Si7 0.565892 0.701894 0.743006
O O1 0.827693 0.186568 0.641485
O O2 0.794080 0.146350 0.478005
O O3 0.994066 0.137042 0.726691
O O4 0.849171 0.000000 0.620496
O O5 0.945370 0.500000 0.201752
O O6 0.925520 0.317676 0.224216
O O7 0.090547 0.365202 0.308045
O O8 0.895676 0.356043 0.064417
O O9 0.137763 0.675850 0.227488
O O10 0.500000 0.417258 0.500000
O O11 0.571310 0.500000 0.462568
O O12 0.676888 0.349046 0.631148
O O13 0.499316 0.304020 0.391617
O O14 0.769062 0.500000 0.886104
O O15 0.817531 0.661661 0.866033
O O16 0.687103 0.662662 0.851631
O O17 0.177873 0.500000 0.210031
#
# Coordination Sequence:
#
# PCOD8078923 Si02
#       7
#     8   8   8   8   8   8   8
#     4  10  19  31  50  74  99 127 162 204 245 286
#     4  10  22  36  48  68 103 139 168 195 231 291
#     4  10  20  32  48  72 101 132 162 196 242 294
#     4  10  17  27  47  78 105 120 147 203 261 295
#     4  10  20  33  51  76 101 128 161 202 249 292
#     4  10  18  29  49  75 102 126 155 200 251 296
#     4  11  19  31  53  76  99 125 163 206 251 286
#
# _framework density 17.512018999999999
#
# number of rings (size 3 to 8) (size 9 to 14) (size 15 to 20)
#    0.000    1.857    2.857    3.000    0.000    0.571 
#    0.000    2.143    0.000    1.286    0.000    4.000 
#    0.000    0.000    0.000    0.000    0.000    0.000 
#
# Total GULP energy -346981.569283 kJ/mol
# GULP energy per Si atom -12392.198903 kJ/mol
# Density = 1.747216 g / cm^3
# Si number density = 17.512019 Si / 1000 Ang^3
#
#
#
# Elastic Constant Matrix: (Units=GPa)
#
#
# Indices 1 2 3 4 5 6 
#
# 1 75.9251 43.5475 17.6353 0.0000 -11.6977 0.0000
# 2 43.5475 100.9497 38.5460 0.0000 -17.8020 0.0000
# 3 17.6353 38.5460 62.8791 0.0000 -12.0962 0.0000
# 4 0.0000 0.0000 0.0000 20.2953 0.0000 -4.0038
# 5 -11.6977 -17.8020 -12.0962 0.0000 28.9884 0.0000
# 6 0.0000 0.0000 0.0000 -4.0038 0.0000 25.7959
#
#
#
# Elastic Compliance Matrix: (Units=1/GPa)
#
#
# Indices 1 2 3 4 5 6 
#
# 1 0.017695 -0.007124 -0.000069 0.000000 0.002736 0.000000
# 2 -0.007124 0.016516 -0.007316 0.000000 0.004215 0.000000
# 3 -0.000069 -0.007316 0.021243 0.000000 0.004344 0.000000
# 4 0.000000 0.000000 0.000000 0.050829 0.000000 0.007889
# 5 0.002736 0.004215 0.004344 0.000000 0.040002 0.000000
# 6 0.000000 0.000000 0.000000 0.007889 0.000000 0.039990
#
#
# Mechanical properties :
#
#
# Convention : Reuss Voigt Hill
#
# Bulk Modulus (GPa) = 37.82716 48.80127 43.31421
# Shear Modulus (GPa) = 22.31106 24.35092 23.33099
#
# Velocity S-wave (km/s) = 3.57325 3.73302 3.65401
# Velocity P-wave (km/s) = 6.21866 6.81971 6.52610
#
# Compressibility (1/GPa) = 0.02643603
#
# Stress axis : x y z
#
# Youngs Moduli (GPa) = 56.51427 60.54825 47.07421
#
# Poissons Ratio (x) = 0.43136 0.00325
# Poissons Ratio (y) = 0.40262 0.34437
# Poissons Ratio (z) = 0.00390 0.44294
#
# Static dielectric constant tensor:
#      x y z
#    x 3.222590 0.000000 0.032930 
#    y 0.000000 3.100050 0.000000 
#    z 0.032930 0.000000 3.266680 
# 
# 
# High freq. dielectric constant tensor:
#      x y z
#    x 1.680640 0.000000 0.010450 
#    y 0.000000 1.644810 0.000000 
#    z 0.010450 0.000000 1.675410 
# 
# From -- ./inp_files/174801.got.cif
#   From: 2010.06.25/outbox.cif.g09.slc.cpg/sg12_88_cif.got.tgz:174801.got - 2010.06.28 00:19:55.
