data_PCOD8078556
_publ_section_title
;
Structure prediction by ZEFSAII (Michael W. Deem and Ramdas Pophale) SiO2 
 PCOD8078556
Probable space group: C 2/M
;
_chemical_formula_sum "Si O2"
_cell_formula_units_Z 48
_cell_length_a 24.560561
_cell_length_b 9.147642
_cell_length_c 15.247807
_cell_angle_alpha 90.000000
_cell_angle_beta 62.467339
_cell_angle_gamma 90.000000
_cell_volume 3037.769295
_symmetry_space_group_name_H-M "C 2/M"
_symmetry_group_IT_number 12
_symmetry_cell_setting 'monoclinic'
loop_
_space_group_symop_operation_xyz
x,y,z
-x,y,-z
-x,-y,-z
x,-y,z
1/2+x,1/2+y,z
1/2-x,1/2+y,-z
1/2-x,1/2-y,-z
1/2+x,1/2-y,z
loop_
_atom_site_type_symbol
_atom_site_label
_atom_site_fract_x
_atom_site_fract_y
_atom_site_fract_z
Si Si1 0.158376 0.328936 0.729623
Si Si2 0.931840 0.326710 0.055741
Si Si3 0.663332 0.830405 0.017328
Si Si4 0.297707 0.330598 0.845767
Si Si5 0.284462 0.171841 0.682784
Si Si6 0.310394 0.833391 0.477768
O O1 0.172771 0.500000 0.737896
O O2 0.100076 0.276298 0.829708
O O3 0.217154 0.236294 0.714729
O O4 0.141650 0.302857 0.637992
O O5 0.935937 0.500000 0.049892
O O6 0.891927 0.273150 0.002568
O O7 0.000000 0.257401 0.000000
O O8 0.661205 0.736974 0.107525
O O9 0.656456 0.000000 0.047384
O O10 0.726062 0.803238 0.917800
O O11 0.313869 0.500000 0.825343
O O12 0.315555 0.250608 0.742246
O O13 0.329296 0.203952 0.564459
O O14 0.278557 0.000000 0.706947
O O15 0.250000 0.750000 0.500000
O O16 0.290374 0.000000 0.490691
#
# Coordination Sequence:
#
# PCOD8078556 Si02
#       6
#     8   8   8   8   8   8
#     4   9  15  27  42  59  85 114 142 173 206 248
#     4   9  16  27  45  66  86 111 143 174 207 247
#     4   9  17  29  42  61  85 111 141 173 208 249
#     4  10  18  28  43  62  84 114 141 171 213 255
#     4  10  17  25  39  62  87 113 140 170 210 253
#     4   8  15  24  37  57  83 111 138 168 206 249
#
# _framework density 15.801068000000001
#
# number of rings (size 3 to 8) (size 9 to 14) (size 15 to 20)
#    0.000    2.833    1.667    1.000    0.000    1.333 
#    0.000    0.000    0.000    2.000    0.000    1.167 
#    0.000    9.333    0.000    0.000    0.000    0.000 
#
# Total GULP energy -297323.476004 kJ/mol
# GULP energy per Si atom -12388.478167 kJ/mol
# Density = 1.576510 g / cm^3
# Si number density = 15.801068 Si / 1000 Ang^3
#
#
#
# Elastic Constant Matrix: (Units=GPa)
#
#
# Indices 1 2 3 4 5 6 
#
# 1 77.5005 23.4629 61.0546 0.0000 10.9663 0.0000
# 2 23.4629 57.0286 50.4935 0.0000 14.2852 0.0000
# 3 61.0546 50.4935 158.8859 0.0000 26.9498 0.0000
# 4 0.0000 0.0000 0.0000 20.3789 0.0000 6.9247
# 5 10.9663 14.2852 26.9498 0.0000 22.2438 0.0000
# 6 0.0000 0.0000 0.0000 6.9247 0.0000 14.1433
#
#
#
# Elastic Compliance Matrix: (Units=1/GPa)
#
#
# Indices 1 2 3 4 5 6 
#
# 1 0.018644 -0.001840 -0.006571 0.000000 -0.000048 0.000000
# 2 -0.001840 0.025737 -0.006070 0.000000 -0.008268 0.000000
# 3 -0.006571 -0.006070 0.012004 0.000000 -0.007406 0.000000
# 4 0.000000 0.000000 0.000000 0.058863 0.000000 -0.028820
# 5 -0.000048 -0.008268 -0.007406 0.000000 0.059262 0.000000
# 6 0.000000 0.000000 0.000000 -0.028820 0.000000 0.084816
#
#
# Mechanical properties :
#
#
# Convention : Reuss Voigt Hill
#
# Bulk Modulus (GPa) = 36.46600 62.60412 49.53506
# Shear Modulus (GPa) = 16.81065 21.91347 19.36206
#
# Velocity S-wave (km/s) = 3.26528 3.72806 3.50432
# Velocity P-wave (km/s) = 6.11100 7.63135 6.91310
#
# Compressibility (1/GPa) = 0.02742280
#
# Stress axis : x y z
#
# Youngs Moduli (GPa) = 53.63688 38.85401 83.30503
#
# Poissons Ratio (x) = 0.07150 0.54742
# Poissons Ratio (y) = 0.09871 0.50564
# Poissons Ratio (z) = 0.35246 0.23584
#
# Static dielectric constant tensor:
#      x y z
#    x 2.711970 0.000000 0.207440 
#    y 0.000000 2.776140 0.000000 
#    z 0.207440 0.000000 3.652290 
# 
# 
# High freq. dielectric constant tensor:
#      x y z
#    x 1.549770 0.000000 0.029030 
#    y 0.000000 1.599820 0.000000 
#    z 0.029030 0.000000 1.622170 
# 
# From -- ./inp_files/236588.got.cif
#   From: 2010.06.25/outbox.cif.g09.slc.cpg/sg12_119_cif.got.tgz:236588.got - 2010.06.28 00:19:55.
