data_PCOD8078176
_publ_section_title
;
Structure prediction by ZEFSAII (Michael W. Deem and Ramdas Pophale) SiO2 
 PCOD8078176
Probable space group: C 2/M
;
_chemical_formula_sum "Si O2"
_cell_formula_units_Z 48
_cell_length_a 5.303130
_cell_length_b 16.575513
_cell_length_c 27.973440
_cell_angle_alpha 90.000000
_cell_angle_beta 106.856161
_cell_angle_gamma 90.000000
_cell_volume 2353.278248
_symmetry_space_group_name_H-M "C 2/M"
_symmetry_group_IT_number 12
_symmetry_cell_setting 'monoclinic'
loop_
_space_group_symop_operation_xyz
x,y,z
-x,y,-z
-x,-y,-z
x,-y,z
1/2+x,1/2+y,z
1/2-x,1/2+y,-z
1/2-x,1/2-y,-z
1/2+x,1/2-y,z
loop_
_atom_site_type_symbol
_atom_site_label
_atom_site_fract_x
_atom_site_fract_y
_atom_site_fract_z
Si Si1 0.217649 0.339693 0.478848
Si Si2 0.471911 0.342802 0.318511
Si Si3 0.893064 0.800025 0.943982
Si Si4 0.712595 0.405572 0.150253
Si Si5 0.302452 0.595551 0.209236
Si Si6 0.536246 0.838295 0.360572
O O1 0.500000 0.384821 0.500000
O O2 0.250000 0.250000 0.500000
O O3 0.127302 0.334302 0.419715
O O4 0.000000 0.384820 0.500000
O O5 0.382241 0.352336 0.259354
O O6 0.497250 0.249801 0.335402
O O7 0.256517 0.385083 0.341418
O O8 0.757278 0.385056 0.341590
O O9 0.600634 0.764988 0.935414
O O10 0.873728 0.871556 0.905316
O O11 0.000000 0.835618 0.000000
O O12 0.704982 0.500000 0.143872
O O13 0.503317 0.377747 0.178708
O O14 0.006983 0.377268 0.179781
O O15 0.320457 0.500000 0.220985
#
# Coordination Sequence:
#
# PCOD8078176 Si02
#       6
#     8   8   8   8   8   8
#     4  10  16  25  41  63  94 127 158 191 251 318
#     4  10  18  32  45  66  99 132 161 203 259 300
#     4  10  21  39  59  86 119 147 177 225 279 327
#     4  10  21  39  58  81 108 144 188 230 266 319
#     4  10  21  37  55  74 104 139 181 225 260 304
#     4  10  19  30  45  70 104 127 156 216 252 316
#
# _framework density 20.397079999999999
#
# number of rings (size 3 to 8) (size 9 to 14) (size 15 to 20)
#    0.000    2.000    0.000    7.000    0.000    0.333 
#   18.000    0.000    0.000    6.000    0.000    0.000 
#    0.000   49.333    0.000    0.000    0.000    0.000 
#
# Total GULP energy -297468.109863 kJ/mol
# GULP energy per Si atom -12394.504578 kJ/mol
# Density = 2.035066 g / cm^3
# Si number density = 20.397080 Si / 1000 Ang^3
#
#
#
# Elastic Constant Matrix: (Units=GPa)
#
#
# Indices 1 2 3 4 5 6 
#
# 1 227.1724 15.9880 86.6407 0.0000 -6.4211 0.0000
# 2 15.9880 14.5410 40.4425 0.0000 -0.4185 0.0000
# 3 86.6407 40.4425 209.3428 0.0000 -5.7213 0.0000
# 4 0.0000 0.0000 0.0000 4.7337 0.0000 0.5318
# 5 -6.4211 -0.4185 -5.7213 0.0000 38.5430 0.0000
# 6 0.0000 0.0000 0.0000 0.5318 0.0000 6.1414
#
#
#
# Elastic Compliance Matrix: (Units=1/GPa)
#
#
# Indices 1 2 3 4 5 6 
#
# 1 0.005241 0.000529 -0.002256 0.000000 0.000544 0.000000
# 2 0.000529 0.148957 -0.029067 0.000000 -0.002609 0.000000
# 3 -0.002256 -0.029067 0.011353 0.000000 0.000994 0.000000
# 4 0.000000 0.000000 0.000000 0.213326 0.000000 -0.018471
# 5 0.000544 -0.002609 0.000994 0.000000 0.026155 0.000000
# 6 0.000000 0.000000 0.000000 -0.018471 0.000000 0.164429
#
#
# Mechanical properties :
#
#
# Convention : Reuss Voigt Hill
#
# Bulk Modulus (GPa) = 9.61889 81.91094 45.76491
# Shear Modulus (GPa) = 7.51085 30.41596 18.96340
#
# Velocity S-wave (km/s) = 1.92102 3.86578 3.05243
# Velocity P-wave (km/s) = 3.10588 7.75700 5.90836
#
# Compressibility (1/GPa) = 0.10396215
#
# Stress axis : x y z
#
# Youngs Moduli (GPa) = 190.81812 6.71334 88.08153
#
# Poissons Ratio (x) = -0.00355 0.19873
# Poissons Ratio (y) = -0.10087 2.56024
# Poissons Ratio (z) = 0.43052 0.19514
#
# Static dielectric constant tensor:
#      x y z
#    x 4.434580 0.000000 -0.010470 
#    y 0.000000 3.033020 0.000000 
#    z -0.010470 0.000000 3.770900 
# 
# 
# High freq. dielectric constant tensor:
#      x y z
#    x 1.842340 0.000000 -0.001900 
#    y 0.000000 1.728470 0.000000 
#    z -0.001900 0.000000 1.811160 
# 
# From -- ./inp_files/331061.got.cif
#   From: 2010.06.25/outbox.cif.g09.slc.cpg/sg12_166_cif.got.tgz:331061.got - 2010.06.28 00:19:55.
