data_PCOD8078577
_publ_section_title
;
Structure prediction by ZEFSAII (Michael W. Deem and Ramdas Pophale) SiO2 
 PCOD8078577
Probable space group: C 2/M
;
_chemical_formula_sum "Si O2"
_cell_formula_units_Z 48
_cell_length_a 20.668792
_cell_length_b 8.808098
_cell_length_c 22.981352
_cell_angle_alpha 90.000000
_cell_angle_beta 40.481704
_cell_angle_gamma 90.000000
_cell_volume 2716.156541
_symmetry_space_group_name_H-M "C 2/M"
_symmetry_group_IT_number 12
_symmetry_cell_setting 'monoclinic'
loop_
_space_group_symop_operation_xyz
x,y,z
-x,y,-z
-x,-y,-z
x,-y,z
1/2+x,1/2+y,z
1/2-x,1/2+y,-z
1/2-x,1/2-y,-z
1/2+x,1/2-y,z
loop_
_atom_site_type_symbol
_atom_site_label
_atom_site_fract_x
_atom_site_fract_y
_atom_site_fract_z
Si Si1 0.986824 0.176635 0.589271
Si Si2 0.180976 0.174134 0.213384
Si Si3 0.310304 0.178598 0.236244
Si Si4 0.147954 0.679179 0.416840
Si Si5 0.778117 0.822156 0.041374
Si Si6 0.993604 0.821108 0.937576
O O1 0.934795 0.196711 0.687922
O O2 0.921414 0.272789 0.589106
O O3 0.099593 0.244009 0.508495
O O4 0.985285 0.000000 0.572337
O O5 0.254492 0.226862 0.214934
O O6 0.198669 0.274936 0.144653
O O7 0.202386 0.000000 0.182610
O O8 0.258384 0.257818 0.327685
O O9 0.423509 0.234539 0.156544
O O10 0.304819 0.000000 0.249508
O O11 0.151879 0.500000 0.422345
O O12 0.774374 0.000000 0.036674
O O13 0.750000 0.750000 0.000000
O O14 0.887716 0.767644 0.985190
O O15 0.010965 0.000000 0.919581
O O16 0.000000 0.769282 0.000000
#
# Coordination Sequence:
#
# PCOD8078577 Si02
#       6
#     8   8   8   8   8   8
#     4   9  16  27  42  64  96 131 166 207 252 303
#     4   9  18  31  48  71  99 132 170 209 254 302
#     4  10  19  30  48  73 101 134 168 210 255 304
#     4  10  17  25  40  65  98 133 166 205 250 303
#     4  11  23  37  54  74 103 137 171 215 256 304
#     4  10  20  35  53  76 102 132 171 214 260 303
#
# _framework density 17.672028999999998
#
# number of rings (size 3 to 8) (size 9 to 14) (size 15 to 20)
#    0.000    2.167    1.667    5.000    0.000    5.000 
#    0.000    0.000    0.000    0.000    0.000    1.167 
#    0.000    0.000    0.000    0.000    0.000    0.000 
#
# Total GULP energy -297512.172868 kJ/mol
# GULP energy per Si atom -12396.340536 kJ/mol
# Density = 1.763181 g / cm^3
# Si number density = 17.672029 Si / 1000 Ang^3
#
#
#
# Elastic Constant Matrix: (Units=GPa)
#
#
# Indices 1 2 3 4 5 6 
#
# 1 68.2615 31.6635 47.6535 -0.0001 2.5653 0.0002
# 2 31.6635 79.7366 62.4779 -0.0003 -0.9251 0.0010
# 3 47.6535 62.4779 174.1115 0.0000 -5.3051 0.0001
# 4 -0.0001 -0.0003 0.0000 38.7177 0.0000 -0.6710
# 5 2.5653 -0.9251 -5.3051 0.0000 13.1130 0.0000
# 6 0.0002 0.0010 0.0001 -0.6710 0.0000 18.5686
#
#
#
# Elastic Compliance Matrix: (Units=1/GPa)
#
#
# Indices 1 2 3 4 5 6 
#
# 1 0.019833 -0.004941 -0.003831 0.000000 -0.005779 0.000000
# 2 -0.004941 0.018700 -0.005354 0.000000 0.000120 -0.000001
# 3 -0.003831 -0.005354 0.008834 0.000000 0.003946 0.000000
# 4 0.000000 0.000000 0.000000 0.025844 0.000000 0.000934
# 5 -0.005779 0.000120 0.003946 0.000000 0.078995 0.000000
# 6 0.000000 -0.000001 0.000000 0.000934 0.000000 0.053888
#
#
# Mechanical properties :
#
#
# Convention : Reuss Voigt Hill
#
# Bulk Modulus (GPa) = 52.31797 67.29994 59.80896
# Shear Modulus (GPa) = 20.77112 26.10085 23.43599
#
# Velocity S-wave (km/s) = 3.43208 3.84729 3.64560
# Velocity P-wave (km/s) = 6.73608 7.60927 7.18595
#
# Compressibility (1/GPa) = 0.01911389
#
# Stress axis : x y z
#
# Youngs Moduli (GPa) = 50.42057 53.47557 113.20321
#
# Poissons Ratio (x) = 0.26421 0.43373
# Poissons Ratio (y) = 0.24911 0.60614
# Poissons Ratio (z) = 0.19318 0.28633
#
# Static dielectric constant tensor:
#      x y z
#    x 2.756570 0.000000 -0.122770 
#    y 0.000000 3.252280 0.000000 
#    z -0.122770 0.000000 4.096240 
# 
# 
# High freq. dielectric constant tensor:
#      x y z
#    x 1.606850 0.000000 -0.007400 
#    y 0.000000 1.692890 0.000000 
#    z -0.007400 0.000000 1.712420 
# 
# From -- ./inp_files/236630.got.cif
#   From: 2010.06.25/outbox.cif.g09.slc.cpg/sg12_119_cif.got.tgz:236630.got - 2010.06.28 00:19:55.
