data_PCOD8078530
_publ_section_title
;
Structure prediction by ZEFSAII (Michael W. Deem and Ramdas Pophale) SiO2 
 PCOD8078530
Probable space group: C 2/M
;
_chemical_formula_sum "Si O2"
_cell_formula_units_Z 64
_cell_length_a 27.404659
_cell_length_b 9.010675
_cell_length_c 21.087493
_cell_angle_alpha 90.000000
_cell_angle_beta 120.512567
_cell_angle_gamma 90.000000
_cell_volume 4486.120593
_symmetry_space_group_name_H-M "C 2/M"
_symmetry_group_IT_number 12
_symmetry_cell_setting 'monoclinic'
loop_
_space_group_symop_operation_xyz
x,y,z
-x,y,-z
-x,-y,-z
x,-y,z
1/2+x,1/2+y,z
1/2-x,1/2+y,-z
1/2-x,1/2-y,-z
1/2+x,1/2-y,z
loop_
_atom_site_type_symbol
_atom_site_label
_atom_site_fract_x
_atom_site_fract_y
_atom_site_fract_z
Si Si1 0.835516 0.668691 0.943122
Si Si2 0.039106 0.829420 0.833507
Si Si3 0.373561 0.670181 0.279340
Si Si4 0.520313 0.331119 0.579759
Si Si5 0.524968 0.174300 0.705343
Si Si6 0.227490 0.328009 0.834199
Si Si7 0.546332 0.672852 0.979704
Si Si8 0.846235 0.667041 0.093374
O O1 0.834734 0.500000 0.918380
O O2 0.790198 0.761274 0.872366
O O3 0.897600 0.733038 0.971108
O O4 0.818062 0.678005 0.005376
O O5 0.001670 0.735014 0.757595
O O6 0.019419 0.795128 0.892362
O O7 0.104973 0.788814 0.871933
O O8 0.030920 0.000000 0.810032
O O9 0.368582 0.500000 0.252621
O O10 0.410525 0.676302 0.369268
O O11 0.409069 0.769932 0.251830
O O12 0.311745 0.744120 0.244265
O O13 0.500000 0.258502 0.500000
O O14 0.498391 0.500000 0.568980
O O15 0.493387 0.243833 0.622560
O O16 0.519413 0.000000 0.697954
O O17 0.230152 0.500000 0.818105
O O18 0.201799 0.297448 0.886782
O O19 0.562188 0.500000 0.996580
O O20 0.500000 0.723137 0.000000
O O21 0.871302 0.500000 0.120161
#
# Coordination Sequence:
#
# PCOD8078530 Si02
#       8
#     8   8   8   8   8   8   8   8
#     4  10  20  30  41  58  78 102 133 168 208 252
#     4  10  17  26  43  61  78 105 137 171 210 250
#     4   9  17  27  39  55  77 108 140 168 199 233
#     4   8  15  27  41  57  79 110 145 174 199 232
#     4  10  17  25  37  57  82 108 138 169 201 237
#     4  11  19  27  39  56  80 109 137 168 202 240
#     4   9  19  35  50  62  77 100 135 178 222 263
#     4   9  17  27  38  54  77 103 131 165 201 239
#
# _framework density 14.266225
#
# number of rings (size 3 to 8) (size 9 to 14) (size 15 to 20)
#    0.750    1.750    1.250    2.625    0.000    2.000 
#    0.000    0.000    0.000    0.000    0.000    0.000 
#    0.000    0.000    0.000    1.125    0.000   12.500 
#
# Total GULP energy -396464.956881 kJ/mol
# GULP energy per Si atom -12389.529903 kJ/mol
# Density = 1.423375 g / cm^3
# Si number density = 14.266225 Si / 1000 Ang^3
#
#
#
# Elastic Constant Matrix: (Units=GPa)
#
#
# Indices 1 2 3 4 5 6 
#
# 1 45.1913 27.8007 30.2880 0.0000 -2.4001 0.0000
# 2 27.8007 92.3366 46.1992 0.0000 -2.0024 0.0000
# 3 30.2880 46.1992 93.4471 0.0000 -1.4785 0.0000
# 4 0.0000 0.0000 0.0000 18.2560 0.0000 3.1287
# 5 -2.4001 -2.0024 -1.4785 0.0000 13.0561 0.0000
# 6 0.0000 0.0000 0.0000 3.1287 0.0000 15.4470
#
#
#
# Elastic Compliance Matrix: (Units=1/GPa)
#
#
# Indices 1 2 3 4 5 6 
#
# 1 0.030498 -0.005557 -0.007075 0.000000 0.003953 0.000000
# 2 -0.005557 0.015427 -0.005815 0.000000 0.000686 0.000000
# 3 -0.007075 -0.005815 0.015863 0.000000 -0.000396 0.000000
# 4 0.000000 0.000000 0.000000 0.056746 0.000000 -0.011494
# 5 0.003953 0.000686 -0.000396 0.000000 0.077380 0.000000
# 6 0.000000 0.000000 0.000000 -0.011494 0.000000 0.067065
#
#
# Mechanical properties :
#
#
# Convention : Reuss Voigt Hill
#
# Bulk Modulus (GPa) = 40.16964 48.83898 44.50431
# Shear Modulus (GPa) = 16.22463 17.79764 17.01113
#
# Velocity S-wave (km/s) = 3.37601 3.53588 3.45687
# Velocity P-wave (km/s) = 6.58900 7.13990 6.86998
#
# Compressibility (1/GPa) = 0.02489442
#
# Stress axis : x y z
#
# Youngs Moduli (GPa) = 32.78852 64.81975 63.03873
#
# Poissons Ratio (x) = 0.36018 0.44603
# Poissons Ratio (y) = 0.18219 0.36659
# Poissons Ratio (z) = 0.23199 0.37694
#
# Static dielectric constant tensor:
#      x y z
#    x 2.375280 0.000000 -0.021790 
#    y 0.000000 2.840860 0.000000 
#    z -0.021790 0.000000 2.835200 
# 
# 
# High freq. dielectric constant tensor:
#      x y z
#    x 1.483940 0.000000 0.004980 
#    y 0.000000 1.560040 0.000000 
#    z 0.004980 0.000000 1.533370 
# 
# From -- ./inp_files/328857.got.cif
#   From: 2010.06.25/outbox.cif.g09.slc.cpg/sg12_165_cif.got.tgz:328857.got - 2010.06.28 00:19:55.
