data_PCOD8078857
_publ_section_title
;
Structure prediction by ZEFSAII (Michael W. Deem and Ramdas Pophale) SiO2 
 PCOD8078857
Probable space group: C 2/M
;
_chemical_formula_sum "Si O2"
_cell_formula_units_Z 64
_cell_length_a 24.605885
_cell_length_b 13.066239
_cell_length_c 12.027664
_cell_angle_alpha 90.000000
_cell_angle_beta 80.994976
_cell_angle_gamma 90.000000
_cell_volume 3819.308759
_symmetry_space_group_name_H-M "C 2/M"
_symmetry_group_IT_number 12
_symmetry_cell_setting 'monoclinic'
loop_
_space_group_symop_operation_xyz
x,y,z
-x,y,-z
-x,-y,-z
x,-y,z
1/2+x,1/2+y,z
1/2-x,1/2+y,-z
1/2-x,1/2-y,-z
1/2+x,1/2-y,z
loop_
_atom_site_type_symbol
_atom_site_label
_atom_site_fract_x
_atom_site_fract_y
_atom_site_fract_z
Si Si1 0.758659 0.617457 0.613805
Si Si2 0.941642 0.699420 0.490197
Si Si3 0.206861 0.309997 0.165175
Si Si4 0.667121 0.250601 0.563532
Si Si5 0.639575 0.119876 0.778083
Si Si6 0.973667 0.384845 0.254096
Si Si7 0.731374 0.116098 0.917238
Si Si8 0.909750 0.620520 0.734684
O O1 0.771610 0.500000 0.582160
O O2 0.760734 0.635817 0.745114
O O3 0.698344 0.644538 0.584125
O O4 0.803724 0.691447 0.546223
O O5 0.895146 0.777431 0.457080
O O6 0.954364 0.618187 0.388853
O O7 0.916225 0.637903 0.601187
O O8 0.000000 0.756307 0.500000
O O9 0.222628 0.190338 0.149963
O O10 0.141219 0.316283 0.200731
O O11 0.226174 0.369964 0.049954
O O12 0.670657 0.177706 0.669471
O O13 0.575785 0.161273 0.806802
O O14 0.671639 0.140771 0.882230
O O15 0.638504 0.000000 0.747964
O O16 0.983022 0.500000 0.214680
O O17 0.034725 0.335277 0.221999
O O18 0.749388 0.000000 0.884055
O O19 0.899904 0.500000 0.758466
#
# Coordination Sequence:
#
# PCOD8078857 Si02
#       8
#     8   8   8   8   8   8   8   8
#     4  11  21  32  48  71  99 127 159 204 245 286
#     4   9  16  26  44  67  97 131 159 194 234 290
#     4  11  21  34  51  72  99 129 168 200 241 287
#     4  10  19  31  46  71  98 126 161 193 240 296
#     4   9  16  30  48  68  97 130 158 191 236 292
#     4   8  15  25  42  69  98 129 159 188 237 296
#     4  10  21  36  52  70  97 130 166 205 242 284
#     4  10  17  27  44  70 101 129 160 198 237 286
#
# _framework density 16.756958999999998
#
# number of rings (size 3 to 8) (size 9 to 14) (size 15 to 20)
#    0.000    2.250    2.500    1.875    0.000    2.500 
#    0.000    0.625    0.000    3.375    0.000    7.000 
#    0.000    2.250    0.000    0.000    0.000    0.000 
#
# Total GULP energy -396466.722309 kJ/mol
# GULP energy per Si atom -12389.585072 kJ/mol
# Density = 1.671882 g / cm^3
# Si number density = 16.756959 Si / 1000 Ang^3
#
#
#
# Elastic Constant Matrix: (Units=GPa)
#
#
# Indices 1 2 3 4 5 6 
#
# 1 137.3511 42.0577 37.1128 0.0000 3.5886 0.0000
# 2 42.0577 55.0049 24.2201 0.0000 0.2498 0.0000
# 3 37.1128 24.2201 56.3645 0.0000 9.5568 0.0000
# 4 0.0000 0.0000 0.0000 14.7023 0.0000 0.6787
# 5 3.5886 0.2498 9.5568 0.0000 24.3361 0.0000
# 6 0.0000 0.0000 0.0000 0.6787 0.0000 20.5445
#
#
#
# Elastic Compliance Matrix: (Units=1/GPa)
#
#
# Indices 1 2 3 4 5 6 
#
# 1 0.010244 -0.005980 -0.004210 0.000000 0.000204 0.000000
# 2 -0.005980 0.026248 -0.007976 0.000000 0.003745 0.000000
# 3 -0.004210 -0.007976 0.025521 0.000000 -0.009320 0.000000
# 4 0.000000 0.000000 0.000000 0.068120 0.000000 -0.002250
# 5 0.000204 0.003745 -0.009320 0.000000 0.044682 0.000000
# 6 0.000000 0.000000 0.000000 -0.002250 0.000000 0.048749
#
#
# Mechanical properties :
#
#
# Convention : Reuss Voigt Hill
#
# Bulk Modulus (GPa) = 38.93995 50.61128 44.77562
# Shear Modulus (GPa) = 18.62492 21.60525 20.11508
#
# Velocity S-wave (km/s) = 3.33749 3.59462 3.46844
# Velocity P-wave (km/s) = 6.17579 6.89181 6.54360
#
# Compressibility (1/GPa) = 0.02568056
#
# Stress axis : x y z
#
# Youngs Moduli (GPa) = 97.61900 38.09872 39.18280
#
# Poissons Ratio (x) = 0.22782 0.16496
# Poissons Ratio (y) = 0.58374 0.31253
# Poissons Ratio (z) = 0.41099 0.30389
#
# Static dielectric constant tensor:
#      x y z
#    x 3.658300 0.000000 0.176450 
#    y 0.000000 2.810150 0.000000 
#    z 0.176450 0.000000 3.053050 
# 
# 
# High freq. dielectric constant tensor:
#      x y z
#    x 1.664690 0.000000 0.012920 
#    y 0.000000 1.594070 0.000000 
#    z 0.012920 0.000000 1.638620 
# 
# From -- ./inp_files/182031.got.cif
#   From: 2010.06.25/outbox.cif.g09.slc.cpg/sg12_92_cif.got.tgz:182031.got - 2010.06.28 00:19:55.
