data_PCOD8078573
_publ_section_title
;
Structure prediction by ZEFSAII (Michael W. Deem and Ramdas Pophale) SiO2 
 PCOD8078573
Probable space group: C 2/M
;
_chemical_formula_sum "Si O2"
_cell_formula_units_Z 56
_cell_length_a 28.401633
_cell_length_b 9.306025
_cell_length_c 13.958830
_cell_angle_alpha 90.000000
_cell_angle_beta 103.119791
_cell_angle_gamma 90.000000
_cell_volume 3593.104504
_symmetry_space_group_name_H-M "C 2/M"
_symmetry_group_IT_number 12
_symmetry_cell_setting 'monoclinic'
loop_
_space_group_symop_operation_xyz
x,y,z
-x,y,-z
-x,-y,-z
x,-y,z
1/2+x,1/2+y,z
1/2-x,1/2+y,-z
1/2-x,1/2-y,-z
1/2+x,1/2-y,z
loop_
_atom_site_type_symbol
_atom_site_label
_atom_site_fract_x
_atom_site_fract_y
_atom_site_fract_z
Si Si1 0.111625 0.333151 0.537090
Si Si2 0.931810 0.166217 0.308053
Si Si3 0.235193 0.836507 0.764920
Si Si4 0.277898 0.831587 0.430421
Si Si5 0.018184 0.658847 0.399858
Si Si6 0.292738 0.165123 0.969837
Si Si7 0.149936 0.835974 0.870678
O O1 0.105070 0.500000 0.563060
O O2 0.099826 0.239705 0.624385
O O3 0.165487 0.299775 0.527340
O O4 0.074822 0.295310 0.432100
O O5 0.904006 0.188120 0.194684
O O6 0.985610 0.232794 0.322372
O O7 0.937027 0.000000 0.337077
O O8 0.239870 0.727512 0.679650
O O9 0.284269 0.822125 0.851504
O O10 0.188378 0.794452 0.805965
O O11 0.229907 0.000000 0.724414
O O12 0.250000 0.750000 0.500000
O O13 0.266318 0.000000 0.429671
O O14 0.012738 0.500000 0.352330
O O15 0.000000 0.660415 0.500000
O O16 0.291620 0.000000 0.001845
O O17 0.250000 0.250000 0.000000
O O18 0.342560 0.237016 0.031147
O O19 0.158337 0.000000 0.905803
#
# Coordination Sequence:
#
# PCOD8078573 Si02
#       7
#     8   8   8   8   8   8   8
#     4   9  18  31  43  57  80 112 146 177 214 256
#     4  10  17  25  40  63  88 113 142 175 210 248
#     4   9  17  31  44  58  83 112 142 180 217 248
#     4  11  22  33  47  64  82 111 149 186 221 256
#     4   8  15  27  40  56  81 110 141 174 206 252
#     4   9  17  27  41  60  83 111 142 175 210 252
#     4   9  17  27  40  61  89 116 142 174 208 249
#
# _framework density 15.585407
#
# number of rings (size 3 to 8) (size 9 to 14) (size 15 to 20)
#    0.000    2.714    1.429    3.000    0.000    7.143 
#    0.000    0.000    0.000    0.000    0.000    0.000 
#    0.000    1.143    0.000   12.857    0.000    6.429 
#
# Total GULP energy -347016.007781 kJ/mol
# GULP energy per Si atom -12393.428849 kJ/mol
# Density = 1.554993 g / cm^3
# Si number density = 15.585407 Si / 1000 Ang^3
#
#
#
# Elastic Constant Matrix: (Units=GPa)
#
#
# Indices 1 2 3 4 5 6 
#
# 1 70.1497 48.3133 46.7107 0.0000 20.7067 0.0000
# 2 48.3133 103.7806 55.7771 0.0000 18.3466 0.0000
# 3 46.7107 55.7771 77.2782 0.0000 23.4143 0.0000
# 4 0.0000 0.0000 0.0000 28.7824 0.0000 6.9495
# 5 20.7067 18.3466 23.4143 0.0000 23.6641 0.0000
# 6 0.0000 0.0000 0.0000 6.9495 0.0000 21.6151
#
#
#
# Elastic Compliance Matrix: (Units=1/GPa)
#
#
# Indices 1 2 3 4 5 6 
#
# 1 0.027609 -0.006109 -0.009132 0.000000 -0.010387 0.000000
# 2 -0.006109 0.017125 -0.008947 0.000000 0.000921 0.000000
# 3 -0.009132 -0.008947 0.029127 0.000000 -0.013892 0.000000
# 4 0.000000 0.000000 0.000000 0.037667 0.000000 -0.012111
# 5 -0.010387 0.000921 -0.013892 0.000000 0.064378 0.000000
# 6 0.000000 0.000000 0.000000 -0.012111 0.000000 0.050158
#
#
# Mechanical properties :
#
#
# Convention : Reuss Voigt Hill
#
# Bulk Modulus (GPa) = 39.23777 61.42341 50.33059
# Shear Modulus (GPa) = 17.67180 21.50616 19.58898
#
# Velocity S-wave (km/s) = 3.37095 3.71872 3.54910
# Velocity P-wave (km/s) = 6.35466 7.61150 7.01130
#
# Compressibility (1/GPa) = 0.02548565
#
# Stress axis : x y z
#
# Youngs Moduli (GPa) = 36.21980 58.39276 34.33221
#
# Poissons Ratio (x) = 0.35670 0.31353
# Poissons Ratio (y) = 0.22125 0.30718
# Poissons Ratio (z) = 0.33077 0.52245
#
# Static dielectric constant tensor:
#      x y z
#    x 3.064380 0.000000 0.576980 
#    y 0.000000 3.146320 0.000000 
#    z 0.576980 0.000000 3.048230 
# 
# 
# High freq. dielectric constant tensor:
#      x y z
#    x 1.564340 0.000000 0.047870 
#    y 0.000000 1.610890 0.000000 
#    z 0.047870 0.000000 1.571140 
# 
# From -- ./inp_files/247878.got.cif
#   From: 2010.06.25/outbox.cif.g09.slc.cpg/sg12_124_cif.got.tgz:247878.got - 2010.06.28 00:19:55.
