data_PCOD8078805
_publ_section_title
;
Structure prediction by ZEFSAII (Michael W. Deem and Ramdas Pophale) SiO2 
 PCOD8078805
Probable space group: C 2/M
;
_chemical_formula_sum "Si O2"
_cell_formula_units_Z 56
_cell_length_a 28.051359
_cell_length_b 8.799375
_cell_length_c 14.424967
_cell_angle_alpha 90.000000
_cell_angle_beta 104.614107
_cell_angle_gamma 90.000000
_cell_volume 3445.383349
_symmetry_space_group_name_H-M "C 2/M"
_symmetry_group_IT_number 12
_symmetry_cell_setting 'monoclinic'
loop_
_space_group_symop_operation_xyz
x,y,z
-x,y,-z
-x,-y,-z
x,-y,z
1/2+x,1/2+y,z
1/2-x,1/2+y,-z
1/2-x,1/2-y,-z
1/2+x,1/2-y,z
loop_
_atom_site_type_symbol
_atom_site_label
_atom_site_fract_x
_atom_site_fract_y
_atom_site_fract_z
Si Si1 0.055869 0.181258 0.035996
Si Si2 0.205496 0.172729 0.122838
Si Si3 0.692985 0.321526 0.795571
Si Si4 0.817670 0.823062 0.609944
Si Si5 0.873114 0.322320 0.789732
Si Si6 0.631350 0.328921 0.927189
Si Si7 0.216657 0.824151 0.604455
O O1 0.086728 0.250360 0.962957
O O2 0.060046 0.000000 0.041269
O O3 0.078804 0.243012 0.142801
O O4 0.000000 0.237860 0.000000
O O5 0.260928 0.228922 0.143404
O O6 0.175787 0.281236 0.177380
O O7 0.202980 0.000000 0.159344
O O8 0.181862 0.181833 0.009712
O O9 0.701568 0.500000 0.819491
O O10 0.645030 0.263205 0.831352
O O11 0.685204 0.291258 0.682162
O O12 0.863452 0.735469 0.679932
O O13 0.817049 0.780971 0.500362
O O14 0.765816 0.776111 0.630877
O O15 0.825707 0.000000 0.630265
O O16 0.882386 0.500000 0.793979
O O17 0.613361 0.500000 0.904655
O O18 0.233105 0.000000 0.606573
#
# Coordination Sequence:
#
# PCOD8078805 Si02
#       7
#     8   8   8   8   8   8   8
#     4   9  18  34  53  71  91 115 145 183 228 276
#     4  10  18  28  41  61  89 122 156 183 213 258
#     4  10  17  27  42  62  90 121 150 181 218 261
#     4  10  18  29  43  61  88 121 156 191 222 262
#     4  11  20  30  46  67  91 119 152 189 228 267
#     4   8  16  28  43  64  89 116 146 179 219 268
#     4   9  18  28  41  62  89 122 156 188 223 258
#
# _framework density 16.253634000000002
#
# number of rings (size 3 to 8) (size 9 to 14) (size 15 to 20)
#    0.000    2.429    1.429    3.429    0.000    0.857 
#    0.000    2.857    0.000    0.000    0.000    1.000 
#    0.000    8.000    0.000    0.000    0.000    0.000 
#
# Total GULP energy -346994.064600 kJ/mol
# GULP energy per Si atom -12392.645164 kJ/mol
# Density = 1.621664 g / cm^3
# Si number density = 16.253634 Si / 1000 Ang^3
#
#
#
# Elastic Constant Matrix: (Units=GPa)
#
#
# Indices 1 2 3 4 5 6 
#
# 1 91.4128 21.6013 65.6320 0.0000 0.0626 0.0000
# 2 21.6013 45.0205 29.2984 0.0000 1.8019 0.0000
# 3 65.6320 29.2984 111.9141 0.0000 -5.1289 0.0000
# 4 0.0000 0.0000 0.0000 20.1542 0.0000 2.7186
# 5 0.0626 1.8019 -5.1289 0.0000 22.1802 0.0000
# 6 0.0000 0.0000 0.0000 2.7186 0.0000 14.0532
#
#
#
# Elastic Compliance Matrix: (Units=1/GPa)
#
#
# Indices 1 2 3 4 5 6 
#
# 1 0.019207 -0.002071 -0.010831 0.000000 -0.002391 0.000000
# 2 -0.002071 0.027324 -0.006105 0.000000 -0.003626 0.000000
# 3 -0.010831 -0.006105 0.017091 0.000000 0.004479 0.000000
# 4 0.000000 0.000000 0.000000 0.050947 0.000000 -0.009856
# 5 -0.002391 -0.003626 0.004479 0.000000 0.046422 0.000000
# 6 0.000000 0.000000 0.000000 -0.009856 0.000000 0.073065
#
#
# Mechanical properties :
#
#
# Convention : Reuss Voigt Hill
#
# Bulk Modulus (GPa) = 39.05145 53.49010 46.27078
# Shear Modulus (GPa) = 17.81858 20.06522 18.94190
#
# Velocity S-wave (km/s) = 3.31461 3.51737 3.41749
# Velocity P-wave (km/s) = 6.22312 7.03398 6.64094
#
# Compressibility (1/GPa) = 0.02560724
#
# Stress axis : x y z
#
# Youngs Moduli (GPa) = 52.06421 36.59815 58.51094
#
# Poissons Ratio (x) = 0.07581 0.63375
# Poissons Ratio (y) = 0.10784 0.35719
# Poissons Ratio (z) = 0.56392 0.22342
#
# Static dielectric constant tensor:
#      x y z
#    x 2.934990 0.000000 -0.195990 
#    y 0.000000 2.974750 0.000000 
#    z -0.195990 0.000000 3.293640 
# 
# 
# High freq. dielectric constant tensor:
#      x y z
#    x 1.583040 0.000000 -0.017360 
#    y 0.000000 1.616830 0.000000 
#    z -0.017360 0.000000 1.626070 
# 
# From -- ./inp_files/243227.got.cif
#   From: 2010.06.25/outbox.cif.g09.slc.cpg/sg12_122_cif.got.tgz:243227.got - 2010.06.28 00:19:55.
