data_PCOD8078411
_publ_section_title
;
Structure prediction by ZEFSAII (Michael W. Deem and Ramdas Pophale) SiO2 
 PCOD8078411
Probable space group: C 2/M
;
_chemical_formula_sum "Si O2"
_cell_formula_units_Z 48
_cell_length_a 18.599233
_cell_length_b 16.053750
_cell_length_c 17.963337
_cell_angle_alpha 90.000000
_cell_angle_beta 149.804661
_cell_angle_gamma 90.000000
_cell_volume 2697.634124
_symmetry_space_group_name_H-M "C 2/M"
_symmetry_group_IT_number 12
_symmetry_cell_setting 'monoclinic'
loop_
_space_group_symop_operation_xyz
x,y,z
-x,y,-z
-x,-y,-z
x,-y,z
1/2+x,1/2+y,z
1/2-x,1/2+y,-z
1/2-x,1/2-y,-z
1/2+x,1/2-y,z
loop_
_atom_site_type_symbol
_atom_site_label
_atom_site_fract_x
_atom_site_fract_y
_atom_site_fract_z
Si Si1 0.169655 0.326421 0.387012
Si Si2 0.336756 0.172639 0.108051
Si Si3 0.118991 0.755414 0.710221
Si Si4 0.330220 0.593433 0.648832
Si Si5 0.883635 0.906297 0.179493
Si Si6 0.704351 0.758640 0.625757
O O1 0.250000 0.250000 0.500000
O O2 0.218914 0.406214 0.478991
O O3 0.226291 0.322398 0.352687
O O4 0.000507 0.320977 0.230728
O O5 0.327918 0.179026 0.189952
O O6 0.250000 0.250000 0.000000
O O7 0.258488 0.093671 0.000580
O O8 0.127599 0.844091 0.760399
O O9 0.219558 0.756801 0.727549
O O10 0.959035 0.733289 0.544286
O O11 0.332181 0.500000 0.683476
O O12 0.484319 0.620250 0.754684
O O13 0.286557 0.656581 0.675670
O O14 0.903253 0.000000 0.228105
#
# Coordination Sequence:
#
# PCOD8078411 Si02
#       6
#     8   8   8   8   8   8
#     4  10  16  32  53  76 103 137 185 221 249 317
#     4  10  18  32  53  75 104 143 180 214 258 320
#     4  10  18  33  55  81 108 138 178 219 272 322
#     4  10  19  34  54  78 108 141 181 227 264 308
#     4  10  21  37  55  79 110 143 180 224 267 316
#     4  10  18  32  55  83 107 137 176 225 269 323
#
# _framework density 17.793368999999998
#
# number of rings (size 3 to 8) (size 9 to 14) (size 15 to 20)
#    0.000    2.000    5.000    3.000    0.000    0.667 
#    0.000   12.500    0.000    3.000    0.000    0.000 
#    0.000    0.000    0.000    0.000    0.000    0.000 
#
# Total GULP energy -297327.250972 kJ/mol
# GULP energy per Si atom -12388.635457 kJ/mol
# Density = 1.775287 g / cm^3
# Si number density = 17.793369 Si / 1000 Ang^3
#
#
#
# Elastic Constant Matrix: (Units=GPa)
#
#
# Indices 1 2 3 4 5 6 
#
# 1 156.9533 43.1988 46.1506 0.0004 -9.2696 0.0002
# 2 43.1988 75.3299 14.6725 0.0006 -2.5005 0.0004
# 3 46.1506 14.6725 103.0894 0.0003 10.9551 0.0005
# 4 0.0004 0.0006 0.0003 19.1558 0.0005 1.2141
# 5 -9.2696 -2.5005 10.9551 0.0005 29.7660 0.0003
# 6 0.0002 0.0004 0.0005 1.2141 0.0003 22.7081
#
#
#
# Elastic Compliance Matrix: (Units=1/GPa)
#
#
# Indices 1 2 3 4 5 6 
#
# 1 0.008867 -0.004224 -0.003772 0.000000 0.003795 0.000000
# 2 -0.004224 0.015774 -0.000369 0.000000 0.000146 0.000000
# 3 -0.003772 -0.000369 0.012040 0.000000 -0.005637 0.000000
# 4 0.000000 0.000000 0.000000 0.052381 -0.000001 -0.002801
# 5 0.003795 0.000146 -0.005637 -0.000001 0.036864 0.000000
# 6 0.000000 0.000000 0.000000 -0.002801 0.000000 0.044187
#
#
# Mechanical properties :
#
#
# Convention : Reuss Voigt Hill
#
# Bulk Modulus (GPa) = 50.12297 60.37961 55.25129
# Shear Modulus (GPa) = 25.84053 29.74937 27.79495
#
# Velocity S-wave (km/s) = 3.81498 4.09337 3.95662
# Velocity P-wave (km/s) = 6.90189 7.50655 7.21056
#
# Compressibility (1/GPa) = 0.01995093
#
# Stress axis : x y z
#
# Youngs Moduli (GPa) = 112.77628 63.39450 83.05400
#
# Poissons Ratio (x) = 0.26780 0.31325
# Poissons Ratio (y) = 0.47641 0.03068
# Poissons Ratio (z) = 0.42535 0.02342
#
# Static dielectric constant tensor:
#      x y z
#    x 3.635970 0.000000 -0.147530 
#    y 0.000000 3.356260 0.000000 
#    z -0.147530 0.000000 3.868410 
# 
# 
# High freq. dielectric constant tensor:
#      x y z
#    x 1.681930 0.000000 0.008430 
#    y 0.000000 1.664870 0.000000 
#    z 0.008430 0.000000 1.691590 
# 
# From -- ./inp_files/74620.got.cif
#   From: 2010.06.25/outbox.cif.g09.slc.cpg/sg12_38_cif.got.tgz:74620.got - 2010.06.28 00:19:55.
