data_PCOD8078639
_publ_section_title
;
Structure prediction by ZEFSAII (Michael W. Deem and Ramdas Pophale) SiO2 
 PCOD8078639
Probable space group: C 2/M
;
_chemical_formula_sum "Si O2"
_cell_formula_units_Z 64
_cell_length_a 28.637865
_cell_length_b 9.081275
_cell_length_c 22.772076
_cell_angle_alpha 90.000000
_cell_angle_beta 44.774502
_cell_angle_gamma 90.000000
_cell_volume 4171.181633
_symmetry_space_group_name_H-M "C 2/M"
_symmetry_group_IT_number 12
_symmetry_cell_setting 'monoclinic'
loop_
_space_group_symop_operation_xyz
x,y,z
-x,y,-z
-x,-y,-z
x,-y,z
1/2+x,1/2+y,z
1/2-x,1/2+y,-z
1/2-x,1/2-y,-z
1/2+x,1/2-y,z
loop_
_atom_site_type_symbol
_atom_site_label
_atom_site_fract_x
_atom_site_fract_y
_atom_site_fract_z
Si Si1 0.214078 0.164395 0.116590
Si Si2 0.015891 0.330920 0.551309
Si Si3 0.967607 0.174684 0.805575
Si Si4 0.088785 0.329866 0.256569
Si Si5 0.238560 0.332065 0.569425
Si Si6 0.119838 0.172588 0.534671
Si Si7 0.596666 0.173430 0.679811
Si Si8 0.332894 0.336505 0.975179
O O1 0.162448 0.263404 0.199248
O O2 0.192602 0.163302 0.068465
O O3 0.214653 0.000000 0.142314
O O4 0.288596 0.229537 0.055022
O O5 0.039725 0.500000 0.531333
O O6 0.949280 0.310257 0.648418
O O7 0.000000 0.277965 0.500000
O O8 0.075445 0.230196 0.521271
O O9 0.952009 0.242442 0.756021
O O10 0.909844 0.214747 0.904206
O O11 0.036244 0.245468 0.767148
O O12 0.973663 0.000000 0.792843
O O13 0.094865 0.500000 0.232206
O O14 0.237839 0.500000 0.551365
O O15 0.250000 0.250000 0.500000
O O16 0.302321 0.300561 0.554149
O O17 0.163796 0.293126 0.658542
O O18 0.102823 0.261696 0.608793
O O19 0.105967 0.000000 0.558123
O O20 0.581518 0.000000 0.688461
O O21 0.327023 0.500000 0.007093
#
# Coordination Sequence:
#
# PCOD8078639 Si02
#       8
#     8   8   8   8   8   8   8   8
#     4   9  16  25  38  54  73  96 128 166 195 230
#     4  10  21  34  45  59  79 104 137 175 212 248
#     4  10  18  26  38  57  81 105 133 168 197 230
#     4  10  18  28  42  55  72 102 133 165 206 246
#     4   8  16  27  39  57  78 101 130 163 198 238
#     4  10  18  29  44  59  77 101 133 172 207 240
#     4  10  17  26  40  58  81 108 135 162 198 242
#     4   8  15  25  35  51  75 102 129 158 193 230
#
# _framework density 15.343375
#
# number of rings (size 3 to 8) (size 9 to 14) (size 15 to 20)
#    0.000    2.625    1.250    2.625    0.000    5.250 
#    0.000    0.000    0.000    0.000    0.000    0.000 
#    0.000    0.000    0.000    1.125    0.000   22.750 
#
# Total GULP energy -396485.191751 kJ/mol
# GULP energy per Si atom -12390.162242 kJ/mol
# Density = 1.530845 g / cm^3
# Si number density = 15.343375 Si / 1000 Ang^3
#
#
#
# Elastic Constant Matrix: (Units=GPa)
#
#
# Indices 1 2 3 4 5 6 
#
# 1 69.1280 40.0760 49.1864 0.0020 -30.8054 -0.0013
# 2 40.0760 89.9353 45.0539 -0.0026 -24.3399 0.0043
# 3 49.1864 45.0539 73.1969 -0.0019 -34.7493 0.0069
# 4 0.0020 -0.0026 -0.0019 21.7005 0.0020 -9.6017
# 5 -30.8054 -24.3399 -34.7493 0.0020 32.1029 0.0008
# 6 -0.0013 0.0043 0.0069 -9.6017 0.0008 17.7961
#
#
#
# Elastic Compliance Matrix: (Units=1/GPa)
#
#
# Indices 1 2 3 4 5 6 
#
# 1 0.031875 -0.004339 -0.011910 -0.000003 0.014406 0.000005
# 2 -0.004339 0.016812 -0.006907 0.000001 0.001107 -0.000001
# 3 -0.011910 -0.006907 0.037037 -0.000007 0.023425 -0.000018
# 4 -0.000003 0.000001 -0.000007 0.060533 -0.000014 0.032660
# 5 0.014406 0.001107 0.023425 -0.000014 0.071168 -0.000019
# 6 0.000005 -0.000001 -0.000018 0.032660 -0.000019 0.073813
#
#
# Mechanical properties :
#
#
# Convention : Reuss Voigt Hill
#
# Bulk Modulus (GPa) = 25.37254 55.65473 40.51363
# Shear Modulus (GPa) = 14.25772 20.84948 17.55360
#
# Velocity S-wave (km/s) = 3.05166 3.69027 3.38605
# Velocity P-wave (km/s) = 5.38416 7.38302 6.46135
#
# Compressibility (1/GPa) = 0.03941268
#
# Stress axis : x y z
#
# Youngs Moduli (GPa) = 31.37271 59.48024 27.00019
#
# Poissons Ratio (x) = 0.25807 0.32156
# Poissons Ratio (y) = 0.13612 0.18650
# Poissons Ratio (z) = 0.37363 0.41085
#
# Static dielectric constant tensor:
#      x y z
#    x 2.994060 -0.000040 -0.662450 
#    y -0.000040 3.079560 0.000050 
#    z -0.662450 0.000050 2.985100 
# 
# 
# High freq. dielectric constant tensor:
#      x y z
#    x 1.546320 0.000000 -0.057520 
#    y 0.000000 1.605690 0.000000 
#    z -0.057520 0.000000 1.562330 
# 
# From -- ./inp_files/326840.got.cif
#   From: 2010.06.25/outbox.cif.g09.slc.cpg/sg12_164_cif.got.tgz:326840.got - 2010.06.28 00:19:55.
