data_PCOD8078506
_publ_section_title
;
Structure prediction by ZEFSAII (Michael W. Deem and Ramdas Pophale) SiO2 
 PCOD8078506
Probable space group: C 2/M
;
_chemical_formula_sum "Si O2"
_cell_formula_units_Z 56
_cell_length_a 24.471218
_cell_length_b 8.816864
_cell_length_c 16.526896
_cell_angle_alpha 90.000000
_cell_angle_beta 74.503118
_cell_angle_gamma 90.000000
_cell_volume 3436.197298
_symmetry_space_group_name_H-M "C 2/M"
_symmetry_group_IT_number 12
_symmetry_cell_setting 'monoclinic'
loop_
_space_group_symop_operation_xyz
x,y,z
-x,y,-z
-x,-y,-z
x,-y,z
1/2+x,1/2+y,z
1/2-x,1/2+y,-z
1/2-x,1/2-y,-z
1/2+x,1/2-y,z
loop_
_atom_site_type_symbol
_atom_site_label
_atom_site_fract_x
_atom_site_fract_y
_atom_site_fract_z
Si Si1 0.542574 0.820653 0.050477
Si Si2 0.084502 0.320782 0.443481
Si Si3 0.170111 0.677655 0.987243
Si Si4 0.534306 0.673914 0.221333
Si Si5 0.976710 0.176578 0.402116
Si Si6 0.228635 0.323143 0.132285
Si Si7 0.143708 0.178710 0.280277
O O1 0.521966 0.770621 0.146861
O O2 0.541969 0.000000 0.049346
O O3 0.500000 0.753430 0.000000
O O4 0.605861 0.762208 0.005863
O O5 0.089409 0.500000 0.449977
O O6 0.081048 0.245130 0.535389
O O7 0.137503 0.257110 0.370934
O O8 0.028127 0.271517 0.419147
O O9 0.175627 0.500000 0.967145
O O10 0.207070 0.767209 0.906408
O O11 0.191617 0.717406 0.068310
O O12 0.540755 0.500000 0.192746
O O13 0.480595 0.696754 0.303385
O O14 0.592007 0.728929 0.242268
O O15 0.983680 0.000000 0.422013
O O16 0.228293 0.500000 0.151867
O O17 0.202499 0.234406 0.218585
O O18 0.144178 0.000000 0.293121
#
# Coordination Sequence:
#
# PCOD8078506 Si02
#       7
#     8   8   8   8   8   8   8
#     4  10  20  33  48  65  87 116 151 189 227 264
#     4  10  17  24  37  59  84 113 146 179 214 257
#     4   9  18  31  44  62  87 115 145 183 226 266
#     4   9  18  29  43  61  83 114 150 184 220 263
#     4   9  16  27  39  55  81 114 147 179 217 262
#     4  10  18  28  45  66  86 114 148 185 220 264
#     4  10  18  28  42  61  88 119 147 179 219 265
#
# _framework density 16.297086
#
# number of rings (size 3 to 8) (size 9 to 14) (size 15 to 20)
#    0.000    2.429    1.429    4.286    0.000    4.286 
#    0.000    0.000    0.000    0.000    0.000    0.000 
#    0.000    1.143    0.000    3.429    0.000    5.571 
#
# Total GULP energy -347077.480856 kJ/mol
# GULP energy per Si atom -12395.624316 kJ/mol
# Density = 1.625999 g / cm^3
# Si number density = 16.297086 Si / 1000 Ang^3
#
#
#
# Elastic Constant Matrix: (Units=GPa)
#
#
# Indices 1 2 3 4 5 6 
#
# 1 60.3217 22.0420 47.3608 0.0000 -9.5714 0.0000
# 2 22.0420 62.4012 45.0289 0.0000 -11.8122 0.0000
# 3 47.3608 45.0289 130.7884 0.0000 -29.7737 0.0000
# 4 0.0000 0.0000 0.0000 32.4955 0.0000 -7.3816
# 5 -9.5714 -11.8122 -29.7737 0.0000 21.1423 0.0000
# 6 0.0000 0.0000 0.0000 -7.3816 0.0000 14.3101
#
#
#
# Elastic Compliance Matrix: (Units=1/GPa)
#
#
# Indices 1 2 3 4 5 6 
#
# 1 0.023622 -0.002966 -0.008059 0.000000 -0.002313 0.000000
# 2 -0.002966 0.021773 -0.005826 0.000000 0.002617 0.000000
# 3 -0.008059 -0.005826 0.016188 0.000000 0.015894 0.000000
# 4 0.000000 0.000000 0.000000 0.034858 0.000000 0.017981
# 5 -0.002313 0.002617 0.015894 0.000000 0.070096 0.000000
# 6 0.000000 0.000000 0.000000 0.017981 0.000000 0.079156
#
#
# Mechanical properties :
#
#
# Convention : Reuss Voigt Hill
#
# Bulk Modulus (GPa) = 35.86820 53.59719 44.73269
# Shear Modulus (GPa) = 17.31961 22.86155 20.09058
#
# Velocity S-wave (km/s) = 3.26351 3.74946 3.51489
# Velocity P-wave (km/s) = 6.02141 7.19052 6.63178
#
# Compressibility (1/GPa) = 0.02787985
#
# Stress axis : x y z
#
# Youngs Moduli (GPa) = 42.33272 45.92914 61.77257
#
# Poissons Ratio (x) = 0.13624 0.49784
# Poissons Ratio (y) = 0.12557 0.35990
# Poissons Ratio (z) = 0.34117 0.26759
#
# Static dielectric constant tensor:
#      x y z
#    x 2.756640 0.000000 -0.334180 
#    y 0.000000 3.032460 0.000000 
#    z -0.334180 0.000000 3.534790 
# 
# 
# High freq. dielectric constant tensor:
#      x y z
#    x 1.558450 0.000000 -0.036530 
#    y 0.000000 1.634940 0.000000 
#    z -0.036530 0.000000 1.636880 
# 
# From -- ./inp_files/243063.got.cif
#   From: 2010.06.25/outbox.cif.g09.slc.cpg/sg12_122_cif.got.tgz:243063.got - 2010.06.28 00:19:55.
