data_PCOD8078100
_publ_section_title
;
Structure prediction by ZEFSAII (Michael W. Deem and Ramdas Pophale) SiO2 
 PCOD8078100
Probable space group: C 2/M
;
_chemical_formula_sum "Si O2"
_cell_formula_units_Z 44
_cell_length_a 12.441497
_cell_length_b 19.596176
_cell_length_c 9.609728
_cell_angle_alpha 90.000000
_cell_angle_beta 75.844345
_cell_angle_gamma 90.000000
_cell_volume 2271.764523
_symmetry_space_group_name_H-M "C 2/M"
_symmetry_group_IT_number 12
_symmetry_cell_setting 'monoclinic'
loop_
_space_group_symop_operation_xyz
x,y,z
-x,y,-z
-x,-y,-z
x,-y,z
1/2+x,1/2+y,z
1/2-x,1/2+y,-z
1/2-x,1/2-y,-z
1/2+x,1/2-y,z
loop_
_atom_site_type_symbol
_atom_site_label
_atom_site_fract_x
_atom_site_fract_y
_atom_site_fract_z
Si Si1 0.220939 0.325037 0.859739
Si Si2 0.000000 0.393839 0.000000
Si Si3 0.269031 0.420547 0.286978
Si Si4 0.627325 0.684694 0.932101
Si Si5 0.966562 0.573465 0.709073
Si Si6 0.206570 0.580024 0.608265
O O1 0.196229 0.245541 0.834645
O O2 0.251861 0.370187 0.714446
O O3 0.322105 0.333529 0.933699
O O4 0.109265 0.348359 0.969693
O O5 0.004811 0.438328 0.137375
O O6 0.279296 0.500000 0.240945
O O7 0.364077 0.379874 0.174753
O O8 0.149000 0.387317 0.280351
O O9 0.283716 0.410991 0.448479
O O10 0.500000 0.703545 0.000000
O O11 0.945892 0.500000 0.645483
O O12 0.079906 0.604345 0.607082
O O13 0.205827 0.500000 0.656494
#
# Coordination Sequence:
#
# PCOD8078100 Si02
#       6
#     8   4   8   8   8   8
#     4  10  21  36  58  82 111 140 182 228 277 327
#     4  10  15  30  52  82 107 140 168 226 272 330
#     4  10  20  35  54  80 113 149 188 227 271 326
#     4  11  23  39  57  78 112 149 188 227 268 324
#     4   9  16  27  50  83 114 139 171 220 281 331
#     4   9  19  34  56  85 114 141 178 230 283 331
#
# _framework density 19.368205
#
# number of rings (size 3 to 8) (size 9 to 14) (size 15 to 20)
#    0.000    2.182    2.727    0.818    0.000    4.727 
#    0.000    0.909    0.000    2.182    0.000    0.000 
#    0.000    0.000    0.000    0.000    0.000    0.000 
#
# Total GULP energy -272565.014099 kJ/mol
# GULP energy per Si atom -12389.318823 kJ/mol
# Density = 1.932412 g / cm^3
# Si number density = 19.368205 Si / 1000 Ang^3
#
#
#
# Elastic Constant Matrix: (Units=GPa)
#
#
# Indices 1 2 3 4 5 6 
#
# 1 70.9636 20.6244 29.5599 0.0000 10.3278 0.0000
# 2 20.6244 92.8461 51.9656 0.0000 6.3010 0.0000
# 3 29.5599 51.9656 90.6935 0.0000 -2.0178 0.0000
# 4 0.0000 0.0000 0.0000 27.7638 0.0000 5.0229
# 5 10.3278 6.3010 -2.0178 0.0000 20.1621 0.0000
# 6 0.0000 0.0000 0.0000 5.0229 0.0000 19.1108
#
#
#
# Elastic Compliance Matrix: (Units=1/GPa)
#
#
# Indices 1 2 3 4 5 6 
#
# 1 0.018074 0.000115 -0.006178 0.000000 -0.009913 0.000000
# 2 0.000115 0.016583 -0.009677 0.000000 -0.006210 0.000000
# 3 -0.006178 -0.009677 0.018764 0.000000 0.008067 0.000000
# 4 0.000000 0.000000 0.000000 0.037816 0.000000 -0.009939
# 5 -0.009913 -0.006210 0.008067 0.000000 0.057424 0.000000
# 6 0.000000 0.000000 0.000000 -0.009939 0.000000 0.054939
#
#
# Mechanical properties :
#
#
# Convention : Reuss Voigt Hill
#
# Bulk Modulus (GPa) = 45.57519 50.97811 48.27665
# Shear Modulus (GPa) = 20.62769 23.56421 22.09595
#
# Velocity S-wave (km/s) = 3.26702 3.49183 3.38129
# Velocity P-wave (km/s) = 6.14925 6.52953 6.34224
#
# Compressibility (1/GPa) = 0.02194176
#
# Stress axis : x y z
#
# Youngs Moduli (GPa) = 55.32767 60.30394 53.29350
#
# Poissons Ratio (x) = -0.00696 0.32923
# Poissons Ratio (y) = -0.00638 0.51574
# Poissons Ratio (z) = 0.34179 0.58358
#
# Static dielectric constant tensor:
#      x y z
#    x 3.345930 0.000000 0.054580 
#    y 0.000000 3.372250 0.000000 
#    z 0.054580 0.000000 3.486870 
# 
# 
# High freq. dielectric constant tensor:
#      x y z
#    x 1.731670 0.000000 0.005540 
#    y 0.000000 1.735770 0.000000 
#    z 0.005540 0.000000 1.753660 
# 
# From -- ./inp_files/49301.got.cif
#   From: 2010.06.25/outbox.cif.g09.slc.cpg/sg12_25_cif.got.tgz:49301.got - 2010.06.28 00:19:55.
