data_PCOD8078687
_publ_section_title
;
Structure prediction by ZEFSAII (Michael W. Deem and Ramdas Pophale) SiO2 
 PCOD8078687
Probable space group: C 2/M
;
_chemical_formula_sum "Si O2"
_cell_formula_units_Z 32
_cell_length_a 23.387787
_cell_length_b 8.485086
_cell_length_c 11.657787
_cell_angle_alpha 90.000000
_cell_angle_beta 49.052069
_cell_angle_gamma 90.000000
_cell_volume 1747.366999
_symmetry_space_group_name_H-M "C 2/M"
_symmetry_group_IT_number 12
_symmetry_cell_setting 'monoclinic'
loop_
_space_group_symop_operation_xyz
x,y,z
-x,y,-z
-x,-y,-z
x,-y,z
1/2+x,1/2+y,z
1/2-x,1/2+y,-z
1/2-x,1/2-y,-z
1/2+x,1/2-y,z
loop_
_atom_site_type_symbol
_atom_site_label
_atom_site_fract_x
_atom_site_fract_y
_atom_site_fract_z
Si Si1 0.896688 0.683059 0.074826
Si Si2 0.050076 0.817878 0.783177
Si Si3 0.823046 0.813309 0.966841
Si Si4 0.479054 0.687110 0.651037
O O1 0.914004 0.500000 0.033828
O O2 0.887883 0.719646 0.223535
O O3 0.824981 0.737362 0.092790
O O4 0.966199 0.790787 0.942970
O O5 0.044597 0.763441 0.656761
O O6 0.071974 0.000000 0.762845
O O7 0.896532 0.752601 0.799680
O O8 0.820008 0.000000 0.981095
O O9 0.750000 0.750000 0.000000
O O10 0.500000 0.761684 0.500000
O O11 0.475790 0.500000 0.647233
#
# Coordination Sequence:
#
# PCOD8078687 Si02
#       4
#     8   8   8   8
#     4  10  17  26  42  64  91 119 151 189 226 266
#     4   9  15  25  43  66  91 117 149 189 229 267
#     4  10  19  31  48  69  94 121 151 187 227 272
#     4   8  15  28  47  70  93 119 150 184 225 271
#
# _framework density 18.313268000000001
#
# number of rings (size 3 to 8) (size 9 to 14) (size 15 to 20)
#    0.000    2.750    0.000    6.750    0.000    0.000 
#    0.000    0.000    0.000   28.500    0.000    0.000 
#    0.000    0.000    0.000    0.000    0.000    0.000 
#
# Total GULP energy -198211.072293 kJ/mol
# GULP energy per Si atom -12388.192018 kJ/mol
# Density = 1.827159 g / cm^3
# Si number density = 18.313268 Si / 1000 Ang^3
#
#
#
# Elastic Constant Matrix: (Units=GPa)
#
#
# Indices 1 2 3 4 5 6 
#
# 1 191.4589 41.6315 57.9035 0.0000 41.0833 0.0000
# 2 41.6315 59.7475 19.8102 0.0000 11.2157 -0.0001
# 3 57.9035 19.8102 61.2096 0.0000 26.8882 0.0000
# 4 0.0000 0.0000 0.0000 7.2531 0.0000 2.6485
# 5 41.0833 11.2157 26.8882 0.0000 33.0846 0.0000
# 6 0.0000 -0.0001 0.0000 2.6485 0.0000 33.1730
#
#
#
# Elastic Compliance Matrix: (Units=1/GPa)
#
#
# Indices 1 2 3 4 5 6 
#
# 1 0.008560 -0.003396 -0.004409 0.000000 -0.005895 0.000000
# 2 -0.003396 0.020201 -0.003374 0.000000 0.000111 0.000000
# 3 -0.004409 -0.003374 0.029071 0.000000 -0.017008 0.000000
# 4 0.000000 0.000000 0.000000 0.142012 0.000000 -0.011338
# 5 -0.005895 0.000111 -0.017008 0.000000 0.051331 0.000000
# 6 0.000000 0.000000 0.000000 -0.011338 0.000000 0.031050
#
#
# Mechanical properties :
#
#
# Convention : Reuss Voigt Hill
#
# Bulk Modulus (GPa) = 28.18949 61.23406 44.71178
# Shear Modulus (GPa) = 15.80236 27.57352 21.68794
#
# Velocity S-wave (km/s) = 2.94069 3.88449 3.44506
# Velocity P-wave (km/s) = 5.19197 7.32316 6.34764
#
# Compressibility (1/GPa) = 0.03547421
#
# Stress axis : x y z
#
# Youngs Moduli (GPa) = 116.82514 49.50168 34.39803
#
# Poissons Ratio (x) = 0.16811 0.15166
# Poissons Ratio (y) = 0.39674 0.11607
# Poissons Ratio (z) = 0.51507 0.16704
#
# Static dielectric constant tensor:
#      x y z
#    x 4.134870 0.000000 0.842850 
#    y 0.000000 3.141660 0.000000 
#    z 0.842850 0.000000 3.677690 
# 
# 
# High freq. dielectric constant tensor:
#      x y z
#    x 1.728240 0.000000 0.047160 
#    y 0.000000 1.699900 0.000000 
#    z 0.047160 0.000000 1.646300 
# 
# From -- ./inp_files/150878.got.cif
#   From: 2010.06.25/outbox.cif.g09.slc.cpg/sg12_76_cif.got.tgz:150878.got - 2010.06.28 00:19:55.
