data_PCOD8078444
_publ_section_title
;
Structure prediction by ZEFSAII (Michael W. Deem and Ramdas Pophale) SiO2 
 PCOD8078444
Probable space group: C 2/M
;
_chemical_formula_sum "Si O2"
_cell_formula_units_Z 40
_cell_length_a 27.810841
_cell_length_b 16.284781
_cell_length_c 9.747778
_cell_angle_alpha 90.000000
_cell_angle_beta 152.566583
_cell_angle_gamma 90.000000
_cell_volume 2033.931843
_symmetry_space_group_name_H-M "C 2/M"
_symmetry_group_IT_number 12
_symmetry_cell_setting 'monoclinic'
loop_
_space_group_symop_operation_xyz
x,y,z
-x,y,-z
-x,-y,-z
x,-y,z
1/2+x,1/2+y,z
1/2-x,1/2+y,-z
1/2-x,1/2-y,-z
1/2+x,1/2-y,z
loop_
_atom_site_type_symbol
_atom_site_label
_atom_site_fract_x
_atom_site_fract_y
_atom_site_fract_z
Si Si1 0.270485 0.000000 0.136376
Si Si2 0.586863 0.169149 0.836987
Si Si3 0.798814 0.872012 0.259340
Si Si4 0.008765 0.500000 0.685756
Si Si5 0.624420 0.500000 0.332867
Si Si6 0.871439 0.000000 0.957115
Si Si7 0.508708 0.333636 0.683224
O O1 0.395833 0.000000 0.471988
O O2 0.217449 0.000000 0.151900
O O3 0.233441 0.922134 0.957238
O O4 0.500000 0.169906 0.500000
O O5 0.573979 0.252407 0.894202
O O6 0.573256 0.083384 0.888592
O O7 0.699652 0.180064 0.054340
O O8 0.895031 0.815580 0.459038
O O9 0.836034 0.921975 0.484995
O O10 0.000000 0.500000 0.500000
O O11 0.679999 0.500000 0.323965
O O12 0.500000 0.500000 0.000000
O O13 0.943887 0.080867 0.144585
O O14 0.500000 0.342164 0.500000
#
# Coordination Sequence:
#
# PCOD8078444 Si02
#       7
#     4   8   8   4   4   4   8
#     4  11  19  32  64  87 114 157 191 249 303 337
#     4  10  21  35  59  94 122 150 197 247 296 357
#     4  11  20  37  62  88 114 159 201 242 298 354
#     4  10  16  34  55  88 121 151 190 238 295 353
#     4  11  22  38  66  83 114 166 206 240 297 359
#     4  12  22  39  55  91 127 151 198 256 296 341
#     4  11  22  33  58  91 125 148 194 253 301 349
#
# _framework density 19.666343999999999
#
# number of rings (size 3 to 8) (size 9 to 14) (size 15 to 20)
#    0.000    1.200    8.000    1.500    0.000    4.800 
#    0.000    1.000    0.000    2.400    0.000    0.000 
#    0.000    0.000    0.000    0.000    0.000    0.000 
#
# Total GULP energy -247823.115131 kJ/mol
# GULP energy per Si atom -12391.155757 kJ/mol
# Density = 1.962158 g / cm^3
# Si number density = 19.666344 Si / 1000 Ang^3
#
#
#
# Elastic Constant Matrix: (Units=GPa)
#
#
# Indices 1 2 3 4 5 6 
#
# 1 152.5148 48.0855 65.8777 0.0000 35.2133 0.0000
# 2 48.0855 152.7759 24.2000 0.0000 19.5997 0.0000
# 3 65.8777 24.2000 59.9801 0.0000 19.0326 0.0000
# 4 0.0000 0.0000 0.0000 8.8091 0.0000 15.3693
# 5 35.2133 19.5997 19.0326 0.0000 51.3022 0.0000
# 6 0.0000 0.0000 0.0000 15.3693 0.0000 25.1788
#
#
#
# Elastic Compliance Matrix: (Units=1/GPa)
#
#
# Indices 1 2 3 4 5 6 
#
# 1 0.013626 -0.001728 -0.013047 0.000000 -0.003853 0.000000
# 2 -0.001728 0.007368 -0.000633 0.000000 -0.001394 0.000000
# 3 -0.013047 -0.000633 0.032120 0.000000 -0.002719 0.000000
# 4 0.000000 0.000000 0.000000 -1.746761 0.000000 1.066235
# 5 -0.003853 -0.001394 -0.002719 0.000000 0.023678 0.000000
# 6 0.000000 0.000000 0.000000 1.066235 0.000000 -0.611121
#
#
# Mechanical properties :
#
#
# Convention : Reuss Voigt Hill
#
# Bulk Modulus (GPa) = 44.84233 71.28857 58.06545
# Shear Modulus (GPa) = -2.22932 32.19851 14.98460
#
# Velocity S-wave (km/s) = -1.06585 4.05067 2.76332
# Velocity P-wave (km/s) = 4.61913 7.62922 6.30640
#
# Compressibility (1/GPa) = 0.02230036
#
# Stress axis : x y z
#
# Youngs Moduli (GPa) = 73.38662 135.71289 31.13350
#
# Poissons Ratio (x) = 0.23451 0.40619
# Poissons Ratio (y) = 0.12681 0.01970
# Poissons Ratio (z) = 0.95744 0.08585
#
# Static dielectric constant tensor:
#      x y z
#    x 3.676170 0.000000 0.289260 
#    y 0.000000 4.785930 0.000000 
#    z 0.289260 0.000000 3.476240 
# 
# 
# High freq. dielectric constant tensor:
#      x y z
#    x 1.762050 0.000000 0.034840 
#    y 0.000000 1.770960 0.000000 
#    z 0.034840 0.000000 1.737160 
# 
# From -- ./inp_files/105914.got.cif
#   From: 2010.06.25/outbox.cif.g09.slc.cpg/sg12_53_cif.got.tgz:105914.got - 2010.06.28 00:19:55.
