data_PCOD8078592
_publ_section_title
;
Structure prediction by ZEFSAII (Michael W. Deem and Ramdas Pophale) SiO2 
 PCOD8078592
Probable space group: C 2/M
;
_chemical_formula_sum "Si O2"
_cell_formula_units_Z 56
_cell_length_a 22.973912
_cell_length_b 8.755895
_cell_length_c 16.377604
_cell_angle_alpha 90.000000
_cell_angle_beta 80.774634
_cell_angle_gamma 90.000000
_cell_volume 3251.859599
_symmetry_space_group_name_H-M "C 2/M"
_symmetry_group_IT_number 12
_symmetry_cell_setting 'monoclinic'
loop_
_space_group_symop_operation_xyz
x,y,z
-x,y,-z
-x,-y,-z
x,-y,z
1/2+x,1/2+y,z
1/2-x,1/2+y,-z
1/2-x,1/2-y,-z
1/2+x,1/2-y,z
loop_
_atom_site_type_symbol
_atom_site_label
_atom_site_fract_x
_atom_site_fract_y
_atom_site_fract_z
Si Si1 0.039332 0.823181 0.590089
Si Si2 0.452789 0.820027 0.074086
Si Si3 0.379801 0.321057 0.731747
Si Si4 0.791970 0.676999 0.874514
Si Si5 0.006325 0.825013 0.771717
Si Si6 0.917560 0.320850 0.566393
Si Si7 0.174485 0.678670 0.950082
O O1 0.050779 0.803858 0.684401
O O2 0.092535 0.759533 0.520739
O O3 0.982532 0.722753 0.581568
O O4 0.026385 0.000000 0.573148
O O5 0.469833 0.779993 0.162028
O O6 0.388000 0.757028 0.067208
O O7 0.451990 0.000000 0.063979
O O8 0.500000 0.748641 0.000000
O O9 0.380240 0.500000 0.715668
O O10 0.324861 0.274755 0.799071
O O11 0.440526 0.270928 0.762301
O O12 0.372328 0.240113 0.645143
O O13 0.796431 0.500000 0.850623
O O14 0.724014 0.727454 0.890716
O O15 0.822088 0.712204 0.954446
O O16 0.005587 0.000000 0.801395
O O17 0.909559 0.500000 0.557873
O O18 0.183560 0.500000 0.929923
#
# Coordination Sequence:
#
# PCOD8078592 Si02
#       7
#     8   8   8   8   8   8   8
#     4   9  16  28  42  60  91 126 156 188 233 281
#     4  10  20  33  49  69  95 126 157 192 232 274
#     4  10  19  31  46  67  97 128 155 190 239 284
#     4  10  19  32  51  71  91 119 158 200 234 273
#     4   9  19  31  45  67  94 126 160 192 229 276
#     4  10  17  25  41  66  92 120 156 193 229 274
#     4   9  19  34  49  68  95 125 155 190 238 283
#
# _framework density 17.220915999999999
#
# number of rings (size 3 to 8) (size 9 to 14) (size 15 to 20)
#    0.000    2.429    0.000    5.143    0.000    6.000 
#    0.000    0.000    0.000    0.000    0.000    1.000 
#    0.000    0.000    0.000    0.000    0.000    0.000 
#
# Total GULP energy -347107.360830 kJ/mol
# GULP energy per Si atom -12396.691458 kJ/mol
# Density = 1.718172 g / cm^3
# Si number density = 17.220916 Si / 1000 Ang^3
#
#
#
# Elastic Constant Matrix: (Units=GPa)
#
#
# Indices 1 2 3 4 5 6 
#
# 1 76.3781 23.2703 46.2544 0.0000 -6.6836 0.0000
# 2 23.2703 54.9377 33.7473 0.0000 -5.4856 0.0000
# 3 46.2544 33.7473 125.7497 0.0000 -13.6097 0.0000
# 4 0.0000 0.0000 0.0000 31.6756 0.0000 -1.1112
# 5 -6.6836 -5.4856 -13.6097 0.0000 18.3572 0.0000
# 6 0.0000 0.0000 0.0000 -1.1112 0.0000 18.7757
#
#
#
# Elastic Compliance Matrix: (Units=1/GPa)
#
#
# Indices 1 2 3 4 5 6 
#
# 1 0.017636 -0.004121 -0.005240 0.000000 0.001305 0.000000
# 2 -0.004121 0.022853 -0.004393 0.000000 0.002072 0.000000
# 3 -0.005240 -0.004393 0.011644 0.000000 0.005412 0.000000
# 4 0.000000 0.000000 0.000000 0.031636 0.000000 0.001872
# 5 0.001305 0.002072 0.005412 0.000000 0.059581 0.000000
# 6 0.000000 0.000000 0.000000 0.001872 0.000000 0.053371
#
#
# Mechanical properties :
#
#
# Convention : Reuss Voigt Hill
#
# Bulk Modulus (GPa) = 40.60789 51.51217 46.06003
# Shear Modulus (GPa) = 21.51111 24.01461 22.76286
#
# Velocity S-wave (km/s) = 3.53813 3.73836 3.63962
# Velocity P-wave (km/s) = 6.35003 6.97218 6.66836
#
# Compressibility (1/GPa) = 0.02462576
#
# Stress axis : x y z
#
# Youngs Moduli (GPa) = 56.70317 43.75702 85.87829
#
# Poissons Ratio (x) = 0.18033 0.44998
# Poissons Ratio (y) = 0.23368 0.37727
# Poissons Ratio (z) = 0.29711 0.19223
#
# Static dielectric constant tensor:
#      x y z
#    x 2.923160 0.000000 -0.190730 
#    y 0.000000 3.147950 0.000000 
#    z -0.190730 0.000000 3.648470 
# 
# 
# High freq. dielectric constant tensor:
#      x y z
#    x 1.612070 0.000000 -0.017530 
#    y 0.000000 1.669710 0.000000 
#    z -0.017530 0.000000 1.679620 
# 
# From -- ./inp_files/280200.got.cif
#   From: 2010.06.25/outbox.cif.g09.slc.cpg/sg12_141_cif.got.tgz:280200.got - 2010.06.28 00:19:55.
