data_PCOD8078977
_publ_section_title
;
Structure prediction by ZEFSAII (Michael W. Deem and Ramdas Pophale) SiO2 
 PCOD8078977
Probable space group: C 2/M
;
_chemical_formula_sum "Si O2"
_cell_formula_units_Z 56
_cell_length_a 8.362902
_cell_length_b 24.614023
_cell_length_c 17.672982
_cell_angle_alpha 90.000000
_cell_angle_beta 120.031567
_cell_angle_gamma 90.000000
_cell_volume 3149.501676
_symmetry_space_group_name_H-M "C 2/M"
_symmetry_group_IT_number 12
_symmetry_cell_setting 'monoclinic'
loop_
_space_group_symop_operation_xyz
x,y,z
-x,y,-z
-x,-y,-z
x,-y,z
1/2+x,1/2+y,z
1/2-x,1/2+y,-z
1/2-x,1/2-y,-z
1/2+x,1/2-y,z
loop_
_atom_site_type_symbol
_atom_site_label
_atom_site_fract_x
_atom_site_fract_y
_atom_site_fract_z
Si Si1 0.967666 0.217663 0.846845
Si Si2 0.847971 0.675951 0.907394
Si Si3 0.194976 0.641436 0.581730
Si Si4 0.006851 0.773845 0.324646
Si Si5 0.521811 0.436362 0.417373
Si Si6 0.273414 0.134222 0.733969
Si Si7 0.383603 0.160985 0.277876
O O1 0.936375 0.269885 0.891406
O O2 0.981987 0.233798 0.762773
O O3 0.791828 0.177526 0.815707
O O4 0.162391 0.188555 0.912409
O O5 0.804395 0.631069 0.832116
O O6 0.000000 0.651051 0.000000
O O7 0.315110 0.696483 0.599037
O O8 0.286722 0.590439 0.562285
O O9 0.182841 0.624114 0.667506
O O10 0.000000 0.653885 0.500000
O O11 0.825664 0.808125 0.305769
O O12 0.976009 0.712483 0.345158
O O13 0.500000 0.421455 0.500000
O O14 0.534731 0.500000 0.406904
O O15 0.353545 0.414488 0.326188
O O16 0.469229 0.129716 0.738361
#
# Coordination Sequence:
#
# PCOD8078977 Si02
#       7
#     8   8   8   8   8   8   8
#     4  10  17  28  44  68 104 149 185 212 238 287
#     4  11  19  29  47  75 109 145 184 217 253 297
#     4  10  21  32  48  79 104 133 177 220 261 314
#     4   9  17  30  48  68 104 150 177 203 249 297
#     4  10  22  41  61  77  96 128 172 224 276 320
#     4  10  18  33  53  74 104 139 176 215 259 313
#     4  11  17  31  51  71 107 148 175 210 254 302
#
# _framework density 17.78059
#
# number of rings (size 3 to 8) (size 9 to 14) (size 15 to 20)
#    0.000    1.857    4.286    3.000    0.000    0.857 
#    0.000    4.286    0.000    0.429    0.000    0.000 
#    0.000    2.286    0.000    0.000    0.000    0.000 
#
# Total GULP energy -347068.809156 kJ/mol
# GULP energy per Si atom -12395.314613 kJ/mol
# Density = 1.774012 g / cm^3
# Si number density = 17.780590 Si / 1000 Ang^3
#
#
#
# Elastic Constant Matrix: (Units=GPa)
#
#
# Indices 1 2 3 4 5 6 
#
# 1 108.3654 23.4396 31.4067 0.0000 17.5850 0.0000
# 2 23.4396 48.1225 28.9535 0.0000 4.3411 0.0000
# 3 31.4067 28.9535 102.8931 0.0000 22.3299 0.0000
# 4 0.0000 0.0000 0.0000 17.0696 0.0000 -2.4289
# 5 17.5850 4.3411 22.3299 0.0000 29.5441 0.0000
# 6 0.0000 0.0000 0.0000 -2.4289 0.0000 13.7722
#
#
#
# Elastic Compliance Matrix: (Units=1/GPa)
#
#
# Indices 1 2 3 4 5 6 
#
# 1 0.011352 -0.004404 -0.001076 0.000000 -0.005296 0.000000
# 2 -0.004404 0.026820 -0.007077 0.000000 0.004030 0.000000
# 3 -0.001076 -0.007077 0.013965 0.000000 -0.008874 0.000000
# 4 0.000000 0.000000 0.000000 0.060092 0.000000 0.010598
# 5 -0.005296 0.004030 -0.008874 0.000000 0.043115 0.000000
# 6 0.000000 0.000000 0.000000 0.010598 0.000000 0.074479
#
#
# Mechanical properties :
#
#
# Convention : Reuss Voigt Hill
#
# Bulk Modulus (GPa) = 37.00748 47.44229 42.22488
# Shear Modulus (GPa) = 18.94330 23.78258 21.36294
#
# Velocity S-wave (km/s) = 3.26758 3.66123 3.46999
# Velocity P-wave (km/s) = 5.92408 6.67928 6.31298
#
# Compressibility (1/GPa) = 0.02702156
#
# Stress axis : x y z
#
# Youngs Moduli (GPa) = 88.08994 37.28556 71.60877
#
# Poissons Ratio (x) = 0.16420 0.07708
# Poissons Ratio (y) = 0.38795 0.50679
# Poissons Ratio (z) = 0.09482 0.26388
#
# Static dielectric constant tensor:
#      x y z
#    x 3.717000 0.000000 0.101460 
#    y 0.000000 2.849120 0.000000 
#    z 0.101460 0.000000 3.300030 
# 
# 
# High freq. dielectric constant tensor:
#      x y z
#    x 1.717330 0.000000 0.007650 
#    y 0.000000 1.623160 0.000000 
#    z 0.007650 0.000000 1.675520 
# 
# From -- ./inp_files/258999.got.cif
#   From: 2010.06.25/outbox.cif.g09.slc.cpg/sg12_130_cif.got.tgz:258999.got - 2010.06.28 00:19:55.
