data_PCOD8078317
_publ_section_title
;
Structure prediction by ZEFSAII (Michael W. Deem and Ramdas Pophale) SiO2 
 PCOD8078317
Probable space group: C 2/M
;
_chemical_formula_sum "Si O2"
_cell_formula_units_Z 52
_cell_length_a 18.424338
_cell_length_b 27.577923
_cell_length_c 5.090957
_cell_angle_alpha 90.000000
_cell_angle_beta 111.799821
_cell_angle_gamma 90.000000
_cell_volume 2401.754965
_symmetry_space_group_name_H-M "C 2/M"
_symmetry_group_IT_number 12
_symmetry_cell_setting 'monoclinic'
loop_
_space_group_symop_operation_xyz
x,y,z
-x,y,-z
-x,-y,-z
x,-y,z
1/2+x,1/2+y,z
1/2-x,1/2+y,-z
1/2-x,1/2-y,-z
1/2+x,1/2-y,z
loop_
_atom_site_type_symbol
_atom_site_label
_atom_site_fract_x
_atom_site_fract_y
_atom_site_fract_z
Si Si1 0.946351 0.000000 0.173587
Si Si2 0.760124 0.000000 0.308292
Si Si3 0.161030 0.333459 0.164808
Si Si4 0.168034 0.919151 0.847287
Si Si5 0.339290 0.000000 0.330633
Si Si6 0.839872 0.815513 0.328247
Si Si7 0.334559 0.895792 0.306220
Si Si8 0.590545 0.267705 0.081482
O O1 0.893955 0.048516 0.078350
O O2 0.000000 0.000000 0.500000
O O3 0.000000 0.000000 0.000000
O O4 0.809650 0.049818 0.387455
O O5 0.690365 0.000000 0.412257
O O6 0.731521 0.000000 0.967523
O O7 0.246042 0.313110 0.199412
O O8 0.161086 0.370500 0.406452
O O9 0.105189 0.288860 0.159158
O O10 0.127406 0.362098 0.866765
O O11 0.129123 0.869456 0.693975
O O12 0.243282 0.906134 0.126296
O O13 0.382994 0.052295 0.364964
O O14 0.863768 0.801084 0.652754
O O15 0.878432 0.779134 0.169338
O O16 0.500000 0.278959 0.000000
#
# Coordination Sequence:
#
# PCOD8078317 Si02
#       8
#     4   4   8   8   4   8   8   8
#     4  11  26  39  54  78 118 171 203 231 281 346
#     4   9  18  30  52  75 112 148 173 221 282 328
#     4  11  22  40  61  89 116 152 197 241 294 351
#     4   9  21  38  55  80 112 150 198 242 282 329
#     4  10  16  29  50  89 117 133 170 218 274 340
#     4  11  22  39  64  87 113 151 200 254 291 334
#     4  10  20  34  62  88 115 147 183 240 295 331
#     4  12  26  42  60  85 117 154 193 242 304 362
#
# _framework density 21.650836000000002
#
# number of rings (size 3 to 8) (size 9 to 14) (size 15 to 20)
#    0.000    1.538    0.000    7.385    0.000   11.692 
#    0.000    0.000    0.000    0.000    0.000    3.231 
#    0.000    0.000    0.000    0.000    0.000    0.000 
#
# Total GULP energy -322224.173697 kJ/mol
# GULP energy per Si atom -12393.237450 kJ/mol
# Density = 2.160156 g / cm^3
# Si number density = 21.650836 Si / 1000 Ang^3
#
#
#
# Elastic Constant Matrix: (Units=GPa)
#
#
# Indices 1 2 3 4 5 6 
#
# 1 28.4294 14.1567 14.9435 0.0000 -14.5604 0.0000
# 2 14.1567 146.8831 18.7057 0.0000 -7.1090 0.0000
# 3 14.9435 18.7057 61.2766 0.0000 -24.3146 0.0000
# 4 0.0000 0.0000 0.0000 25.3009 0.0000 -0.6565
# 5 -14.5604 -7.1090 -24.3146 0.0000 23.1746 0.0000
# 6 0.0000 0.0000 0.0000 -0.6565 0.0000 19.9583
#
#
#
# Elastic Compliance Matrix: (Units=1/GPa)
#
#
# Indices 1 2 3 4 5 6 
#
# 1 0.053768 -0.003731 0.001674 0.000000 0.034393 0.000000
# 2 -0.003731 0.007343 -0.002344 0.000000 -0.002551 0.000000
# 3 0.001674 -0.002344 0.028712 0.000000 0.030457 0.000000
# 4 0.000000 0.000000 0.000000 0.039558 0.000000 0.001301
# 5 0.034393 -0.002551 0.030457 0.000000 0.095933 0.000000
# 6 0.000000 0.000000 0.000000 0.001301 0.000000 0.050147
#
#
# Mechanical properties :
#
#
# Convention : Reuss Voigt Hill
#
# Bulk Modulus (GPa) = 12.34244 36.91121 24.62683
# Shear Modulus (GPa) = 16.06331 26.27233 21.16782
#
# Velocity S-wave (km/s) = 2.72679 3.48725 3.13020
# Velocity P-wave (km/s) = 3.95308 5.77061 4.94605
#
# Compressibility (1/GPa) = 0.08102126
#
# Stress axis : x y z
#
# Youngs Moduli (GPa) = 18.59858 136.18895 34.82852
#
# Poissons Ratio (x) = 0.50808 -0.05830
# Poissons Ratio (y) = 0.06939 0.08163
# Poissons Ratio (z) = -0.03113 0.31919
#
# Static dielectric constant tensor:
#      x y z
#    x 3.540400 0.000000 -0.214250 
#    y 0.000000 4.553440 0.000000 
#    z -0.214250 0.000000 3.787880 
# 
# 
# High freq. dielectric constant tensor:
#      x y z
#    x 1.809990 0.000000 -0.031200 
#    y 0.000000 1.881020 0.000000 
#    z -0.031200 0.000000 1.842700 
# 
# From -- ./inp_files/21977.got.cif
#   From: 2010.06.25/outbox.cif.g09.slc.cpg/sg12_11_cif.got.tgz:21977.got - 2010.06.28 00:19:55.
