data_PCOD8078017
_publ_section_title
;
Structure prediction by ZEFSAII (Michael W. Deem and Ramdas Pophale) SiO2 
 PCOD8078017
Probable space group: P 21/M
;
_chemical_formula_sum "Si O2"
_cell_formula_units_Z 32
_cell_length_a 15.000000
_cell_length_b 21.000000
_cell_length_c 15.000000
_cell_angle_alpha 90.000000
_cell_angle_beta 160.000000
_cell_angle_gamma 90.000000
_cell_volume 1616.045177
_symmetry_space_group_name_H-M "P 21/M"
_symmetry_group_IT_number 11
_symmetry_cell_setting 'monoclinic'
loop_
_space_group_symop_operation_xyz
x,y,z
-x,1/2+y,-z
-x,-y,-z
x,1/2-y,z
loop_
_atom_site_type_symbol
_atom_site_label
_atom_site_fract_x
_atom_site_fract_y
_atom_site_fract_z
Si Si1 0.682059 0.550985 0.782303
Si Si2 0.847074 0.649838 0.584875
Si Si3 0.908373 0.028413 0.260592
Si Si4 0.296820 0.887667 0.781581
Si Si5 0.294012 0.821262 0.138915
Si Si6 0.780715 0.819869 0.322000
Si Si7 0.236873 0.918662 0.233581
Si Si8 0.435481 0.956248 0.743529
O O1 0.713713 0.476701 0.788576
O O2 0.492436 0.586713 0.535069
O O3 0.544753 0.564197 0.749288
O O4 0.977483 0.577413 0.051845
O O5 0.556302 0.644457 0.350772
O O6 0.828279 0.684640 0.472537
O O7 0.960002 0.579892 0.679114
O O8 0.055844 0.683848 0.845074
O O9 0.842360 0.052185 0.298980
O O10 0.127243 0.973380 0.461146
O O11 0.630169 0.011470 0.957249
O O12 0.447455 0.901340 0.830279
O O13 0.053662 0.841140 0.533449
O O14 0.525030 0.861862 0.060935
O O15 0.374979 0.750000 0.240924
O O16 0.199170 0.856163 0.138956
O O17 0.718039 0.750000 0.225987
#
# Coordination Sequence:
#
# PCOD8078017 Si02
#       8
#     4   4   4   4   4   4   4   4
#     4  10  21  37  60  81 109 146 187 238 277 330
#     4  11  22  36  56  87 116 150 190 222 273 349
#     4  11  21  35  56  85 122 153 180 226 282 339
#     4  11  23  37  56  86 117 151 191 232 282 337
#     4  12  23  37  59  86 119 151 184 232 290 355
#     4  11  22  39  58  79 115 156 196 237 275 323
#     4  10  21  38  57  85 111 141 186 231 288 340
#     4  12  22  37  59  85 116 152 190 231 287 339
#
# _framework density 19.801427
#
# number of rings (size 3 to 8) (size 9 to 14) (size 15 to 20)
#    0.000    1.000    0.000    9.750    0.000    2.000 
#    0.000    0.000    0.000    4.500    0.000    0.000 
#    0.000    0.000    0.000    0.000    0.000    0.000 
#
# Total GULP energy -396572.393298 kJ/mol
# GULP energy per Si atom -12392.887291 kJ/mol
# Density = 1.975636 g / cm^3
# Si number density = 19.801427 Si / 1000 Ang^3
#
#
#
# Elastic Constant Matrix: (Units=GPa)
#
#
# Indices 1 2 3 4 5 6 
#
# 1 147.9325 37.5248 35.8544 0.0000 15.3143 0.0000
# 2 37.5248 56.4897 22.1007 0.0000 -4.1394 0.0000
# 3 35.8544 22.1007 137.1869 0.0000 17.6680 0.0000
# 4 0.0000 0.0000 0.0000 23.9059 0.0000 6.5777
# 5 15.3143 -4.1394 17.6680 0.0000 34.5509 0.0000
# 6 0.0000 0.0000 0.0000 6.5777 0.0000 5.1146
#
#
#
# Elastic Compliance Matrix: (Units=1/GPa)
#
#
# Indices 1 2 3 4 5 6 
#
# 1 0.008893 -0.005892 -0.000831 0.000000 -0.004222 0.000000
# 2 -0.005892 0.023352 -0.003125 0.000000 0.007007 0.000000
# 3 -0.000831 -0.003125 0.008575 0.000000 -0.004391 0.000000
# 4 0.000000 0.000000 0.000000 0.064739 0.000000 -0.083258
# 5 -0.004222 0.007007 -0.004391 0.000000 0.033899 0.000000
# 6 0.000000 0.000000 0.000000 -0.083258 0.000000 0.302591
#
#
# Mechanical properties :
#
#
# Convention : Reuss Voigt Hill
#
# Bulk Modulus (GPa) = 47.33633 59.17430 53.25531
# Shear Modulus (GPa) = 10.66584 29.12289 19.89436
#
# Velocity S-wave (km/s) = 2.32338 3.83919 3.17313
# Velocity P-wave (km/s) = 5.58165 7.04282 6.35437
#
# Compressibility (1/GPa) = 0.02112542
#
# Stress axis : x y z
#
# Youngs Moduli (GPa) = 112.44955 42.82322 116.61175
#
# Poissons Ratio (x) = 0.25229 0.09694
# Poissons Ratio (y) = 0.66250 0.36436
# Poissons Ratio (z) = 0.09348 0.13380
#
# Static dielectric constant tensor:
#      x y z
#    x 3.680070 0.000000 0.184960 
#    y 0.000000 3.351900 0.000000 
#    z 0.184960 0.000000 3.992160 
# 
# 
# High freq. dielectric constant tensor:
#      x y z
#    x 1.772750 0.000000 0.017910 
#    y 0.000000 1.738990 0.000000 
#    z 0.017910 0.000000 1.809470 
# 
# From -- ./inp_files/52720.got.cif
#   From: 2010.06.25/outbox.ucp.g09.slc.cvg/sg11_27_cif.got.tgz:52720.got - 2010.06.28 13:43:20.
