data_PCOD8078104
_publ_section_title
;
Structure prediction by ZEFSAII (Michael W. Deem and Ramdas Pophale) SiO2 
 PCOD8078104
Probable space group: C 2/M
;
_chemical_formula_sum "Si O2"
_cell_formula_units_Z 52
_cell_length_a 21.340782
_cell_length_b 17.863356
_cell_length_c 9.827142
_cell_angle_alpha 90.000000
_cell_angle_beta 133.401956
_cell_angle_gamma 90.000000
_cell_volume 2721.866669
_symmetry_space_group_name_H-M "C 2/M"
_symmetry_group_IT_number 12
_symmetry_cell_setting 'monoclinic'
loop_
_space_group_symop_operation_xyz
x,y,z
-x,y,-z
-x,-y,-z
x,-y,z
1/2+x,1/2+y,z
1/2-x,1/2+y,-z
1/2-x,1/2-y,-z
1/2+x,1/2-y,z
loop_
_atom_site_type_symbol
_atom_site_label
_atom_site_fract_x
_atom_site_fract_y
_atom_site_fract_z
Si Si1 0.927367 0.314966 0.310888
Si Si2 0.000000 0.284558 0.000000
Si Si3 0.633420 0.415426 0.897369
Si Si4 0.335033 0.584564 0.373146
Si Si5 0.244539 0.291369 0.848833
Si Si6 0.520532 0.685313 0.292011
Si Si7 0.658285 0.842271 0.094005
O O1 0.857836 0.297966 0.328170
O O2 0.000000 0.363910 0.500000
O O3 0.975581 0.238855 0.336408
O O4 0.881481 0.357087 0.116790
O O5 0.969849 0.232073 0.831739
O O6 0.921014 0.340567 0.919086
O O7 0.642076 0.500000 0.958647
O O8 0.636787 0.407230 0.740323
O O9 0.543948 0.384312 0.822213
O O10 0.712823 0.372591 0.085156
O O11 0.355385 0.500000 0.455094
O O12 0.387179 0.648680 0.532149
O O13 0.231291 0.596242 0.234979
O O14 0.295754 0.238979 0.820544
O O15 0.250000 0.250000 0.000000
#
# Coordination Sequence:
#
# PCOD8078104 Si02
#       7
#     8   4   8   8   8   8   8
#     4  10  17  28  55  83 105 136 174 224 273 312
#     4  10  22  36  56  78 104 146 196 226 254 308
#     4  11  19  31  54  83 112 138 169 218 279 332
#     4  11  22  35  56  84 113 140 175 225 280 328
#     4  10  15  31  51  76 107 139 171 217 265 315
#     4  11  20  34  52  82 112 141 178 219 271 325
#     4  10  19  35  55  77 109 143 187 223 261 315
#
# _framework density 19.104537000000001
#
# number of rings (size 3 to 8) (size 9 to 14) (size 15 to 20)
#    0.000    1.538    7.692    2.769    0.000    1.846 
#    0.000    1.923    0.000    1.846    0.000    0.000 
#    0.000    0.000    0.000    0.000    0.000    0.000 
#
# Total GULP energy -322103.090438 kJ/mol
# GULP energy per Si atom -12388.580401 kJ/mol
# Density = 1.906105 g / cm^3
# Si number density = 19.104537 Si / 1000 Ang^3
#
#
#
# Elastic Constant Matrix: (Units=GPa)
#
#
# Indices 1 2 3 4 5 6 
#
# 1 79.9840 1.9320 24.0760 0.0000 22.6448 0.0000
# 2 1.9320 56.0248 14.9915 0.0000 2.0185 0.0000
# 3 24.0760 14.9915 101.7863 0.0000 26.7104 0.0000
# 4 0.0000 0.0000 0.0000 26.9023 0.0000 7.5594
# 5 22.6448 2.0185 26.7104 0.0000 30.0976 0.0000
# 6 0.0000 0.0000 0.0000 7.5594 0.0000 14.8708
#
#
#
# Elastic Compliance Matrix: (Units=1/GPa)
#
#
# Indices 1 2 3 4 5 6 
#
# 1 0.015938 0.000077 -0.000825 0.000000 -0.011264 0.000000
# 2 0.000077 0.018637 -0.003155 0.000000 0.001492 0.000000
# 3 -0.000825 -0.003155 0.013382 0.000000 -0.011044 0.000000
# 4 0.000000 0.000000 0.000000 0.043366 0.000000 -0.022044
# 5 -0.011264 0.001492 -0.011044 0.000000 0.051401 0.000000
# 6 0.000000 0.000000 0.000000 -0.022044 0.000000 0.078452
#
#
# Mechanical properties :
#
#
# Convention : Reuss Voigt Hill
#
# Bulk Modulus (GPa) = 24.90551 35.53269 30.21910
# Shear Modulus (GPa) = 20.62994 27.49384 24.06189
#
# Velocity S-wave (km/s) = 3.28966 3.79770 3.55277
# Velocity P-wave (km/s) = 5.24347 6.15382 5.71679
#
# Compressibility (1/GPa) = 0.04015175
#
# Stress axis : x y z
#
# Youngs Moduli (GPa) = 62.74238 53.65679 74.72477
#
# Poissons Ratio (x) = -0.00414 0.06168
# Poissons Ratio (y) = -0.00484 0.23573
# Poissons Ratio (z) = 0.05179 0.16927
#
# Static dielectric constant tensor:
#      x y z
#    x 3.817590 0.000000 0.766640 
#    y 0.000000 3.330800 0.000000 
#    z 0.766640 0.000000 4.118170 
# 
# 
# High freq. dielectric constant tensor:
#      x y z
#    x 1.723730 0.000000 0.035460 
#    y 0.000000 1.710550 0.000000 
#    z 0.035460 0.000000 1.741880 
# 
# From -- ./inp_files/168849.got.cif
#   From: 2010.06.25/outbox.cif.g09.slc.cpg/sg12_85_cif.got.tgz:168849.got - 2010.06.28 00:19:55.
