data_PCOD8078760
_publ_section_title
;
Structure prediction by ZEFSAII (Michael W. Deem and Ramdas Pophale) SiO2 
 PCOD8078760
Probable space group: C 2/M
;
_chemical_formula_sum "Si O2"
_cell_formula_units_Z 64
_cell_length_a 18.974906
_cell_length_b 8.921359
_cell_length_c 20.982995
_cell_angle_alpha 90.000000
_cell_angle_beta 91.853800
_cell_angle_gamma 90.000000
_cell_volume 3550.183229
_symmetry_space_group_name_H-M "C 2/M"
_symmetry_group_IT_number 12
_symmetry_cell_setting 'monoclinic'
loop_
_space_group_symop_operation_xyz
x,y,z
-x,y,-z
-x,-y,-z
x,-y,z
1/2+x,1/2+y,z
1/2-x,1/2+y,-z
1/2-x,1/2-y,-z
1/2+x,1/2-y,z
loop_
_atom_site_type_symbol
_atom_site_label
_atom_site_fract_x
_atom_site_fract_y
_atom_site_fract_z
Si Si1 0.544823 0.170680 0.937405
Si Si2 0.115598 0.326105 0.252756
Si Si3 0.582762 0.324519 0.123704
Si Si4 0.132363 0.321931 0.461095
Si Si5 0.131115 0.322638 0.603433
Si Si6 0.518719 0.178278 0.361541
Si Si7 0.672460 0.322483 0.002647
Si Si8 0.764488 0.672613 0.644133
O O1 0.494251 0.246788 0.883395
O O2 0.561134 0.000000 0.917919
O O3 0.500000 0.179739 0.000000
O O4 0.619682 0.256609 0.946896
O O5 0.105799 0.500000 0.233964
O O6 0.119028 0.226828 0.189889
O O7 0.052068 0.266797 0.295858
O O8 0.188277 0.300786 0.292465
O O9 0.568848 0.500000 0.122813
O O10 0.637621 0.280478 0.069501
O O11 0.129628 0.500000 0.464682
O O12 0.137888 0.254006 0.532212
O O13 0.061931 0.261597 0.424100
O O14 0.197937 0.270478 0.419570
O O15 0.129703 0.500000 0.600130
O O16 0.194062 0.268659 0.650202
O O17 0.060353 0.261489 0.634543
O O18 0.524069 0.000000 0.362165
O O19 0.679392 0.500000 0.993020
O O20 0.750000 0.250000 0.000000
O O21 0.744090 0.500000 0.636863
#
# Coordination Sequence:
#
# PCOD8078760 Si02
#       8
#     8   8   8   8   8   8   8   8
#     4   9  17  31  53  79 105 134 166 197 234 284
#     4   9  18  34  52  66  87 128 173 202 232 283
#     4  10  20  34  54  78 102 130 166 207 244 284
#     4   8  14  26  45  67  90 119 155 193 237 292
#     4  10  17  26  46  72  92 114 150 199 250 293
#     4   8  15  28  46  68  91 117 156 203 241 279
#     4  10  20  34  53  80 112 138 162 199 246 289
#     4   9  18  31  45  64  94 127 157 193 239 293
#
# _framework density 18.027239000000002
#
# number of rings (size 3 to 8) (size 9 to 14) (size 15 to 20)
#    0.000    2.875    0.000    3.375    0.000    5.000 
#    0.000    1.875    0.000    7.500    0.000    0.000 
#    0.000    0.000    0.000    0.000    0.000    0.000 
#
# Total GULP energy -396658.732052 kJ/mol
# GULP energy per Si atom -12395.585377 kJ/mol
# Density = 1.798621 g / cm^3
# Si number density = 18.027239 Si / 1000 Ang^3
#
#
#
# Elastic Constant Matrix: (Units=GPa)
#
#
# Indices 1 2 3 4 5 6 
#
# 1 147.5462 43.6532 41.7084 0.0000 7.5125 0.0000
# 2 43.6532 53.1833 25.3624 0.0000 3.6827 0.0000
# 3 41.7084 25.3624 79.3955 0.0000 7.5560 0.0000
# 4 0.0000 0.0000 0.0000 21.8472 0.0000 5.5809
# 5 7.5125 3.6827 7.5560 0.0000 13.4403 0.0000
# 6 0.0000 0.0000 0.0000 5.5809 0.0000 31.5590
#
#
#
# Elastic Compliance Matrix: (Units=1/GPa)
#
#
# Indices 1 2 3 4 5 6 
#
# 1 0.009555 -0.006371 -0.002791 0.000000 -0.002026 0.000000
# 2 -0.006371 0.026493 -0.005033 0.000000 -0.000868 0.000000
# 3 -0.002791 -0.005033 0.016260 0.000000 -0.006202 0.000000
# 4 0.000000 0.000000 0.000000 0.047938 0.000000 -0.008477
# 5 -0.002026 -0.000868 -0.006202 0.000000 0.079259 0.000000
# 6 0.000000 0.000000 0.000000 -0.008477 0.000000 0.033186
#
#
# Mechanical properties :
#
#
# Convention : Reuss Voigt Hill
#
# Bulk Modulus (GPa) = 41.81411 55.73032 48.77221
# Shear Modulus (GPa) = 20.07597 24.66271 22.36934
#
# Velocity S-wave (km/s) = 3.34075 3.70277 3.52641
# Velocity P-wave (km/s) = 6.17464 7.01871 6.61016
#
# Compressibility (1/GPa) = 0.02391537
#
# Stress axis : x y z
#
# Youngs Moduli (GPa) = 104.66050 37.74601 61.50208
#
# Poissons Ratio (x) = 0.24049 0.17167
# Poissons Ratio (y) = 0.66681 0.30957
# Poissons Ratio (z) = 0.29214 0.18999
#
# Static dielectric constant tensor:
#      x y z
#    x 3.436890 0.000000 0.045110 
#    y 0.000000 3.049020 0.000000 
#    z 0.045110 0.000000 3.250700 
# 
# 
# High freq. dielectric constant tensor:
#      x y z
#    x 1.702510 0.000000 0.011220 
#    y 0.000000 1.673390 0.000000 
#    z 0.011220 0.000000 1.680770 
# 
# From -- ./inp_files/314115.got.cif
#   From: 2010.06.25/outbox.cif.g09.slc.cpg/sg12_158_cif.got.tgz:314115.got - 2010.06.28 00:19:55.
