data_PCOD8078128
_publ_section_title
;
Structure prediction by ZEFSAII (Michael W. Deem and Ramdas Pophale) SiO2 
 PCOD8078128
Probable space group: C 2/M
;
_chemical_formula_sum "Si O2"
_cell_formula_units_Z 48
_cell_length_a 18.477495
_cell_length_b 8.749457
_cell_length_c 17.238373
_cell_angle_alpha 90.000000
_cell_angle_beta 115.844358
_cell_angle_gamma 90.000000
_cell_volume 2508.153280
_symmetry_space_group_name_H-M "C 2/M"
_symmetry_group_IT_number 12
_symmetry_cell_setting 'monoclinic'
loop_
_space_group_symop_operation_xyz
x,y,z
-x,y,-z
-x,-y,-z
x,-y,z
1/2+x,1/2+y,z
1/2-x,1/2+y,-z
1/2-x,1/2-y,-z
1/2+x,1/2-y,z
loop_
_atom_site_type_symbol
_atom_site_label
_atom_site_fract_x
_atom_site_fract_y
_atom_site_fract_z
Si Si1 0.275722 0.824053 0.179206
Si Si2 0.178371 0.319682 0.018617
Si Si3 0.665530 0.180167 0.482232
Si Si4 0.914436 0.176948 0.147253
Si Si5 0.877005 0.323940 0.367028
Si Si6 0.517901 0.678779 0.335504
O O1 0.189167 0.756390 0.109912
O O2 0.341421 0.719296 0.168884
O O3 0.292999 0.808404 0.279200
O O4 0.284139 0.000000 0.156261
O O5 0.183619 0.500000 0.027825
O O6 0.250000 0.250000 0.000000
O O7 0.093912 0.271373 0.937780
O O8 0.750000 0.250000 0.500000
O O9 0.639320 0.239819 0.554933
O O10 0.599935 0.231712 0.388981
O O11 0.673961 0.000000 0.486120
O O12 0.994329 0.215342 0.234578
O O13 0.910375 0.000000 0.123713
O O14 0.905122 0.500000 0.381953
O O15 0.949063 0.229276 0.363182
O O16 0.532233 0.500000 0.353992
#
# Coordination Sequence:
#
# PCOD8078128 Si02
#       6
#     8   8   8   8   8   8
#     4   9  15  25  41  62  91 125 159 194 236 283
#     4  10  16  22  35  59  92 126 158 192 234 281
#     4  11  23  38  54  73  99 130 166 206 250 299
#     4   9  16  26  40  62  93 126 159 194 234 282
#     4   9  19  34  52  74 100 132 167 204 246 294
#     4  10  20  33  52  77 102 130 166 206 247 293
#
# _framework density 19.137585999999999
#
# number of rings (size 3 to 8) (size 9 to 14) (size 15 to 20)
#    0.000    2.333    0.000    6.000    0.000    6.000 
#    0.000    0.000    0.000    0.000    0.000    1.167 
#    0.000    9.333    0.000    0.000    0.000    0.000 
#
# Total GULP energy -297373.923351 kJ/mol
# GULP energy per Si atom -12390.580140 kJ/mol
# Density = 1.909403 g / cm^3
# Si number density = 19.137586 Si / 1000 Ang^3
#
#
#
# Elastic Constant Matrix: (Units=GPa)
#
#
# Indices 1 2 3 4 5 6 
#
# 1 48.2441 25.8688 34.3955 0.0000 17.4980 0.0000
# 2 25.8688 76.3330 48.4581 0.0000 14.0180 0.0000
# 3 34.3955 48.4581 143.0177 0.0000 35.3502 0.0000
# 4 0.0000 0.0000 0.0000 34.7831 0.0000 7.0220
# 5 17.4980 14.0180 35.3502 0.0000 14.0195 0.0000
# 6 0.0000 0.0000 0.0000 7.0220 0.0000 19.3439
#
#
#
# Elastic Compliance Matrix: (Units=1/GPa)
#
#
# Indices 1 2 3 4 5 6 
#
# 1 0.044056 -0.008002 0.009900 0.000000 -0.071948 0.000000
# 2 -0.008002 0.018367 -0.005914 0.000000 0.006535 0.000000
# 3 0.009900 -0.005914 0.021785 0.000000 -0.061374 0.000000
# 4 0.000000 0.000000 0.000000 0.031023 0.000000 -0.011262
# 5 -0.071948 0.006535 -0.061374 0.000000 0.309351 0.000000
# 6 0.000000 0.000000 0.000000 -0.011262 0.000000 0.055784
#
#
# Mechanical properties :
#
#
# Convention : Reuss Voigt Hill
#
# Bulk Modulus (GPa) = 13.12762 53.89328 33.51045
# Shear Modulus (GPa) = 9.73160 24.22078 16.97619
#
# Velocity S-wave (km/s) = 2.25746 3.56140 2.98159
# Velocity P-wave (km/s) = 3.69720 6.71815 5.42231
#
# Compressibility (1/GPa) = 0.07617528
#
# Stress axis : x y z
#
# Youngs Moduli (GPa) = 22.69821 54.44681 45.90292
#
# Poissons Ratio (x) = 0.43569 -0.45442
# Poissons Ratio (y) = 0.18164 0.27146
# Poissons Ratio (z) = -0.22470 0.32199
#
# Static dielectric constant tensor:
#      x y z
#    x 2.847690 0.000000 0.330500 
#    y 0.000000 3.693870 0.000000 
#    z 0.330500 0.000000 5.041270 
# 
# 
# High freq. dielectric constant tensor:
#      x y z
#    x 1.658860 0.000000 0.022910 
#    y 0.000000 1.756370 0.000000 
#    z 0.022910 0.000000 1.780850 
# 
# From -- ./inp_files/280539.got.cif
#   From: 2010.06.25/outbox.cif.g09.slc.cpg/sg12_141_cif.got.tgz:280539.got - 2010.06.28 00:19:55.
