data_PCOD8078833
_publ_section_title
;
Structure prediction by ZEFSAII (Michael W. Deem and Ramdas Pophale) SiO2 
 PCOD8078833
Probable space group: C 2/M
;
_chemical_formula_sum "Si O2"
_cell_formula_units_Z 64
_cell_length_a 27.180196
_cell_length_b 13.289387
_cell_length_c 14.102012
_cell_angle_alpha 90.000000
_cell_angle_beta 136.911368
_cell_angle_gamma 90.000000
_cell_volume 3479.695686
_symmetry_space_group_name_H-M "C 2/M"
_symmetry_group_IT_number 12
_symmetry_cell_setting 'monoclinic'
loop_
_space_group_symop_operation_xyz
x,y,z
-x,y,-z
-x,-y,-z
x,-y,z
1/2+x,1/2+y,z
1/2-x,1/2+y,-z
1/2-x,1/2-y,-z
1/2+x,1/2-y,z
loop_
_atom_site_type_symbol
_atom_site_label
_atom_site_fract_x
_atom_site_fract_y
_atom_site_fract_z
Si Si1 0.017644 0.752613 0.624038
Si Si2 0.278672 0.614784 0.340338
Si Si3 0.467351 0.383548 0.056078
Si Si4 0.074016 0.116221 0.376791
Si Si5 0.115790 0.614881 0.861971
Si Si6 0.652113 0.384148 0.766288
Si Si7 0.673602 0.749280 0.105301
Si Si8 0.751999 0.384416 0.074020
O O1 0.041156 0.670452 0.734511
O O2 0.077328 0.833682 0.683195
O O3 0.000000 0.697092 0.500000
O O4 0.950893 0.813511 0.572373
O O5 0.249501 0.500000 0.306661
O O6 0.338868 0.633914 0.507880
O O7 0.317869 0.634472 0.295606
O O8 0.212001 0.694952 0.249989
O O9 0.443921 0.500000 0.034394
O O10 0.530097 0.355971 0.219773
O O11 0.500000 0.361765 0.000000
O O12 0.397184 0.314004 0.967723
O O13 0.060505 0.000000 0.385305
O O14 0.100103 0.500000 0.865082
O O15 0.164015 0.625990 0.834556
O O16 0.153314 0.661063 0.006337
O O17 0.639819 0.500000 0.768805
O O18 0.708085 0.340339 0.922345
O O19 0.732712 0.676065 0.141556
O O20 0.731825 0.500000 0.064620
#
# Coordination Sequence:
#
# PCOD8078833 Si02
#       8
#     8   8   8   8   8   8   8   8
#     4  12  21  29  47  73 106 152 190 219 263 321
#     4  10  20  31  49  79 113 143 174 218 268 319
#     4  10  22  41  64  87 107 132 177 236 288 331
#     4  10  20  35  54  82 113 141 178 228 282 326
#     4  11  22  33  46  71 110 152 192 225 255 311
#     4  10  17  27  43  72 107 137 175 221 263 304
#     4  12  19  33  57  81 105 144 185 225 274 329
#     4  10  19  30  48  75 107 140 179 223 262 312
#
# _framework density 18.392413000000001
#
# number of rings (size 3 to 8) (size 9 to 14) (size 15 to 20)
#    0.000    1.375    5.000    2.250    0.000    2.750 
#    0.000    0.625    0.000    1.500    0.000    0.000 
#    0.000    0.000    0.000    0.000    0.000    0.000 
#
# Total GULP energy -396632.345253 kJ/mol
# GULP energy per Si atom -12394.760789 kJ/mol
# Density = 1.835055 g / cm^3
# Si number density = 18.392413 Si / 1000 Ang^3
#
#
#
# Elastic Constant Matrix: (Units=GPa)
#
#
# Indices 1 2 3 4 5 6 
#
# 1 42.2925 32.8683 23.1391 0.0000 0.7066 0.0000
# 2 32.8683 71.5503 49.6873 0.0000 8.8265 0.0000
# 3 23.1391 49.6873 113.5027 0.0000 11.6874 0.0000
# 4 0.0000 0.0000 0.0000 28.6863 0.0000 4.6310
# 5 0.7066 8.8265 11.6874 0.0000 18.6674 0.0000
# 6 0.0000 0.0000 0.0000 4.6310 0.0000 15.6388
#
#
#
# Elastic Compliance Matrix: (Units=1/GPa)
#
#
# Indices 1 2 3 4 5 6 
#
# 1 0.037691 -0.017761 -0.000670 0.000000 0.007391 0.000000
# 2 -0.017761 0.028773 -0.008170 0.000000 -0.007817 0.000000
# 3 -0.000670 -0.008170 0.012958 0.000000 -0.004225 0.000000
# 4 0.000000 0.000000 0.000000 0.036610 0.000000 -0.010841
# 5 0.007391 -0.007817 -0.004225 0.000000 0.059631 0.000000
# 6 0.000000 0.000000 0.000000 -0.010841 0.000000 0.067154
#
#
# Mechanical properties :
#
#
# Convention : Reuss Voigt Hill
#
# Bulk Modulus (GPa) = 38.13716 48.74833 43.44275
# Shear Modulus (GPa) = 16.40643 20.70855 18.55749
#
# Velocity S-wave (km/s) = 2.98991 3.35913 3.17988
# Velocity P-wave (km/s) = 5.71837 6.45036 6.09536
#
# Compressibility (1/GPa) = 0.02622114
#
# Stress axis : x y z
#
# Youngs Moduli (GPa) = 26.53159 34.75484 77.16963
#
# Poissons Ratio (x) = 0.61727 0.05169
# Poissons Ratio (y) = 0.47122 0.63048
# Poissons Ratio (z) = 0.01777 0.28395
#
# Static dielectric constant tensor:
#      x y z
#    x 2.970000 0.000000 0.031660 
#    y 0.000000 3.468770 0.000000 
#    z 0.031660 0.000000 3.880720 
# 
# 
# High freq. dielectric constant tensor:
#      x y z
#    x 1.658060 0.000000 0.011240 
#    y 0.000000 1.717340 0.000000 
#    z 0.011240 0.000000 1.721360 
# 
# From -- ./inp_files/246389.got.cif
#   From: 2010.06.25/outbox.cif.g09.slc.cpg/sg12_124_cif.got.tgz:246389.got - 2010.06.28 00:19:55.
