data_PCOD8078217
_publ_section_title
;
Structure prediction by ZEFSAII (Michael W. Deem and Ramdas Pophale) SiO2 
 PCOD8078217
Probable space group: C 2/M
;
_chemical_formula_sum "Si O2"
_cell_formula_units_Z 56
_cell_length_a 30.386114
_cell_length_b 21.288996
_cell_length_c 9.064556
_cell_angle_alpha 90.000000
_cell_angle_beta 30.443373
_cell_angle_gamma 90.000000
_cell_volume 2971.093026
_symmetry_space_group_name_H-M "C 2/M"
_symmetry_group_IT_number 12
_symmetry_cell_setting 'monoclinic'
loop_
_space_group_symop_operation_xyz
x,y,z
-x,y,-z
-x,-y,-z
x,-y,z
1/2+x,1/2+y,z
1/2-x,1/2+y,-z
1/2-x,1/2-y,-z
1/2+x,1/2-y,z
loop_
_atom_site_type_symbol
_atom_site_label
_atom_site_fract_x
_atom_site_fract_y
_atom_site_fract_z
Si Si1 0.321257 0.573062 0.351998
Si Si2 0.013514 0.636391 0.634939
Si Si3 0.593895 0.000000 0.801945
Si Si4 0.486077 0.000000 0.371453
Si Si5 0.589426 0.640056 0.654214
Si Si6 0.909890 0.281433 0.347205
Si Si7 0.500702 0.572316 0.332170
Si Si8 0.157494 0.626387 0.677981
O O1 0.291653 0.500000 0.441820
O O2 0.341887 0.596687 0.457629
O O3 0.247652 0.619357 0.503079
O O4 0.404254 0.582256 0.008913
O O5 0.059118 0.567400 0.534168
O O6 0.076428 0.687256 0.530543
O O7 0.000000 0.650861 0.500000
O O8 0.918918 0.637878 0.983618
O O9 0.644541 0.063341 0.615675
O O10 0.500000 0.000000 0.000000
O O11 0.579845 0.000000 0.020040
O O12 0.500000 0.000000 0.500000
O O13 0.624719 0.710781 0.531839
O O14 0.572923 0.610606 0.541879
O O15 0.500000 0.640938 0.000000
O O16 0.838671 0.317642 0.453075
O O17 0.000000 0.284338 0.000000
O O18 0.500000 0.598151 0.500000
O O19 0.472889 0.500000 0.405952
#
# Coordination Sequence:
#
# PCOD8078217 Si02
#       8
#     8   8   4   4   8   8   8   8
#     4  10  19  33  53  77 101 124 162 207 253 298
#     4   9  17  30  48  70 100 134 171 204 235 285
#     4  10  16  26  46  68  92 128 164 198 230 274
#     4   8  14  24  40  62  88 120 155 194 232 262
#     4   9  18  33  53  74  97 130 167 202 245 300
#     4   9  18  31  48  72 100 134 173 202 234 290
#     4   9  18  34  57  79  97 122 159 207 256 302
#     4  10  18  30  48  74 102 130 165 207 245 284
#
# _framework density 18.848282999999999
#
# number of rings (size 3 to 8) (size 9 to 14) (size 15 to 20)
#    0.000    2.714    0.714    2.571    0.000    2.857 
#    0.000    1.429    0.000    1.714    0.000    0.000 
#    0.000    0.000    0.000    0.000    0.000    0.000 
#
# Total GULP energy -346918.331061 kJ/mol
# GULP energy per Si atom -12389.940395 kJ/mol
# Density = 1.880538 g / cm^3
# Si number density = 18.848283 Si / 1000 Ang^3
#
#
#
# Elastic Constant Matrix: (Units=GPa)
#
#
# Indices 1 2 3 4 5 6 
#
# 1 163.1496 73.5418 37.3107 0.0000 5.3142 0.0000
# 2 73.5418 112.3538 23.1484 0.0000 3.7708 0.0000
# 3 37.3107 23.1484 24.6505 0.0000 3.2841 0.0000
# 4 0.0000 0.0000 0.0000 13.1553 0.0000 1.1528
# 5 5.3142 3.7708 3.2841 0.0000 29.4747 0.0000
# 6 0.0000 0.0000 0.0000 1.1528 0.0000 30.2662
#
#
#
# Elastic Compliance Matrix: (Units=1/GPa)
#
#
# Indices 1 2 3 4 5 6 
#
# 1 0.011072 -0.004705 -0.012338 0.000000 -0.000020 0.000000
# 2 -0.004705 0.013037 -0.005088 0.000000 -0.000253 0.000000
# 3 -0.012338 -0.005088 0.064595 0.000000 -0.004322 0.000000
# 4 0.000000 0.000000 0.000000 0.076269 0.000000 -0.002905
# 5 -0.000020 -0.000253 -0.004322 0.000000 0.034445 0.000000
# 6 0.000000 0.000000 0.000000 -0.002905 0.000000 0.033151
#
#
# Mechanical properties :
#
#
# Convention : Reuss Voigt Hill
#
# Bulk Modulus (GPa) = 22.50060 63.12842 42.81451
# Shear Modulus (GPa) = 17.14414 25.65611 21.40013
#
# Velocity S-wave (km/s) = 3.01921 3.69343 3.37321
# Velocity P-wave (km/s) = 4.91099 7.19404 6.15922
#
# Compressibility (1/GPa) = 0.04444326
#
# Stress axis : x y z
#
# Youngs Moduli (GPa) = 90.31511 76.70683 15.48098
#
# Poissons Ratio (x) = 0.36089 0.19101
# Poissons Ratio (y) = 0.42491 0.07876
# Poissons Ratio (z) = 1.11433 0.39025
#
# Static dielectric constant tensor:
#      x y z
#    x 3.584190 0.000000 0.196040 
#    y 0.000000 11.109320 0.000000 
#    z 0.196040 0.000000 3.019210 
# 
# 
# High freq. dielectric constant tensor:
#      x y z
#    x 1.740180 0.000000 0.012270 
#    y 0.000000 1.740700 0.000000 
#    z 0.012270 0.000000 1.675550 
# 
# From -- ./inp_files/113365.got.cif
#   From: 2010.06.25/outbox.cif.g09.slc.cpg/sg12_57_cif.got.tgz:113365.got - 2010.06.28 00:19:55.
