data_PCOD8078737
_publ_section_title
;
Structure prediction by ZEFSAII (Michael W. Deem and Ramdas Pophale) SiO2 
 PCOD8078737
Probable space group: C 2/M
;
_chemical_formula_sum "Si O2"
_cell_formula_units_Z 64
_cell_length_a 19.146221
_cell_length_b 9.176762
_cell_length_c 21.396391
_cell_angle_alpha 90.000000
_cell_angle_beta 70.334773
_cell_angle_gamma 90.000000
_cell_volume 3540.088195
_symmetry_space_group_name_H-M "C 2/M"
_symmetry_group_IT_number 12
_symmetry_cell_setting 'monoclinic'
loop_
_space_group_symop_operation_xyz
x,y,z
-x,y,-z
-x,-y,-z
x,-y,z
1/2+x,1/2+y,z
1/2-x,1/2+y,-z
1/2-x,1/2-y,-z
1/2+x,1/2-y,z
loop_
_atom_site_type_symbol
_atom_site_label
_atom_site_fract_x
_atom_site_fract_y
_atom_site_fract_z
Si Si1 0.157542 0.667855 0.330781
Si Si2 0.827818 0.169606 0.293438
Si Si3 0.923732 0.831540 0.895660
Si Si4 0.597101 0.331933 0.856238
Si Si5 0.409229 0.833781 0.778466
Si Si6 0.411981 0.835375 0.020385
Si Si7 0.057602 0.670042 0.660698
Si Si8 0.478237 0.668793 0.577657
O O1 0.135101 0.500000 0.349693
O O2 0.240942 0.700817 0.326001
O O3 0.148315 0.700877 0.259792
O O4 0.104282 0.769029 0.387696
O O5 0.855291 0.221416 0.217139
O O6 0.867005 0.261830 0.335600
O O7 0.847191 0.000000 0.296866
O O8 0.888818 0.769031 0.842559
O O9 0.011374 0.803870 0.866984
O O10 0.903394 0.000000 0.907406
O O11 0.887179 0.750294 0.965741
O O12 0.612037 0.500000 0.867483
O O13 0.623845 0.239806 0.908000
O O14 0.492181 0.800804 0.729711
O O15 0.402673 0.000000 0.803173
O O16 0.382637 0.000000 0.024766
O O17 0.500000 0.829121 0.000000
O O18 0.069522 0.500000 0.644418
O O19 0.038160 0.746334 0.601275
O O20 0.500000 0.692961 0.500000
O O21 0.478905 0.500000 0.596647
#
# Coordination Sequence:
#
# PCOD8078737 Si02
#       8
#     8   8   8   8   8   8   8   8
#     4   9  20  36  55  80 109 141 173 211 259 311
#     4  10  19  34  54  78 110 142 173 212 262 312
#     4  10  17  26  44  69  95 127 169 215 262 309
#     4   9  17  28  44  68  98 132 167 208 258 310
#     4   9  17  30  47  71 101 132 169 213 259 305
#     4   9  17  27  40  62  94 130 166 212 263 308
#     4  10  20  33  54  82 109 138 175 215 256 305
#     4  10  21  38  60  83 108 139 175 214 255 302
#
# _framework density 18.078645999999999
#
# number of rings (size 3 to 8) (size 9 to 14) (size 15 to 20)
#    0.000    2.500    1.250    2.250    0.000    6.000 
#    0.000    0.625    0.000    0.750    0.000    0.000 
#    0.000    0.000    0.000    0.000    0.000    0.000 
#
# Total GULP energy -396867.808058 kJ/mol
# GULP energy per Si atom -12402.119002 kJ/mol
# Density = 1.803750 g / cm^3
# Si number density = 18.078646 Si / 1000 Ang^3
#
#
#
# Elastic Constant Matrix: (Units=GPa)
#
#
# Indices 1 2 3 4 5 6 
#
# 1 82.8284 50.1181 43.6512 0.0000 13.1700 0.0000
# 2 50.1181 120.8395 75.1845 0.0001 14.1342 0.0002
# 3 43.6512 75.1845 112.5062 0.0000 12.8077 0.0000
# 4 0.0000 0.0001 0.0000 33.7812 0.0000 5.3794
# 5 13.1700 14.1342 12.8077 0.0000 17.5113 0.0000
# 6 0.0000 0.0002 0.0000 5.3794 0.0000 22.8408
#
#
#
# Elastic Compliance Matrix: (Units=1/GPa)
#
#
# Indices 1 2 3 4 5 6 
#
# 1 0.017565 -0.004630 -0.002882 0.000000 -0.007365 0.000000
# 2 -0.004630 0.015785 -0.008397 0.000000 -0.003117 0.000000
# 3 -0.002882 -0.008397 0.015926 0.000000 -0.002703 0.000000
# 4 0.000000 0.000000 0.000000 0.030756 0.000000 -0.007244
# 5 -0.007365 -0.003117 -0.002703 0.000000 0.067137 0.000000
# 6 0.000000 0.000000 0.000000 -0.007244 0.000000 0.045487
#
#
# Mechanical properties :
#
#
# Convention : Reuss Voigt Hill
#
# Bulk Modulus (GPa) = 57.28638 72.67575 64.98106
# Shear Modulus (GPa) = 21.71126 24.64134 23.17630
#
# Velocity S-wave (km/s) = 3.46921 3.69590 3.58435
# Velocity P-wave (km/s) = 6.91400 7.64853 7.29052
#
# Compressibility (1/GPa) = 0.01745616
#
# Stress axis : x y z
#
# Youngs Moduli (GPa) = 56.93171 63.35076 62.78994
#
# Poissons Ratio (x) = 0.29333 0.18098
# Poissons Ratio (y) = 0.26361 0.52727
# Poissons Ratio (z) = 0.16410 0.53198
#
# Static dielectric constant tensor:
#      x y z
#    x 3.087150 0.000000 0.124080 
#    y 0.000000 3.395190 0.000000 
#    z 0.124080 0.000000 3.252280 
# 
# 
# High freq. dielectric constant tensor:
#      x y z
#    x 1.668480 0.000000 0.014800 
#    y 0.000000 1.706910 0.000000 
#    z 0.014800 0.000000 1.695810 
# 
# From -- ./inp_files/319117.got.cif
#   From: 2010.06.25/outbox.cif.g09.slc.cpg/sg12_160_cif.got.tgz:319117.got - 2010.06.28 00:19:55.
