data_PCOD8078180
_publ_section_title
;
Structure prediction by ZEFSAII (Michael W. Deem and Ramdas Pophale) SiO2 
 PCOD8078180
Probable space group: C 2/M
;
_chemical_formula_sum "Si O2"
_cell_formula_units_Z 48
_cell_length_a 5.298115
_cell_length_b 14.929790
_cell_length_c 28.220596
_cell_angle_alpha 90.000000
_cell_angle_beta 106.246646
_cell_angle_gamma 90.000000
_cell_volume 2143.100101
_symmetry_space_group_name_H-M "C 2/M"
_symmetry_group_IT_number 12
_symmetry_cell_setting 'monoclinic'
loop_
_space_group_symop_operation_xyz
x,y,z
-x,y,-z
-x,-y,-z
x,-y,z
1/2+x,1/2+y,z
1/2-x,1/2+y,-z
1/2-x,1/2-y,-z
1/2+x,1/2-y,z
loop_
_atom_site_type_symbol
_atom_site_label
_atom_site_fract_x
_atom_site_fract_y
_atom_site_fract_z
Si Si1 0.199001 0.653252 0.799929
Si Si2 0.621076 0.193691 0.052743
Si Si3 0.554224 0.604984 0.368593
Si Si4 0.965941 0.605418 0.309360
Si Si5 0.239685 0.645461 0.158921
Si Si6 0.281142 0.349565 0.520898
O O1 0.108882 0.661674 0.741018
O O2 0.475974 0.599973 0.817535
O O3 0.236653 0.749931 0.825972
O O4 0.976907 0.599880 0.818279
O O5 0.412267 0.271078 0.055468
O O6 0.651275 0.129870 0.099877
O O7 0.500000 0.142985 0.000000
O O8 0.570712 0.500000 0.379639
O O9 0.760653 0.633711 0.339132
O O10 0.631142 0.656068 0.420244
O O11 0.259993 0.633690 0.339119
O O12 0.947729 0.500000 0.297186
O O13 0.500000 0.399902 0.500000
O O14 0.250000 0.250000 0.500000
O O15 0.000000 0.399902 0.500000
#
# Coordination Sequence:
#
# PCOD8078180 Si02
#       6
#     8   8   8   8   8   8
#     4  10  18  30  48  67  98 129 159 204 247 292
#     4  10  16  25  41  63  96 131 163 201 247 304
#     4  10  21  38  58  76  99 131 169 208 244 289
#     4  10  21  37  54  75  99 131 173 208 240 282
#     4  10  17  30  43  70 100 126 161 199 254 306
#     4  10  21  38  56  81 110 134 159 200 249 295
#
# _framework density 22.397461
#
# number of rings (size 3 to 8) (size 9 to 14) (size 15 to 20)
#    0.000    2.000    3.333    2.000    0.000    0.667 
#    0.000   20.000    0.000    0.000    0.000    0.000 
#    0.000    7.333    0.000    0.000    0.000    0.000 
#
# Total GULP energy -297433.873085 kJ/mol
# GULP energy per Si atom -12393.078045 kJ/mol
# Density = 2.234648 g / cm^3
# Si number density = 22.397461 Si / 1000 Ang^3
#
#
#
# Elastic Constant Matrix: (Units=GPa)
#
#
# Indices 1 2 3 4 5 6 
#
# 1 250.7851 0.6778 90.8879 0.0000 -1.0940 0.0000
# 2 0.6778 23.0788 17.4933 0.0000 -0.0500 0.0000
# 3 90.8879 17.4933 236.3986 0.0000 0.3667 0.0000
# 4 0.0000 0.0000 0.0000 -5.8967 0.0000 0.0095
# 5 -1.0940 -0.0500 0.3667 0.0000 46.4958 0.0000
# 6 0.0000 0.0000 0.0000 0.0095 0.0000 -2.6578
#
#
#
# Elastic Compliance Matrix: (Units=1/GPa)
#
#
# Indices 1 2 3 4 5 6 
#
# 1 0.004670 0.001297 -0.001892 0.000000 0.000126 0.000000
# 2 0.001297 0.046265 -0.003922 0.000000 0.000111 0.000000
# 3 -0.001892 -0.003922 0.005248 0.000000 -0.000090 0.000000
# 4 0.000000 0.000000 0.000000 -0.169588 0.000000 -0.000608
# 5 0.000126 0.000111 -0.000090 0.000000 0.021511 0.000000
# 6 0.000000 0.000000 0.000000 -0.000608 0.000000 -0.376250
#
#
# Mechanical properties :
#
#
# Convention : Reuss Voigt Hill
#
# Bulk Modulus (GPa) = 21.20941 80.93115 51.07028
# Shear Modulus (GPa) = -11.27669 34.33516 11.52923
#
# Velocity S-wave (km/s) = -2.24627 3.91959 2.27129
# Velocity P-wave (km/s) = 1.66207 7.52973 5.45249
#
# Compressibility (1/GPa) = 0.04714888
#
# Stress axis : x y z
#
# Youngs Moduli (GPa) = 214.12850 21.61454 190.55503
#
# Poissons Ratio (x) = -0.02803 0.36047
# Poissons Ratio (y) = -0.27772 0.74743
# Poissons Ratio (z) = 0.40506 0.08478
#
# Static dielectric constant tensor:
#      x y z
#    x -7.425710 0.000000 0.174480 
#    y 0.000000 3.181270 0.000000 
#    z 0.174480 0.000000 4.181070 
# 
# 
# High freq. dielectric constant tensor:
#      x y z
#    x 1.925490 0.000000 -0.000470 
#    y 0.000000 1.805590 0.000000 
#    z -0.000470 0.000000 1.899310 
# 
# From -- ./inp_files/331137.got.cif
#   From: 2010.06.25/outbox.cif.g09.slc.cpg/sg12_166_cif.got.tgz:331137.got - 2010.06.28 00:19:55.
