data_PCOD8078967
_publ_section_title
;
Structure prediction by ZEFSAII (Michael W. Deem and Ramdas Pophale) SiO2 
 PCOD8078967
Probable space group: C 2/M
;
_chemical_formula_sum "Si O2"
_cell_formula_units_Z 64
_cell_length_a 26.957329
_cell_length_b 9.076421
_cell_length_c 17.026712
_cell_angle_alpha 90.000000
_cell_angle_beta 77.206541
_cell_angle_gamma 90.000000
_cell_volume 4062.605760
_symmetry_space_group_name_H-M "C 2/M"
_symmetry_group_IT_number 12
_symmetry_cell_setting 'monoclinic'
loop_
_space_group_symop_operation_xyz
x,y,z
-x,y,-z
-x,-y,-z
x,-y,z
1/2+x,1/2+y,z
1/2-x,1/2+y,-z
1/2-x,1/2-y,-z
1/2+x,1/2-y,z
loop_
_atom_site_type_symbol
_atom_site_label
_atom_site_fract_x
_atom_site_fract_y
_atom_site_fract_z
Si Si1 0.453136 0.168794 0.911352
Si Si2 0.440725 0.333638 0.502298
Si Si3 0.065965 0.666779 0.818796
Si Si4 0.963099 0.672250 0.343798
Si Si5 0.891781 0.173496 0.060005
Si Si6 0.803041 0.170328 0.976615
Si Si7 0.117515 0.826013 0.181156
Si Si8 0.920273 0.327396 0.661749
O O1 0.513471 0.174635 0.884396
O O2 0.430614 0.258130 0.846339
O O3 0.433710 0.000000 0.915120
O O4 0.436695 0.244006 0.998098
O O5 0.500000 0.330165 0.500000
O O6 0.419631 0.500000 0.508940
O O7 0.431552 0.260409 0.420658
O O8 0.411262 0.239956 0.578563
O O9 0.086660 0.500000 0.810419
O O10 0.058431 0.724255 0.732686
O O11 0.106718 0.769214 0.850457
O O12 0.954220 0.500000 0.360888
O O13 0.022984 0.707387 0.327558
O O14 0.901744 0.000000 0.052548
O O15 0.838014 0.214722 0.038784
O O16 0.831474 0.211729 0.885450
O O17 0.790746 0.000000 0.983408
O O18 0.750000 0.250000 0.000000
O O19 0.119961 0.751172 0.265956
O O20 0.109484 0.000000 0.192055
O O21 0.908894 0.500000 0.662810
#
# Coordination Sequence:
#
# PCOD8078967 Si02
#       8
#     8   8   8   8   8   8   8   8
#     4  10  18  30  44  61  86 119 154 184 216 259
#     4   9  17  27  39  59  84 116 155 191 226 261
#     4  10  19  30  43  62  88 120 156 187 214 257
#     4   9  17  29  41  58  86 120 157 190 218 254
#     4  10  21  33  44  65  89 112 145 186 228 266
#     4   9  20  36  51  67  88 113 144 184 230 275
#     4  10  19  30  45  68  93 115 146 189 229 267
#     4  10  17  28  44  62  86 120 155 188 222 260
#
# _framework density 15.753436000000001
#
# number of rings (size 3 to 8) (size 9 to 14) (size 15 to 20)
#    0.000    2.375    1.250    3.000    0.000    8.000 
#    0.000    0.000    0.000    0.000    0.000    0.000 
#    0.000    1.000    0.000    3.250    0.000    4.750 
#
# Total GULP energy -396747.733141 kJ/mol
# GULP energy per Si atom -12398.366661 kJ/mol
# Density = 1.571758 g / cm^3
# Si number density = 15.753436 Si / 1000 Ang^3
#
#
#
# Elastic Constant Matrix: (Units=GPa)
#
#
# Indices 1 2 3 4 5 6 
#
# 1 53.3973 37.5467 48.5689 0.0000 4.3806 0.0000
# 2 37.5467 96.9735 65.1644 0.0000 4.1733 0.0000
# 3 48.5689 65.1644 126.7034 0.0000 17.3853 0.0000
# 4 0.0000 0.0000 0.0000 33.8383 0.0000 2.4556
# 5 4.3806 4.1733 17.3853 0.0000 14.3422 0.0000
# 6 0.0000 0.0000 0.0000 2.4556 0.0000 20.5455
#
#
#
# Elastic Compliance Matrix: (Units=1/GPa)
#
#
# Indices 1 2 3 4 5 6 
#
# 1 0.031118 -0.005893 -0.009391 0.000000 0.003594 0.000000
# 2 -0.005893 0.017361 -0.007466 0.000000 0.005798 0.000000
# 3 -0.009391 -0.007466 0.017561 0.000000 -0.016247 0.000000
# 4 0.000000 0.000000 0.000000 0.029811 0.000000 -0.003563
# 5 0.003594 0.005798 -0.016247 0.000000 0.086634 0.000000
# 6 0.000000 0.000000 0.000000 -0.003563 0.000000 0.049098
#
#
# Mechanical properties :
#
#
# Convention : Reuss Voigt Hill
#
# Bulk Modulus (GPa) = 48.68114 64.40381 56.54247
# Shear Modulus (GPa) = 17.61014 22.13147 19.87080
#
# Velocity S-wave (km/s) = 3.34707 3.75222 3.55542
# Velocity P-wave (km/s) = 6.77541 7.72938 7.26806
#
# Compressibility (1/GPa) = 0.02054184
#
# Stress axis : x y z
#
# Youngs Moduli (GPa) = 32.13591 57.60111 56.94436
#
# Poissons Ratio (x) = 0.33942 0.53476
# Poissons Ratio (y) = 0.18936 0.42512
# Poissons Ratio (z) = 0.30178 0.43002
#
# Static dielectric constant tensor:
#      x y z
#    x 2.553520 0.000000 0.147890 
#    y 0.000000 3.103090 0.000000 
#    z 0.147890 0.000000 3.223820 
# 
# 
# High freq. dielectric constant tensor:
#      x y z
#    x 1.542890 0.000000 0.016200 
#    y 0.000000 1.618490 0.000000 
#    z 0.016200 0.000000 1.609940 
# 
# From -- ./inp_files/294544.got.cif
#   From: 2010.06.25/outbox.cif.g09.slc.cpg/sg12_148_cif.got.tgz:294544.got - 2010.06.28 00:19:55.
