data_PCOD8078103
_publ_section_title
;
Structure prediction by ZEFSAII (Michael W. Deem and Ramdas Pophale) SiO2 
 PCOD8078103
Probable space group: C 2/M
;
_chemical_formula_sum "Si O2"
_cell_formula_units_Z 52
_cell_length_a 19.622115
_cell_length_b 14.653235
_cell_length_c 27.355445
_cell_angle_alpha 90.000000
_cell_angle_beta 159.427815
_cell_angle_gamma 90.000000
_cell_volume 2763.815406
_symmetry_space_group_name_H-M "C 2/M"
_symmetry_group_IT_number 12
_symmetry_cell_setting 'monoclinic'
loop_
_space_group_symop_operation_xyz
x,y,z
-x,y,-z
-x,-y,-z
x,-y,z
1/2+x,1/2+y,z
1/2-x,1/2+y,-z
1/2-x,1/2-y,-z
1/2+x,1/2-y,z
loop_
_atom_site_type_symbol
_atom_site_label
_atom_site_fract_x
_atom_site_fract_y
_atom_site_fract_z
Si Si1 0.710948 0.237016 0.156721
Si Si2 0.541514 0.766756 0.306921
Si Si3 0.138203 0.103150 0.662886
Si Si4 0.000000 0.334704 0.500000
Si Si5 0.679464 0.097934 0.711730
Si Si6 0.238703 0.174939 0.629678
Si Si7 0.225383 0.395616 0.505978
O O1 0.825920 0.158450 0.262924
O O2 0.683748 0.324122 0.174066
O O3 0.826529 0.268255 0.185444
O O4 0.500000 0.200889 0.000000
O O5 0.556849 0.808736 0.261749
O O6 0.611591 0.661125 0.354970
O O7 0.687576 0.836447 0.432104
O O8 0.270139 0.145464 0.707253
O O9 0.909877 0.103500 0.495738
O O10 0.205537 0.000000 0.717174
O O11 0.852803 0.393357 0.368204
O O12 0.873543 0.271037 0.450745
O O13 0.468960 0.101289 0.593840
O O14 0.779551 0.000000 0.788948
O O15 0.296336 0.500000 0.542279
#
# Coordination Sequence:
#
# PCOD8078103 Si02
#       7
#     8   8   8   4   8   8   8
#     4  11  23  38  52  74 106 152 192 217 252 309
#     4  10  19  32  50  76 107 139 175 220 268 315
#     4  10  20  35  58  84 111 140 174 220 274 329
#     4  10  15  30  53  82 108 128 157 212 279 332
#     4  10  18  32  54  79 105 135 170 216 268 320
#     4  10  17  32  57  83 109 131 165 222 282 327
#     4   9  17  28  48  78 106 129 163 215 274 322
#
# _framework density 18.81457
#
# number of rings (size 3 to 8) (size 9 to 14) (size 15 to 20)
#    0.000    2.154    4.615    3.000    0.000    3.692 
#    0.000    0.769    0.000    0.000    0.000    0.000 
#    0.000    0.000    0.000    0.000    0.000    0.000 
#
# Total GULP energy -322113.332938 kJ/mol
# GULP energy per Si atom -12388.974344 kJ/mol
# Density = 1.877175 g / cm^3
# Si number density = 18.814570 Si / 1000 Ang^3
#
#
#
# Elastic Constant Matrix: (Units=GPa)
#
#
# Indices 1 2 3 4 5 6 
#
# 1 100.5419 16.3952 17.7419 0.0179 11.6447 0.0015
# 2 16.3952 120.0913 6.3421 0.0435 -1.4124 0.0037
# 3 17.7419 6.3421 40.2592 0.0306 2.5744 0.0148
# 4 0.0179 0.0435 0.0306 7.5705 0.0187 1.3837
# 5 11.6447 -1.4124 2.5744 0.0187 15.6472 0.0036
# 6 0.0015 0.0037 0.0148 1.3837 0.0036 12.9773
#
#
#
# Elastic Compliance Matrix: (Units=1/GPa)
#
#
# Indices 1 2 3 4 5 6 
#
# 1 0.011942 -0.001490 -0.004498 0.000018 -0.008282 0.000005
# 2 -0.001490 0.008598 -0.000827 -0.000048 0.002021 0.000003
# 3 -0.004498 -0.000827 0.027027 -0.000087 -0.001173 -0.000020
# 4 0.000018 -0.000048 -0.000087 0.134719 -0.000161 -0.014364
# 5 -0.008282 0.002021 -0.001173 -0.000161 0.070448 -0.000001
# 6 0.000005 0.000003 -0.000020 -0.014364 -0.000001 0.078589
#
#
# Mechanical properties :
#
#
# Convention : Reuss Voigt Hill
#
# Bulk Modulus (GPa) = 29.46756 37.98343 33.72549
# Shear Modulus (GPa) = 14.03445 21.93320 17.98383
#
# Velocity S-wave (km/s) = 2.73414 3.41802 3.09503
# Velocity P-wave (km/s) = 5.06591 5.98409 5.54404
#
# Compressibility (1/GPa) = 0.03393562
#
# Stress axis : x y z
#
# Youngs Moduli (GPa) = 83.73735 116.30739 37.00027
#
# Poissons Ratio (x) = 0.17332 0.16644
# Poissons Ratio (y) = 0.12479 0.03060
# Poissons Ratio (z) = 0.37669 0.09618
#
# Static dielectric constant tensor:
#      x y z
#    x 3.539680 -0.000040 0.010770 
#    y -0.000040 3.718350 -0.000100 
#    z 0.010770 -0.000100 2.758710 
# 
# 
# High freq. dielectric constant tensor:
#      x y z
#    x 1.740030 0.000000 0.002540 
#    y 0.000000 1.740350 -0.000010 
#    z 0.002540 -0.000010 1.650460 
# 
# From -- ./inp_files/381359.got.cif
#   From: 2010.06.25/outbox.cif.g09.slc.cpg/sg12_191_cif.got.tgz:381359.got - 2010.06.28 00:19:55.
