data_PCOD8078841
_publ_section_title
;
Structure prediction by ZEFSAII (Michael W. Deem and Ramdas Pophale) SiO2 
 PCOD8078841
Probable space group: C 2/M
;
_chemical_formula_sum "Si O2"
_cell_formula_units_Z 56
_cell_length_a 8.686254
_cell_length_b 19.166286
_cell_length_c 22.552684
_cell_angle_alpha 90.000000
_cell_angle_beta 54.708888
_cell_angle_gamma 90.000000
_cell_volume 3064.642343
_symmetry_space_group_name_H-M "C 2/M"
_symmetry_group_IT_number 12
_symmetry_cell_setting 'monoclinic'
loop_
_space_group_symop_operation_xyz
x,y,z
-x,y,-z
-x,-y,-z
x,-y,z
1/2+x,1/2+y,z
1/2-x,1/2+y,-z
1/2-x,1/2-y,-z
1/2+x,1/2-y,z
loop_
_atom_site_type_symbol
_atom_site_label
_atom_site_fract_x
_atom_site_fract_y
_atom_site_fract_z
Si Si1 0.103946 0.326628 0.219433
Si Si2 0.541852 0.327611 0.927604
Si Si3 0.675337 0.827611 0.927604
Si Si4 0.826121 0.582849 0.500000
Si Si5 0.262247 0.326628 0.780566
Si Si6 0.460648 0.421197 0.647290
Si Si7 0.097481 0.578803 0.647290
O O1 0.283999 0.362445 0.146518
O O2 0.151001 0.250000 0.232666
O O3 0.931751 0.322612 0.212166
O O4 0.059644 0.374496 0.285841
O O5 0.609553 0.250000 0.926964
O O6 0.355947 0.327581 0.929369
O O7 0.500000 0.366030 0.000000
O O8 0.723552 0.862445 0.853482
O O9 0.500000 0.866031 0.000000
O O10 0.810808 0.500000 0.500000
O O11 0.636996 0.612015 0.572738
O O12 0.855210 0.612015 0.427262
O O13 0.000000 0.609198 0.500000
O O14 0.417167 0.374495 0.714159
O O15 0.504952 0.500000 0.659078
O O16 0.287666 0.421005 0.641556
O O17 0.017813 0.500000 0.659079
#
# Coordination Sequence:
#
# PCOD8078841 Si02
#       7
#     8   8   8   8   8   8   8
#     4  10  19  31  48  71  98 125 155 192 235 280
#     4  10  17  27  44  66  93 123 157 194 231 273
#     4  10  17  27  44  66  93 123 157 194 231 273
#     4   9  17  29  48  73  96 119 153 197 236 273
#     4  10  19  31  48  71  98 125 155 192 235 280
#     4   9  18  33  52  71  93 124 159 193 231 278
#     4   9  18  33  52  71  93 124 159 193 231 278
#
# _framework density 18.272929999999999
#
# number of rings (size 3 to 8) (size 9 to 14) (size 15 to 20)
#    0.000    2.429    0.000    6.429    0.000    4.000 
#    0.000    0.714    0.000    0.857    0.000    0.000 
#    0.000    0.000    0.000    0.000    0.000    0.000 
#
# Total GULP energy -347065.316806 kJ/mol
# GULP energy per Si atom -12395.189886 kJ/mol
# Density = 1.823134 g / cm^3
# Si number density = 18.272930 Si / 1000 Ang^3
#
#
#
# Elastic Constant Matrix: (Units=GPa)
#
#
# Indices 1 2 3 4 5 6 
#
# 1 95.1559 22.4440 67.4240 -0.0003 -0.0012 0.0003
# 2 22.4440 42.2756 56.9926 0.0000 -0.0015 0.0001
# 3 67.4240 56.9926 227.5525 0.0000 -0.0040 0.0000
# 4 -0.0003 0.0000 0.0000 13.4474 0.0002 -0.0001
# 5 -0.0012 -0.0015 -0.0040 0.0002 27.7980 -0.0001
# 6 0.0003 0.0001 0.0000 -0.0001 -0.0001 14.3175
#
#
#
# Elastic Compliance Matrix: (Units=1/GPa)
#
#
# Indices 1 2 3 4 5 6 
#
# 1 0.013500 -0.002679 -0.003329 0.000000 0.000000 0.000000
# 2 -0.002679 0.036244 -0.008284 0.000000 0.000001 0.000000
# 3 -0.003329 -0.008284 0.007456 0.000000 0.000000 0.000000
# 4 0.000000 0.000000 0.000000 0.074364 0.000000 0.000000
# 5 0.000000 0.000001 0.000000 0.000000 0.035974 0.000000
# 6 0.000000 0.000000 0.000000 0.000000 0.000000 0.069845
#
#
# Mechanical properties :
#
#
# Convention : Reuss Voigt Hill
#
# Bulk Modulus (GPa) = 34.94567 73.18947 54.06757
# Shear Modulus (GPa) = 18.14851 25.65414 21.90132
#
# Velocity S-wave (km/s) = 3.15491 3.75099 3.46579
# Velocity P-wave (km/s) = 5.69536 7.67465 6.75786
#
# Compressibility (1/GPa) = 0.02861585
#
# Stress axis : x y z
#
# Youngs Moduli (GPa) = 74.07521 27.59055 134.12466
#
# Poissons Ratio (x) = 0.07392 0.44650
# Poissons Ratio (y) = 0.19846 1.11107
# Poissons Ratio (z) = 0.24660 0.22856
#
# Static dielectric constant tensor:
#      x y z
#    x 3.367450 0.000000 -0.000040 
#    y 0.000000 2.944430 0.000000 
#    z -0.000040 0.000000 4.392460 
# 
# 
# High freq. dielectric constant tensor:
#      x y z
#    x 1.718090 0.000000 0.000000 
#    y 0.000000 1.641510 0.000000 
#    z 0.000000 0.000000 1.739280 
# 
# From -- ./inp_files/301666.got.cif
#   From: 2010.06.25/outbox.cif.g09.slc.cpg/sg12_151_cif.got.tgz:301666.got - 2010.06.28 00:19:55.
