data_PCOD8078782
_publ_section_title
;
Structure prediction by ZEFSAII (Michael W. Deem and Ramdas Pophale) SiO2 
 PCOD8078782
Probable space group: C 2/M
;
_chemical_formula_sum "Si O2"
_cell_formula_units_Z 64
_cell_length_a 32.703894
_cell_length_b 13.981024
_cell_length_c 33.503059
_cell_angle_alpha 90.000000
_cell_angle_beta 162.547496
_cell_angle_gamma 90.000000
_cell_volume 4594.320032
_symmetry_space_group_name_H-M "C 2/M"
_symmetry_group_IT_number 12
_symmetry_cell_setting 'monoclinic'
loop_
_space_group_symop_operation_xyz
x,y,z
-x,y,-z
-x,-y,-z
x,-y,z
1/2+x,1/2+y,z
1/2-x,1/2+y,-z
1/2-x,1/2-y,-z
1/2+x,1/2-y,z
loop_
_atom_site_type_symbol
_atom_site_label
_atom_site_fract_x
_atom_site_fract_y
_atom_site_fract_z
Si Si1 0.636121 0.111400 0.244459
Si Si2 0.987209 0.295500 0.793181
Si Si3 0.794548 0.886225 0.185622
Si Si4 0.528253 0.391049 0.263163
Si Si5 0.757109 0.888638 0.471345
Si Si6 0.535001 0.886663 0.989436
Si Si7 0.257989 0.389282 0.061175
Si Si8 0.091336 0.888686 0.464649
O O1 0.560374 0.173921 0.207191
O O2 0.584333 0.142037 0.152663
O O3 0.799282 0.129680 0.398110
O O4 0.602140 0.000000 0.221599
O O5 0.890768 0.338710 0.668445
O O6 0.981601 0.180132 0.783648
O O7 0.141327 0.330725 0.929258
O O8 0.763984 0.852434 0.112242
O O9 0.942980 0.844722 0.337192
O O10 0.790218 0.000000 0.183572
O O11 0.679091 0.844670 0.107802
O O12 0.524613 0.500000 0.243853
O O13 0.669627 0.370757 0.418286
O O14 0.403926 0.371012 0.177320
O O15 0.850057 0.845656 0.522061
O O16 0.732825 0.000000 0.440780
O O17 0.544715 0.000000 0.002360
O O18 0.500000 0.841248 0.000000
O O19 0.217582 0.500000 0.021889
O O20 0.066071 0.000000 0.433724
#
# Coordination Sequence:
#
# PCOD8078782 Si02
#       8
#     8   8   8   8   8   8   8   8
#     4   9  16  26  40  58  77  99 129 163 192 224
#     4  11  18  26  41  60  76 100 138 168 196 228
#     4   9  14  23  38  53  72 102 128 150 186 226
#     4  10  20  30  38  53  81 108 133 167 202 227
#     4   9  16  27  41  57  77 101 131 168 198 225
#     4   9  16  25  37  55  78 101 125 155 191 231
#     4  10  17  27  41  57  77 101 132 168 196 229
#     4   8  13  22  37  53  71  98 130 155 181 217
#
# _framework density 13.930244999999999
#
# number of rings (size 3 to 8) (size 9 to 14) (size 15 to 20)
#    0.000    2.625    2.500    2.625    0.000    0.000 
#    0.000    0.625    0.000    3.750    0.000    0.000 
#    0.000    0.500    0.000    0.000    0.000    6.000 
#
# Total GULP energy -396577.923635 kJ/mol
# GULP energy per Si atom -12393.060114 kJ/mol
# Density = 1.389854 g / cm^3
# Si number density = 13.930245 Si / 1000 Ang^3
#
#
#
# Elastic Constant Matrix: (Units=GPa)
#
#
# Indices 1 2 3 4 5 6 
#
# 1 64.0772 27.1283 31.0704 0.0053 -6.7497 -0.0021
# 2 27.1283 40.8917 27.9566 -0.0007 -7.0564 0.0014
# 3 31.0704 27.9566 101.7036 -0.0028 0.7935 -0.0053
# 4 0.0053 -0.0007 -0.0028 10.5626 0.0071 -1.1412
# 5 -6.7497 -7.0564 0.7935 0.0071 16.5045 0.0026
# 6 -0.0021 0.0014 -0.0053 -1.1412 0.0026 8.9765
#
#
#
# Elastic Compliance Matrix: (Units=1/GPa)
#
#
# Indices 1 2 3 4 5 6 
#
# 1 0.022931 -0.011851 -0.003783 -0.000016 0.004493 0.000002
# 2 -0.011851 0.039459 -0.007323 -0.000003 0.012376 -0.000017
# 3 -0.003783 -0.007323 0.013042 0.000010 -0.005305 0.000011
# 4 -0.000016 -0.000003 0.000010 0.095992 -0.000052 0.012203
# 5 0.004493 0.012376 -0.005305 -0.000052 0.067973 -0.000030
# 6 0.000002 -0.000017 0.000011 0.012203 -0.000030 0.112953
#
#
# Mechanical properties :
#
#
# Convention : Reuss Voigt Hill
#
# Bulk Modulus (GPa) = 33.87643 42.10923 37.99283
# Shear Modulus (GPa) = 12.25177 15.24320 13.74749
#
# Velocity S-wave (km/s) = 2.96887 3.31154 3.14487
# Velocity P-wave (km/s) = 6.01030 6.70194 6.36552
#
# Compressibility (1/GPa) = 0.02951905
#
# Stress axis : x y z
#
# Youngs Moduli (GPa) = 43.60866 25.34271 76.67322
#
# Poissons Ratio (x) = 0.30035 0.29004
# Poissons Ratio (y) = 0.51683 0.56144
# Poissons Ratio (z) = 0.16496 0.18557
#
# Static dielectric constant tensor:
#      x y z
#    x 2.650450 0.000000 0.089530 
#    y 0.000000 2.363490 0.000000 
#    z 0.089530 0.000000 3.091060 
# 
# 
# High freq. dielectric constant tensor:
#      x y z
#    x 1.500450 0.000000 0.004980 
#    y 0.000000 1.471240 0.000000 
#    z 0.004980 0.000000 1.556710 
# 
# From -- ./inp_files/385196.got.cif
#   From: 2010.06.25/outbox.cif.g09.slc.cpg/sg12_193_cif.got.tgz:385196.got - 2010.06.28 00:19:55.
