data_PCOD8078153
_publ_section_title
;
Structure prediction by ZEFSAII (Michael W. Deem and Ramdas Pophale) SiO2 
 PCOD8078153
Probable space group: C 2/M
;
_chemical_formula_sum "Si O2"
_cell_formula_units_Z 56
_cell_length_a 19.243250
_cell_length_b 24.791504
_cell_length_c 15.891217
_cell_angle_alpha 90.000000
_cell_angle_beta 153.839670
_cell_angle_gamma 90.000000
_cell_volume 3342.437503
_symmetry_space_group_name_H-M "C 2/M"
_symmetry_group_IT_number 12
_symmetry_cell_setting 'monoclinic'
loop_
_space_group_symop_operation_xyz
x,y,z
-x,y,-z
-x,-y,-z
x,-y,z
1/2+x,1/2+y,z
1/2-x,1/2+y,-z
1/2-x,1/2-y,-z
1/2+x,1/2-y,z
loop_
_atom_site_type_symbol
_atom_site_label
_atom_site_fract_x
_atom_site_fract_y
_atom_site_fract_z
Si Si1 0.684705 0.135406 0.817569
Si Si2 0.681590 0.941141 0.672812
Si Si3 0.612939 0.236407 0.201484
Si Si4 0.482086 0.693033 0.210196
Si Si5 0.937923 0.281086 0.580720
Si Si6 0.441403 0.062375 0.636118
Si Si7 0.304480 0.851057 0.586982
O O1 0.755898 0.107163 0.809924
O O2 0.554231 0.181309 0.651519
O O3 0.607607 0.089367 0.792188
O O4 0.820881 0.161848 0.020250
O O5 0.500000 0.945061 0.500000
O O6 0.686942 0.928197 0.578966
O O7 0.761546 0.000000 0.777474
O O8 0.530662 0.274017 0.180592
O O9 0.786465 0.259375 0.363640
O O10 0.634698 0.175501 0.260251
O O11 0.500000 0.233716 0.000000
O O12 0.462604 0.731978 0.270107
O O13 0.615209 0.649005 0.377695
O O14 0.869827 0.315178 0.582823
O O15 0.369985 0.088442 0.643869
O O16 0.473082 0.000000 0.687805
#
# Coordination Sequence:
#
# PCOD8078153 Si02
#       7
#     8   8   8   8   8   8   8
#     4  10  16  24  43  65  87 113 141 169 199 238
#     4   8  15  26  38  57  84 109 136 170 201 231
#     4   9  17  29  44  62  85 110 137 171 208 244
#     4   9  17  27  41  63  89 114 139 167 199 244
#     4   8  16  29  42  60  88 116 139 164 200 246
#     4   9  17  30  45  58  79 113 145 173 208 246
#     4   8  16  31  45  58  81 112 141 171 206 243
#
# _framework density 16.754239999999999
#
# number of rings (size 3 to 8) (size 9 to 14) (size 15 to 20)
#    0.000    3.286    0.000    3.429    0.000    5.714 
#    0.000    1.429    0.000    2.143    0.000    0.000 
#    0.000    5.143    0.000    0.000    0.000    0.000 
#
# Total GULP energy -346893.239392 kJ/mol
# GULP energy per Si atom -12389.044264 kJ/mol
# Density = 1.671611 g / cm^3
# Si number density = 16.754240 Si / 1000 Ang^3
#
#
#
# Elastic Constant Matrix: (Units=GPa)
#
#
# Indices 1 2 3 4 5 6 
#
# 1 29.7175 33.5322 24.0829 0.0000 -1.7727 0.0000
# 2 33.5322 116.3516 56.5683 0.0000 3.6590 0.0000
# 3 24.0829 56.5683 113.4613 0.0000 -6.3352 0.0000
# 4 0.0000 0.0000 0.0000 17.4506 0.0000 -3.2334
# 5 -1.7727 3.6590 -6.3352 0.0000 16.8502 0.0000
# 6 0.0000 0.0000 0.0000 -3.2334 0.0000 14.0449
#
#
#
# Elastic Compliance Matrix: (Units=1/GPa)
#
#
# Indices 1 2 3 4 5 6 
#
# 1 0.052424 -0.013333 -0.004096 0.000000 0.006870 0.000000
# 2 -0.013333 0.015110 -0.005071 0.000000 -0.006591 0.000000
# 3 -0.004096 -0.005071 0.012512 0.000000 0.005374 0.000000
# 4 0.000000 0.000000 0.000000 0.059858 0.000000 0.013781
# 5 0.006870 -0.006591 0.005374 0.000000 0.063521 0.000000
# 6 0.000000 0.000000 0.000000 0.013781 0.000000 0.074373
#
#
# Mechanical properties :
#
#
# Convention : Reuss Voigt Hill
#
# Bulk Modulus (GPa) = 28.53527 54.21083 41.37305
# Shear Modulus (GPa) = 14.94855 19.35894 17.15374
#
# Velocity S-wave (km/s) = 2.99025 3.40290 3.20323
# Velocity P-wave (km/s) = 5.38431 6.91855 6.19908
#
# Compressibility (1/GPa) = 0.03504435
#
# Stress axis : x y z
#
# Youngs Moduli (GPa) = 19.07518 66.18103 79.92605
#
# Poissons Ratio (x) = 0.88239 0.32740
# Poissons Ratio (y) = 0.25433 0.40534
# Poissons Ratio (z) = 0.07814 0.33563
#
# Static dielectric constant tensor:
#      x y z
#    x 3.162600 0.000000 0.040600 
#    y 0.000000 3.525250 0.000000 
#    z 0.040600 0.000000 3.024190 
# 
# 
# High freq. dielectric constant tensor:
#      x y z
#    x 1.609040 0.000000 0.006490 
#    y 0.000000 1.640580 0.000000 
#    z 0.006490 0.000000 1.626270 
# 
# From -- ./inp_files/291035.got.cif
#   From: 2010.06.25/outbox.cif.g09.slc.cpg/sg12_146_cif.got.tgz:291035.got - 2010.06.28 00:19:55.
