data_PCOD8078822
_publ_section_title
;
Structure prediction by ZEFSAII (Michael W. Deem and Ramdas Pophale) SiO2 
 PCOD8078822
Probable space group: C 2/M
;
_chemical_formula_sum "Si O2"
_cell_formula_units_Z 56
_cell_length_a 12.343505
_cell_length_b 29.565213
_cell_length_c 9.879465
_cell_angle_alpha 90.000000
_cell_angle_beta 111.498326
_cell_angle_gamma 90.000000
_cell_volume 3354.562104
_symmetry_space_group_name_H-M "C 2/M"
_symmetry_group_IT_number 12
_symmetry_cell_setting 'monoclinic'
loop_
_space_group_symop_operation_xyz
x,y,z
-x,y,-z
-x,-y,-z
x,-y,z
1/2+x,1/2+y,z
1/2-x,1/2+y,-z
1/2-x,1/2-y,-z
1/2+x,1/2-y,z
loop_
_atom_site_type_symbol
_atom_site_label
_atom_site_fract_x
_atom_site_fract_y
_atom_site_fract_z
Si Si1 0.258026 0.642453 0.579603
Si Si2 0.179032 0.450776 0.501226
Si Si3 0.057580 0.698979 0.380089
Si Si4 0.677133 0.293774 0.001847
Si Si5 0.561131 0.707264 0.238788
Si Si6 0.357640 0.141944 0.181891
Si Si7 0.560892 0.950859 0.738260
O O1 0.270382 0.590837 0.529395
O O2 0.179430 0.672166 0.442064
O O3 0.385387 0.664626 0.654935
O O4 0.192153 0.640693 0.690922
O O5 0.239750 0.500000 0.504187
O O6 0.122889 0.450611 0.622721
O O7 0.076756 0.443314 0.345194
O O8 0.084158 0.748448 0.336620
O O9 0.000000 0.703696 0.500000
O O10 0.972796 0.673113 0.236574
O O11 0.625475 0.286457 0.126399
O O12 0.762461 0.337267 0.036031
O O13 0.750000 0.250000 0.000000
O O14 0.575860 0.301893 0.845674
O O15 0.389228 0.090706 0.148946
O O16 0.583367 0.000000 0.819020
#
# Coordination Sequence:
#
# PCOD8078822 Si02
#       7
#     8   8   8   8   8   8   8
#     4   9  16  25  38  60  86 109 135 169 214 257
#     4   8  12  19  34  56  82 108 131 162 207 256
#     4  10  17  27  43  63  88 115 135 169 216 253
#     4  10  19  32  45  57  81 117 152 180 199 240
#     4  10  20  30  43  61  83 118 149 171 207 248
#     4   9  15  25  41  58  82 113 139 168 210 249
#     4   8  12  19  34  57  81 105 134 166 206 254
#
# _framework density 16.693684000000001
#
# number of rings (size 3 to 8) (size 9 to 14) (size 15 to 20)
#    0.000    2.857    2.857    1.286    0.000    0.000 
#    0.000    0.000    0.000    0.857    0.000    6.000 
#    0.000    4.000    0.000    0.000    0.000    0.000 
#
# Total GULP energy -346949.284687 kJ/mol
# GULP energy per Si atom -12391.045882 kJ/mol
# Density = 1.665569 g / cm^3
# Si number density = 16.693684 Si / 1000 Ang^3
#
#
#
# Elastic Constant Matrix: (Units=GPa)
#
#
# Indices 1 2 3 4 5 6 
#
# 1 49.4811 47.4086 28.7051 0.0000 30.8916 0.0000
# 2 47.4086 188.6520 50.4887 0.0000 36.7136 0.0000
# 3 28.7051 50.4887 48.7219 0.0000 29.8104 0.0000
# 4 0.0000 0.0000 0.0000 20.0354 0.0000 6.5411
# 5 30.8916 36.7136 29.8104 0.0000 27.4227 0.0000
# 6 0.0000 0.0000 0.0000 6.5411 0.0000 22.8228
#
#
#
# Elastic Compliance Matrix: (Units=1/GPa)
#
#
# Indices 1 2 3 4 5 6 
#
# 1 0.079463 -0.005519 0.027328 0.000000 -0.111834 0.000000
# 2 -0.005519 0.007922 -0.006786 0.000000 0.002987 0.000000
# 3 0.027328 -0.006786 0.073857 0.000000 -0.101987 0.000000
# 4 0.000000 0.000000 0.000000 0.055064 0.000000 -0.015781
# 5 -0.111834 0.002987 -0.101987 0.000000 0.269315 0.000000
# 6 0.000000 0.000000 0.000000 -0.015781 0.000000 0.048339
#
#
# Mechanical properties :
#
#
# Convention : Reuss Voigt Hill
#
# Bulk Modulus (GPa) = 5.22771 60.00662 32.61717
# Shear Modulus (GPa) = 8.80781 24.73968 16.77374
#
# Velocity S-wave (km/s) = 2.29947 3.85382 3.17329
# Velocity P-wave (km/s) = 3.19194 7.47170 5.74521
#
# Compressibility (1/GPa) = 0.19128831
#
# Stress axis : x y z
#
# Youngs Moduli (GPa) = 12.58443 126.22375 13.53964
#
# Poissons Ratio (x) = 0.69661 -0.37000
# Poissons Ratio (y) = 0.06945 0.09188
# Poissons Ratio (z) = -0.34390 0.85654
#
# Static dielectric constant tensor:
#      x y z
#    x 2.891100 0.000000 0.364430 
#    y 0.000000 3.712830 0.000000 
#    z 0.364430 0.000000 2.958190 
# 
# 
# High freq. dielectric constant tensor:
#      x y z
#    x 1.599420 0.000000 0.028120 
#    y 0.000000 1.657140 0.000000 
#    z 0.028120 0.000000 1.608930 
# 
# From -- ./inp_files/67913.got.cif
#   From: 2010.06.25/outbox.cif.g09.slc.cpg/sg12_34_cif.got.tgz:67913.got - 2010.06.28 00:19:55.
