data_PCOD8078291
_publ_section_title
;
Structure prediction by ZEFSAII (Michael W. Deem and Ramdas Pophale) SiO2 
 PCOD8078291
Probable space group: C 2/M
;
_chemical_formula_sum "Si O2"
_cell_formula_units_Z 36
_cell_length_a 22.883960
_cell_length_b 9.505241
_cell_length_c 14.519730
_cell_angle_alpha 90.000000
_cell_angle_beta 139.796722
_cell_angle_gamma 90.000000
_cell_volume 2038.684549
_symmetry_space_group_name_H-M "C 2/M"
_symmetry_group_IT_number 12
_symmetry_cell_setting 'monoclinic'
loop_
_space_group_symop_operation_xyz
x,y,z
-x,y,-z
-x,-y,-z
x,-y,z
1/2+x,1/2+y,z
1/2-x,1/2+y,-z
1/2-x,1/2-y,-z
1/2+x,1/2-y,z
loop_
_atom_site_type_symbol
_atom_site_label
_atom_site_fract_x
_atom_site_fract_y
_atom_site_fract_z
Si Si1 0.000000 0.744853 0.000000
Si Si2 0.505771 0.658937 0.209974
Si Si3 0.304439 0.156534 0.815849
Si Si4 0.307274 0.663677 0.498317
Si Si5 0.191913 0.169276 0.004961
O O1 0.091904 0.655476 0.096489
O O2 0.015978 0.835433 0.111329
O O3 0.500374 0.500000 0.233971
O O4 0.590444 0.725298 0.367166
O O5 0.411462 0.724625 0.132094
O O6 0.231570 0.188734 0.649267
O O7 0.280432 0.276662 0.860624
O O8 0.287291 0.000000 0.835668
O O9 0.304004 0.500000 0.522565
O O10 0.250000 0.750000 0.500000
O O11 0.203839 0.000000 0.013813
O O12 0.250000 0.250000 0.000000
#
# Coordination Sequence:
#
# PCOD8078291 Si02
#       5
#     4   8   8   8   8
#     4  10  16  28  50  76 109 136 175 210 255 304
#     4   9  18  31  51  77 105 137 175 213 257 307
#     4  10  20  32  51  78 109 140 171 211 259 309
#     4  10  19  33  50  76 111 143 172 206 252 311
#     4  10  21  38  58  77  99 134 178 224 263 304
#
# _framework density 17.658446000000001
#
# number of rings (size 3 to 8) (size 9 to 14) (size 15 to 20)
#    0.000    2.222    2.222    1.333    0.000    1.778 
#    0.000    2.222    0.000    6.667    0.000    0.000 
#    0.000    0.000    0.000    0.000    0.000    0.000 
#
# Total GULP energy -222991.113904 kJ/mol
# GULP energy per Si atom -12388.395217 kJ/mol
# Density = 1.761825 g / cm^3
# Si number density = 17.658446 Si / 1000 Ang^3
#
#
#
# Elastic Constant Matrix: (Units=GPa)
#
#
# Indices 1 2 3 4 5 6 
#
# 1 123.5881 50.3262 64.8331 0.0000 9.5735 0.0000
# 2 50.3262 79.9323 41.4502 0.0000 -0.1632 0.0000
# 3 64.8331 41.4502 160.1568 0.0000 6.9056 0.0000
# 4 0.0000 0.0000 0.0000 24.3419 0.0000 -3.6861
# 5 9.5735 -0.1632 6.9056 0.0000 15.8066 0.0000
# 6 0.0000 0.0000 0.0000 -3.6861 0.0000 30.8382
#
#
#
# Elastic Compliance Matrix: (Units=1/GPa)
#
#
# Indices 1 2 3 4 5 6 
#
# 1 0.012950 -0.006460 -0.003291 0.000000 -0.006472 0.000000
# 2 -0.006460 0.017724 -0.002190 0.000000 0.005052 0.000000
# 3 -0.003291 -0.002190 0.008213 0.000000 -0.001617 0.000000
# 4 0.000000 0.000000 0.000000 0.041839 0.000000 0.005001
# 5 -0.006472 0.005052 -0.001617 0.000000 0.067943 0.000000
# 6 0.000000 0.000000 0.000000 0.005001 0.000000 0.033025
#
#
# Mechanical properties :
#
#
# Convention : Reuss Voigt Hill
#
# Bulk Modulus (GPa) = 66.64799 75.21068 70.92934
# Shear Modulus (GPa) = 23.74433 28.00186 25.87309
#
# Velocity S-wave (km/s) = 3.67092 3.98647 3.83194
# Velocity P-wave (km/s) = 7.46942 7.99210 7.73518
#
# Compressibility (1/GPa) = 0.01500420
#
# Stress axis : x y z
#
# Youngs Moduli (GPa) = 77.22127 56.42174 121.76217
#
# Poissons Ratio (x) = 0.36447 0.40075
# Poissons Ratio (y) = 0.49883 0.26665
# Poissons Ratio (z) = 0.25416 0.12356
#
# Static dielectric constant tensor:
#      x y z
#    x 3.155530 0.000000 0.286390 
#    y 0.000000 3.234930 0.000000 
#    z 0.286390 0.000000 3.693620 
# 
# 
# High freq. dielectric constant tensor:
#      x y z
#    x 1.664570 0.000000 0.007860 
#    y 0.000000 1.672570 0.000000 
#    z 0.007860 0.000000 1.697780 
# 
# From -- ./inp_files/152631.got.cif
#   From: 2010.06.25/outbox.cif.g09.slc.cpg/sg12_77_cif.got.tgz:152631.got - 2010.06.28 00:19:55.
