data_PCOD8078685
_publ_section_title
;
Structure prediction by ZEFSAII (Michael W. Deem and Ramdas Pophale) SiO2 
 PCOD8078685
Probable space group: C 2/M
;
_chemical_formula_sum "Si O2"
_cell_formula_units_Z 56
_cell_length_a 24.044197
_cell_length_b 9.042660
_cell_length_c 22.780444
_cell_angle_alpha 90.000000
_cell_angle_beta 43.902318
_cell_angle_gamma 90.000000
_cell_volume 3434.566295
_symmetry_space_group_name_H-M "C 2/M"
_symmetry_group_IT_number 12
_symmetry_cell_setting 'monoclinic'
loop_
_space_group_symop_operation_xyz
x,y,z
-x,y,-z
-x,-y,-z
x,-y,z
1/2+x,1/2+y,z
1/2-x,1/2+y,-z
1/2-x,1/2-y,-z
1/2+x,1/2-y,z
loop_
_atom_site_type_symbol
_atom_site_label
_atom_site_fract_x
_atom_site_fract_y
_atom_site_fract_z
Si Si1 0.662323 0.173324 0.631807
Si Si2 0.004392 0.173336 0.782034
Si Si3 0.770844 0.666448 0.895427
Si Si4 0.325006 0.172839 0.513639
Si Si5 0.365167 0.167211 0.945347
Si Si6 0.472420 0.670925 0.455393
Si Si7 0.089835 0.170859 0.263873
O O1 0.590605 0.250153 0.721689
O O2 0.652416 0.209279 0.570563
O O3 0.744935 0.240744 0.593006
O O4 0.661179 0.000000 0.645487
O O5 0.947177 0.241328 0.875603
O O6 0.969023 0.209288 0.744938
O O7 0.013201 0.000000 0.786541
O O8 0.749701 0.500000 0.892841
O O9 0.816374 0.670469 0.922306
O O10 0.827927 0.736989 0.802466
O O11 0.688231 0.757918 0.963108
O O12 0.395990 0.227941 0.501169
O O13 0.310479 0.000000 0.534308
O O14 0.385531 0.000000 0.948544
O O15 0.500000 0.702117 0.500000
O O16 0.448882 0.500000 0.462819
O O17 0.545577 0.715911 0.357345
O O18 0.114282 0.000000 0.243726
#
# Coordination Sequence:
#
# PCOD8078685 Si02
#       7
#     8   8   8   8   8   8   8
#     4  10  19  30  46  66  90 119 152 188 228 276
#     4  10  17  26  42  63  89 118 150 185 222 268
#     4   9  16  25  38  56  80 112 148 183 219 263
#     4  10  20  32  47  66  89 117 152 192 233 273
#     4   9  16  25  37  56  84 115 146 179 218 265
#     4  10  20  34  50  67  90 121 157 195 233 273
#     4   9  17  28  42  60  84 116 151 186 225 269
#
# _framework density 16.304824
#
# number of rings (size 3 to 8) (size 9 to 14) (size 15 to 20)
#    0.000    2.429    1.429    2.143    0.000    6.000 
#    0.000    0.000    0.000    0.000    0.000    0.000 
#    0.000    1.143    0.000   12.286    0.000    6.000 
#
# Total GULP energy -347251.861244 kJ/mol
# GULP energy per Si atom -12401.852187 kJ/mol
# Density = 1.626771 g / cm^3
# Si number density = 16.304824 Si / 1000 Ang^3
#
#
#
# Elastic Constant Matrix: (Units=GPa)
#
#
# Indices 1 2 3 4 5 6 
#
# 1 41.5923 31.4006 39.2956 0.0000 -7.9318 -0.0003
# 2 31.4006 108.9214 69.9650 -0.0004 -18.5569 -0.0002
# 3 39.2956 69.9650 139.6336 -0.0004 -26.0447 0.0002
# 4 0.0000 -0.0004 -0.0004 33.6670 0.0001 -9.3433
# 5 -7.9318 -18.5569 -26.0447 0.0001 19.0835 0.0001
# 6 -0.0003 -0.0002 0.0002 -9.3433 0.0001 18.2181
#
#
#
# Elastic Compliance Matrix: (Units=1/GPa)
#
#
# Indices 1 2 3 4 5 6 
#
# 1 0.034878 -0.005581 -0.007146 0.000000 -0.000684 0.000001
# 2 -0.005581 0.014834 -0.004835 0.000000 0.005506 0.000000
# 3 -0.007146 -0.004835 0.013635 0.000000 0.010937 0.000000
# 4 0.000000 0.000000 0.000000 0.034632 0.000000 0.017761
# 5 -0.000684 0.005506 0.010937 0.000000 0.072398 -0.000001
# 6 0.000001 0.000000 0.000000 0.017761 -0.000001 0.063999
#
#
# Mechanical properties :
#
#
# Convention : Reuss Voigt Hill
#
# Bulk Modulus (GPa) = 35.43312 63.49664 49.46488
# Shear Modulus (GPa) = 17.92706 24.15947 21.04327
#
# Velocity S-wave (km/s) = 3.31946 3.85351 3.59641
# Velocity P-wave (km/s) = 6.03909 7.66990 6.90283
#
# Compressibility (1/GPa) = 0.02822218
#
# Stress axis : x y z
#
# Youngs Moduli (GPa) = 28.67168 67.41456 73.33814
#
# Poissons Ratio (x) = 0.37622 0.52411
# Poissons Ratio (y) = 0.16001 0.35459
# Poissons Ratio (z) = 0.20490 0.32595
#
# Static dielectric constant tensor:
#      x y z
#    x 2.532380 0.000000 -0.178990 
#    y 0.000000 3.179830 0.000000 
#    z -0.178990 0.000000 3.189760 
# 
# 
# High freq. dielectric constant tensor:
#      x y z
#    x 1.558400 0.000000 -0.026180 
#    y 0.000000 1.642570 0.000000 
#    z -0.026180 0.000000 1.634770 
# 
# From -- ./inp_files/237812.got.cif
#   From: 2010.06.25/outbox.cif.g09.slc.cpg/sg12_119_cif.got.tgz:237812.got - 2010.06.28 00:19:55.
