data_PCOD8078086
_publ_section_title
;
Structure prediction by ZEFSAII (Michael W. Deem and Ramdas Pophale) SiO2 
 PCOD8078086
Probable space group: C 2/M
;
_chemical_formula_sum "Si O2"
_cell_formula_units_Z 56
_cell_length_a 19.845675
_cell_length_b 19.087085
_cell_length_c 11.981311
_cell_angle_alpha 90.000000
_cell_angle_beta 132.319179
_cell_angle_gamma 90.000000
_cell_volume 3355.773653
_symmetry_space_group_name_H-M "C 2/M"
_symmetry_group_IT_number 12
_symmetry_cell_setting 'monoclinic'
loop_
_space_group_symop_operation_xyz
x,y,z
-x,y,-z
-x,-y,-z
x,-y,z
1/2+x,1/2+y,z
1/2-x,1/2+y,-z
1/2-x,1/2-y,-z
1/2+x,1/2-y,z
loop_
_atom_site_type_symbol
_atom_site_label
_atom_site_fract_x
_atom_site_fract_y
_atom_site_fract_z
Si Si1 0.935060 0.076349 0.152274
Si Si2 0.551793 0.237314 0.171861
Si Si3 0.208741 0.924197 0.191895
Si Si4 0.759595 0.696882 0.610945
Si Si5 0.225870 0.720986 0.796660
Si Si6 0.391207 0.727401 0.145305
Si Si7 0.632097 0.381747 0.325741
O O1 0.903457 0.144314 0.187658
O O2 0.043701 0.075329 0.263105
O O3 0.907218 0.000000 0.174165
O O4 0.888309 0.084844 0.979016
O O5 0.631766 0.177987 0.264801
O O6 0.484443 0.237256 0.203656
O O7 0.603786 0.311485 0.227043
O O8 0.500000 0.225393 0.000000
O O9 0.277113 0.861511 0.235964
O O10 0.190802 0.925966 0.303852
O O11 0.252590 0.000000 0.208802
O O12 0.750000 0.750000 0.500000
O O13 0.723613 0.730319 0.685583
O O14 0.694744 0.631470 0.506008
O O15 0.135710 0.735769 0.769176
O O16 0.315273 0.740619 0.966805
#
# Coordination Sequence:
#
# PCOD8078086 Si02
#       7
#     8   8   8   8   8   8   8
#     4   9  17  29  46  73 103 131 163 196 243 309
#     4  10  15  28  45  68  94 127 165 207 242 288
#     4  10  17  27  48  73 100 134 164 202 250 299
#     4  10  18  28  46  66 100 134 158 203 251 290
#     4  10  17  31  45  73 103 130 169 214 242 298
#     4   9  18  28  50  72  99 134 169 206 252 282
#     4  10  17  26  43  70 101 130 157 194 251 301
#
# _framework density 16.687657000000002
#
# number of rings (size 3 to 8) (size 9 to 14) (size 15 to 20)
#    0.000    2.286    4.286    2.571    0.000    1.143 
#    0.000    6.429    0.000    2.571    0.000    3.000 
#    0.000    2.857    0.000    0.000    0.000    0.000 
#
# Total GULP energy -346894.137427 kJ/mol
# GULP energy per Si atom -12389.076337 kJ/mol
# Density = 1.664967 g / cm^3
# Si number density = 16.687657 Si / 1000 Ang^3
#
#
#
# Elastic Constant Matrix: (Units=GPa)
#
#
# Indices 1 2 3 4 5 6 
#
# 1 106.5667 48.1867 37.3314 0.0000 -8.5130 0.0000
# 2 48.1867 83.8365 32.0652 0.0000 -0.2220 0.0000
# 3 37.3314 32.0652 76.6830 0.0000 2.3550 0.0000
# 4 0.0000 0.0000 0.0000 17.5677 0.0000 2.7640
# 5 -8.5130 -0.2220 2.3550 0.0000 19.5744 0.0000
# 6 0.0000 0.0000 0.0000 2.7640 0.0000 16.8965
#
#
#
# Elastic Compliance Matrix: (Units=1/GPa)
#
#
# Indices 1 2 3 4 5 6 
#
# 1 0.014478 -0.006581 -0.004504 0.000000 0.006764 0.000000
# 2 -0.006581 0.017205 -0.003923 0.000000 -0.002195 0.000000
# 3 -0.004504 -0.003923 0.016998 0.000000 -0.004048 0.000000
# 4 0.000000 0.000000 0.000000 0.058426 0.000000 -0.009558
# 5 0.006764 -0.002195 -0.004048 0.000000 0.054491 0.000000
# 6 0.000000 0.000000 0.000000 -0.009558 0.000000 0.060747
#
#
# Mechanical properties :
#
#
# Convention : Reuss Voigt Hill
#
# Bulk Modulus (GPa) = 53.57663 55.80586 54.69124
# Shear Modulus (GPa) = 19.33617 20.77460 20.05538
#
# Velocity S-wave (km/s) = 3.40768 3.53215 3.47047
# Velocity P-wave (km/s) = 6.90350 7.08158 6.99311
#
# Compressibility (1/GPa) = 0.01866485
#
# Stress axis : x y z
#
# Youngs Moduli (GPa) = 69.07257 58.12234 58.82946
#
# Poissons Ratio (x) = 0.38248 0.26497
# Poissons Ratio (y) = 0.45454 0.23081
# Poissons Ratio (z) = 0.31111 0.22803
#
# Static dielectric constant tensor:
#      x y z
#    x 3.256330 0.000000 0.225820 
#    y 0.000000 3.195340 0.000000 
#    z 0.225820 0.000000 3.511380 
# 
# 
# High freq. dielectric constant tensor:
#      x y z
#    x 1.626200 0.000000 0.003610 
#    y 0.000000 1.613430 0.000000 
#    z 0.003610 0.000000 1.632350 
# 
# From -- ./inp_files/169265.got.cif
#   From: 2010.06.25/outbox.cif.g09.slc.cpg/sg12_85_cif.got.tgz:169265.got - 2010.06.28 00:19:55.
