data_PCOD8078211
_publ_section_title
;
Structure prediction by ZEFSAII (Michael W. Deem and Ramdas Pophale) SiO2 
 PCOD8078211
Probable space group: C 2/M
;
_chemical_formula_sum "Si O2"
_cell_formula_units_Z 48
_cell_length_a 17.945945
_cell_length_b 19.575889
_cell_length_c 12.216483
_cell_angle_alpha 90.000000
_cell_angle_beta 44.204013
_cell_angle_gamma 90.000000
_cell_volume 2992.271103
_symmetry_space_group_name_H-M "C 2/M"
_symmetry_group_IT_number 12
_symmetry_cell_setting 'monoclinic'
loop_
_space_group_symop_operation_xyz
x,y,z
-x,y,-z
-x,-y,-z
x,-y,z
1/2+x,1/2+y,z
1/2-x,1/2+y,-z
1/2-x,1/2-y,-z
1/2+x,1/2-y,z
loop_
_atom_site_type_symbol
_atom_site_label
_atom_site_fract_x
_atom_site_fract_y
_atom_site_fract_z
Si Si1 0.111169 0.854523 0.946732
Si Si2 0.731556 0.352207 0.486751
Si Si3 0.500000 0.732677 0.500000
Si Si4 0.218349 0.270667 0.356620
Si Si5 0.483736 0.358280 0.728027
Si Si6 0.215802 0.000000 0.519354
Si Si7 0.002096 0.000000 0.625956
Si Si8 0.126466 0.000000 0.858569
O O1 0.190293 0.796798 0.819549
O O2 0.165605 0.929903 0.875917
O O3 0.092464 0.835044 0.093026
O O4 0.000000 0.851589 0.000000
O O5 0.790551 0.314164 0.523217
O O6 0.745520 0.308529 0.360110
O O7 0.605157 0.358918 0.645251
O O8 0.781704 0.429270 0.428422
O O9 0.603577 0.778107 0.418499
O O10 0.531229 0.688478 0.361606
O O11 0.445078 0.433899 0.736110
O O12 0.126416 0.000000 0.521570
O O13 0.166148 0.000000 0.692667
O O14 0.000000 0.000000 0.500000
O O15 0.000000 0.000000 0.000000
#
# Coordination Sequence:
#
# PCOD8078211 Si02
#       8
#     8   8   4   8   8   4   4   4
#     4  11  18  30  51  76 101 125 162 207 250 288
#     4   9  17  31  51  71  99 125 168 203 239 292
#     4  10  22  33  46  65 104 138 168 196 238 290
#     4  10  19  32  48  73 102 132 162 205 241 291
#     4  10  18  31  47  74 101 131 160 197 248 304
#     4  10  16  28  48  74  91 126 162 206 245 286
#     4  10  16  26  46  72 104 133 152 187 251 318
#     4  10  16  26  44  77 101 119 150 205 250 291
#
# _framework density 16.041326999999999
#
# number of rings (size 3 to 8) (size 9 to 14) (size 15 to 20)
#    0.000    2.000    4.167    3.500    0.000    0.667 
#    0.000    0.000    0.000    2.000    0.000    0.583 
#    0.000    0.000    0.000    0.000    0.000    0.000 
#
# Total GULP energy -297434.589553 kJ/mol
# GULP energy per Si atom -12393.107898 kJ/mol
# Density = 1.600482 g / cm^3
# Si number density = 16.041327 Si / 1000 Ang^3
#
#
#
# Elastic Constant Matrix: (Units=GPa)
#
#
# Indices 1 2 3 4 5 6 
#
# 1 84.2830 31.5009 33.9739 0.0000 9.3953 0.0000
# 2 31.5009 117.4925 52.1135 0.0000 -1.4712 0.0000
# 3 33.9739 52.1135 96.9147 0.0000 14.9890 0.0000
# 4 0.0000 0.0000 0.0000 27.7371 0.0000 2.4611
# 5 9.3953 -1.4712 14.9890 0.0000 22.6782 0.0000
# 6 0.0000 0.0000 0.0000 2.4611 0.0000 16.2453
#
#
#
# Elastic Compliance Matrix: (Units=1/GPa)
#
#
# Indices 1 2 3 4 5 6 
#
# 1 0.014530 -0.002593 -0.003054 0.000000 -0.004169 0.000000
# 2 -0.002593 0.012226 -0.006632 0.000000 0.006251 0.000000
# 3 -0.003054 -0.006632 0.016514 0.000000 -0.010080 0.000000
# 4 0.000000 0.000000 0.000000 0.036544 0.000000 -0.005536
# 5 -0.004169 0.006251 -0.010080 0.000000 0.052890 0.000000
# 6 0.000000 0.000000 0.000000 -0.005536 0.000000 0.062395
#
#
# Mechanical properties :
#
#
# Convention : Reuss Voigt Hill
#
# Bulk Modulus (GPa) = 53.44353 59.31852 56.38102
# Shear Modulus (GPa) = 22.13409 25.40559 23.76984
#
# Velocity S-wave (km/s) = 3.71862 3.98396 3.85358
# Velocity P-wave (km/s) = 7.19903 7.63030 7.41780
#
# Compressibility (1/GPa) = 0.01871134
#
# Stress axis : x y z
#
# Youngs Moduli (GPa) = 68.82372 81.79049 60.55340
#
# Poissons Ratio (x) = 0.21209 0.18495
# Poissons Ratio (y) = 0.17846 0.40160
# Poissons Ratio (z) = 0.21021 0.54245
#
# Static dielectric constant tensor:
#      x y z
#    x 2.904940 0.000000 0.220020 
#    y 0.000000 3.501090 0.000000 
#    z 0.220020 0.000000 2.826960 
# 
# 
# High freq. dielectric constant tensor:
#      x y z
#    x 1.593920 0.000000 0.034290 
#    y 0.000000 1.625440 0.000000 
#    z 0.034290 0.000000 1.590040 
# 
# From -- ./inp_files/157703.got.cif
#   From: 2010.06.25/outbox.cif.g09.slc.cpg/sg12_79_cif.got.tgz:157703.got - 2010.06.28 00:19:55.
