data_PCOD8078703
_publ_section_title
;
Structure prediction by ZEFSAII (Michael W. Deem and Ramdas Pophale) SiO2 
 PCOD8078703
Probable space group: C 2/M
;
_chemical_formula_sum "Si O2"
_cell_formula_units_Z 64
_cell_length_a 18.275325
_cell_length_b 13.204310
_cell_length_c 17.876183
_cell_angle_alpha 90.000000
_cell_angle_beta 112.115676
_cell_angle_gamma 90.000000
_cell_volume 3996.374593
_symmetry_space_group_name_H-M "C 2/M"
_symmetry_group_IT_number 12
_symmetry_cell_setting 'monoclinic'
loop_
_space_group_symop_operation_xyz
x,y,z
-x,y,-z
-x,-y,-z
x,-y,z
1/2+x,1/2+y,z
1/2-x,1/2+y,-z
1/2-x,1/2-y,-z
1/2+x,1/2-y,z
loop_
_atom_site_type_symbol
_atom_site_label
_atom_site_fract_x
_atom_site_fract_y
_atom_site_fract_z
Si Si1 0.273313 0.880116 0.290161
Si Si2 0.345042 0.308405 0.976347
Si Si3 0.675249 0.115274 0.940477
Si Si4 0.438548 0.615193 0.151320
Si Si5 0.100569 0.699963 0.773459
Si Si6 0.891852 0.117697 0.839649
Si Si7 0.488650 0.885501 0.617457
Si Si8 0.122900 0.386740 0.544751
O O1 0.324101 0.817357 0.250016
O O2 0.181466 0.856661 0.242863
O O3 0.297666 0.843248 0.384494
O O4 0.292482 0.000000 0.287783
O O5 0.258948 0.358095 0.934923
O O6 0.388598 0.316423 0.913837
O O7 0.339822 0.189412 0.995151
O O8 0.392498 0.371095 0.056265
O O9 0.608832 0.131106 0.851102
O O10 0.672967 0.000000 0.968605
O O11 0.431088 0.500000 0.175292
O O12 0.400643 0.682805 0.202187
O O13 0.529542 0.647110 0.174639
O O14 0.016901 0.676324 0.700965
O O15 0.892023 0.000000 0.862967
O O16 0.559082 0.886279 0.585736
O O17 0.412432 0.833939 0.544662
O O18 0.469664 0.000000 0.635580
O O19 0.140026 0.500000 0.524541
#
# Coordination Sequence:
#
# PCOD8078703 Si02
#       8
#     8   8   8   8   8   8   8   8
#     4   9  15  25  45  70  90 107 133 171 217 259
#     4  10  19  29  45  64  83 112 145 177 211 249
#     4  10  18  28  43  66  91 110 136 175 215 252
#     4  10  21  32  42  60  85 114 147 182 214 246
#     4  10  17  26  43  64  86 113 139 172 212 254
#     4  10  18  30  47  63  84 111 144 182 215 250
#     4   8  12  20  37  62  90 111 129 160 209 261
#     4   7  11  19  34  62  92 109 125 160 209 258
#
# _framework density 16.014513999999998
#
# number of rings (size 3 to 8) (size 9 to 14) (size 15 to 20)
#    0.000    2.750    1.250    4.125    0.000    1.000 
#    0.000    0.000    0.000    8.250    0.000    7.000 
#    0.000    0.000    0.000    0.000    0.000    0.000 
#
# Total GULP energy -396460.333509 kJ/mol
# GULP energy per Si atom -12389.385422 kJ/mol
# Density = 1.597806 g / cm^3
# Si number density = 16.014514 Si / 1000 Ang^3
#
#
#
# Elastic Constant Matrix: (Units=GPa)
#
#
# Indices 1 2 3 4 5 6 
#
# 1 53.6403 26.6577 33.3927 0.0000 12.5537 0.0000
# 2 26.6577 75.1113 29.8210 0.0000 5.1169 0.0000
# 3 33.3927 29.8210 97.8759 0.0000 36.7685 0.0000
# 4 0.0000 0.0000 0.0000 17.3385 0.0000 0.1039
# 5 12.5537 5.1169 36.7685 0.0000 19.2921 0.0000
# 6 0.0000 0.0000 0.0000 0.1039 0.0000 15.8670
#
#
#
# Elastic Compliance Matrix: (Units=1/GPa)
#
#
# Indices 1 2 3 4 5 6 
#
# 1 0.026555 -0.007390 -0.003708 0.000000 -0.008253 0.000000
# 2 -0.007390 0.018930 -0.011149 0.000000 0.021037 0.000000
# 3 -0.003708 -0.011149 0.045283 0.000000 -0.080935 0.000000
# 4 0.000000 0.000000 0.000000 0.057678 0.000000 -0.000378
# 5 -0.008253 0.021037 -0.080935 0.000000 0.205877 0.000000
# 6 0.000000 0.000000 0.000000 -0.000378 0.000000 0.063026
#
#
# Mechanical properties :
#
#
# Convention : Reuss Voigt Hill
#
# Bulk Modulus (GPa) = 21.61047 45.15225 33.38136
# Shear Modulus (GPa) = 10.47630 19.61660 15.04645
#
# Velocity S-wave (km/s) = 2.56046 3.50369 3.06853
# Velocity P-wave (km/s) = 4.71857 6.68009 5.78310
#
# Compressibility (1/GPa) = 0.04627387
#
# Stress axis : x y z
#
# Youngs Moduli (GPa) = 37.65730 52.82692 22.08325
#
# Poissons Ratio (x) = 0.39041 0.08188
# Poissons Ratio (y) = 0.27830 0.24620
# Poissons Ratio (z) = 0.13963 0.58896
#
# Static dielectric constant tensor:
#      x y z
#    x 2.944650 0.000000 0.508490 
#    y 0.000000 2.793270 0.000000 
#    z 0.508490 0.000000 3.322650 
# 
# 
# High freq. dielectric constant tensor:
#      x y z
#    x 1.589190 0.000000 0.038980 
#    y 0.000000 1.580820 0.000000 
#    z 0.038980 0.000000 1.619380 
# 
# From -- ./inp_files/224833.got.cif
#   From: 2010.06.25/outbox.cif.g09.slc.cpg/sg12_113_cif.got.tgz:224833.got - 2010.06.28 00:19:55.
