data_PCOD8078177
_publ_section_title
;
Structure prediction by ZEFSAII (Michael W. Deem and Ramdas Pophale) SiO2 
 PCOD8078177
Probable space group: C 2/M
;
_chemical_formula_sum "Si O2"
_cell_formula_units_Z 48
_cell_length_a 5.280621
_cell_length_b 15.580218
_cell_length_c 30.265585
_cell_angle_alpha 90.000000
_cell_angle_beta 64.288832
_cell_angle_gamma 90.000000
_cell_volume 2243.513905
_symmetry_space_group_name_H-M "C 2/M"
_symmetry_group_IT_number 12
_symmetry_cell_setting 'monoclinic'
loop_
_space_group_symop_operation_xyz
x,y,z
-x,y,-z
-x,-y,-z
x,-y,z
1/2+x,1/2+y,z
1/2-x,1/2+y,-z
1/2-x,1/2-y,-z
1/2+x,1/2-y,z
loop_
_atom_site_type_symbol
_atom_site_label
_atom_site_fract_x
_atom_site_fract_y
_atom_site_fract_z
Si Si1 0.772179 0.398406 0.192300
Si Si2 0.317626 0.397650 0.972804
Si Si3 0.004261 0.805523 0.707395
Si Si4 0.861262 0.842266 0.557757
Si Si5 0.906588 0.102392 0.138283
Si Si6 0.758347 0.651058 0.599139
O O1 0.779386 0.500000 0.189254
O O2 0.635008 0.371771 0.248605
O O3 0.589170 0.361443 0.165401
O O4 0.089142 0.361541 0.165559
O O5 0.315421 0.500000 0.973697
O O6 0.455747 0.363325 0.917265
O O7 0.500000 0.362118 0.000000
O O8 0.000000 0.362126 0.000000
O O9 0.775403 0.736093 0.709809
O O10 0.105506 0.860172 0.657533
O O11 0.801801 0.751097 0.584869
O O12 0.566398 0.893491 0.576327
O O13 0.000000 0.828371 0.500000
O O14 0.071359 0.893195 0.574748
O O15 0.904709 0.000000 0.139101
#
# Coordination Sequence:
#
# PCOD8078177 Si02
#       6
#     8   8   8   8   8   8
#     4  10  21  35  52  72 100 139 174 203 244 298
#     4   9  15  23  40  67  97 127 156 193 248 303
#     4  12  21  35  52  73 102 133 168 212 256 290
#     4  10  16  25  41  63  96 126 151 185 245 309
#     4   9  17  31  47  68 101 135 165 203 248 297
#     4  10  16  27  39  63  93 125 147 193 245 289
#
# _framework density 21.395007
#
# number of rings (size 3 to 8) (size 9 to 14) (size 15 to 20)
#    0.000    2.000    3.333    4.500    0.000    4.000 
#    0.000    0.000    0.000    0.000    0.000    0.000 
#    0.000   54.000    0.000    0.000    0.000    0.000 
#
# Total GULP energy -297528.500779 kJ/mol
# GULP energy per Si atom -12397.020866 kJ/mol
# Density = 2.134631 g / cm^3
# Si number density = 21.395007 Si / 1000 Ang^3
#
#
#
# Elastic Constant Matrix: (Units=GPa)
#
#
# Indices 1 2 3 4 5 6 
#
# 1 227.7192 5.3588 89.6939 0.0000 -0.6693 0.0001
# 2 5.3588 4.1743 6.1793 0.0000 0.1789 0.0000
# 3 89.6939 6.1793 211.1878 -0.0001 -2.9744 0.0001
# 4 0.0000 0.0000 -0.0001 12.9387 0.0000 -1.8623
# 5 -0.6693 0.1789 -2.9744 0.0000 46.7938 0.0000
# 6 0.0001 0.0000 0.0001 -1.8623 0.0000 -0.5278
#
#
#
# Elastic Compliance Matrix: (Units=1/GPa)
#
#
# Indices 1 2 3 4 5 6 
#
# 1 0.005326 -0.003644 -0.002156 0.000000 -0.000047 0.000000
# 2 -0.003644 0.252997 -0.005875 0.000001 -0.001393 0.000003
# 3 -0.002156 -0.005875 0.005828 0.000000 0.000362 0.000000
# 4 0.000000 0.000001 0.000000 0.051255 0.000000 -0.180865
# 5 -0.000047 -0.001393 0.000362 0.000000 0.021398 0.000000
# 6 0.000000 0.000003 0.000000 -0.180865 0.000000 -1.256586
#
#
# Mechanical properties :
#
#
# Convention : Reuss Voigt Hill
#
# Bulk Modulus (GPa) = 4.15280 71.72726 37.94003
# Shear Modulus (GPa) = -6.12621 34.63089 14.25234
#
# Velocity S-wave (km/s) = -1.69399 4.02760 2.58379
# Velocity P-wave (km/s) = 1.37146 7.43147 5.16458
#
# Compressibility (1/GPa) = 0.24080165
#
# Stress axis : x y z
#
# Youngs Moduli (GPa) = 187.74916 3.95262 171.58965
#
# Poissons Ratio (x) = 0.01440 0.36998
# Poissons Ratio (y) = 0.68414 1.00802
# Poissons Ratio (z) = 0.40482 0.02322
#
# Static dielectric constant tensor:
#      x y z
#    x 8.509510 0.000000 0.187130 
#    y 0.000000 2.911580 0.000000 
#    z 0.187130 0.000000 4.037480 
# 
# 
# High freq. dielectric constant tensor:
#      x y z
#    x 1.875660 0.000000 0.000440 
#    y 0.000000 1.756200 0.000000 
#    z 0.000440 0.000000 1.856280 
# 
# From -- ./inp_files/331156.got.cif
#   From: 2010.06.25/outbox.cif.g09.slc.cpg/sg12_166_cif.got.tgz:331156.got - 2010.06.28 00:19:55.
