data_PCOD8078938
_publ_section_title
;
Structure prediction by ZEFSAII (Michael W. Deem and Ramdas Pophale) SiO2 
 PCOD8078938
Probable space group: C 2/M
;
_chemical_formula_sum "Si O2"
_cell_formula_units_Z 64
_cell_length_a 19.606300
_cell_length_b 14.052638
_cell_length_c 28.200595
_cell_angle_alpha 90.000000
_cell_angle_beta 26.976294
_cell_angle_gamma 90.000000
_cell_volume 3524.566427
_symmetry_space_group_name_H-M "C 2/M"
_symmetry_group_IT_number 12
_symmetry_cell_setting 'monoclinic'
loop_
_space_group_symop_operation_xyz
x,y,z
-x,y,-z
-x,-y,-z
x,-y,z
1/2+x,1/2+y,z
1/2-x,1/2+y,-z
1/2-x,1/2-y,-z
1/2+x,1/2-y,z
loop_
_atom_site_type_symbol
_atom_site_label
_atom_site_fract_x
_atom_site_fract_y
_atom_site_fract_z
Si Si1 0.796285 0.892374 0.764201
Si Si2 0.481075 0.300628 0.204165
Si Si3 0.364752 0.609252 0.444325
Si Si4 0.651333 0.604368 0.796148
Si Si5 0.732290 0.275832 0.580126
Si Si6 0.756751 0.886098 0.896024
Si Si7 0.530769 0.207344 0.883056
Si Si8 0.508823 0.890599 0.439753
O O1 0.783300 0.851611 0.825843
O O2 0.691383 0.842510 0.790571
O O3 0.966476 0.884258 0.639984
O O4 0.741534 0.000000 0.800989
O O5 0.411838 0.391095 0.218902
O O6 0.352668 0.261226 0.318183
O O7 0.630007 0.331443 0.139363
O O8 0.513180 0.215484 0.145813
O O9 0.309034 0.500000 0.477676
O O10 0.368147 0.653244 0.389458
O O11 0.249828 0.670658 0.547114
O O12 0.620346 0.500000 0.836733
O O13 0.561463 0.683637 0.882837
O O14 0.828450 0.626584 0.684134
O O15 0.896193 0.322530 0.481701
O O16 0.771570 0.000000 0.893048
O O17 0.591038 0.850425 0.012141
O O18 0.500000 0.861539 0.500000
O O19 0.458909 0.000000 0.464426
#
# Coordination Sequence:
#
# PCOD8078938 Si02
#       8
#     8   8   8   8   8   8   8   8
#     4  10  20  37  60  86 114 145 187 234 279 330
#     4  10  21  35  55  82 113 146 183 233 282 329
#     4  10  22  36  55  82 111 147 187 229 279 335
#     4   9  19  32  51  79 112 144 180 229 275 326
#     4  11  20  35  57  79 111 150 186 228 276 339
#     4  11  21  36  61  87 111 143 191 239 281 328
#     4  10  21  35  54  85 116 146 180 235 288 333
#     4  10  17  27  49  80 106 135 179 227 273 318
#
# _framework density 18.158262000000001
#
# number of rings (size 3 to 8) (size 9 to 14) (size 15 to 20)
#    0.750    1.125    2.500    2.625    0.000    2.000 
#    0.000    1.250    0.000    4.125    0.000    0.000 
#    0.000    0.000    0.000    0.000    0.000    0.000 
#
# Total GULP energy -396546.758707 kJ/mol
# GULP energy per Si atom -12392.086210 kJ/mol
# Density = 1.811693 g / cm^3
# Si number density = 18.158262 Si / 1000 Ang^3
#
#
#
# Elastic Constant Matrix: (Units=GPa)
#
#
# Indices 1 2 3 4 5 6 
#
# 1 55.4602 31.4991 13.6410 0.0012 -10.4472 0.0025
# 2 31.4991 84.8526 26.9183 -0.0076 -2.7806 -0.0003
# 3 13.6410 26.9183 50.6571 -0.0312 -7.6127 -0.0003
# 4 0.0012 -0.0076 -0.0312 24.9962 -0.0068 -4.6083
# 5 -10.4472 -2.7806 -7.6127 -0.0068 25.8613 -0.0001
# 6 0.0025 -0.0003 -0.0003 -4.6083 -0.0001 24.6021
#
#
#
# Elastic Compliance Matrix: (Units=1/GPa)
#
#
# Indices 1 2 3 4 5 6 
#
# 1 0.024819 -0.008690 -0.000731 -0.000003 0.008876 -0.000003
# 2 -0.008690 0.017231 -0.007392 -0.000005 -0.003834 0.000000
# 3 -0.000731 -0.007392 0.024799 0.000032 0.006210 0.000006
# 4 -0.000003 -0.000005 0.000032 0.041437 0.000018 0.007762
# 5 0.008876 -0.003834 0.006210 0.000018 0.043669 0.000003
# 6 -0.000003 0.000000 0.000006 0.007762 0.000003 0.042101
#
#
# Mechanical properties :
#
#
# Convention : Reuss Voigt Hill
#
# Bulk Modulus (GPa) = 30.10199 37.23186 33.66693
# Shear Modulus (GPa) = 20.94189 23.01936 21.98062
#
# Velocity S-wave (km/s) = 3.39971 3.56435 3.48300
# Velocity P-wave (km/s) = 5.65900 6.12275 5.89544
#
# Compressibility (1/GPa) = 0.03322039
#
# Stress axis : x y z
#
# Youngs Moduli (GPa) = 40.29226 58.03638 40.32465
#
# Poissons Ratio (x) = 0.50435 0.02949
# Poissons Ratio (y) = 0.35015 0.29808
# Poissons Ratio (z) = 0.02947 0.42901
#
# Static dielectric constant tensor:
#      x y z
#    x 3.273430 0.000000 -0.146190 
#    y 0.000000 3.267820 0.000020 
#    z -0.146190 0.000020 3.172570 
# 
# 
# High freq. dielectric constant tensor:
#      x y z
#    x 1.694870 0.000000 -0.019710 
#    y 0.000000 1.696530 0.000000 
#    z -0.019710 0.000000 1.697830 
# 
# From -- ./inp_files/379344.got.cif
#   From: 2010.06.25/outbox.cif.g09.slc.cpg/sg12_190_cif.got.tgz:379344.got - 2010.06.28 00:19:55.
