data_PCOD8078497
_publ_section_title
;
Structure prediction by ZEFSAII (Michael W. Deem and Ramdas Pophale) SiO2 
 PCOD8078497
Probable space group: C 2/M
;
_chemical_formula_sum "Si O2"
_cell_formula_units_Z 40
_cell_length_a 16.016882
_cell_length_b 14.357040
_cell_length_c 13.816188
_cell_angle_alpha 90.000000
_cell_angle_beta 57.591127
_cell_angle_gamma 90.000000
_cell_volume 2682.252042
_symmetry_space_group_name_H-M "C 2/M"
_symmetry_group_IT_number 12
_symmetry_cell_setting 'monoclinic'
loop_
_space_group_symop_operation_xyz
x,y,z
-x,y,-z
-x,-y,-z
x,-y,z
1/2+x,1/2+y,z
1/2-x,1/2+y,-z
1/2-x,1/2-y,-z
1/2+x,1/2-y,z
loop_
_atom_site_type_symbol
_atom_site_label
_atom_site_fract_x
_atom_site_fract_y
_atom_site_fract_z
Si Si1 0.547645 0.103933 0.267530
Si Si2 0.328716 0.102140 0.485954
Si Si3 0.110211 0.267860 0.391327
Si Si4 0.461241 0.889214 0.125400
Si Si5 0.749533 0.108632 0.670404
O O1 0.440072 0.097123 0.380154
O O2 0.612852 0.176202 0.288469
O O3 0.536264 0.141723 0.164520
O O4 0.595633 0.000000 0.240200
O O5 0.319507 0.177009 0.576998
O O6 0.257557 0.127287 0.440513
O O7 0.299823 0.000000 0.544901
O O8 0.158229 0.166682 0.344855
O O9 0.000000 0.255269 0.500000
O O10 0.349877 0.854774 0.215046
O O11 0.459657 0.000000 0.124337
O O12 0.500000 0.846996 0.000000
O O13 0.768473 0.000000 0.680359
#
# Coordination Sequence:
#
# PCOD8078497 Si02
#       5
#     8   8   8   8   8
#     4   8  14  24  39  60  79  94 121 159 194 225
#     4   8  14  25  40  56  75 100 128 158 188 216
#     4  10  17  24  37  57  83 108 123 145 185 226
#     4   8  14  27  45  58  70  93 125 164 202 223
#     4   9  17  27  38  55  78 103 132 156 176 219
#
# _framework density 14.912841999999999
#
# number of rings (size 3 to 8) (size 9 to 14) (size 15 to 20)
#    0.000    3.400    0.000    3.600    0.000    2.800 
#    0.000    1.000    0.000    0.000    0.000    0.000 
#    0.000    4.000    0.000    0.000    0.000    0.000 
#
# Total GULP energy -247850.467776 kJ/mol
# GULP energy per Si atom -12392.523389 kJ/mol
# Density = 1.487890 g / cm^3
# Si number density = 14.912842 Si / 1000 Ang^3
#
#
#
# Elastic Constant Matrix: (Units=GPa)
#
#
# Indices 1 2 3 4 5 6 
#
# 1 65.7399 48.9940 33.4818 0.0000 13.7033 0.0000
# 2 48.9940 75.4175 33.0683 0.0000 10.6469 0.0000
# 3 33.4818 33.0683 77.8234 0.0000 18.3146 0.0000
# 4 0.0000 0.0000 0.0000 9.4482 0.0000 0.4819
# 5 13.7033 10.6469 18.3146 0.0000 17.1316 0.0000
# 6 0.0000 0.0000 0.0000 0.4819 0.0000 27.0571
#
#
#
# Elastic Compliance Matrix: (Units=1/GPa)
#
#
# Indices 1 2 3 4 5 6 
#
# 1 0.033061 -0.018220 -0.003906 0.000000 -0.010946 0.000000
# 2 -0.018220 0.026508 -0.003979 0.000000 0.002353 0.000000
# 3 -0.003906 -0.003979 0.019913 0.000000 -0.015692 0.000000
# 4 0.000000 0.000000 0.000000 0.105937 0.000000 -0.001887
# 5 -0.010946 0.002353 -0.015692 0.000000 0.082440 0.000000
# 6 0.000000 0.000000 0.000000 -0.001887 0.000000 0.036992
#
#
# Mechanical properties :
#
#
# Convention : Reuss Voigt Hill
#
# Bulk Modulus (GPa) = 36.66537 50.00768 43.33653
# Shear Modulus (GPa) = 13.65551 17.62315 15.63933
#
# Velocity S-wave (km/s) = 3.02932 3.44138 3.24190
# Velocity P-wave (km/s) = 6.07252 7.02829 6.56781
#
# Compressibility (1/GPa) = 0.02727369
#
# Stress axis : x y z
#
# Youngs Moduli (GPa) = 30.24691 37.72417 50.21724
#
# Poissons Ratio (x) = 0.68733 0.19615
# Poissons Ratio (y) = 0.55109 0.19980
# Poissons Ratio (z) = 0.11814 0.15010
#
# Static dielectric constant tensor:
#      x y z
#    x 2.768030 0.000000 0.351210 
#    y 0.000000 2.777410 0.000000 
#    z 0.351210 0.000000 3.006310 
# 
# 
# High freq. dielectric constant tensor:
#      x y z
#    x 1.551490 0.000000 0.026140 
#    y 0.000000 1.553370 0.000000 
#    z 0.026140 0.000000 1.545590 
# 
# From -- ./inp_files/129153.got.cif
#   From: 2010.06.25/outbox.cif.g09.slc.cpg/sg12_65_cif.got.tgz:129153.got - 2010.06.28 00:19:55.
