data_PCOD8078455
_publ_section_title
;
Structure prediction by ZEFSAII (Michael W. Deem and Ramdas Pophale) SiO2 
 PCOD8078455
Probable space group: C 2/M
;
_chemical_formula_sum "Si O2"
_cell_formula_units_Z 44
_cell_length_a 8.994494
_cell_length_b 27.908130
_cell_length_c 9.090786
_cell_angle_alpha 90.000000
_cell_angle_beta 89.359787
_cell_angle_gamma 90.000000
_cell_volume 2281.822172
_symmetry_space_group_name_H-M "C 2/M"
_symmetry_group_IT_number 12
_symmetry_cell_setting 'monoclinic'
loop_
_space_group_symop_operation_xyz
x,y,z
-x,y,-z
-x,-y,-z
x,-y,z
1/2+x,1/2+y,z
1/2-x,1/2+y,-z
1/2-x,1/2-y,-z
1/2+x,1/2-y,z
loop_
_atom_site_type_symbol
_atom_site_label
_atom_site_fract_x
_atom_site_fract_y
_atom_site_fract_z
Si Si1 0.958094 0.296402 0.162024
Si Si2 0.518725 0.000000 0.828988
Si Si3 0.730415 0.101532 0.451872
Si Si4 0.831393 0.500000 0.571857
Si Si5 0.948890 0.603682 0.266639
Si Si6 0.500000 0.663624 0.500000
Si Si7 0.681763 0.738794 0.341004
O O1 0.937073 0.354053 0.147032
O O2 0.805383 0.272807 0.218545
O O3 0.087770 0.283598 0.278609
O O4 0.000000 0.276259 0.000000
O O5 0.602296 0.949520 0.787395
O O6 0.359504 0.000000 0.747854
O O7 0.500000 0.000000 0.000000
O O8 0.764306 0.045301 0.479087
O O9 0.620204 0.102966 0.315105
O O10 0.654516 0.122105 0.599403
O O11 0.879094 0.130842 0.418215
O O12 0.000000 0.500000 0.500000
O O13 0.569201 0.694605 0.366725
O O14 0.750000 0.750000 0.500000
#
# Coordination Sequence:
#
# PCOD8078455 Si02
#       7
#     8   4   8   4   8   4   8
#     4  12  25  40  60  91 123 156 199 254 308 356
#     4  10  18  32  56  90 114 142 192 241 285 357
#     4  10  19  33  59  88 115 151 199 251 286 354
#     4  10  16  35  56  85 117 155 192 246 298 338
#     4  10  19  35  60  84 117 153 195 240 300 351
#     4  12  22  35  60  90 116 149 208 248 300 342
#     4  12  24  42  63  85 117 163 208 249 295 363
#
# _framework density 19.282836
#
# number of rings (size 3 to 8) (size 9 to 14) (size 15 to 20)
#    0.000    1.091    7.273    2.182    2.545    0.364 
#    0.000    0.000    0.000    0.000    0.000    2.545 
#    0.000    0.000    0.000    0.000    0.000    0.000 
#
# Total GULP energy -272614.874415 kJ/mol
# GULP energy per Si atom -12391.585201 kJ/mol
# Density = 1.923895 g / cm^3
# Si number density = 19.282836 Si / 1000 Ang^3
#
#
#
# Elastic Constant Matrix: (Units=GPa)
#
#
# Indices 1 2 3 4 5 6 
#
# 1 88.6126 44.5962 31.1997 0.0000 -13.7798 0.0000
# 2 44.5962 126.5197 20.7953 0.0000 -6.9556 0.0000
# 3 31.1997 20.7953 98.8369 0.0000 -11.6092 0.0000
# 4 0.0000 0.0000 0.0000 22.1989 0.0000 3.6310
# 5 -13.7798 -6.9556 -11.6092 0.0000 26.9375 0.0000
# 6 0.0000 0.0000 0.0000 3.6310 0.0000 37.2581
#
#
#
# Elastic Compliance Matrix: (Units=1/GPa)
#
#
# Indices 1 2 3 4 5 6 
#
# 1 0.015641 -0.004672 -0.003324 0.000000 0.005362 0.000000
# 2 -0.004672 0.009636 -0.000570 0.000000 -0.000147 0.000000
# 3 -0.003324 -0.000570 0.011660 0.000000 0.003177 0.000000
# 4 0.000000 0.000000 0.000000 0.045777 0.000000 -0.004461
# 5 0.005362 -0.000147 0.003177 0.000000 0.041197 0.000000
# 6 0.000000 0.000000 0.000000 -0.004461 0.000000 0.027275
#
#
# Mechanical properties :
#
#
# Convention : Reuss Voigt Hill
#
# Bulk Modulus (GPa) = 50.49390 56.35018 53.42204
# Shear Modulus (GPa) = 28.58452 31.77079 30.17766
#
# Velocity S-wave (km/s) = 3.85435 4.06349 3.96030
# Velocity P-wave (km/s) = 6.78607 7.16257 6.97686
#
# Compressibility (1/GPa) = 0.01980437
#
# Stress axis : x y z
#
# Youngs Moduli (GPa) = 63.93610 103.77466 85.76145
#
# Poissons Ratio (x) = 0.48482 0.28511
# Poissons Ratio (y) = 0.29870 0.04888
# Poissons Ratio (z) = 0.21256 0.05915
#
# Static dielectric constant tensor:
#      x y z
#    x 3.378560 0.000000 -0.074370 
#    y 0.000000 3.975010 0.000000 
#    z -0.074370 0.000000 3.363820 
# 
# 
# High freq. dielectric constant tensor:
#      x y z
#    x 1.718430 0.000000 -0.006310 
#    y 0.000000 1.775160 0.000000 
#    z -0.006310 0.000000 1.729690 
# 
# From -- ./inp_files/41696.got.cif
#   From: 2010.06.25/outbox.cif.g09.slc.cpg/sg12_21_cif.got.tgz:41696.got - 2010.06.28 00:19:55.
