data_PCOD8078807
_publ_section_title
;
Structure prediction by ZEFSAII (Michael W. Deem and Ramdas Pophale) SiO2 
 PCOD8078807
Probable space group: C 2/M
;
_chemical_formula_sum "Si O2"
_cell_formula_units_Z 48
_cell_length_a 29.161962
_cell_length_b 13.243430
_cell_length_c 29.038140
_cell_angle_alpha 90.000000
_cell_angle_beta 164.435229
_cell_angle_gamma 90.000000
_cell_volume 3009.201659
_symmetry_space_group_name_H-M "C 2/M"
_symmetry_group_IT_number 12
_symmetry_cell_setting 'monoclinic'
loop_
_space_group_symop_operation_xyz
x,y,z
-x,y,-z
-x,-y,-z
x,-y,z
1/2+x,1/2+y,z
1/2-x,1/2+y,-z
1/2-x,1/2-y,-z
1/2+x,1/2-y,z
loop_
_atom_site_type_symbol
_atom_site_label
_atom_site_fract_x
_atom_site_fract_y
_atom_site_fract_z
Si Si1 0.348517 0.883826 0.253425
Si Si2 0.750232 0.619622 0.060652
Si Si3 0.698771 0.385771 0.200293
Si Si4 0.759259 0.616781 0.359116
Si Si5 0.609259 0.696572 0.302612
Si Si6 0.604857 0.115450 0.356515
O O1 0.256051 0.837797 0.118958
O O2 0.291193 0.830757 0.246150
O O3 0.548261 0.873316 0.437704
O O4 0.292336 0.000000 0.203500
O O5 0.733563 0.500000 0.045166
O O6 0.925793 0.650580 0.205494
O O7 0.586977 0.666045 0.876594
O O8 0.768718 0.500000 0.271577
O O9 0.742639 0.334899 0.291843
O O10 0.500000 0.381306 0.000000
O O11 0.696559 0.500000 0.299246
O O12 0.642438 0.681881 0.280431
O O13 0.638767 0.813099 0.345290
O O14 0.739815 0.625686 0.457095
O O15 0.597082 0.000000 0.332005
#
# Coordination Sequence:
#
# PCOD8078807 Si02
#       6
#     8   8   8   8   8   8
#     4   9  16  26  40  61  91 123 148 178 217 265
#     4  10  18  30  48  68  93 121 151 184 224 271
#     4   9  16  24  36  59  89 121 152 177 211 263
#     4  10  17  27  42  62  91 122 152 182 219 264
#     4  11  20  31  50  68  87 123 157 186 226 273
#     4  10  21  35  47  66  93 118 152 195 231 266
#
# _framework density 15.951076
#
# number of rings (size 3 to 8) (size 9 to 14) (size 15 to 20)
#    0.000    2.167    1.667    3.500    0.000    4.667 
#    0.000    0.000    0.000    0.000    0.000    0.000 
#    0.000    8.667    0.000    0.000    0.000    0.333 
#
# Total GULP energy -297479.586653 kJ/mol
# GULP energy per Si atom -12394.982777 kJ/mol
# Density = 1.591477 g / cm^3
# Si number density = 15.951076 Si / 1000 Ang^3
#
#
#
# Elastic Constant Matrix: (Units=GPa)
#
#
# Indices 1 2 3 4 5 6 
#
# 1 90.4005 38.0885 26.1407 0.0251 0.1044 0.0007
# 2 38.0885 41.9335 15.1135 0.0004 1.1965 0.0036
# 3 26.1407 15.1135 92.1472 0.0597 1.4856 0.0125
# 4 0.0251 0.0004 0.0597 12.8642 0.0451 0.0057
# 5 0.1044 1.1965 1.4856 0.0451 20.4075 0.0075
# 6 0.0007 0.0036 0.0125 0.0057 0.0075 16.4689
#
#
#
# Elastic Compliance Matrix: (Units=1/GPa)
#
#
# Indices 1 2 3 4 5 6 
#
# 1 0.018531 -0.015900 -0.002666 -0.000027 0.001032 0.000004
# 2 -0.015900 0.039017 -0.001855 0.000046 -0.002071 -0.000005
# 3 -0.002666 -0.001855 0.011925 -0.000047 -0.000746 -0.000008
# 4 -0.000027 0.000046 -0.000047 0.077736 -0.000171 -0.000027
# 5 0.001032 -0.002071 -0.000746 -0.000171 0.049172 -0.000021
# 6 0.000004 -0.000005 -0.000008 -0.000027 -0.000021 0.060721
#
#
# Mechanical properties :
#
#
# Convention : Reuss Voigt Hill
#
# Bulk Modulus (GPa) = 34.92804 42.57407 38.75105
# Shear Modulus (GPa) = 16.26079 19.62402 17.94241
#
# Velocity S-wave (km/s) = 3.19629 3.51132 3.35750
# Velocity P-wave (km/s) = 5.96374 6.57172 6.27510
#
# Compressibility (1/GPa) = 0.02863029
#
# Stress axis : x y z
#
# Youngs Moduli (GPa) = 53.96421 25.62958 83.85916
#
# Poissons Ratio (x) = 0.40752 0.22354
# Poissons Ratio (y) = 0.85805 0.15559
# Poissons Ratio (z) = 0.14385 0.04755
#
# Static dielectric constant tensor:
#      x y z
#    x 3.227450 -0.000020 -0.035760 
#    y -0.000020 2.488730 -0.000040 
#    z -0.035760 -0.000040 3.171310 
# 
# 
# High freq. dielectric constant tensor:
#      x y z
#    x 1.621730 0.000000 0.001050 
#    y 0.000000 1.531520 0.000000 
#    z 0.001050 0.000000 1.635420 
# 
# From -- ./inp_files/94295.got.cif
#   From: 2010.06.25/outbox.cif.g09.slc.cpg/sg12_48_cif.got.tgz:94295.got - 2010.06.28 00:19:55.
