data_PCOD8078718
_publ_section_title
;
Structure prediction by ZEFSAII (Michael W. Deem and Ramdas Pophale) SiO2 
 PCOD8078718
Probable space group: C 2/M
;
_chemical_formula_sum "Si O2"
_cell_formula_units_Z 64
_cell_length_a 26.297142
_cell_length_b 13.739089
_cell_length_c 17.458510
_cell_angle_alpha 90.000000
_cell_angle_beta 38.875406
_cell_angle_gamma 90.000000
_cell_volume 3958.919093
_symmetry_space_group_name_H-M "C 2/M"
_symmetry_group_IT_number 12
_symmetry_cell_setting 'monoclinic'
loop_
_space_group_symop_operation_xyz
x,y,z
-x,y,-z
-x,-y,-z
x,-y,z
1/2+x,1/2+y,z
1/2-x,1/2+y,-z
1/2-x,1/2-y,-z
1/2+x,1/2-y,z
loop_
_atom_site_type_symbol
_atom_site_label
_atom_site_fract_x
_atom_site_fract_y
_atom_site_fract_z
Si Si1 0.476478 0.273372 0.613037
Si Si2 0.043774 0.389348 0.247490
Si Si3 0.171406 0.112644 0.262725
Si Si4 0.653736 0.112596 0.984048
Si Si5 0.357271 0.889846 0.454175
Si Si6 0.151440 0.795282 0.446212
Si Si7 0.591627 0.883792 0.896966
Si Si8 0.289978 0.114662 0.372538
O O1 0.500000 0.241498 0.500000
O O2 0.444812 0.175993 0.690704
O O3 0.406720 0.355054 0.694073
O O4 0.555055 0.319073 0.563654
O O5 0.068299 0.500000 0.240294
O O6 0.952497 0.385870 0.322586
O O7 0.103256 0.342540 0.113633
O O8 0.250058 0.127765 0.117063
O O9 0.183942 0.177253 0.324191
O O10 0.162112 0.000000 0.298396
O O11 0.628002 0.158927 0.933138
O O12 0.629566 0.000000 0.009932
O O13 0.336240 0.820099 0.550788
O O14 0.309815 0.849718 0.435165
O O15 0.331328 0.000000 0.506407
O O16 0.199084 0.855233 0.455238
O O17 0.644761 0.841227 0.764270
O O18 0.595669 0.000000 0.890468
O O19 0.500000 0.845677 0.000000
O O20 0.297147 0.000000 0.362722
#
# Coordination Sequence:
#
# PCOD8078718 Si02
#       8
#     8   8   8   8   8   8   8   8
#     4   9  20  32  45  66  88 119 156 186 224 261
#     4   9  17  31  48  66  91 119 146 183 227 271
#     4  10  19  32  47  66  91 118 149 187 229 267
#     4   9  16  27  44  65  89 117 146 179 224 269
#     4   9  18  30  44  65  94 124 149 181 225 266
#     4  10  18  30  45  64  91 120 154 187 217 264
#     4   9  15  23  38  63  93 120 145 173 212 267
#     4  10  17  26  43  67  94 123 149 179 223 267
#
# _framework density 16.166029000000002
#
# number of rings (size 3 to 8) (size 9 to 14) (size 15 to 20)
#    0.000    2.625    1.250    1.500    0.000    6.500 
#    0.000    1.875    0.000    0.000    0.000    0.875 
#    0.000    0.500    0.000    0.250    0.000    0.000 
#
# Total GULP energy -396644.280705 kJ/mol
# GULP energy per Si atom -12395.133772 kJ/mol
# Density = 1.612923 g / cm^3
# Si number density = 16.166029 Si / 1000 Ang^3
#
#
#
# Elastic Constant Matrix: (Units=GPa)
#
#
# Indices 1 2 3 4 5 6 
#
# 1 100.6055 32.7882 40.5604 0.0000 -7.3695 0.0000
# 2 32.7882 41.8593 37.5216 0.0000 3.4745 0.0000
# 3 40.5604 37.5216 75.8024 0.0000 -0.2180 0.0000
# 4 0.0000 0.0000 0.0000 15.8443 0.0000 3.0906
# 5 -7.3695 3.4745 -0.2180 0.0000 18.2778 0.0000
# 6 0.0000 0.0000 0.0000 3.0906 0.0000 23.0471
#
#
#
# Elastic Compliance Matrix: (Units=1/GPa)
#
#
# Indices 1 2 3 4 5 6 
#
# 1 0.014885 -0.009315 -0.003332 0.000000 0.007733 0.000000
# 2 -0.009315 0.050108 -0.019858 0.000000 -0.013518 0.000000
# 3 -0.003332 -0.019858 0.024812 0.000000 0.002727 0.000000
# 4 0.000000 0.000000 0.000000 0.064810 0.000000 -0.008691
# 5 0.007733 -0.013518 0.002727 0.000000 0.060431 0.000000
# 6 0.000000 0.000000 0.000000 -0.008691 0.000000 0.044555
#
#
# Mechanical properties :
#
#
# Convention : Reuss Voigt Hill
#
# Bulk Modulus (GPa) = 40.32805 48.88973 44.60889
# Shear Modulus (GPa) = 15.02066 18.59363 16.80714
#
# Velocity S-wave (km/s) = 3.05150 3.39509 3.22787
# Velocity P-wave (km/s) = 6.11685 6.75846 6.44564
#
# Compressibility (1/GPa) = 0.02479664
#
# Stress axis : x y z
#
# Youngs Moduli (GPa) = 67.18040 19.95700 40.30277
#
# Poissons Ratio (x) = 0.18590 0.13428
# Poissons Ratio (y) = 0.62578 0.80032
# Poissons Ratio (z) = 0.22383 0.39630
#
# Static dielectric constant tensor:
#      x y z
#    x 3.233670 0.000000 -0.056780 
#    y 0.000000 2.816470 0.000000 
#    z -0.056780 0.000000 3.087480 
# 
# 
# High freq. dielectric constant tensor:
#      x y z
#    x 1.630050 0.000000 -0.008010 
#    y 0.000000 1.581910 0.000000 
#    z -0.008010 0.000000 1.613450 
# 
# From -- ./inp_files/246333.got.cif
#   From: 2010.06.25/outbox.cif.g09.slc.cpg/sg12_124_cif.got.tgz:246333.got - 2010.06.28 00:19:55.
