data_PCOD8078541
_publ_section_title
;
Structure prediction by ZEFSAII (Michael W. Deem and Ramdas Pophale) SiO2 
 PCOD8078541
Probable space group: C 2/M
;
_chemical_formula_sum "Si O2"
_cell_formula_units_Z 64
_cell_length_a 28.248753
_cell_length_b 9.065966
_cell_length_c 23.094266
_cell_angle_alpha 90.000000
_cell_angle_beta 44.670868
_cell_angle_gamma 90.000000
_cell_volume 4158.085063
_symmetry_space_group_name_H-M "C 2/M"
_symmetry_group_IT_number 12
_symmetry_cell_setting 'monoclinic'
loop_
_space_group_symop_operation_xyz
x,y,z
-x,y,-z
-x,-y,-z
x,-y,z
1/2+x,1/2+y,z
1/2-x,1/2+y,-z
1/2-x,1/2-y,-z
1/2+x,1/2-y,z
loop_
_atom_site_type_symbol
_atom_site_label
_atom_site_fract_x
_atom_site_fract_y
_atom_site_fract_z
Si Si1 0.101674 0.674160 0.678257
Si Si2 0.341125 0.166855 0.963244
Si Si3 0.780002 0.333863 0.888889
Si Si4 0.731155 0.670976 0.575108
Si Si5 0.988099 0.174513 0.445748
Si Si6 0.876953 0.667932 0.473963
Si Si7 0.096181 0.828954 0.259604
Si Si8 0.965281 0.827775 0.811743
O O1 0.102145 0.500000 0.687948
O O2 0.165028 0.746788 0.657673
O O3 0.107186 0.716487 0.605722
O O4 0.034734 0.743976 0.763418
O O5 0.308859 0.167928 0.928150
O O6 0.409929 0.260007 0.903219
O O7 0.355757 0.000000 0.970833
O O8 0.289446 0.242332 0.053116
O O9 0.765627 0.500000 0.880639
O O10 0.834186 0.260747 0.798766
O O11 0.714400 0.500000 0.578028
O O12 0.750000 0.750000 0.500000
O O13 0.797303 0.686012 0.558233
O O14 0.049795 0.229144 0.352219
O O15 0.000000 0.234874 0.500000
O O16 0.917379 0.232979 0.483713
O O17 0.983682 0.000000 0.448324
O O18 0.900070 0.500000 0.462173
O O19 0.055922 0.798807 0.235771
O O20 0.114572 0.000000 0.249872
O O21 0.973417 0.000000 0.818135
#
# Coordination Sequence:
#
# PCOD8078541 Si02
#       8
#     8   8   8   8   8   8   8   8
#     4  10  18  27  40  60  82 107 137 169 203 245
#     4   9  16  25  36  53  77 103 130 165 199 236
#     4   9  16  25  38  54  72  98 132 167 199 240
#     4   9  17  28  41  59  79 102 132 167 204 246
#     4  10  20  32  45  61  80 105 140 179 216 251
#     4   9  18  30  43  58  78 103 134 171 210 249
#     4   9  17  28  40  55  74 102 135 170 210 246
#     4  10  17  25  39  57  79 109 138 168 202 240
#
# _framework density 15.3917
#
# number of rings (size 3 to 8) (size 9 to 14) (size 15 to 20)
#    0.000    2.625    1.250    2.625    0.000    6.750 
#    0.000    0.000    0.000    0.000    0.000    0.000 
#    0.000    0.000    0.000    1.125    0.000   21.750 
#
# Total GULP energy -396710.495989 kJ/mol
# GULP energy per Si atom -12397.203000 kJ/mol
# Density = 1.535667 g / cm^3
# Si number density = 15.391700 Si / 1000 Ang^3
#
#
#
# Elastic Constant Matrix: (Units=GPa)
#
#
# Indices 1 2 3 4 5 6 
#
# 1 49.4924 33.5887 44.0254 -0.0045 -17.8589 0.0027
# 2 33.5887 97.8257 54.1467 -0.0307 -21.9940 0.0215
# 3 44.0254 54.1467 100.5101 -0.0050 -32.8856 0.0078
# 4 -0.0045 -0.0307 -0.0050 27.2803 0.0163 -11.5345
# 5 -17.8589 -21.9940 -32.8856 0.0163 25.1643 -0.0044
# 6 0.0027 0.0215 0.0078 -11.5345 -0.0044 19.4248
#
#
#
# Elastic Compliance Matrix: (Units=1/GPa)
#
#
# Indices 1 2 3 4 5 6 
#
# 1 0.035437 -0.004652 -0.010688 -0.000004 0.007117 0.000004
# 2 -0.004652 0.015451 -0.005150 0.000011 0.003473 -0.000007
# 3 -0.010688 -0.005150 0.023498 -0.000018 0.018622 -0.000009
# 4 -0.000004 0.000011 -0.000018 0.048945 -0.000044 0.029064
# 5 0.007117 0.003473 0.018622 -0.000044 0.072160 -0.000022
# 6 0.000004 -0.000007 -0.000009 0.029064 -0.000022 0.068739
#
#
# Mechanical properties :
#
#
# Convention : Reuss Voigt Hill
#
# Bulk Modulus (GPa) = 29.93361 56.81665 43.37513
# Shear Modulus (GPa) = 15.80557 22.11170 18.95864
#
# Velocity S-wave (km/s) = 3.20799 3.79436 3.51343
# Velocity P-wave (km/s) = 5.76296 7.49601 6.68588
#
# Compressibility (1/GPa) = 0.03340727
#
# Stress axis : x y z
#
# Youngs Moduli (GPa) = 28.21889 64.72225 42.55740
#
# Poissons Ratio (x) = 0.30107 0.45484
# Poissons Ratio (y) = 0.13127 0.21916
# Poissons Ratio (z) = 0.30160 0.33330
#
# Static dielectric constant tensor:
#      x y z
#    x 2.604640 -0.000010 -0.352820 
#    y -0.000010 3.074090 0.000030 
#    z -0.352820 0.000030 3.008040 
# 
# 
# High freq. dielectric constant tensor:
#      x y z
#    x 1.532240 0.000000 -0.045500 
#    y 0.000000 1.605300 0.000000 
#    z -0.045500 0.000000 1.578600 
# 
# From -- ./inp_files/348517.got.cif
#   From: 2010.06.25/outbox.cif.g09.slc.cpg/sg12_175_cif.got.tgz:348517.got - 2010.06.28 00:19:55.
