data_PCOD8078694
_publ_section_title
;
Structure prediction by ZEFSAII (Michael W. Deem and Ramdas Pophale) SiO2 
 PCOD8078694
Probable space group: C 2/M
;
_chemical_formula_sum "Si O2"
_cell_formula_units_Z 64
_cell_length_a 19.557800
_cell_length_b 8.692775
_cell_length_c 20.930620
_cell_angle_alpha 90.000000
_cell_angle_beta 96.845132
_cell_angle_gamma 90.000000
_cell_volume 3533.082401
_symmetry_space_group_name_H-M "C 2/M"
_symmetry_group_IT_number 12
_symmetry_cell_setting 'monoclinic'
loop_
_space_group_symop_operation_xyz
x,y,z
-x,y,-z
-x,-y,-z
x,-y,z
1/2+x,1/2+y,z
1/2-x,1/2+y,-z
1/2-x,1/2-y,-z
1/2+x,1/2-y,z
loop_
_atom_site_type_symbol
_atom_site_label
_atom_site_fract_x
_atom_site_fract_y
_atom_site_fract_z
Si Si1 0.771052 0.317307 0.855616
Si Si2 0.716844 0.816889 0.287178
Si Si3 0.423455 0.820036 0.675250
Si Si4 0.132832 0.321223 0.895371
Si Si5 0.866707 0.819743 0.336464
Si Si6 0.016358 0.317301 0.571978
Si Si7 0.179206 0.817851 0.019268
Si Si8 0.947399 0.323123 0.233889
O O1 0.768715 0.500000 0.860938
O O2 0.788574 0.259678 0.786463
O O3 0.697200 0.250308 0.865663
O O4 0.829804 0.250702 0.910359
O O5 0.651659 0.747007 0.319065
O O6 0.787488 0.761039 0.328396
O O7 0.714463 0.000000 0.286401
O O8 0.458630 0.751871 0.614864
O O9 0.473087 0.785388 0.741363
O O10 0.413791 0.000000 0.664231
O O11 0.147101 0.500000 0.909010
O O12 0.066155 0.293903 0.842810
O O13 0.120348 0.239331 0.962863
O O14 0.897879 0.783181 0.270596
O O15 0.908009 0.736296 0.397759
O O16 0.870802 0.000000 0.349009
O O17 0.015790 0.500000 0.571844
O O18 0.000000 0.250970 0.500000
O O19 0.180559 0.000000 0.022030
O O20 0.250000 0.750000 0.000000
O O21 0.931009 0.500000 0.250580
#
# Coordination Sequence:
#
# PCOD8078694 Si02
#       8
#     8   8   8   8   8   8   8   8
#     4  10  17  27  42  63  90 121 155 191 237 285
#     4   9  17  28  46  71  97 125 155 193 238 282
#     4   8  15  30  49  70  95 123 158 194 230 276
#     4  10  17  26  42  66  91 118 155 199 242 279
#     4  10  18  29  48  74  99 123 155 193 235 279
#     4   9  18  34  55  75  96 127 162 193 227 270
#     4  10  18  27  39  60  89 122 156 195 241 283
#     4   9  17  29  48  70  93 124 161 200 237 277
#
# _framework density 18.114493
#
# number of rings (size 3 to 8) (size 9 to 14) (size 15 to 20)
#    0.000    2.625    1.250    4.500    0.000    0.750 
#    0.000    0.625    0.000   12.750    0.000    5.250 
#    0.000    0.000    0.000    0.000    0.000    0.000 
#
# Total GULP energy -396565.054802 kJ/mol
# GULP energy per Si atom -12392.657963 kJ/mol
# Density = 1.807326 g / cm^3
# Si number density = 18.114493 Si / 1000 Ang^3
#
#
#
# Elastic Constant Matrix: (Units=GPa)
#
#
# Indices 1 2 3 4 5 6 
#
# 1 113.3651 14.9923 63.9213 0.0000 8.3356 0.0000
# 2 14.9923 52.5805 24.9480 0.0000 2.0130 0.0000
# 3 63.9213 24.9480 154.0509 0.0000 19.9125 0.0000
# 4 0.0000 0.0000 0.0000 22.0455 0.0000 5.0212
# 5 8.3356 2.0130 19.9125 0.0000 20.7824 0.0000
# 6 0.0000 0.0000 0.0000 5.0212 0.0000 15.2364
#
#
#
# Elastic Compliance Matrix: (Units=1/GPa)
#
#
# Indices 1 2 3 4 5 6 
#
# 1 0.011575 -0.001110 -0.004607 0.000000 -0.000120 0.000000
# 2 -0.001110 0.020742 -0.003078 0.000000 0.001385 0.000000
# 3 -0.004607 -0.003078 0.009843 0.000000 -0.007285 0.000000
# 4 0.000000 0.000000 0.000000 0.049042 0.000000 -0.016162
# 5 -0.000120 0.001385 -0.007285 0.000000 0.055012 0.000000
# 6 0.000000 0.000000 0.000000 -0.016162 0.000000 0.070958
#
#
# Mechanical properties :
#
#
# Convention : Reuss Voigt Hill
#
# Bulk Modulus (GPa) = 40.69923 58.63552 49.66738
# Shear Modulus (GPa) = 20.58018 26.02184 23.30101
#
# Velocity S-wave (km/s) = 3.37429 3.79426 3.59042
# Velocity P-wave (km/s) = 6.13984 7.18574 6.68328
#
# Compressibility (1/GPa) = 0.02457049
#
# Stress axis : x y z
#
# Youngs Moduli (GPa) = 86.39627 48.21107 101.59224
#
# Poissons Ratio (x) = 0.05349 0.46808
# Poissons Ratio (y) = 0.09586 0.31267
# Poissons Ratio (z) = 0.39807 0.14838
#
# Static dielectric constant tensor:
#      x y z
#    x 3.313560 0.000000 0.191430 
#    y 0.000000 3.150000 0.000000 
#    z 0.191430 0.000000 3.872800 
# 
# 
# High freq. dielectric constant tensor:
#      x y z
#    x 1.666550 0.000000 0.022120 
#    y 0.000000 1.684080 0.000000 
#    z 0.022120 0.000000 1.706390 
# 
# From -- ./inp_files/319198.got.cif
#   From: 2010.06.25/outbox.cif.g09.slc.cpg/sg12_160_cif.got.tgz:319198.got - 2010.06.28 00:19:55.
