data_PCOD8078939
_publ_section_title
;
Structure prediction by ZEFSAII (Michael W. Deem and Ramdas Pophale) SiO2 
 PCOD8078939
Probable space group: C 2/M
;
_chemical_formula_sum "Si O2"
_cell_formula_units_Z 52
_cell_length_a 17.479099
_cell_length_b 26.146426
_cell_length_c 11.323449
_cell_angle_alpha 90.000000
_cell_angle_beta 147.519080
_cell_angle_gamma 90.000000
_cell_volume 2779.070281
_symmetry_space_group_name_H-M "C 2/M"
_symmetry_group_IT_number 12
_symmetry_cell_setting 'monoclinic'
loop_
_space_group_symop_operation_xyz
x,y,z
-x,y,-z
-x,-y,-z
x,-y,z
1/2+x,1/2+y,z
1/2-x,1/2+y,-z
1/2-x,1/2-y,-z
1/2+x,1/2-y,z
loop_
_atom_site_type_symbol
_atom_site_label
_atom_site_fract_x
_atom_site_fract_y
_atom_site_fract_z
Si Si1 0.500000 0.273506 0.000000
Si Si2 0.057798 0.058126 0.206255
Si Si3 0.661114 0.055942 0.065440
Si Si4 0.652454 0.916141 0.318677
Si Si5 0.025062 0.835327 0.810425
Si Si6 0.772775 0.309610 0.673323
Si Si7 0.157951 0.852237 0.753878
O O1 0.570462 0.309987 0.992605
O O2 0.369543 0.240123 0.779325
O O3 0.228321 0.067123 0.431252
O O4 0.992534 0.102808 0.204188
O O5 0.020697 0.000000 0.201000
O O6 0.000000 0.066450 0.000000
O O7 0.686803 0.056483 0.239582
O O8 0.764168 0.093733 0.129763
O O9 0.698511 0.000000 0.066017
O O10 0.497313 0.067900 0.821555
O O11 0.643971 0.855800 0.281005
O O12 0.145007 0.825729 0.866047
O O13 0.881019 0.805612 0.586857
O O14 0.751075 0.317742 0.786064
O O15 0.000000 0.862611 0.500000
#
# Coordination Sequence:
#
# PCOD8078939 Si02
#       7
#     4   8   8   8   8   8   8
#     4  12  20  34  57  78 101 136 176 218 264 310
#     4  10  19  33  53  77 106 144 181 216 254 297
#     4  10  17  27  49  80 107 137 172 217 273 315
#     4   9  17  31  51  79 110 134 174 221 260 316
#     4  10  21  35  52  79 106 133 177 220 254 314
#     4   9  19  34  53  76 103 135 168 214 272 312
#     4   9  19  34  49  72 109 140 169 215 268 319
#
# _framework density 18.711293000000001
#
# number of rings (size 3 to 8) (size 9 to 14) (size 15 to 20)
#    0.000    2.308    0.769    5.077    0.000    1.538 
#    0.000    0.000    0.000    0.923    0.000    3.231 
#    0.000    0.000    0.000    0.000    0.000    0.000 
#
# Total GULP energy -322260.708703 kJ/mol
# GULP energy per Si atom -12394.642642 kJ/mol
# Density = 1.866871 g / cm^3
# Si number density = 18.711293 Si / 1000 Ang^3
#
#
#
# Elastic Constant Matrix: (Units=GPa)
#
#
# Indices 1 2 3 4 5 6 
#
# 1 77.0643 36.5293 21.7441 0.0000 -5.6137 0.0000
# 2 36.5293 99.8130 19.9329 0.0000 -1.2212 0.0000
# 3 21.7441 19.9329 80.6447 0.0000 -7.5818 0.0000
# 4 0.0000 0.0000 0.0000 18.8026 0.0000 0.3610
# 5 -5.6137 -1.2212 -7.5818 0.0000 21.6513 0.0000
# 6 0.0000 0.0000 0.0000 0.3610 0.0000 13.7196
#
#
#
# Elastic Compliance Matrix: (Units=1/GPa)
#
#
# Indices 1 2 3 4 5 6 
#
# 1 0.016587 -0.005467 -0.002839 0.000000 0.002998 0.000000
# 2 -0.005467 0.012343 -0.001701 0.000000 -0.001317 0.000000
# 3 -0.002839 -0.001701 0.013968 0.000000 0.004059 0.000000
# 4 0.000000 0.000000 0.000000 0.053211 0.000000 -0.001400
# 5 0.002998 -0.001317 0.004059 0.000000 0.048311 0.000000
# 6 0.000000 0.000000 0.000000 -0.001400 0.000000 0.072925
#
#
# Mechanical properties :
#
#
# Convention : Reuss Voigt Hill
#
# Bulk Modulus (GPa) = 43.69813 45.99271 44.84542
# Shear Modulus (GPa) = 20.40931 22.78908 21.59919
#
# Velocity S-wave (km/s) = 3.30623 3.49367 3.40124
# Velocity P-wave (km/s) = 6.16275 6.39593 6.28042
#
# Compressibility (1/GPa) = 0.02288428
#
# Stress axis : x y z
#
# Youngs Moduli (GPa) = 60.28829 81.01789 71.59451
#
# Poissons Ratio (x) = 0.44291 0.20327
# Poissons Ratio (y) = 0.32958 0.12175
# Poissons Ratio (z) = 0.17117 0.13778
#
# Static dielectric constant tensor:
#      x y z
#    x 3.270880 0.000000 0.012960 
#    y 0.000000 3.473220 0.000000 
#    z 0.012960 0.000000 3.372340 
# 
# 
# High freq. dielectric constant tensor:
#      x y z
#    x 1.696950 0.000000 0.003410 
#    y 0.000000 1.729100 0.000000 
#    z 0.003410 0.000000 1.718520 
# 
# From -- ./inp_files/160836.got.cif
#   From: 2010.06.25/outbox.cif.g09.slc.cpg/sg12_81_cif.got.tgz:160836.got - 2010.06.28 00:19:55.
