data_PCOD8078000
_publ_section_title
;
Structure prediction by ZEFSAII (Michael W. Deem and Ramdas Pophale) SiO2 
 PCOD8078000
Probable space group: P 21/M
;
_chemical_formula_sum "Si O2"
_cell_formula_units_Z 32
_cell_length_a 27.000000
_cell_length_b 9.000000
_cell_length_c 21.000000
_cell_angle_alpha 90.000000
_cell_angle_beta 160.000000
_cell_angle_gamma 90.000000
_cell_volume 1745.328791
_symmetry_space_group_name_H-M "P 21/M"
_symmetry_group_IT_number 11
_symmetry_cell_setting 'monoclinic'
loop_
_space_group_symop_operation_xyz
x,y,z
-x,1/2+y,-z
-x,-y,-z
x,1/2-y,z
loop_
_atom_site_type_symbol
_atom_site_label
_atom_site_fract_x
_atom_site_fract_y
_atom_site_fract_z
Si Si1 0.696868 0.077095 0.622623
Si Si2 0.550464 0.924010 0.996988
Si Si3 0.366604 0.074171 0.211230
Si Si4 0.846883 0.923406 0.688150
Si Si5 0.403942 0.080291 0.707585
Si Si6 0.818832 0.077259 0.908260
Si Si7 0.702200 0.421551 0.999356
Si Si8 0.149079 0.426915 0.704631
O O1 0.696177 0.250000 0.607488
O O2 0.531770 0.017520 0.419798
O O3 0.772139 0.040147 0.780258
O O4 0.796356 0.002155 0.690605
O O5 0.536489 0.750000 0.988494
O O6 0.435813 0.974570 0.805356
O O7 0.716572 0.967655 0.180043
O O8 0.500000 0.000000 0.000000
O O9 0.360437 0.250000 0.193699
O O10 0.278968 0.029065 0.167589
O O11 0.285658 0.994698 0.054990
O O12 0.827140 0.750000 0.676220
O O13 0.745486 0.972412 0.506158
O O14 0.013580 0.964525 0.876514
O O15 0.392155 0.250000 0.717512
O O16 0.534891 0.062683 0.816353
O O17 0.789989 0.250000 0.889648
O O18 0.751243 0.250000 0.056144
O O19 0.811147 0.507294 0.178278
O O20 0.128503 0.250000 0.684918
O O21 0.000000 0.500000 0.500000
#
# Coordination Sequence:
#
# PCOD8078000 Si02
#       8
#     4   4   4   4   4   4   4   4
#     4  10  21  36  57  82 109 145 189 234 281 337
#     4  10  21  37  59  86 115 148 185 228 274 327
#     4  11  22  36  55  81 112 147 189 235 280 332
#     4  10  20  36  58  83 110 144 186 231 281 336
#     4   9  18  34  57  83 109 143 186 228 272 330
#     4  10  22  38  54  79 114 149 185 232 287 337
#     4  10  19  35  60  84 110 148 188 230 278 330
#     4  10  21  38  60  88 118 149 187 229 275 328
#
# _framework density 18.334654
#
# number of rings (size 3 to 8) (size 9 to 14) (size 15 to 20)
#    0.000    2.000    1.250    2.250    0.000    4.000 
#    2.250    0.000    0.000    0.000    0.000    0.000 
#    0.000    0.000    0.000    0.000    0.000    0.000 
#
# Total GULP energy -396853.853706 kJ/mol
# GULP energy per Si atom -12401.682928 kJ/mol
# Density = 1.829292 g / cm^3
# Si number density = 18.334654 Si / 1000 Ang^3
#
#
#
# Elastic Constant Matrix: (Units=GPa)
#
#
# Indices 1 2 3 4 5 6 
#
# 1 84.9244 40.7388 39.0244 0.0000 -6.4216 0.0000
# 2 40.7388 73.2536 41.1142 0.0000 -7.6092 0.0000
# 3 39.0244 41.1142 144.6278 0.0000 -13.4463 0.0000
# 4 0.0000 0.0000 0.0000 30.6966 0.0000 -2.9623
# 5 -6.4216 -7.6092 -13.4463 0.0000 25.7041 0.0000
# 6 0.0000 0.0000 0.0000 -2.9623 0.0000 37.3541
#
#
#
# Elastic Compliance Matrix: (Units=1/GPa)
#
#
# Indices 1 2 3 4 5 6 
#
# 1 0.016644 -0.007974 -0.002162 0.000000 0.000667 0.000000
# 2 -0.007974 0.020219 -0.003390 0.000000 0.002220 0.000000
# 3 -0.002162 -0.003390 0.008743 0.000000 0.003030 0.000000
# 4 0.000000 0.000000 0.000000 0.032828 0.000000 0.002603
# 5 0.000667 0.002220 0.003030 0.000000 0.041313 0.000000
# 6 0.000000 0.000000 0.000000 0.002603 0.000000 0.026977
#
#
# Mechanical properties :
#
#
# Convention : Reuss Voigt Hill
#
# Bulk Modulus (GPa) = 53.89503 60.50673 57.20088
# Shear Modulus (GPa) = 27.78382 30.87952 29.33167
#
# Velocity S-wave (km/s) = 3.89700 4.10837 4.00408
# Velocity P-wave (km/s) = 7.05038 7.45506 7.25554
#
# Compressibility (1/GPa) = 0.01855459
#
# Stress axis : x y z
#
# Youngs Moduli (GPa) = 60.08102 49.45910 114.37570
#
# Poissons Ratio (x) = 0.39436 0.24732
# Poissons Ratio (y) = 0.47906 0.38771
# Poissons Ratio (z) = 0.12992 0.16766
#
# Static dielectric constant tensor:
#      x y z
#    x 3.270340 0.000000 -0.084990 
#    y 0.000000 4.523260 0.000000 
#    z -0.084990 0.000000 3.718700 
# 
# 
# High freq. dielectric constant tensor:
#      x y z
#    x 1.705480 0.000000 -0.008430 
#    y 0.000000 1.717440 0.000000 
#    z -0.008430 0.000000 1.728830 
# 
# From -- ./inp_files/67257.got.cif
#   From: 2010.06.25/outbox.ucp.g09.slc.cvg/sg11_34_cif.got.tgz:67257.got - 2010.06.28 13:43:20.
