data_PCOD8078793
_publ_section_title
;
Structure prediction by ZEFSAII (Michael W. Deem and Ramdas Pophale) SiO2 
 PCOD8078793
Probable space group: C 2/M
;
_chemical_formula_sum "Si O2"
_cell_formula_units_Z 56
_cell_length_a 24.529971
_cell_length_b 9.070642
_cell_length_c 17.637925
_cell_angle_alpha 90.000000
_cell_angle_beta 63.537455
_cell_angle_gamma 90.000000
_cell_volume 3513.299467
_symmetry_space_group_name_H-M "C 2/M"
_symmetry_group_IT_number 12
_symmetry_cell_setting 'monoclinic'
loop_
_space_group_symop_operation_xyz
x,y,z
-x,y,-z
-x,-y,-z
x,-y,z
1/2+x,1/2+y,z
1/2-x,1/2+y,-z
1/2-x,1/2-y,-z
1/2+x,1/2-y,z
loop_
_atom_site_type_symbol
_atom_site_label
_atom_site_fract_x
_atom_site_fract_y
_atom_site_fract_z
Si Si1 0.567531 0.825952 0.951901
Si Si2 0.223580 0.674645 0.269532
Si Si3 0.337018 0.828856 0.985283
Si Si4 0.689252 0.836727 0.452292
Si Si5 0.703848 0.329433 0.132372
Si Si6 0.347901 0.174081 0.236016
Si Si7 0.667604 0.664554 0.606333
O O1 0.595453 0.785364 0.852961
O O2 0.564669 0.000000 0.963020
O O3 0.500000 0.756309 0.000000
O O4 0.609641 0.765771 0.994019
O O5 0.233778 0.500000 0.255121
O O6 0.181569 0.710765 0.369175
O O7 0.189087 0.740434 0.218276
O O8 0.288743 0.751286 0.237047
O O9 0.338847 0.735020 0.907179
O O10 0.345764 0.000000 0.959167
O O11 0.274158 0.804524 0.068477
O O12 0.653374 0.728522 0.531343
O O13 0.760693 0.835655 0.425149
O O14 0.662823 0.000000 0.481976
O O15 0.688112 0.500000 0.154203
O O16 0.363776 0.235806 0.309599
O O17 0.336072 0.000000 0.247959
O O18 0.640702 0.500000 0.627518
#
# Coordination Sequence:
#
# PCOD8078793 Si02
#       7
#     8   8   8   8   8   8   8
#     4   9  17  30  47  65  85 111 148 188 220 252
#     4  10  18  27  41  61  86 114 143 176 213 255
#     4   9  17  30  44  62  84 111 145 180 219 255
#     4   8  15  25  36  54  79 109 141 171 206 248
#     4  10  18  28  43  64  86 113 145 177 215 259
#     4  10  17  27  42  60  82 111 146 180 216 256
#     4   9  16  25  37  55  79 110 142 173 210 251
#
# _framework density 15.939432
#
# number of rings (size 3 to 8) (size 9 to 14) (size 15 to 20)
#    0.000    2.714    1.429    2.571    0.000    4.571 
#    0.000    0.000    0.000    3.857    0.000    0.000 
#    0.000    1.143    0.000   13.143    0.000    4.000 
#
# Total GULP energy -347099.592642 kJ/mol
# GULP energy per Si atom -12396.414023 kJ/mol
# Density = 1.590315 g / cm^3
# Si number density = 15.939432 Si / 1000 Ang^3
#
#
#
# Elastic Constant Matrix: (Units=GPa)
#
#
# Indices 1 2 3 4 5 6 
#
# 1 63.1935 29.6863 49.4184 0.0000 12.3603 0.0000
# 2 29.6863 93.4433 63.0370 -0.0001 18.4221 -0.0002
# 3 49.4184 63.0370 123.8892 0.0000 31.9639 0.0000
# 4 0.0000 -0.0001 0.0000 25.2840 0.0000 9.7228
# 5 12.3603 18.4221 31.9639 0.0000 24.1141 0.0000
# 6 0.0000 -0.0002 0.0000 9.7228 0.0000 14.3444
#
#
#
# Elastic Compliance Matrix: (Units=1/GPa)
#
#
# Indices 1 2 3 4 5 6 
#
# 1 0.023188 -0.001744 -0.008570 0.000000 0.000807 0.000000
# 2 -0.001744 0.016504 -0.007112 0.000000 -0.002288 0.000000
# 3 -0.008570 -0.007112 0.019109 0.000000 -0.015503 0.000000
# 4 0.000000 0.000000 0.000000 0.053494 0.000000 -0.036259
# 5 0.000807 -0.002288 -0.015503 0.000000 0.063354 0.000000
# 6 0.000000 0.000000 0.000000 -0.036259 0.000000 0.094290
#
#
# Mechanical properties :
#
#
# Convention : Reuss Voigt Hill
#
# Bulk Modulus (GPa) = 41.75565 62.75660 52.25613
# Shear Modulus (GPa) = 15.98598 21.97412 18.98005
#
# Velocity S-wave (km/s) = 3.17033 3.71698 3.45448
# Velocity P-wave (km/s) = 6.29719 7.60780 6.98331
#
# Compressibility (1/GPa) = 0.02394885
#
# Stress axis : x y z
#
# Youngs Moduli (GPa) = 43.12571 60.58981 52.33203
#
# Poissons Ratio (x) = 0.10569 0.44850
# Poissons Ratio (y) = 0.07523 0.37217
# Poissons Ratio (z) = 0.36960 0.43089
#
# Static dielectric constant tensor:
#      x y z
#    x 2.744870 0.000000 0.289840 
#    y 0.000000 3.069240 0.000000 
#    z 0.289840 0.000000 3.214780 
# 
# 
# High freq. dielectric constant tensor:
#      x y z
#    x 1.553970 0.000000 0.036910 
#    y 0.000000 1.613980 0.000000 
#    z 0.036910 0.000000 1.613230 
# 
# From -- ./inp_files/287397.got.cif
#   From: 2010.06.25/outbox.cif.g09.slc.cpg/sg12_144_cif.got.tgz:287397.got - 2010.06.28 00:19:55.
