data_PCOD8078492
_publ_section_title
;
Structure prediction by ZEFSAII (Michael W. Deem and Ramdas Pophale) SiO2 
 PCOD8078492
Probable space group: C 2/M
;
_chemical_formula_sum "Si O2"
_cell_formula_units_Z 56
_cell_length_a 28.995822
_cell_length_b 9.107718
_cell_length_c 29.110559
_cell_angle_alpha 90.000000
_cell_angle_beta 151.528093
_cell_angle_gamma 90.000000
_cell_volume 3664.932907
_symmetry_space_group_name_H-M "C 2/M"
_symmetry_group_IT_number 12
_symmetry_cell_setting 'monoclinic'
loop_
_space_group_symop_operation_xyz
x,y,z
-x,y,-z
-x,-y,-z
x,-y,z
1/2+x,1/2+y,z
1/2-x,1/2+y,-z
1/2-x,1/2-y,-z
1/2+x,1/2-y,z
loop_
_atom_site_type_symbol
_atom_site_label
_atom_site_fract_x
_atom_site_fract_y
_atom_site_fract_z
Si Si1 0.401298 0.825993 0.933875
Si Si2 0.848503 0.667512 0.082225
Si Si3 0.467260 0.671007 0.366447
Si Si4 0.175001 0.671739 0.036954
Si Si5 0.793509 0.829156 0.283500
Si Si6 0.911508 0.665658 0.457409
Si Si7 0.380012 0.827278 0.207861
O O1 0.390301 0.777116 0.977346
O O2 0.309970 0.769906 0.824374
O O3 0.405206 0.000000 0.933871
O O4 0.500000 0.756549 0.000000
O O5 0.819039 0.500000 0.060841
O O6 0.914076 0.706085 0.184431
O O7 0.750000 0.750000 0.000000
O O8 0.889097 0.698371 0.066064
O O9 0.488477 0.500000 0.378911
O O10 0.369906 0.700439 0.309892
O O11 0.559722 0.743507 0.472145
O O12 0.456168 0.745489 0.307054
O O13 0.204042 0.500000 0.067695
O O14 0.272595 0.765704 0.121984
O O15 0.819783 0.740742 0.352587
O O16 0.791658 0.000000 0.294753
O O17 0.884396 0.500000 0.447722
O O18 0.000000 0.668917 0.500000
O O19 0.380881 0.000000 0.219933
#
# Coordination Sequence:
#
# PCOD8078492 Si02
#       7
#     8   8   8   8   8   8   8
#     4   9  16  26  42  62  80 103 140 177 201 225
#     4   8  15  24  36  53  75 102 133 163 195 236
#     4  10  17  26  40  58  79 107 135 162 194 238
#     4   9  15  27  41  54  75 106 138 168 201 235
#     4   9  16  27  40  55  76 105 136 166 198 232
#     4   9  17  27  39  57  78 103 131 163 198 238
#     4  10  17  24  36  57  81 106 133 164 198 237
#
# _framework density 15.279951000000001
#
# number of rings (size 3 to 8) (size 9 to 14) (size 15 to 20)
#    0.000    2.857    1.429    1.286    0.000    2.857 
#    0.000    0.000    0.000    1.714    0.000    0.000 
#    0.000    1.143    0.000    2.000    0.000    2.857 
#
# Total GULP energy -346903.584939 kJ/mol
# GULP energy per Si atom -12389.413748 kJ/mol
# Density = 1.524517 g / cm^3
# Si number density = 15.279951 Si / 1000 Ang^3
#
#
#
# Elastic Constant Matrix: (Units=GPa)
#
#
# Indices 1 2 3 4 5 6 
#
# 1 81.8516 31.7521 63.2500 0.0000 -27.4364 0.0000
# 2 31.7521 68.3255 44.4414 0.0000 -20.8765 0.0000
# 3 63.2500 44.4414 107.9590 0.0000 -32.7843 0.0000
# 4 0.0000 0.0000 0.0000 21.8803 0.0000 -9.0587
# 5 -27.4364 -20.8765 -32.7843 0.0000 30.6074 0.0000
# 6 0.0000 0.0000 0.0000 -9.0587 0.0000 12.6759
#
#
#
# Elastic Compliance Matrix: (Units=1/GPa)
#
#
# Indices 1 2 3 4 5 6 
#
# 1 0.024181 -0.001415 -0.010812 0.000000 0.009130 0.000000
# 2 -0.001415 0.021183 -0.005763 0.000000 0.007007 0.000000
# 3 -0.010812 -0.005763 0.020501 0.000000 0.008337 0.000000
# 4 0.000000 0.000000 0.000000 0.064907 0.000000 0.046385
# 5 0.009130 0.007007 0.008337 0.000000 0.054564 0.000000
# 6 0.000000 0.000000 0.000000 0.046385 0.000000 0.112039
#
#
# Mechanical properties :
#
#
# Convention : Reuss Voigt Hill
#
# Bulk Modulus (GPa) = 33.46205 59.66921 46.56563
# Shear Modulus (GPa) = 14.56373 20.94556 17.75465
#
# Velocity S-wave (km/s) = 3.09062 3.70643 3.41245
# Velocity P-wave (km/s) = 5.88921 7.57973 6.78731
#
# Compressibility (1/GPa) = 0.02988460
#
# Stress axis : x y z
#
# Youngs Moduli (GPa) = 41.35396 47.20792 48.77764
#
# Poissons Ratio (x) = 0.06682 0.52739
# Poissons Ratio (y) = 0.05853 0.28110
# Poissons Ratio (z) = 0.44712 0.27206
#
# Static dielectric constant tensor:
#      x y z
#    x 3.063370 0.000000 -0.489580 
#    y 0.000000 2.830820 0.000000 
#    z -0.489580 0.000000 3.004090 
# 
# 
# High freq. dielectric constant tensor:
#      x y z
#    x 1.549070 0.000000 -0.048350 
#    y 0.000000 1.584090 0.000000 
#    z -0.048350 0.000000 1.568390 
# 
# From -- ./inp_files/247717.got.cif
#   From: 2010.06.25/outbox.cif.g09.slc.cpg/sg12_124_cif.got.tgz:247717.got - 2010.06.28 00:19:55.
