data_PCOD8078498
_publ_section_title
;
Structure prediction by ZEFSAII (Michael W. Deem and Ramdas Pophale) SiO2 
 PCOD8078498
Probable space group: C 2/M
;
_chemical_formula_sum "Si O2"
_cell_formula_units_Z 56
_cell_length_a 20.702973
_cell_length_b 8.752342
_cell_length_c 17.996015
_cell_angle_alpha 90.000000
_cell_angle_beta 79.579327
_cell_angle_gamma 90.000000
_cell_volume 3207.085041
_symmetry_space_group_name_H-M "C 2/M"
_symmetry_group_IT_number 12
_symmetry_cell_setting 'monoclinic'
loop_
_space_group_symop_operation_xyz
x,y,z
-x,y,-z
-x,-y,-z
x,-y,z
1/2+x,1/2+y,z
1/2-x,1/2+y,-z
1/2-x,1/2-y,-z
1/2+x,1/2-y,z
loop_
_atom_site_type_symbol
_atom_site_label
_atom_site_fract_x
_atom_site_fract_y
_atom_site_fract_z
Si Si1 0.534532 0.820168 0.302301
Si Si2 0.555354 0.677432 0.151921
Si Si3 0.392702 0.680850 0.306581
Si Si4 0.932707 0.179876 0.554535
Si Si5 0.319479 0.320232 0.467639
Si Si6 0.423308 0.829538 0.996268
Si Si7 0.084782 0.320203 0.842502
O O1 0.577633 0.768477 0.221378
O O2 0.464672 0.735150 0.316338
O O3 0.573977 0.771021 0.367190
O O4 0.523010 0.000000 0.302821
O O5 0.564413 0.500000 0.165142
O O6 0.596595 0.722358 0.069024
O O7 0.480222 0.719744 0.152816
O O8 0.394361 0.500000 0.294954
O O9 0.341443 0.730177 0.380618
O O10 0.368793 0.763662 0.234773
O O11 0.872978 0.237158 0.515871
O O12 0.000000 0.224892 0.500000
O O13 0.930113 0.000000 0.571254
O O14 0.313951 0.500000 0.473520
O O15 0.250000 0.250000 0.500000
O O16 0.405147 0.000000 0.974969
O O17 0.500000 0.817817 0.000000
O O18 0.384946 0.786922 0.081431
O O19 0.068048 0.500000 0.838369
#
# Coordination Sequence:
#
# PCOD8078498 Si02
#       7
#     8   8   8   8   8   8   8
#     4  11  20  29  45  70  95 122 160 204 244 284
#     4  10  17  24  37  57  85 121 157 192 235 286
#     4  10  18  31  47  66  92 126 162 198 244 290
#     4  10  19  36  55  71  97 128 163 202 247 294
#     4  10  22  37  54  73  98 131 161 203 250 293
#     4   8  14  24  35  51  82 118 152 190 236 282
#     4   9  16  25  38  58  84 118 155 196 239 281
#
# _framework density 17.46134
#
# number of rings (size 3 to 8) (size 9 to 14) (size 15 to 20)
#    0.000    2.286    1.429    6.000    0.000    5.143 
#    0.000    0.000    0.000    0.000    0.000    0.000 
#    0.000    1.143    0.000    3.714    0.000    7.857 
#
# Total GULP energy -346989.738156 kJ/mol
# GULP energy per Si atom -12392.490648 kJ/mol
# Density = 1.742160 g / cm^3
# Si number density = 17.461340 Si / 1000 Ang^3
#
#
#
# Elastic Constant Matrix: (Units=GPa)
#
#
# Indices 1 2 3 4 5 6 
#
# 1 55.0939 13.3801 42.3315 0.0000 -1.6631 0.0000
# 2 13.3801 62.2526 52.3910 0.0000 1.3822 0.0000
# 3 42.3315 52.3910 188.7073 0.0000 2.6727 0.0000
# 4 0.0000 0.0000 0.0000 35.8344 0.0000 0.8226
# 5 -1.6631 1.3822 2.6727 0.0000 12.0770 0.0000
# 6 0.0000 0.0000 0.0000 0.8226 0.0000 15.2832
#
#
#
# Elastic Compliance Matrix: (Units=1/GPa)
#
#
# Indices 1 2 3 4 5 6 
#
# 1 0.022169 -0.000813 -0.004807 0.000000 0.004210 0.000000
# 2 -0.000813 0.021006 -0.005632 0.000000 -0.001270 0.000000
# 3 -0.004807 -0.005632 0.007966 0.000000 -0.001780 0.000000
# 4 0.000000 0.000000 0.000000 0.027941 0.000000 -0.001504
# 5 0.004210 -0.001270 -0.001780 0.000000 0.083921 0.000000
# 6 0.000000 0.000000 0.000000 -0.001504 0.000000 0.065512
#
#
# Mechanical properties :
#
#
# Convention : Reuss Voigt Hill
#
# Bulk Modulus (GPa) = 34.91828 58.02877 46.47353
# Shear Modulus (GPa) = 19.18918 25.83566 22.51242
#
# Velocity S-wave (km/s) = 3.31864 3.85072 3.59454
# Velocity P-wave (km/s) = 5.89283 7.28530 6.62574
#
# Compressibility (1/GPa) = 0.02863829
#
# Stress axis : x y z
#
# Youngs Moduli (GPa) = 45.10862 47.60553 125.52977
#
# Poissons Ratio (x) = 0.03869 0.60341
# Poissons Ratio (y) = 0.03666 0.70693
# Poissons Ratio (z) = 0.21683 0.26810
#
# Static dielectric constant tensor:
#      x y z
#    x 2.535850 0.000000 0.105100 
#    y 0.000000 3.228080 0.000000 
#    z 0.105100 0.000000 4.260980 
# 
# 
# High freq. dielectric constant tensor:
#      x y z
#    x 1.583830 0.000000 0.006750 
#    y 0.000000 1.679890 0.000000 
#    z 0.006750 0.000000 1.710210 
# 
# From -- ./inp_files/287020.got.cif
#   From: 2010.06.25/outbox.cif.g09.slc.cpg/sg12_144_cif.got.tgz:287020.got - 2010.06.28 00:19:55.
