data_PCOD8078646
_publ_section_title
;
Structure prediction by ZEFSAII (Michael W. Deem and Ramdas Pophale) SiO2 
 PCOD8078646
Probable space group: C 2/M
;
_chemical_formula_sum "Si O2"
_cell_formula_units_Z 64
_cell_length_a 26.917938
_cell_length_b 9.249382
_cell_length_c 17.191727
_cell_angle_alpha 90.000000
_cell_angle_beta 102.768856
_cell_angle_gamma 90.000000
_cell_volume 4174.444717
_symmetry_space_group_name_H-M "C 2/M"
_symmetry_group_IT_number 12
_symmetry_cell_setting 'monoclinic'
loop_
_space_group_symop_operation_xyz
x,y,z
-x,y,-z
-x,-y,-z
x,-y,z
1/2+x,1/2+y,z
1/2-x,1/2+y,-z
1/2-x,1/2-y,-z
1/2+x,1/2-y,z
loop_
_atom_site_type_symbol
_atom_site_label
_atom_site_fract_x
_atom_site_fract_y
_atom_site_fract_z
Si Si1 0.302502 0.670578 0.031749
Si Si2 0.868300 0.662921 0.169841
Si Si3 0.931019 0.669502 0.336770
Si Si4 0.560441 0.339746 0.512567
Si Si5 0.107648 0.834807 0.046970
Si Si6 0.534310 0.668816 0.340300
Si Si7 0.444703 0.335434 0.821779
Si Si8 0.539669 0.836051 0.913782
O O1 0.293551 0.500000 0.034605
O O2 0.326948 0.725951 0.121228
O O3 0.250000 0.750000 0.000000
O O4 0.338515 0.714926 0.971002
O O5 0.846234 0.500000 0.155410
O O6 0.882669 0.700584 0.263926
O O7 0.920666 0.677034 0.142007
O O8 0.942293 0.500000 0.347000
O O9 0.915482 0.730472 0.416432
O O10 0.981507 0.744211 0.320336
O O11 0.500000 0.342213 0.500000
O O12 0.583248 0.500000 0.534842
O O13 0.570078 0.287448 0.426528
O O14 0.105605 0.815427 0.140620
O O15 0.098614 0.000000 0.019103
O O16 0.060702 0.744159 0.997003
O O17 0.519723 0.500000 0.343015
O O18 0.566550 0.700890 0.272723
O O19 0.464494 0.500000 0.835267
O O20 0.487675 0.231326 0.867663
O O21 0.529366 0.000000 0.934378
#
# Coordination Sequence:
#
# PCOD8078646 Si02
#       8
#     8   8   8   8   8   8   8   8
#     4  10  20  34  51  66  83 107 136 173 217 260
#     4   9  18  30  43  62  87 112 142 176 209 250
#     4  10  17  26  40  59  83 111 144 180 211 242
#     4   8  15  26  37  53  78 110 147 179 208 243
#     4   9  19  32  44  61  81 107 142 174 207 251
#     4   9  17  27  39  55  80 116 149 177 208 241
#     4  10  18  28  42  58  82 114 147 177 203 241
#     4  10  18  28  40  58  85 114 142 175 211 242
#
# _framework density 15.331379
#
# number of rings (size 3 to 8) (size 9 to 14) (size 15 to 20)
#    0.000    2.625    1.250    2.250    0.000    6.250 
#    0.000    0.000    0.000    0.000    0.000    0.000 
#    0.000    1.000    0.000    2.000    0.000    2.625 
#
# Total GULP energy -396566.074924 kJ/mol
# GULP energy per Si atom -12392.689841 kJ/mol
# Density = 1.529648 g / cm^3
# Si number density = 15.331379 Si / 1000 Ang^3
#
#
#
# Elastic Constant Matrix: (Units=GPa)
#
#
# Indices 1 2 3 4 5 6 
#
# 1 45.4217 30.4509 46.7584 0.0000 1.5045 0.0000
# 2 30.4509 74.3166 50.3351 0.0000 3.1032 0.0000
# 3 46.7584 50.3351 136.2655 0.0000 -10.8931 0.0000
# 4 0.0000 0.0000 0.0000 22.6587 0.0000 5.3574
# 5 1.5045 3.1032 -10.8931 0.0000 15.4527 0.0000
# 6 0.0000 0.0000 0.0000 5.3574 0.0000 15.7521
#
#
#
# Elastic Compliance Matrix: (Units=1/GPa)
#
#
# Indices 1 2 3 4 5 6 
#
# 1 0.039472 -0.008022 -0.011402 0.000000 -0.010270 0.000000
# 2 -0.008022 0.020773 -0.005502 0.000000 -0.007269 0.000000
# 3 -0.011402 -0.005502 0.014264 0.000000 0.012270 0.000000
# 4 0.000000 0.000000 0.000000 0.047993 0.000000 -0.016323
# 5 -0.010270 -0.007269 0.012270 0.000000 0.075823 0.000000
# 6 0.000000 0.000000 0.000000 -0.016323 0.000000 0.069035
#
#
# Mechanical properties :
#
#
# Convention : Reuss Voigt Hill
#
# Bulk Modulus (GPa) = 40.55571 56.78806 48.67188
# Shear Modulus (GPa) = 15.36430 19.33665 17.35047
#
# Velocity S-wave (km/s) = 3.16911 3.55526 3.36772
# Velocity P-wave (km/s) = 6.31674 7.34670 6.85110
#
# Compressibility (1/GPa) = 0.02465744
#
# Stress axis : x y z
#
# Youngs Moduli (GPa) = 25.33463 48.14015 70.10469
#
# Poissons Ratio (x) = 0.38617 0.79935
# Poissons Ratio (y) = 0.20323 0.38570
# Poissons Ratio (z) = 0.28887 0.26485
#
# Static dielectric constant tensor:
#      x y z
#    x 2.562300 0.000000 -0.247820 
#    y 0.000000 3.058530 0.000000 
#    z -0.247820 0.000000 3.471020 
# 
# 
# High freq. dielectric constant tensor:
#      x y z
#    x 1.526150 0.000000 -0.016270 
#    y 0.000000 1.597120 0.000000 
#    z -0.016270 0.000000 1.596110 
# 
# From -- ./inp_files/287748.got.cif
#   From: 2010.06.25/outbox.cif.g09.slc.cpg/sg12_144_cif.got.tgz:287748.got - 2010.06.28 00:19:55.
