data_PCOD8078050
_publ_section_title
;
Structure prediction by ZEFSAII (Michael W. Deem and Ramdas Pophale) SiO2 
 PCOD8078050
Probable space group: C 2/M
;
_chemical_formula_sum "Si O2"
_cell_formula_units_Z 52
_cell_length_a 8.657470
_cell_length_b 28.457916
_cell_length_c 11.973500
_cell_angle_alpha 90.000000
_cell_angle_beta 58.792024
_cell_angle_gamma 90.000000
_cell_volume 2523.072251
_symmetry_space_group_name_H-M "C 2/M"
_symmetry_group_IT_number 12
_symmetry_cell_setting 'monoclinic'
loop_
_space_group_symop_operation_xyz
x,y,z
-x,y,-z
-x,-y,-z
x,-y,z
1/2+x,1/2+y,z
1/2-x,1/2+y,-z
1/2-x,1/2-y,-z
1/2+x,1/2-y,z
loop_
_atom_site_type_symbol
_atom_site_label
_atom_site_fract_x
_atom_site_fract_y
_atom_site_fract_z
Si Si1 0.450632 0.310965 0.742865
Si Si2 0.183216 0.078282 0.878232
Si Si3 0.679845 0.218113 0.278546
Si Si4 0.500000 0.148503 0.500000
Si Si5 0.864177 0.098830 0.358298
Si Si6 0.301246 0.327335 0.026335
Si Si7 0.221162 0.000000 0.548707
Si Si8 0.075878 0.500000 0.293344
O O1 0.378717 0.272428 0.681443
O O2 0.634020 0.291333 0.728157
O O3 0.489940 0.360568 0.663653
O O4 0.296367 0.317122 0.896096
O O5 0.123760 0.097741 0.780034
O O6 0.263366 0.119537 0.925434
O O7 0.353497 0.043990 0.803904
O O8 0.000000 0.055516 0.000000
O O9 0.533140 0.181996 0.381683
O O10 0.683361 0.209529 0.142631
O O11 0.664207 0.114215 0.470305
O O12 0.901784 0.047808 0.403136
O O13 0.500000 0.323977 0.000000
O O14 0.358501 0.000000 0.391182
O O15 0.332412 0.000000 0.620735
#
# Coordination Sequence:
#
# PCOD8078050 Si02
#       8
#     8   8   8   4   8   8   4   4
#     4  10  19  33  48  69  95 129 163 198 237 280
#     4  10  14  25  39  61  88 122 155 190 235 281
#     4  10  20  30  48  67  95 127 166 196 236 278
#     4  10  18  29  46  66  96 127 160 194 236 280
#     4  10  17  28  43  61  94 123 158 191 238 283
#     4   9  15  29  44  63  90 125 159 191 238 277
#     4   9  18  26  38  62  90 128 153 186 234 299
#     4   9  17  22  38  60  89 120 158 184 235 289
#
# _framework density 20.609793
#
# number of rings (size 3 to 8) (size 9 to 14) (size 15 to 20)
#    0.000    2.308    6.154    2.538    0.000    2.462 
#    0.000    0.000    0.000    0.000    0.000    0.000 
#    0.000   11.692    0.000   10.385    0.000    0.000 
#
# Total GULP energy -322150.353414 kJ/mol
# GULP energy per Si atom -12390.398208 kJ/mol
# Density = 2.056288 g / cm^3
# Si number density = 20.609793 Si / 1000 Ang^3
#
#
#
# Elastic Constant Matrix: (Units=GPa)
#
#
# Indices 1 2 3 4 5 6 
#
# 1 7.6617 16.4973 13.0395 0.0000 -3.5027 0.0000
# 2 16.4973 169.5948 49.3700 0.0000 -13.3510 0.0000
# 3 13.0395 49.3700 91.0261 0.0000 -20.2154 0.0000
# 4 0.0000 0.0000 0.0000 36.6496 0.0000 -8.6247
# 5 -3.5027 -13.3510 -20.2154 0.0000 9.4580 0.0000
# 6 0.0000 0.0000 0.0000 -8.6247 0.0000 15.8082
#
#
#
# Elastic Compliance Matrix: (Units=1/GPa)
#
#
# Indices 1 2 3 4 5 6 
#
# 1 0.194900 -0.012565 -0.017158 0.000000 0.017768 0.000000
# 2 -0.012565 0.007869 -0.001969 0.000000 0.002245 0.000000
# 3 -0.017158 -0.001969 0.023763 0.000000 0.041657 0.000000
# 4 0.000000 0.000000 0.000000 0.031305 0.000000 0.017079
# 5 0.017768 0.002245 0.041657 0.000000 0.204516 0.000000
# 6 0.000000 0.000000 0.000000 0.017079 0.000000 0.072577
#
#
# Mechanical properties :
#
#
# Convention : Reuss Voigt Hill
#
# Bulk Modulus (GPa) = 6.12947 47.34403 26.73675
# Shear Modulus (GPa) = 7.66052 25.00822 16.33437
#
# Velocity S-wave (km/s) = 1.93003 3.48719 2.81829
# Velocity P-wave (km/s) = 2.81907 6.26382 4.85709
#
# Compressibility (1/GPa) = 0.16314634
#
# Stress axis : x y z
#
# Youngs Moduli (GPa) = 5.13083 127.08625 42.08201
#
# Poissons Ratio (x) = 1.59687 0.72206
# Poissons Ratio (y) = 0.06447 0.08287
# Poissons Ratio (z) = 0.08804 0.25025
#
# Static dielectric constant tensor:
#      x y z
#    x 2.782660 0.000000 -0.251080 
#    y 0.000000 4.253250 0.000000 
#    z -0.251080 0.000000 4.195590 
# 
# 
# High freq. dielectric constant tensor:
#      x y z
#    x 1.706950 0.000000 -0.021770 
#    y 0.000000 1.827280 0.000000 
#    z -0.021770 0.000000 1.823950 
# 
# From -- ./inp_files/208824.got.cif
#   From: 2010.06.25/outbox.cif.g09.slc.cpg/sg12_105_cif.got.tgz:208824.got - 2010.06.28 00:19:55.
