data_PCOD8078459
_publ_section_title
;
Structure prediction by ZEFSAII (Michael W. Deem and Ramdas Pophale) SiO2 
 PCOD8078459
Probable space group: C 2/M
;
_chemical_formula_sum "Si O2"
_cell_formula_units_Z 32
_cell_length_a 20.473466
_cell_length_b 10.196467
_cell_length_c 8.903657
_cell_angle_alpha 90.000000
_cell_angle_beta 66.821922
_cell_angle_gamma 90.000000
_cell_volume 1708.677719
_symmetry_space_group_name_H-M "C 2/M"
_symmetry_group_IT_number 12
_symmetry_cell_setting 'monoclinic'
loop_
_space_group_symop_operation_xyz
x,y,z
-x,y,-z
-x,-y,-z
x,-y,z
1/2+x,1/2+y,z
1/2-x,1/2+y,-z
1/2-x,1/2-y,-z
1/2+x,1/2-y,z
loop_
_atom_site_type_symbol
_atom_site_label
_atom_site_fract_x
_atom_site_fract_y
_atom_site_fract_z
Si Si1 0.846354 0.500000 0.032222
Si Si2 0.180886 0.000000 0.124547
Si Si3 0.944183 0.500000 0.193248
Si Si4 0.397572 0.718960 0.966602
Si Si5 0.446575 0.717235 0.254439
Si Si6 0.921932 0.000000 0.503697
O O1 0.762840 0.500000 0.089600
O O2 0.865297 0.500000 0.192355
O O3 0.881302 0.368473 0.929346
O O4 0.137580 0.000000 0.317248
O O5 0.164410 0.128200 0.041300
O O6 0.952043 0.371983 0.290566
O O7 0.000000 0.500000 0.000000
O O8 0.401009 0.704178 0.143468
O O9 0.472561 0.667234 0.834925
O O10 0.409591 0.631232 0.416073
O O11 0.000000 0.000000 0.500000
#
# Coordination Sequence:
#
# PCOD8078459 Si02
#       6
#     4   4   4   8   8   4
#     4  10  20  35  57  86 106 135 183 233 273 305
#     4  12  23  34  51  82 123 147 163 216 283 333
#     4  10  16  36  61  81  99 133 190 236 256 300
#     4  10  18  35  59  81 103 138 189 231 259 308
#     4  10  18  35  60  83 101 138 191 230 259 305
#     4  12  23  35  49  82 123 145 171 212 277 334
#
# _framework density 18.727933
#
# number of rings (size 3 to 8) (size 9 to 14) (size 15 to 20)
#    0.000    1.500    7.500    1.500    0.000    2.000 
#    0.000    6.875    0.000    0.000    0.000    0.000 
#    0.000    0.000    0.000    0.000    0.000    0.000 
#
# Total GULP energy -198303.802726 kJ/mol
# GULP energy per Si atom -12393.987670 kJ/mol
# Density = 1.868531 g / cm^3
# Si number density = 18.727933 Si / 1000 Ang^3
#
#
#
# Elastic Constant Matrix: (Units=GPa)
#
#
# Indices 1 2 3 4 5 6 
#
# 1 120.1259 31.9163 29.5964 0.0000 -3.9864 0.0000
# 2 31.9163 146.6862 37.8395 0.0000 12.1308 0.0000
# 3 29.5964 37.8395 66.3309 0.0000 3.2829 0.0000
# 4 0.0000 0.0000 0.0000 1.6776 0.0000 0.5254
# 5 -3.9864 12.1308 3.2829 0.0000 15.8243 0.0000
# 6 0.0000 0.0000 0.0000 0.5254 0.0000 28.8736
#
#
#
# Elastic Compliance Matrix: (Units=1/GPa)
#
#
# Indices 1 2 3 4 5 6 
#
# 1 0.009794 -0.001539 -0.003711 0.000000 0.004417 0.000000
# 2 -0.001539 0.008689 -0.003962 0.000000 -0.006227 0.000000
# 3 -0.003711 -0.003962 0.019084 0.000000 -0.001857 0.000000
# 4 0.000000 0.000000 0.000000 0.599513 0.000000 -0.010910
# 5 0.004417 -0.006227 -0.001857 0.000000 0.069465 0.000000
# 6 0.000000 0.000000 0.000000 -0.010910 0.000000 0.034832
#
#
# Mechanical properties :
#
#
# Convention : Reuss Voigt Hill
#
# Bulk Modulus (GPa) = 52.23695 59.09416 55.66556
# Shear Modulus (GPa) = 6.52586 24.86114 15.69350
#
# Velocity S-wave (km/s) = 1.86872 3.64743 2.89792
# Velocity P-wave (km/s) = 5.71045 7.02572 6.40196
#
# Compressibility (1/GPa) = 0.01914354
#
# Stress axis : x y z
#
# Youngs Moduli (GPa) = 102.09953 115.08618 52.40078
#
# Poissons Ratio (x) = 0.17713 0.19445
# Poissons Ratio (y) = 0.15714 0.20761
# Poissons Ratio (z) = 0.37887 0.45596
#
# Static dielectric constant tensor:
#      x y z
#    x 3.526210 0.000000 0.098920 
#    y 0.000000 3.792380 0.000000 
#    z 0.098920 0.000000 3.018810 
# 
# 
# High freq. dielectric constant tensor:
#      x y z
#    x 1.727150 0.000000 0.010810 
#    y 0.000000 1.753000 0.000000 
#    z 0.010810 0.000000 1.670810 
# 
# From -- ./inp_files/82711.got.cif
#   From: 2010.06.25/outbox.cif.g09.slc.cpg/sg12_42_cif.got.tgz:82711.got - 2010.06.28 00:19:55.
