data_PCOD8078852
_publ_section_title
;
Structure prediction by ZEFSAII (Michael W. Deem and Ramdas Pophale) SiO2 
 PCOD8078852
Probable space group: C 2/M
;
_chemical_formula_sum "Si O2"
_cell_formula_units_Z 48
_cell_length_a 24.138694
_cell_length_b 9.173350
_cell_length_c 14.893992
_cell_angle_alpha 90.000000
_cell_angle_beta 118.432933
_cell_angle_gamma 90.000000
_cell_volume 2900.193574
_symmetry_space_group_name_H-M "C 2/M"
_symmetry_group_IT_number 12
_symmetry_cell_setting 'monoclinic'
loop_
_space_group_symop_operation_xyz
x,y,z
-x,y,-z
-x,-y,-z
x,-y,z
1/2+x,1/2+y,z
1/2-x,1/2+y,-z
1/2-x,1/2-y,-z
1/2+x,1/2-y,z
loop_
_atom_site_type_symbol
_atom_site_label
_atom_site_fract_x
_atom_site_fract_y
_atom_site_fract_z
Si Si1 0.595819 0.668259 0.221813
Si Si2 0.926713 0.664849 0.966034
Si Si3 0.816198 0.828167 0.545316
Si Si4 0.592529 0.168103 0.509546
Si Si5 0.044628 0.332296 0.664861
Si Si6 0.452620 0.669761 0.157295
O O1 0.601319 0.500000 0.199019
O O2 0.611399 0.761493 0.145055
O O3 0.645358 0.713152 0.335787
O O4 0.526597 0.703440 0.205609
O O5 0.902890 0.500000 0.959516
O O6 0.913868 0.752390 0.047819
O O7 0.000000 0.671799 0.000000
O O8 0.750000 0.750000 0.500000
O O9 0.852954 0.770383 0.486639
O O10 0.806848 0.000000 0.528340
O O11 0.526174 0.214281 0.415144
O O12 0.589951 0.191949 0.614636
O O13 0.607652 0.000000 0.498843
O O14 0.045625 0.500000 0.696352
O O15 0.070430 0.233333 0.765506
O O16 0.437190 0.500000 0.141229
#
# Coordination Sequence:
#
# PCOD8078852 Si02
#       6
#     8   8   8   8   8   8
#     4   9  18  31  44  63  93 125 157 196 238 279
#     4   9  17  27  42  65  91 122 157 191 233 285
#     4  11  22  35  50  70  95 128 167 203 239 280
#     4   9  18  32  48  68  95 127 160 198 240 282
#     4   9  17  29  47  70  97 127 158 193 238 287
#     4  10  17  27  44  68  97 127 156 190 236 285
#
# _framework density 16.550619999999999
#
# number of rings (size 3 to 8) (size 9 to 14) (size 15 to 20)
#    0.000    2.500    1.667    2.500    0.000    4.667 
#    0.000    1.667    0.000    0.000    0.000    1.167 
#    0.000    0.000    0.000    0.000    0.000    0.000 
#
# Total GULP energy -297622.650188 kJ/mol
# GULP energy per Si atom -12400.943758 kJ/mol
# Density = 1.651295 g / cm^3
# Si number density = 16.550620 Si / 1000 Ang^3
#
#
#
# Elastic Constant Matrix: (Units=GPa)
#
#
# Indices 1 2 3 4 5 6 
#
# 1 67.9705 42.5254 38.3630 0.0000 -7.9316 0.0000
# 2 42.5254 102.0952 64.5452 0.0000 -16.1985 0.0000
# 3 38.3630 64.5452 108.0967 0.0000 -23.9832 0.0000
# 4 0.0000 0.0000 0.0000 34.6823 0.0000 -6.8871
# 5 -7.9316 -16.1985 -23.9832 0.0000 22.5404 0.0000
# 6 0.0000 0.0000 0.0000 -6.8871 0.0000 23.9383
#
#
#
# Elastic Compliance Matrix: (Units=1/GPa)
#
#
# Indices 1 2 3 4 5 6 
#
# 1 0.020738 -0.006443 -0.003823 0.000000 -0.001401 0.000000
# 2 -0.006443 0.017787 -0.007856 0.000000 0.002157 0.000000
# 3 -0.003823 -0.007856 0.017996 0.000000 0.012157 0.000000
# 4 0.000000 0.000000 0.000000 0.030580 0.000000 0.008798
# 5 -0.001401 0.002157 0.012157 0.000000 0.058357 0.000000
# 6 0.000000 0.000000 0.000000 0.008798 0.000000 0.044305
#
#
# Mechanical properties :
#
#
# Convention : Reuss Voigt Hill
#
# Bulk Modulus (GPa) = 49.31819 63.22549 56.27184
# Shear Modulus (GPa) = 21.48082 25.08078 23.28080
#
# Velocity S-wave (km/s) = 3.60653 3.89703 3.75459
# Velocity P-wave (km/s) = 6.87065 7.65071 7.27115
#
# Compressibility (1/GPa) = 0.02027650
#
# Stress axis : x y z
#
# Youngs Moduli (GPa) = 48.22127 56.22075 55.56858
#
# Poissons Ratio (x) = 0.36223 0.21247
# Poissons Ratio (y) = 0.31069 0.43653
# Poissons Ratio (z) = 0.18437 0.44165
#
# Static dielectric constant tensor:
#      x y z
#    x 2.720980 0.000000 -0.188560 
#    y 0.000000 3.156050 0.000000 
#    z -0.188560 0.000000 3.160980 
# 
# 
# High freq. dielectric constant tensor:
#      x y z
#    x 1.586470 0.000000 -0.025900 
#    y 0.000000 1.647020 0.000000 
#    z -0.025900 0.000000 1.639040 
# 
# From -- ./inp_files/230416.got.cif
#   From: 2010.06.25/outbox.cif.g09.slc.cpg/sg12_116_cif.got.tgz:230416.got - 2010.06.28 00:19:55.
