data_PCOD8078174
_publ_section_title
;
Structure prediction by ZEFSAII (Michael W. Deem and Ramdas Pophale) SiO2 
 PCOD8078174
Probable space group: C 2/M
;
_chemical_formula_sum "Si O2"
_cell_formula_units_Z 48
_cell_length_a 5.311788
_cell_length_b 14.827883
_cell_length_c 28.366378
_cell_angle_alpha 90.000000
_cell_angle_beta 111.993590
_cell_angle_gamma 90.000000
_cell_volume 2071.616005
_symmetry_space_group_name_H-M "C 2/M"
_symmetry_group_IT_number 12
_symmetry_cell_setting 'monoclinic'
loop_
_space_group_symop_operation_xyz
x,y,z
-x,y,-z
-x,-y,-z
x,-y,z
1/2+x,1/2+y,z
1/2-x,1/2+y,-z
1/2-x,1/2-y,-z
1/2+x,1/2-y,z
loop_
_atom_site_type_symbol
_atom_site_label
_atom_site_fract_x
_atom_site_fract_y
_atom_site_fract_z
Si Si1 0.207366 0.648954 0.978682
Si Si2 0.848999 0.392666 0.299484
Si Si3 0.035459 0.892929 0.642742
Si Si4 0.033922 0.648870 0.141767
Si Si5 0.880591 0.850224 0.815490
Si Si6 0.693848 0.392394 0.471923
O O1 0.086986 0.646937 0.918454
O O2 0.500000 0.599184 0.000000
O O3 0.250000 0.750000 0.000000
O O4 0.000000 0.599185 0.000000
O O5 0.835525 0.500000 0.292739
O O6 0.660068 0.358551 0.329111
O O7 0.740018 0.345578 0.245029
O O8 0.156441 0.358546 0.329104
O O9 0.920981 0.854970 0.585493
O O10 0.032959 0.000000 0.641487
O O11 0.074171 0.750603 0.161600
O O12 0.327172 0.599189 0.163721
O O13 0.829056 0.599192 0.163858
O O14 0.500000 0.355645 0.500000
O O15 0.694804 0.500000 0.472401
O O16 0.000000 0.355645 0.500000
#
# Coordination Sequence:
#
# PCOD8078174 Si02
#       6
#     8   8   8   8   8   8
#     4  10  16  25  41  63  91 110 129 161 208 274
#     4  10  19  30  44  61  85 120 154 179 204 241
#     4   9  17  28  40  58  84 113 147 180 209 248
#     4  10  19  30  45  67  92 114 136 174 223 257
#     4  10  18  30  44  61  88 118 145 176 213 253
#     4   9  15  23  37  56  78 107 139 170 210 257
#
# _framework density 23.170314999999999
#
# number of rings (size 3 to 8) (size 9 to 14) (size 15 to 20)
#    0.000    2.333    0.000    7.000    0.000    4.000 
#    0.000    0.000    0.000    0.000    0.000    0.000 
#    0.000   49.333    0.000  210.000    0.000   93.333 
#
# Total GULP energy -297482.924520 kJ/mol
# GULP energy per Si atom -12395.121855 kJ/mol
# Density = 2.311758 g / cm^3
# Si number density = 23.170315 Si / 1000 Ang^3
#
#
#
# Elastic Constant Matrix: (Units=GPa)
#
#
# Indices 1 2 3 4 5 6 
#
# 1 306.0081 -2.0452 136.2727 0.0137 0.5765 0.0000
# 2 -2.0452 15.8447 5.0150 0.0006 0.0407 0.0000
# 3 136.2727 5.0150 270.8029 0.0008 0.5411 0.0000
# 4 0.0137 0.0006 0.000825193.2910 -0.0007 -7.3092
# 5 0.5765 0.0407 0.5411 -0.0007 55.4543 0.0000
# 6 0.0000 0.0000 0.0000 -7.3092 0.0000 -6.6166
#
#
#
# Elastic Compliance Matrix: (Units=1/GPa)
#
#
# Indices 1 2 3 4 5 6 
#
# 1 0.004235 0.001229 -0.002154 0.000000 -0.000024 0.000000
# 2 0.001229 0.063841 -0.001800 0.000000 -0.000042 0.000000
# 3 -0.002154 -0.001800 0.004810 0.000000 -0.000023 0.000000
# 4 0.000000 0.000000 0.000000 0.000040 0.000000 -0.000044
# 5 -0.000024 -0.000042 -0.000023 0.000000 0.018033 0.000000
# 6 0.000000 0.000000 0.000000 -0.000044 0.000000 -0.151087
#
#
# Mechanical properties :
#
#
# Convention : Reuss Voigt Hill
#
# Bulk Modulus (GPa) = 14.82914 96.79341 55.81127
# Shear Modulus (GPa) = -155.29072 5078.65328 2461.68128
#
# Velocity S-wave (km/s) = -8.19554 46.86830 32.63028
# Velocity P-wave (km/s) = 9.11822 54.50427 37.99720
#
# Compressibility (1/GPa) = 0.06743481
#
# Stress axis : x y z
#
# Youngs Moduli (GPa) = 236.10631 15.66387 207.89796
#
# Poissons Ratio (x) = -0.01924 0.44782
# Poissons Ratio (y) = -0.29006 0.37430
# Poissons Ratio (z) = 0.50858 0.02820
#
# Static dielectric constant tensor:
#      x y z
#    x 0.381090 0.000000 -0.000860 
#    y 0.000000 3.266620 0.000000 
#    z -0.000860 0.000000 4.176210 
# 
# 
# High freq. dielectric constant tensor:
#      x y z
#    x 1.954130 0.000000 0.000000 
#    y 0.000000 1.849370 0.000000 
#    z 0.000000 0.000000 1.927600 
# 
# From -- ./inp_files/331217.got.cif
#   From: 2010.06.25/outbox.cif.g09.slc.cpg/sg12_166_cif.got.tgz:331217.got - 2010.06.28 00:19:55.
