data_PCOD8078813
_publ_section_title
;
Structure prediction by ZEFSAII (Michael W. Deem and Ramdas Pophale) SiO2 
 PCOD8078813
Probable space group: C 2/M
;
_chemical_formula_sum "Si O2"
_cell_formula_units_Z 56
_cell_length_a 21.328021
_cell_length_b 21.947049
_cell_length_c 8.691163
_cell_angle_alpha 90.000000
_cell_angle_beta 52.724927
_cell_angle_gamma 90.000000
_cell_volume 3237.234538
_symmetry_space_group_name_H-M "C 2/M"
_symmetry_group_IT_number 12
_symmetry_cell_setting 'monoclinic'
loop_
_space_group_symop_operation_xyz
x,y,z
-x,y,-z
-x,-y,-z
x,-y,z
1/2+x,1/2+y,z
1/2-x,1/2+y,-z
1/2-x,1/2-y,-z
1/2+x,1/2-y,z
loop_
_atom_site_type_symbol
_atom_site_label
_atom_site_fract_x
_atom_site_fract_y
_atom_site_fract_z
Si Si1 0.190367 0.812581 0.763888
Si Si2 0.035042 0.775551 0.115786
Si Si3 0.522525 0.929339 0.791876
Si Si4 0.358226 0.844905 0.538072
Si Si5 0.403331 0.153887 0.816044
Si Si6 0.874847 0.793419 0.457408
Si Si7 0.253632 0.205038 0.139336
O O1 0.263630 0.856724 0.701721
O O2 0.171071 0.824691 0.615263
O O3 0.216317 0.742410 0.755691
O O4 0.110700 0.820701 0.985585
O O5 0.056880 0.714493 0.175500
O O6 0.967501 0.811184 0.313364
O O7 0.000000 0.757568 0.000000
O O8 0.604209 0.895768 0.628234
O O9 0.450176 0.905819 0.796247
O O10 0.534798 0.000000 0.739222
O O11 0.500000 0.916051 0.000000
O O12 0.403924 0.844685 0.631425
O O13 0.370775 0.779575 0.441099
O O14 0.312814 0.149868 0.013130
O O15 0.834303 0.816593 0.678108
O O16 0.250000 0.250000 0.000000
#
# Coordination Sequence:
#
# PCOD8078813 Si02
#       7
#     8   8   8   8   8   8   8
#     4   9  19  30  45  69  97 129 163 203 236 302
#     4   9  18  30  46  70 100 134 167 192 239 295
#     4  11  26  40  52  70  93 129 179 219 251 294
#     4  11  20  32  50  70  93 129 170 203 257 282
#     4  11  20  31  50  67  98 132 164 212 245 289
#     4  10  18  29  46  71  98 136 165 194 239 299
#     4  10  17  27  42  70  99 122 166 197 235 292
#
# _framework density 17.298715999999999
#
# number of rings (size 3 to 8) (size 9 to 14) (size 15 to 20)
#    0.000    1.857    4.286    2.571    6.000    1.143 
#    0.000    0.000    0.000    0.000    0.000    0.000 
#    0.000    6.286    0.000    2.571    0.000    0.000 
#
# Total GULP energy -346921.627849 kJ/mol
# GULP energy per Si atom -12390.058137 kJ/mol
# Density = 1.725934 g / cm^3
# Si number density = 17.298716 Si / 1000 Ang^3
#
#
#
# Elastic Constant Matrix: (Units=GPa)
#
#
# Indices 1 2 3 4 5 6 
#
# 1 96.7385 25.6289 49.0495 0.0000 -16.2472 0.0000
# 2 25.6289 40.4063 19.5214 0.0000 -7.6613 0.0000
# 3 49.0495 19.5214 108.4565 0.0000 -25.3102 0.0000
# 4 0.0000 0.0000 0.0000 17.9190 0.0000 -2.6672
# 5 -16.2472 -7.6613 -25.3102 0.0000 38.3090 0.0000
# 6 0.0000 0.0000 0.0000 -2.6672 0.0000 14.8906
#
#
#
# Elastic Compliance Matrix: (Units=1/GPa)
#
#
# Indices 1 2 3 4 5 6 
#
# 1 0.015027 -0.006710 -0.005219 0.000000 0.001583 0.000000
# 2 -0.006710 0.030322 -0.001977 0.000000 0.001912 0.000000
# 3 -0.005219 -0.001977 0.013392 0.000000 0.006239 0.000000
# 4 0.000000 0.000000 0.000000 0.057335 0.000000 0.010270
# 5 0.001583 0.001912 0.006239 0.000000 0.031280 0.000000
# 6 0.000000 0.000000 0.000000 0.010270 0.000000 0.068996
#
#
# Mechanical properties :
#
#
# Convention : Reuss Voigt Hill
#
# Bulk Modulus (GPa) = 32.33062 48.22233 40.27647
# Shear Modulus (GPa) = 19.64843 24.31715 21.98279
#
# Velocity S-wave (km/s) = 3.37387 3.75336 3.56866
# Velocity P-wave (km/s) = 5.82301 6.83523 6.34933
#
# Compressibility (1/GPa) = 0.03093044
#
# Stress axis : x y z
#
# Youngs Moduli (GPa) = 66.54835 32.97914 74.66938
#
# Poissons Ratio (x) = 0.22128 0.38967
# Poissons Ratio (y) = 0.44652 0.14763
# Poissons Ratio (z) = 0.34729 0.06520
#
# Static dielectric constant tensor:
#      x y z
#    x 3.617730 0.000000 -0.366060 
#    y 0.000000 2.551480 0.000000 
#    z -0.366060 0.000000 3.766690 
# 
# 
# High freq. dielectric constant tensor:
#      x y z
#    x 1.683730 0.000000 -0.009360 
#    y 0.000000 1.564950 0.000000 
#    z -0.009360 0.000000 1.699790 
# 
# From -- ./inp_files/89060.got.cif
#   From: 2010.06.25/outbox.cif.g09.slc.cpg/sg12_45_cif.got.tgz:89060.got - 2010.06.28 00:19:55.
