data_PCOD8078975
_publ_section_title
;
Structure prediction by ZEFSAII (Michael W. Deem and Ramdas Pophale) SiO2 
 PCOD8078975
Probable space group: C 2/M
;
_chemical_formula_sum "Si O2"
_cell_formula_units_Z 56
_cell_length_a 28.877947
_cell_length_b 9.124133
_cell_length_c 13.604466
_cell_angle_alpha 90.000000
_cell_angle_beta 74.774378
_cell_angle_gamma 90.000000
_cell_volume 3458.767310
_symmetry_space_group_name_H-M "C 2/M"
_symmetry_group_IT_number 12
_symmetry_cell_setting 'monoclinic'
loop_
_space_group_symop_operation_xyz
x,y,z
-x,y,-z
-x,-y,-z
x,-y,z
1/2+x,1/2+y,z
1/2-x,1/2+y,-z
1/2-x,1/2-y,-z
1/2+x,1/2-y,z
loop_
_atom_site_type_symbol
_atom_site_label
_atom_site_fract_x
_atom_site_fract_y
_atom_site_fract_z
Si Si1 0.193367 0.335226 0.912736
Si Si2 0.355518 0.169816 0.859602
Si Si3 0.854805 0.170084 0.229680
Si Si4 0.448549 0.173389 0.916786
Si Si5 0.258943 0.327040 0.392594
Si Si6 0.709135 0.331099 0.244751
Si Si7 0.554551 0.827188 0.858384
O O1 0.177002 0.500000 0.892424
O O2 0.162066 0.222762 0.867730
O O3 0.249436 0.313467 0.859962
O O4 0.183552 0.307674 0.032561
O O5 0.407317 0.231769 0.866442
O O6 0.339236 0.263812 0.774630
O O7 0.358699 0.000000 0.826750
O O8 0.813853 0.207331 0.332034
O O9 0.904594 0.250281 0.230765
O O10 0.865374 0.000000 0.218425
O O11 0.501532 0.219930 0.849383
O O12 0.444896 0.000000 0.924168
O O13 0.439866 0.229700 0.032508
O O14 0.249364 0.500000 0.404815
O O15 0.250000 0.250000 0.500000
O O16 0.222321 0.258703 0.334692
O O17 0.700445 0.500000 0.278224
O O18 0.561242 0.000000 0.846222
#
# Coordination Sequence:
#
# PCOD8078975 Si02
#       7
#     8   8   8   8   8   8   8
#     4   9  17  29  44  61  88 128 165 191 220 267
#     4  10  17  28  44  64  92 128 164 195 227 262
#     4  10  19  29  45  70  97 121 150 192 239 280
#     4   8  15  26  44  65  89 126 169 202 223 257
#     4  10  21  37  54  72  93 118 150 192 238 284
#     4  10  20  31  45  68  94 122 156 191 231 281
#     4   9  15  28  46  64  89 126 167 198 227 267
#
# _framework density 16.190738
#
# number of rings (size 3 to 8) (size 9 to 14) (size 15 to 20)
#    0.000    2.571    1.429    2.571    0.000    2.857 
#    0.000    2.143    0.000    0.000    0.000    1.000 
#    0.000    8.000    0.000    0.000    0.000    0.000 
#
# Total GULP energy -347092.370615 kJ/mol
# GULP energy per Si atom -12396.156093 kJ/mol
# Density = 1.615389 g / cm^3
# Si number density = 16.190738 Si / 1000 Ang^3
#
#
#
# Elastic Constant Matrix: (Units=GPa)
#
#
# Indices 1 2 3 4 5 6 
#
# 1 129.7307 53.1556 51.2601 0.0000 9.0375 0.0000
# 2 53.1556 75.2803 44.9640 0.0000 2.3956 0.0000
# 3 51.2601 44.9640 70.7271 0.0000 7.1730 0.0000
# 4 0.0000 0.0000 0.0000 23.3239 0.0000 1.9110
# 5 9.0375 2.3956 7.1730 0.0000 15.7397 0.0000
# 6 0.0000 0.0000 0.0000 1.9110 0.0000 26.0159
#
#
#
# Elastic Compliance Matrix: (Units=1/GPa)
#
#
# Indices 1 2 3 4 5 6 
#
# 1 0.012198 -0.005555 -0.004912 0.000000 -0.003920 0.000000
# 2 -0.005555 0.024089 -0.011785 0.000000 0.004894 0.000000
# 3 -0.004912 -0.011785 0.025921 0.000000 -0.007199 0.000000
# 4 0.000000 0.000000 0.000000 0.043134 0.000000 -0.003168
# 5 -0.003920 0.004894 -0.007199 0.000000 0.068320 0.000000
# 6 0.000000 0.000000 0.000000 -0.003168 0.000000 0.038671
#
#
# Mechanical properties :
#
#
# Convention : Reuss Voigt Hill
#
# Bulk Modulus (GPa) = 56.47985 63.83305 60.15645
# Shear Modulus (GPa) = 19.03036 21.43978 20.23507
#
# Velocity S-wave (km/s) = 3.43211 3.64290 3.53908
# Velocity P-wave (km/s) = 7.11798 7.56344 7.34409
#
# Compressibility (1/GPa) = 0.01770543
#
# Stress axis : x y z
#
# Youngs Moduli (GPa) = 81.98000 41.51262 38.57877
#
# Poissons Ratio (x) = 0.23059 0.18949
# Poissons Ratio (y) = 0.45536 0.45465
# Poissons Ratio (z) = 0.40267 0.48922
#
# Static dielectric constant tensor:
#      x y z
#    x 3.321380 0.000000 -0.086440 
#    y 0.000000 3.005240 0.000000 
#    z -0.086440 0.000000 2.724410 
# 
# 
# High freq. dielectric constant tensor:
#      x y z
#    x 1.627060 0.000000 -0.002550 
#    y 0.000000 1.616630 0.000000 
#    z -0.002550 0.000000 1.575560 
# 
# From -- ./inp_files/247793.got.cif
#   From: 2010.06.25/outbox.cif.g09.slc.cpg/sg12_124_cif.got.tgz:247793.got - 2010.06.28 00:19:55.
