data_PCOD8078627
_publ_section_title
;
Structure prediction by ZEFSAII (Michael W. Deem and Ramdas Pophale) SiO2 
 PCOD8078627
Probable space group: C 2/M
;
_chemical_formula_sum "Si O2"
_cell_formula_units_Z 64
_cell_length_a 24.505663
_cell_length_b 9.115640
_cell_length_c 24.536152
_cell_angle_alpha 90.000000
_cell_angle_beta 48.815918
_cell_angle_gamma 90.000000
_cell_volume 4124.991568
_symmetry_space_group_name_H-M "C 2/M"
_symmetry_group_IT_number 12
_symmetry_cell_setting 'monoclinic'
loop_
_space_group_symop_operation_xyz
x,y,z
-x,y,-z
-x,-y,-z
x,-y,z
1/2+x,1/2+y,z
1/2-x,1/2+y,-z
1/2-x,1/2-y,-z
1/2+x,1/2-y,z
loop_
_atom_site_type_symbol
_atom_site_label
_atom_site_fract_x
_atom_site_fract_y
_atom_site_fract_z
Si Si1 0.701670 0.673047 0.486788
Si Si2 0.419940 0.167431 0.382524
Si Si3 0.975506 0.827326 0.958646
Si Si4 0.830518 0.168235 0.998910
Si Si5 0.943904 0.828549 0.199709
Si Si6 0.171975 0.337063 0.667008
Si Si7 0.667908 0.169222 0.114215
Si Si8 0.962723 0.172638 0.756213
O O1 0.695093 0.500000 0.503900
O O2 0.750000 0.750000 0.500000
O O3 0.622236 0.748673 0.540433
O O4 0.743126 0.699117 0.401533
O O5 0.371056 0.176973 0.361114
O O6 0.495484 0.250436 0.321343
O O7 0.435210 0.000000 0.389843
O O8 0.023913 0.761498 0.877407
O O9 0.890707 0.792051 0.004505
O O10 0.988813 0.000000 0.951762
O O11 0.000000 0.755772 0.000000
O O12 0.841530 0.274698 0.940942
O O13 0.840779 0.000000 0.971640
O O14 0.751476 0.189652 0.077774
O O15 0.863221 0.767592 0.264462
O O16 0.998702 0.786796 0.212168
O O17 0.935355 0.000000 0.200325
O O18 0.164914 0.500000 0.695228
O O19 0.618387 0.262368 0.188077
O O20 0.644042 0.000000 0.131998
O O21 0.960177 0.000000 0.747189
#
# Coordination Sequence:
#
# PCOD8078627 Si02
#       8
#     8   8   8   8   8   8   8   8
#     4   9  15  23  33  47  68  98 133 164 196 232
#     4   9  16  24  34  51  74  99 130 162 197 237
#     4   9  16  28  45  61  78 102 134 173 210 244
#     4   9  17  30  43  59  79 101 133 167 205 249
#     4   9  16  25  38  55  72  95 130 167 199 237
#     4   8  15  24  34  48  69  97 127 161 195 230
#     4  10  18  26  41  60  80 104 130 167 206 242
#     4  10  17  26  39  55  78 104 133 166 198 237
#
# _framework density 15.515184
#
# number of rings (size 3 to 8) (size 9 to 14) (size 15 to 20)
#    0.000    2.875    1.250    2.250    0.000    4.500 
#    0.000    0.000    0.000    1.500    0.000    0.000 
#    0.000    0.000    0.000    1.125    0.000   24.375 
#
# Total GULP energy -396567.073495 kJ/mol
# GULP energy per Si atom -12392.721047 kJ/mol
# Density = 1.547987 g / cm^3
# Si number density = 15.515184 Si / 1000 Ang^3
#
#
#
# Elastic Constant Matrix: (Units=GPa)
#
#
# Indices 1 2 3 4 5 6 
#
# 1 52.3135 21.7914 40.2130 -0.0003 -10.3030 0.0021
# 2 21.7914 71.5462 48.6971 -0.0016 -16.7275 0.0058
# 3 40.2130 48.6971 118.6134 -0.0004 -32.1610 0.0009
# 4 -0.0003 -0.0016 -0.0004 29.2042 -0.0001 -9.2578
# 5 -10.3030 -16.7275 -32.1610 -0.0001 20.9060 -0.0005
# 6 0.0021 0.0058 0.0009 -9.2578 -0.0005 10.5643
#
#
#
# Elastic Compliance Matrix: (Units=1/GPa)
#
#
# Indices 1 2 3 4 5 6 
#
# 1 0.026273 -0.002836 -0.008316 -0.000001 -0.002115 -0.000004
# 2 -0.002836 0.020095 -0.005675 -0.000003 0.005950 -0.000012
# 3 -0.008316 -0.005675 0.019279 0.000002 0.021019 0.000006
# 4 -0.000001 -0.000003 0.000002 0.047413 0.000001 0.041550
# 5 -0.002115 0.005950 0.021019 0.000001 0.083887 0.000000
# 6 -0.000004 -0.000012 0.000006 0.041550 0.000000 0.131070
#
#
# Mechanical properties :
#
#
# Convention : Reuss Voigt Hill
#
# Bulk Modulus (GPa) = 31.25765 51.54177 41.39971
# Shear Modulus (GPa) = 13.42874 20.91968 17.17421
#
# Velocity S-wave (km/s) = 2.94517 3.67595 3.33066
# Velocity P-wave (km/s) = 5.63521 7.16304 6.44456
#
# Compressibility (1/GPa) = 0.03199217
#
# Stress axis : x y z
#
# Youngs Moduli (GPa) = 38.06169 49.76450 51.86944
#
# Poissons Ratio (x) = 0.14115 0.43136
# Poissons Ratio (y) = 0.10795 0.29436
# Poissons Ratio (z) = 0.31653 0.28241
#
# Static dielectric constant tensor:
#      x y z
#    x 2.594520 0.000000 -0.375910 
#    y 0.000000 2.977090 0.000000 
#    z -0.375910 0.000000 3.442880 
# 
# 
# High freq. dielectric constant tensor:
#      x y z
#    x 1.524330 0.000000 -0.040990 
#    y 0.000000 1.596110 0.000000 
#    z -0.040990 0.000000 1.600840 
# 
# From -- ./inp_files/345536.got.cif
#   From: 2010.06.25/outbox.cif.g09.slc.cpg/sg12_173_cif.got.tgz:345536.got - 2010.06.28 00:19:55.
