data_PCOD8078334
_publ_section_title
;
Structure prediction by ZEFSAII (Michael W. Deem and Ramdas Pophale) SiO2 
 PCOD8078334
Probable space group: C 2/M
;
_chemical_formula_sum "Si O2"
_cell_formula_units_Z 52
_cell_length_a 5.242938
_cell_length_b 25.444248
_cell_length_c 22.768001
_cell_angle_alpha 90.000000
_cell_angle_beta 69.792569
_cell_angle_gamma 90.000000
_cell_volume 2850.359009
_symmetry_space_group_name_H-M "C 2/M"
_symmetry_group_IT_number 12
_symmetry_cell_setting 'monoclinic'
loop_
_space_group_symop_operation_xyz
x,y,z
-x,y,-z
-x,-y,-z
x,-y,z
1/2+x,1/2+y,z
1/2-x,1/2+y,-z
1/2-x,1/2-y,-z
1/2+x,1/2-y,z
loop_
_atom_site_type_symbol
_atom_site_label
_atom_site_fract_x
_atom_site_fract_y
_atom_site_fract_z
Si Si1 0.635861 0.619752 0.242743
Si Si2 0.790517 0.190824 0.472989
Si Si3 0.500000 0.214111 0.000000
Si Si4 0.864616 0.441450 0.756938
Si Si5 0.641446 0.121425 0.905714
Si Si6 0.357688 0.558973 0.094865
Si Si7 0.997567 0.215720 0.668285
O O1 0.352955 0.588305 0.266097
O O2 0.747034 0.629490 0.168628
O O3 0.587545 0.675683 0.274978
O O4 0.848676 0.588293 0.266093
O O5 0.500000 0.161526 0.500000
O O6 0.750000 0.250000 0.500000
O O7 0.000000 0.161526 0.500000
O O8 0.902291 0.187141 0.398475
O O9 0.593267 0.178321 0.937825
O O10 0.250000 0.250000 0.000000
O O11 0.907533 0.500000 0.728309
O O12 0.753366 0.444619 0.831094
O O13 0.358463 0.089485 0.928476
O O14 0.856147 0.089488 0.928478
O O15 0.400001 0.500000 0.066660
O O16 0.737507 0.250000 0.674990
#
# Coordination Sequence:
#
# PCOD8078334 Si02
#       7
#     8   8   4   8   8   8   8
#     4  10  21  33  51  80 106 130 172 214 257 306
#     4  10  16  30  47  65  94 138 166 196 242 297
#     4  12  26  42  59  70  93 146 196 218 242 294
#     4   9  17  33  54  75 103 138 166 207 259 311
#     4  10  21  38  54  76 105 131 173 223 249 299
#     4   9  17  33  59  83 105 129 154 200 281 334
#     4  12  21  31  48  73 107 143 164 205 250 301
#
# _framework density 18.243316
#
# number of rings (size 3 to 8) (size 9 to 14) (size 15 to 20)
#    0.000    1.846    3.077    2.769    0.000    4.923 
#    0.000    2.308    0.000    0.000    0.000    0.000 
#    0.000   12.308    0.000    0.000    0.000    0.000 
#
# Total GULP energy -322370.735656 kJ/mol
# GULP energy per Si atom -12398.874448 kJ/mol
# Density = 1.820179 g / cm^3
# Si number density = 18.243316 Si / 1000 Ang^3
#
#
#
# Elastic Constant Matrix: (Units=GPa)
#
#
# Indices 1 2 3 4 5 6 
#
# 1 215.8391 81.7750 38.0583 0.0000 -10.8479 0.0000
# 2 81.7750 116.4563 42.4845 0.0000 -2.6133 0.0000
# 3 38.0583 42.4845 71.3100 0.0000 1.2301 0.0000
# 4 0.0000 0.0000 0.0000 -1.2535 0.0000 -3.1211
# 5 -10.8479 -2.6133 1.2301 0.0000 8.1842 0.0000
# 6 0.0000 0.0000 0.0000 -3.1211 0.0000 45.5633
#
#
#
# Elastic Compliance Matrix: (Units=1/GPa)
#
#
# Indices 1 2 3 4 5 6 
#
# 1 0.006832 -0.004139 -0.001317 0.000000 0.007932 0.000000
# 2 -0.004139 0.013647 -0.005917 0.000000 -0.000239 0.000000
# 3 -0.001317 -0.005917 0.018362 0.000000 -0.006395 0.000000
# 4 0.000000 0.000000 0.000000 -0.681512 0.000000 -0.046684
# 5 0.007932 -0.000239 -0.006395 0.000000 0.133586 0.000000
# 6 0.000000 0.000000 0.000000 -0.046684 0.000000 0.018750
#
#
# Mechanical properties :
#
#
# Convention : Reuss Voigt Hill
#
# Bulk Modulus (GPa) = 62.13560 80.91566 71.52563
# Shear Modulus (GPa) = -10.81725 26.58464 7.88370
#
# Velocity S-wave (km/s) = -2.43768 3.82150 2.08106
# Velocity P-wave (km/s) = 5.11959 7.99511 6.71312
#
# Compressibility (1/GPa) = 0.01609383
#
# Stress axis : x y z
#
# Youngs Moduli (GPa) = 146.36698 73.27880 54.46058
#
# Poissons Ratio (x) = 0.30330 0.07174
# Poissons Ratio (y) = 0.60580 0.32225
# Poissons Ratio (z) = 0.19281 0.43360
#
# Static dielectric constant tensor:
#      x y z
#    x 6.428430 0.000000 -0.218260 
#    y 0.000000 3.215480 0.000000 
#    z -0.218260 0.000000 3.154180 
# 
# 
# High freq. dielectric constant tensor:
#      x y z
#    x 1.740160 0.000000 -0.003650 
#    y 0.000000 1.679720 0.000000 
#    z -0.003650 0.000000 1.685400 
# 
# From -- ./inp_files/331244.got.cif
#   From: 2010.06.25/outbox.cif.g09.slc.cpg/sg12_166_cif.got.tgz:331244.got - 2010.06.28 00:19:55.
