data_PCOD8078788
_publ_section_title
;
Structure prediction by ZEFSAII (Michael W. Deem and Ramdas Pophale) SiO2 
 PCOD8078788
Probable space group: C 2/M
;
_chemical_formula_sum "Si O2"
_cell_formula_units_Z 56
_cell_length_a 28.863308
_cell_length_b 9.190090
_cell_length_c 28.859346
_cell_angle_alpha 90.000000
_cell_angle_beta 28.495650
_cell_angle_gamma 90.000000
_cell_volume 3652.199744
_symmetry_space_group_name_H-M "C 2/M"
_symmetry_group_IT_number 12
_symmetry_cell_setting 'monoclinic'
loop_
_space_group_symop_operation_xyz
x,y,z
-x,y,-z
-x,-y,-z
x,-y,z
1/2+x,1/2+y,z
1/2-x,1/2+y,-z
1/2-x,1/2-y,-z
1/2+x,1/2-y,z
loop_
_atom_site_type_symbol
_atom_site_label
_atom_site_fract_x
_atom_site_fract_y
_atom_site_fract_z
Si Si1 0.598221 0.327902 0.935202
Si Si2 0.906069 0.839318 0.550304
Si Si3 0.384980 0.834917 0.791163
Si Si4 0.050983 0.171348 0.348998
Si Si5 0.151086 0.668868 0.076669
Si Si6 0.342830 0.669778 0.016386
Si Si7 0.299496 0.171465 0.716214
O O1 0.589717 0.500000 0.945701
O O2 0.613592 0.269306 0.973855
O O3 0.688038 0.285156 0.823312
O O4 0.500000 0.259709 0.000000
O O5 0.827726 0.726673 0.639784
O O6 0.000000 0.842241 0.500000
O O7 0.945524 0.793470 0.464699
O O8 0.858404 0.000000 0.590773
O O9 0.450453 0.727680 0.702550
O O10 0.414709 0.813040 0.819162
O O11 0.271846 0.798657 0.882844
O O12 0.405711 0.000000 0.757338
O O13 0.136343 0.253359 0.300932
O O14 0.072141 0.000000 0.332414
O O15 0.172259 0.500000 0.048331
O O16 0.250000 0.750000 0.000000
O O17 0.104348 0.742613 0.072015
O O18 0.364196 0.500000 0.990343
O O19 0.316854 0.000000 0.704015
#
# Coordination Sequence:
#
# PCOD8078788 Si02
#       7
#     8   8   8   8   8   8   8
#     4   9  17  29  44  61  82 109 142 178 210 239
#     4   8  16  28  38  54  79 106 134 163 200 246
#     4   9  16  26  39  58  82 106 137 169 196 238
#     4  10  18  26  39  58  82 110 136 163 201 246
#     4   9  17  27  39  57  80 107 136 167 202 244
#     4   9  16  28  42  57  79 107 139 173 205 240
#     4  10  17  27  42  58  77 105 140 173 204 238
#
# _framework density 15.333225000000001
#
# number of rings (size 3 to 8) (size 9 to 14) (size 15 to 20)
#    0.000    2.857    1.429    3.000    0.000    6.000 
#    0.000    0.000    0.000    3.857    0.000    0.000 
#    0.000    1.143    0.000    2.571    0.000    4.000 
#
# Total GULP energy -346980.189401 kJ/mol
# GULP energy per Si atom -12392.149621 kJ/mol
# Density = 1.529833 g / cm^3
# Si number density = 15.333225 Si / 1000 Ang^3
#
#
#
# Elastic Constant Matrix: (Units=GPa)
#
#
# Indices 1 2 3 4 5 6 
#
# 1 78.6723 36.2540 54.2673 0.0233 21.9505 -0.0110
# 2 36.2540 76.9918 52.0521 0.0074 18.8405 0.0035
# 3 54.2673 52.0521 95.3993 0.0725 25.8266 -0.0753
# 4 0.0233 0.0074 0.0725 21.1413 -0.0263 12.9003
# 5 21.9505 18.8405 25.8266 -0.0263 25.9116 0.0198
# 6 -0.0110 0.0035 -0.0753 12.9003 0.0198 17.4307
#
#
#
# Elastic Compliance Matrix: (Units=1/GPa)
#
#
# Indices 1 2 3 4 5 6 
#
# 1 0.022458 -0.002285 -0.009351 0.000015 -0.008043 -0.000028
# 2 -0.002285 0.021330 -0.009127 0.000083 -0.004477 -0.000101
# 3 -0.009351 -0.009127 0.023064 -0.000256 -0.008432 0.000294
# 4 0.000015 0.000083 -0.000256 0.086257 0.000318 -0.063839
# 5 -0.008043 -0.004477 -0.008432 0.000318 0.057066 -0.000341
# 6 -0.000028 -0.000101 0.000294 -0.063839 -0.000341 0.104619
#
#
# Mechanical properties :
#
#
# Convention : Reuss Voigt Hill
#
# Bulk Modulus (GPa) = 39.48299 59.57893 49.53096
# Shear Modulus (GPa) = 13.70755 20.12936 16.91846
#
# Velocity S-wave (km/s) = 2.99319 3.62718 3.32533
# Velocity P-wave (km/s) = 6.14422 7.51548 6.86417
#
# Compressibility (1/GPa) = 0.02532736
#
# Stress axis : x y z
#
# Youngs Moduli (GPa) = 44.52673 46.88211 43.35692
#
# Poissons Ratio (x) = 0.10712 0.40544
# Poissons Ratio (y) = 0.10174 0.39570
# Poissons Ratio (z) = 0.41638 0.42788
#
# Static dielectric constant tensor:
#      x y z
#    x 3.072730 -0.000040 0.503150 
#    y -0.000040 2.964480 0.000020 
#    z 0.503150 0.000020 3.106600 
# 
# 
# High freq. dielectric constant tensor:
#      x y z
#    x 1.551710 0.000000 0.045740 
#    y 0.000000 1.586630 0.000000 
#    z 0.045740 0.000000 1.567220 
# 
# From -- ./inp_files/384421.got.cif
#   From: 2010.06.25/outbox.cif.g09.slc.cpg/sg12_193_cif.got.tgz:384421.got - 2010.06.28 00:19:55.
