data_PCOD8078957
_publ_section_title
;
Structure prediction by ZEFSAII (Michael W. Deem and Ramdas Pophale) SiO2 
 PCOD8078957
Probable space group: C 2/M
;
_chemical_formula_sum "Si O2"
_cell_formula_units_Z 56
_cell_length_a 28.690071
_cell_length_b 8.922619
_cell_length_c 28.868753
_cell_angle_alpha 90.000000
_cell_angle_beta 151.100528
_cell_angle_gamma 90.000000
_cell_volume 3571.459346
_symmetry_space_group_name_H-M "C 2/M"
_symmetry_group_IT_number 12
_symmetry_cell_setting 'monoclinic'
loop_
_space_group_symop_operation_xyz
x,y,z
-x,y,-z
-x,-y,-z
x,-y,z
1/2+x,1/2+y,z
1/2-x,1/2+y,-z
1/2-x,1/2-y,-z
1/2+x,1/2-y,z
loop_
_atom_site_type_symbol
_atom_site_label
_atom_site_fract_x
_atom_site_fract_y
_atom_site_fract_z
Si Si1 0.127574 0.823728 0.700306
Si Si2 0.542197 0.825390 0.775724
Si Si3 0.345637 0.824625 0.564978
Si Si4 0.324467 0.824234 0.030112
Si Si5 0.614693 0.834470 0.597867
Si Si6 0.423399 0.175190 0.534166
Si Si7 0.285042 0.822099 0.139177
O O1 0.155012 0.780101 0.671232
O O2 0.205809 0.745018 0.801554
O O3 0.021231 0.769584 0.621601
O O4 0.134715 0.000000 0.712200
O O5 0.437496 0.756125 0.673006
O O6 0.570634 0.796374 0.854496
O O7 0.623698 0.762826 0.811552
O O8 0.536495 0.000000 0.759684
O O9 0.250000 0.750000 0.500000
O O10 0.358010 0.786979 0.521461
O O11 0.336107 0.000000 0.565405
O O12 0.303270 0.000000 0.006918
O O13 0.250000 0.750000 0.000000
O O14 0.312531 0.744140 0.969810
O O15 0.500000 0.839274 0.500000
O O16 0.639370 0.783955 0.566495
O O17 0.656989 0.000000 0.645081
O O18 0.453548 0.000000 0.559521
O O19 0.276763 0.000000 0.134107
#
# Coordination Sequence:
#
# PCOD8078957 Si02
#       7
#     8   8   8   8   8   8   8
#     4  11  19  25  39  64  89 111 139 178 214 254
#     4   8  15  28  44  56  79 113 142 174 216 252
#     4  10  19  32  46  63  84 113 150 186 217 249
#     4   9  16  26  40  61  82 109 143 176 212 256
#     4   8  15  27  42  58  77 111 147 171 205 259
#     4   9  17  31  46  56  79 116 149 177 213 259
#     4  10  17  28  43  59  83 117 145 173 209 257
#
# _framework density 15.679864
#
# number of rings (size 3 to 8) (size 9 to 14) (size 15 to 20)
#    0.000    2.714    1.429    3.857    0.000    3.143 
#    0.000    1.429    0.000    0.000    0.000    0.000 
#    0.000    1.143    0.000   13.143    0.000    4.000 
#
# Total GULP energy -346946.613080 kJ/mol
# GULP energy per Si atom -12390.950467 kJ/mol
# Density = 1.564418 g / cm^3
# Si number density = 15.679864 Si / 1000 Ang^3
#
#
#
# Elastic Constant Matrix: (Units=GPa)
#
#
# Indices 1 2 3 4 5 6 
#
# 1 76.3067 34.4342 56.0881 0.0000 -22.8965 0.0000
# 2 34.4342 80.7061 41.3259 0.0001 -18.7408 0.0001
# 3 56.0881 41.3259 100.8294 0.0000 -29.8743 0.0000
# 4 0.0000 0.0001 0.0000 23.8040 0.0000 -6.0784
# 5 -22.8965 -18.7408 -29.8743 0.0000 29.0372 0.0000
# 6 0.0000 0.0001 0.0000 -6.0784 0.0000 19.3377
#
#
#
# Elastic Compliance Matrix: (Units=1/GPa)
#
#
# Indices 1 2 3 4 5 6 
#
# 1 0.023973 -0.003663 -0.009974 0.000000 0.006277 0.000000
# 2 -0.003663 0.016773 -0.003575 0.000000 0.004259 0.000000
# 3 -0.009974 -0.003575 0.020020 0.000000 0.010425 0.000000
# 4 0.000000 0.000000 0.000000 0.045676 0.000000 0.014357
# 5 0.006277 0.004259 0.010425 0.000000 0.052863 0.000000
# 6 0.000000 0.000000 0.000000 0.014357 0.000000 0.056225
#
#
# Mechanical properties :
#
#
# Convention : Reuss Voigt Hill
#
# Bulk Modulus (GPa) = 37.96325 57.94872 47.95598
# Shear Modulus (GPa) = 19.32476 22.83538 21.08007
#
# Velocity S-wave (km/s) = 3.51445 3.82036 3.67059
# Velocity P-wave (km/s) = 6.38220 7.51650 6.97246
#
# Compressibility (1/GPa) = 0.02634127
#
# Stress axis : x y z
#
# Youngs Moduli (GPa) = 41.71359 59.61885 49.95011
#
# Poissons Ratio (x) = 0.21841 0.49820
# Poissons Ratio (y) = 0.15282 0.17857
# Poissons Ratio (z) = 0.41605 0.21314
#
# Static dielectric constant tensor:
#      x y z
#    x 2.942380 0.000000 -0.541040 
#    y 0.000000 2.929080 0.000000 
#    z -0.541040 0.000000 3.323270 
# 
# 
# High freq. dielectric constant tensor:
#      x y z
#    x 1.561120 0.000000 -0.049160 
#    y 0.000000 1.596380 0.000000 
#    z -0.049160 0.000000 1.588450 
# 
# From -- ./inp_files/247719.got.cif
#   From: 2010.06.25/outbox.cif.g09.slc.cpg/sg12_124_cif.got.tgz:247719.got - 2010.06.28 00:19:55.
