data_PCOD8078503
_publ_section_title
;
Structure prediction by ZEFSAII (Michael W. Deem and Ramdas Pophale) SiO2 
 PCOD8078503
Probable space group: C 2/M
;
_chemical_formula_sum "Si O2"
_cell_formula_units_Z 56
_cell_length_a 24.694446
_cell_length_b 8.794174
_cell_length_c 17.825541
_cell_angle_alpha 90.000000
_cell_angle_beta 62.613066
_cell_angle_gamma 90.000000
_cell_volume 3437.249444
_symmetry_space_group_name_H-M "C 2/M"
_symmetry_group_IT_number 12
_symmetry_cell_setting 'monoclinic'
loop_
_space_group_symop_operation_xyz
x,y,z
-x,y,-z
-x,-y,-z
x,-y,z
1/2+x,1/2+y,z
1/2-x,1/2+y,-z
1/2-x,1/2-y,-z
1/2+x,1/2-y,z
loop_
_atom_site_type_symbol
_atom_site_label
_atom_site_fract_x
_atom_site_fract_y
_atom_site_fract_z
Si Si1 0.571400 0.176592 0.398885
Si Si2 0.103624 0.674093 0.218002
Si Si3 0.585958 0.679712 0.993379
Si Si4 0.042801 0.820211 0.863912
Si Si5 0.557561 0.320934 0.552192
Si Si6 0.963031 0.321933 0.285371
Si Si7 0.184079 0.178832 0.045724
O O1 0.616668 0.196027 0.299023
O O2 0.598903 0.242238 0.459739
O O3 0.511788 0.274740 0.419038
O O4 0.553276 0.000000 0.419080
O O5 0.114715 0.500000 0.186942
O O6 0.150756 0.780015 0.144392
O O7 0.034404 0.723149 0.243286
O O8 0.583409 0.500000 0.001157
O O9 0.587724 0.725596 0.904265
O O10 0.524618 0.740713 0.071999
O O11 0.644622 0.743364 0.000474
O O12 0.065228 0.734983 0.775041
O O13 0.043347 0.000000 0.849129
O O14 0.567139 0.500000 0.543267
O O15 0.574920 0.258977 0.623612
O O16 0.953855 0.500000 0.300598
O O17 0.191081 0.000000 0.036153
O O18 0.250000 0.250000 0.000000
#
# Coordination Sequence:
#
# PCOD8078503 Si02
#       7
#     8   8   8   8   8   8   8
#     4   9  16  27  40  56  83 113 142 181 224 260
#     4   9  18  30  43  60  84 115 149 182 220 266
#     4   8  16  29  46  65  85 112 146 185 226 264
#     4   9  15  28  47  65  85 112 149 184 218 268
#     4  10  17  24  37  58  83 115 151 178 208 258
#     4  10  18  27  40  62  91 118 145 180 223 263
#     4  11  21  33  48  65  87 117 151 189 227 262
#
# _framework density 16.292096999999998
#
# number of rings (size 3 to 8) (size 9 to 14) (size 15 to 20)
#    0.000    2.571    1.429    5.143    0.000    2.857 
#    0.000    2.857    0.000    0.000    0.000    0.000 
#    0.000    1.143    0.000    3.429    0.000    4.857 
#
# Total GULP energy -346985.159749 kJ/mol
# GULP energy per Si atom -12392.327134 kJ/mol
# Density = 1.625502 g / cm^3
# Si number density = 16.292097 Si / 1000 Ang^3
#
#
#
# Elastic Constant Matrix: (Units=GPa)
#
#
# Indices 1 2 3 4 5 6 
#
# 1 69.5400 25.3628 50.5328 0.0001 13.6414 -0.0001
# 2 25.3628 68.1201 43.6112 0.0002 9.3117 0.0004
# 3 50.5328 43.6112 122.8518 0.0001 35.8056 0.0003
# 4 0.0001 0.0002 0.0001 30.6432 0.0000 3.8280
# 5 13.6414 9.3117 35.8056 0.0000 24.8579 0.0000
# 6 -0.0001 0.0004 0.0003 3.8280 0.0000 14.1243
#
#
#
# Elastic Compliance Matrix: (Units=1/GPa)
#
#
# Indices 1 2 3 4 5 6 
#
# 1 0.020973 -0.002900 -0.007858 0.000000 0.000897 0.000000
# 2 -0.002900 0.019692 -0.007087 0.000000 0.004422 0.000000
# 3 -0.007858 -0.007087 0.020437 0.000000 -0.022471 0.000000
# 4 0.000000 0.000000 0.000000 0.033777 0.000000 -0.009154
# 5 0.000897 0.004422 -0.022471 0.000000 0.070447 0.000001
# 6 0.000000 0.000000 0.000000 -0.009154 0.000001 0.073281
#
#
# Mechanical properties :
#
#
# Convention : Reuss Voigt Hill
#
# Bulk Modulus (GPa) = 39.35201 55.50280 47.42741
# Shear Modulus (GPa) = 17.68235 23.32544 20.50389
#
# Velocity S-wave (km/s) = 3.29801 3.78789 3.55141
# Velocity P-wave (km/s) = 6.22166 7.29877 6.78163
#
# Compressibility (1/GPa) = 0.02541166
#
# Stress axis : x y z
#
# Youngs Moduli (GPa) = 47.68125 50.78186 48.93050
#
# Poissons Ratio (x) = 0.14727 0.38452
# Poissons Ratio (y) = 0.13828 0.34675
# Poissons Ratio (z) = 0.37470 0.35987
#
# Static dielectric constant tensor:
#      x y z
#    x 2.855270 0.000000 0.462960 
#    y 0.000000 2.960240 0.000000 
#    z 0.462960 0.000000 3.514250 
# 
# 
# High freq. dielectric constant tensor:
#      x y z
#    x 1.562380 0.000000 0.040920 
#    y 0.000000 1.625530 0.000000 
#    z 0.040920 0.000000 1.634710 
# 
# From -- ./inp_files/291474.got.cif
#   From: 2010.06.25/outbox.cif.g09.slc.cpg/sg12_146_cif.got.tgz:291474.got - 2010.06.28 00:19:55.
