data_PCOD8078296
_publ_section_title
;
Structure prediction by ZEFSAII (Michael W. Deem and Ramdas Pophale) SiO2 
 PCOD8078296
Probable space group: C 2/M
;
_chemical_formula_sum "Si O2"
_cell_formula_units_Z 40
_cell_length_a 22.957331
_cell_length_b 11.651491
_cell_length_c 18.138840
_cell_angle_alpha 90.000000
_cell_angle_beta 151.905607
_cell_angle_gamma 90.000000
_cell_volume 2284.886685
_symmetry_space_group_name_H-M "C 2/M"
_symmetry_group_IT_number 12
_symmetry_cell_setting 'monoclinic'
loop_
_space_group_symop_operation_xyz
x,y,z
-x,y,-z
-x,-y,-z
x,-y,z
1/2+x,1/2+y,z
1/2-x,1/2+y,-z
1/2-x,1/2-y,-z
1/2+x,1/2-y,z
loop_
_atom_site_type_symbol
_atom_site_label
_atom_site_fract_x
_atom_site_fract_y
_atom_site_fract_z
Si Si1 0.635586 0.500000 0.563539
Si Si2 0.196074 0.302728 0.242300
Si Si3 0.366394 0.500000 0.263739
Si Si4 0.644224 0.135581 0.669527
Si Si5 0.735341 0.773250 0.068784
Si Si6 0.970983 0.634281 0.076943
O O1 0.703287 0.386824 0.610148
O O2 0.501241 0.500000 0.377862
O O3 0.626385 0.500000 0.641028
O O4 0.267979 0.187659 0.297191
O O5 0.089816 0.288636 0.185769
O O6 0.132567 0.366625 0.102468
O O7 0.298525 0.390891 0.158344
O O8 0.500000 0.175993 0.500000
O O9 0.699542 0.173172 0.810376
O O10 0.653226 0.000000 0.672239
O O11 0.750000 0.750000 0.000000
O O12 0.589071 0.794360 0.922388
O O13 0.003826 0.500000 0.131229
#
# Coordination Sequence:
#
# PCOD8078296 Si02
#       6
#     4   8   4   8   8   8
#     4  11  16  28  57  84 107 120 168 239 267 299
#     4  10  16  28  51  83 105 130 169 221 270 302
#     4  11  20  31  52  83 105 133 174 223 268 298
#     4  10  21  36  54  77 109 146 178 212 263 322
#     4  11  22  35  54  78 108 141 180 218 259 316
#     4  10  16  30  50  80 110 133 168 217 270 311
#
# _framework density 17.506338
#
# number of rings (size 3 to 8) (size 9 to 14) (size 15 to 20)
#    0.000    1.600    7.000    1.800    1.400    0.000 
#    0.000    8.000    0.000    4.800    0.000    0.000 
#    0.000    0.000    0.000    0.000    0.000    0.000 
#
# Total GULP energy -247807.027734 kJ/mol
# GULP energy per Si atom -12390.351387 kJ/mol
# Density = 1.746649 g / cm^3
# Si number density = 17.506338 Si / 1000 Ang^3
#
#
#
# Elastic Constant Matrix: (Units=GPa)
#
#
# Indices 1 2 3 4 5 6 
#
# 1 134.3815 40.8623 52.7882 0.0000 29.6894 0.0000
# 2 40.8623 88.0870 31.6108 0.0000 15.4949 0.0000
# 3 52.7882 31.6108 68.4350 0.0001 31.5589 0.0000
# 4 0.0000 0.0000 0.0001 -273.5179 0.0000 187.1640
# 5 29.6894 15.4949 31.5589 0.0000 32.5354 0.0000
# 6 0.0000 0.0000 0.0000 187.1640 0.0000 -87.2280
#
#
#
# Elastic Compliance Matrix: (Units=1/GPa)
#
#
# Indices 1 2 3 4 5 6 
#
# 1 0.011300 -0.002494 -0.006074 0.000000 -0.003232 0.000000
# 2 -0.002494 0.014167 -0.004629 0.000000 0.000018 0.000000
# 3 -0.006074 -0.004629 0.032320 0.000000 -0.023603 0.000000
# 4 0.000000 0.000000 0.000000 0.007808 0.000000 0.016753
# 5 -0.003232 0.000018 -0.023603 0.000000 0.056571 0.000000
# 6 0.000000 0.000000 0.000000 0.016753 0.000000 0.024483
#
#
# Mechanical properties :
#
#
# Convention : Reuss Voigt Hill
#
# Bulk Modulus (GPa) = 31.85280 60.15845 46.00563
# Shear Modulus (GPa) = 27.24695 -54.59930 -13.67618
#
# Velocity S-wave (km/s) = 3.94941 -5.59071 -2.79805
# Velocity P-wave (km/s) = 6.24753 2.69003 3.98719
#
# Compressibility (1/GPa) = 0.03139441
#
# Stress axis : x y z
#
# Youngs Moduli (GPa) = 88.49700 70.58634 30.94019
#
# Poissons Ratio (x) = 0.17601 0.18793
# Poissons Ratio (y) = 0.22068 0.14322
# Poissons Ratio (z) = 0.53752 0.32674
#
# Static dielectric constant tensor:
#      x y z
#    x 1.900180 0.000000 0.736530 
#    y 0.000000 2.857480 0.000000 
#    z 0.736530 0.000000 3.400480 
# 
# 
# High freq. dielectric constant tensor:
#      x y z
#    x 1.658890 0.000000 0.043440 
#    y 0.000000 1.669340 0.000000 
#    z 0.043440 0.000000 1.664510 
# 
# From -- ./inp_files/173321.got.cif
#   From: 2010.06.25/outbox.cif.g09.slc.cpg/sg12_87_cif.got.tgz:173321.got - 2010.06.28 00:19:55.
