data_PCOD8078779
_publ_section_title
;
Structure prediction by ZEFSAII (Michael W. Deem and Ramdas Pophale) SiO2 
 PCOD8078779
Probable space group: C 2/M
;
_chemical_formula_sum "Si O2"
_cell_formula_units_Z 40
_cell_length_a 16.613834
_cell_length_b 16.785772
_cell_length_c 9.694820
_cell_angle_alpha 90.000000
_cell_angle_beta 125.700014
_cell_angle_gamma 90.000000
_cell_volume 2195.591604
_symmetry_space_group_name_H-M "C 2/M"
_symmetry_group_IT_number 12
_symmetry_cell_setting 'monoclinic'
loop_
_space_group_symop_operation_xyz
x,y,z
-x,y,-z
-x,-y,-z
x,-y,z
1/2+x,1/2+y,z
1/2-x,1/2+y,-z
1/2-x,1/2-y,-z
1/2+x,1/2-y,z
loop_
_atom_site_type_symbol
_atom_site_label
_atom_site_fract_x
_atom_site_fract_y
_atom_site_fract_z
Si Si1 0.936757 0.667366 0.686756
Si Si2 0.214400 0.406965 0.261008
Si Si3 0.147278 0.591757 0.897278
Si Si4 0.714402 0.093035 0.667796
Si Si5 0.832950 0.182965 0.582950
O O1 0.883363 0.632094 0.769074
O O2 0.883362 0.632094 0.497650
O O3 0.934180 0.765558 0.684179
O O4 0.051090 0.646356 0.801087
O O5 0.212014 0.500000 0.290737
O O6 0.315435 0.370786 0.428397
O O7 0.214072 0.389191 0.097628
O O8 0.112138 0.500000 0.862137
O O9 0.214074 0.610809 0.830519
O O10 0.815436 0.129215 0.702476
O O11 0.712017 0.000000 0.633294
O O12 0.750000 0.250000 0.500000
#
# Coordination Sequence:
#
# PCOD8078779 Si02
#       5
#     8   8   8   8   8
#     4  10  17  27  40  61  92 118 146 174 210 267
#     4   9  16  27  43  62  86 115 145 178 215 259
#     4  10  18  26  43  70  93 112 138 179 226 262
#     4   9  16  27  43  62  86 115 145 178 215 259
#     4   8  16  29  41  57  87 122 152 171 202 265
#
# _framework density 18.218323000000002
#
# number of rings (size 3 to 8) (size 9 to 14) (size 15 to 20)
#    0.000    3.200    0.000    4.800    0.000    3.200 
#    0.000    9.000    0.000    0.000    0.000    0.000 
#    0.000  236.800    0.000    0.000    0.000    0.000 
#
# Total GULP energy -247805.887682 kJ/mol
# GULP energy per Si atom -12390.294384 kJ/mol
# Density = 1.817686 g / cm^3
# Si number density = 18.218323 Si / 1000 Ang^3
#
#
#
# Elastic Constant Matrix: (Units=GPa)
#
#
# Indices 1 2 3 4 5 6 
#
# 1 53.2046 50.4250 51.0379 0.0000 -16.2753 0.0000
# 2 50.4250 112.2978 59.2949 0.0000 -7.6832 0.0000
# 3 51.0379 59.2949 116.1750 0.0000 -38.2608 0.0000
# 4 0.0000 0.0000 0.0000 9.9380 0.0000 10.8244
# 5 -16.2753 -7.6832 -38.2608 0.0000 29.5199 0.0000
# 6 0.0000 0.0000 0.0000 10.8244 0.0000 22.4384
#
#
#
# Elastic Compliance Matrix: (Units=1/GPa)
#
#
# Indices 1 2 3 4 5 6 
#
# 1 0.043567 -0.014181 -0.009085 0.000000 0.008554 0.000000
# 2 -0.014181 0.018176 -0.007091 0.000000 -0.012278 0.000000
# 3 -0.009085 -0.007091 0.024358 0.000000 0.024716 0.000000
# 4 0.000000 0.000000 0.000000 0.212035 0.000000 -0.102287
# 5 0.008554 -0.012278 0.024716 0.000000 0.067431 0.000000
# 6 0.000000 0.000000 0.000000 -0.102287 0.000000 0.093910
#
#
# Mechanical properties :
#
#
# Convention : Reuss Voigt Hill
#
# Bulk Modulus (GPa) = 39.38810 67.02142 53.20476
# Shear Modulus (GPa) = 9.45802 20.44056 14.94929
#
# Velocity S-wave (km/s) = 2.28095 3.35323 2.86766
# Velocity P-wave (km/s) = 5.34827 7.20139 6.34287
#
# Compressibility (1/GPa) = 0.02538838
#
# Stress axis : x y z
#
# Youngs Moduli (GPa) = 22.95334 55.01615 41.05436
#
# Poissons Ratio (x) = 0.78016 0.37297
# Poissons Ratio (y) = 0.32549 0.29112
# Poissons Ratio (z) = 0.20853 0.39012
#
# Static dielectric constant tensor:
#      x y z
#    x 3.210670 0.000000 -0.210460 
#    y 0.000000 4.176000 0.000000 
#    z -0.210460 0.000000 3.453690 
# 
# 
# High freq. dielectric constant tensor:
#      x y z
#    x 1.655420 0.000000 -0.036070 
#    y 0.000000 1.714030 0.000000 
#    z -0.036070 0.000000 1.697070 
# 
# From -- ./inp_files/74109.got.cif
#   From: 2010.06.25/outbox.cif.g09.slc.cpg/sg12_38_cif.got.tgz:74109.got - 2010.06.28 00:19:55.
