data_PCOD8078886
_publ_section_title
;
Structure prediction by ZEFSAII (Michael W. Deem and Ramdas Pophale) SiO2 
 PCOD8078886
Probable space group: C 2/M
;
_chemical_formula_sum "Si O2"
_cell_formula_units_Z 48
_cell_length_a 33.197117
_cell_length_b 9.074949
_cell_length_c 10.436220
_cell_angle_alpha 90.000000
_cell_angle_beta 116.647914
_cell_angle_gamma 90.000000
_cell_volume 2810.076665
_symmetry_space_group_name_H-M "C 2/M"
_symmetry_group_IT_number 12
_symmetry_cell_setting 'monoclinic'
loop_
_space_group_symop_operation_xyz
x,y,z
-x,y,-z
-x,-y,-z
x,-y,z
1/2+x,1/2+y,z
1/2-x,1/2+y,-z
1/2-x,1/2-y,-z
1/2+x,1/2-y,z
loop_
_atom_site_type_symbol
_atom_site_label
_atom_site_fract_x
_atom_site_fract_y
_atom_site_fract_z
Si Si1 0.119221 0.827377 0.669601
Si Si2 0.976617 0.174172 0.098627
Si Si3 0.608223 0.175004 0.922590
Si Si4 0.207266 0.336850 0.089050
Si Si5 0.027169 0.172109 0.419724
Si Si6 0.707740 0.164156 0.784389
O O1 0.103607 0.750546 0.777932
O O2 0.080442 0.796801 0.509163
O O3 0.165425 0.761734 0.678289
O O4 0.125739 0.000000 0.706361
O O5 0.929245 0.259383 0.036811
O O6 0.008743 0.234027 0.258793
O O7 0.967554 0.000000 0.093961
O O8 0.000000 0.218554 0.000000
O O9 0.603164 0.000000 0.897455
O O10 0.656833 0.213568 0.055697
O O11 0.217475 0.500000 0.156162
O O12 0.245231 0.229891 0.202177
O O13 0.209253 0.337108 0.938882
O O14 0.000000 0.245034 0.500000
O O15 0.017040 0.000000 0.406560
O O16 0.702208 0.000000 0.720981
#
# Coordination Sequence:
#
# PCOD8078886 Si02
#       6
#     8   8   8   8   8   8
#     4  10  17  27  46  66  92 126 158 191 232 279
#     4  10  20  34  51  70  93 124 162 198 232 277
#     4  10  19  30  45  67  95 123 156 196 236 278
#     4   8  15  26  39  58  87 123 155 183 226 283
#     4   9  16  29  48  70  93 121 159 196 230 275
#     4   9  16  25  38  62  94 120 150 192 234 277
#
# _framework density 17.081385000000001
#
# number of rings (size 3 to 8) (size 9 to 14) (size 15 to 20)
#    0.000    2.667    1.667    2.500    0.000    5.000 
#    0.000    2.500    0.000    0.000    0.000    1.167 
#    0.000    0.000    0.000    0.000    0.000    0.000 
#
# Total GULP energy -297492.916236 kJ/mol
# GULP energy per Si atom -12395.538176 kJ/mol
# Density = 1.704251 g / cm^3
# Si number density = 17.081385 Si / 1000 Ang^3
#
#
#
# Elastic Constant Matrix: (Units=GPa)
#
#
# Indices 1 2 3 4 5 6 
#
# 1 143.1259 64.6356 62.2995 0.0000 26.9639 0.0000
# 2 64.6356 88.4445 30.6456 0.0000 13.4008 0.0000
# 3 62.2995 30.6456 71.1038 0.0000 7.2889 0.0000
# 4 0.0000 0.0000 0.0000 10.4210 0.0000 8.1353
# 5 26.9639 13.4008 7.2889 0.0000 22.3066 0.0000
# 6 0.0000 0.0000 0.0000 8.1353 0.0000 30.1922
#
#
#
# Elastic Compliance Matrix: (Units=1/GPa)
#
#
# Indices 1 2 3 4 5 6 
#
# 1 0.017312 -0.006888 -0.010842 0.000000 -0.013246 0.000000
# 2 -0.006888 0.016954 -0.001119 0.000000 -0.001493 0.000000
# 3 -0.010842 -0.001119 0.023418 0.000000 0.006126 0.000000
# 4 0.000000 0.000000 0.000000 0.121523 0.000000 -0.032744
# 5 -0.013246 -0.001493 0.006126 0.000000 0.059737 0.000000
# 6 0.000000 0.000000 0.000000 -0.032744 0.000000 0.041944
#
#
# Mechanical properties :
#
#
# Convention : Reuss Voigt Hill
#
# Bulk Modulus (GPa) = 50.03449 68.64840 59.34145
# Shear Modulus (GPa) = 15.37286 22.25686 18.81486
#
# Velocity S-wave (km/s) = 3.00322 3.61361 3.32246
# Velocity P-wave (km/s) = 6.43282 7.59521 7.03805
#
# Compressibility (1/GPa) = 0.01998621
#
# Stress axis : x y z
#
# Youngs Moduli (GPa) = 57.76260 58.98157 42.70274
#
# Poissons Ratio (x) = 0.40628 0.46298
# Poissons Ratio (y) = 0.39788 0.04778
# Poissons Ratio (z) = 0.62626 0.06600
#
# Static dielectric constant tensor:
#      x y z
#    x 3.317280 0.000000 0.345610 
#    y 0.000000 3.189290 0.000000 
#    z 0.345610 0.000000 2.923520 
# 
# 
# High freq. dielectric constant tensor:
#      x y z
#    x 1.658110 0.000000 0.038710 
#    y 0.000000 1.653260 0.000000 
#    z 0.038710 0.000000 1.611790 
# 
# From -- ./inp_files/185961.got.cif
#   From: 2010.06.25/outbox.cif.g09.slc.cpg/sg12_93_cif.got.tgz:185961.got - 2010.06.28 00:19:55.
