data_PCOD8078507
_publ_section_title
;
Structure prediction by ZEFSAII (Michael W. Deem and Ramdas Pophale) SiO2 
 PCOD8078507
Probable space group: C 2/M
;
_chemical_formula_sum "Si O2"
_cell_formula_units_Z 48
_cell_length_a 20.822339
_cell_length_b 8.676651
_cell_length_c 16.778761
_cell_angle_alpha 90.000000
_cell_angle_beta 115.702012
_cell_angle_gamma 90.000000
_cell_volume 2731.467922
_symmetry_space_group_name_H-M "C 2/M"
_symmetry_group_IT_number 12
_symmetry_cell_setting 'monoclinic'
loop_
_space_group_symop_operation_xyz
x,y,z
-x,y,-z
-x,-y,-z
x,-y,z
1/2+x,1/2+y,z
1/2-x,1/2+y,-z
1/2-x,1/2-y,-z
1/2+x,1/2-y,z
loop_
_atom_site_type_symbol
_atom_site_label
_atom_site_fract_x
_atom_site_fract_y
_atom_site_fract_z
Si Si1 0.600385 0.820066 0.586428
Si Si2 0.208586 0.680562 0.052160
Si Si3 0.039332 0.180031 0.413555
Si Si4 0.945920 0.816672 0.037376
Si Si5 0.463736 0.317813 0.222251
Si Si6 0.674587 0.680182 0.760379
O O1 0.602402 0.774484 0.492972
O O2 0.536694 0.718570 0.588212
O O3 0.671332 0.770596 0.673415
O O4 0.585252 0.000000 0.587361
O O5 0.201448 0.500000 0.033605
O O6 0.251291 0.717016 0.156431
O O7 0.250000 0.750000 0.000000
O O8 0.132105 0.755054 0.022984
O O9 0.030804 0.228838 0.315417
O O10 0.055659 0.000000 0.430433
O O11 0.973559 0.753482 0.138069
O O12 0.942844 0.000000 0.034471
O O13 0.000000 0.752729 0.000000
O O14 0.457567 0.500000 0.215404
O O15 0.389082 0.255517 0.217575
O O16 0.665710 0.500000 0.738410
#
# Coordination Sequence:
#
# PCOD8078507 Si02
#       6
#     8   8   8   8   8   8
#     4  10  17  24  37  63  94 118 153 199 244 289
#     4  11  21  34  53  75 101 132 171 211 252 303
#     4   9  15  25  40  57  88 128 161 190 235 295
#     4  10  20  35  53  74 103 136 171 210 251 295
#     4   8  14  27  45  66  91 125 166 198 234 292
#     4   9  17  30  46  64  93 129 162 196 241 300
#
# _framework density 17.572969000000001
#
# number of rings (size 3 to 8) (size 9 to 14) (size 15 to 20)
#    0.000    2.500    1.667    4.500    0.000    1.667 
#    0.000    0.833    0.000    0.000    0.000    1.167 
#    0.000    0.000    0.000    0.000    0.000    0.000 
#
# Total GULP energy -297370.704389 kJ/mol
# GULP energy per Si atom -12390.446016 kJ/mol
# Density = 1.753297 g / cm^3
# Si number density = 17.572969 Si / 1000 Ang^3
#
#
#
# Elastic Constant Matrix: (Units=GPa)
#
#
# Indices 1 2 3 4 5 6 
#
# 1 73.5923 17.7722 53.7692 0.0000 -0.5789 0.0000
# 2 17.7722 43.2072 41.2536 0.0000 0.6581 0.0000
# 3 53.7692 41.2536 183.9292 0.0000 -4.8678 0.0000
# 4 0.0000 0.0000 0.0000 25.6084 0.0000 5.8534
# 5 -0.5789 0.6581 -4.8678 0.0000 12.6233 0.0000
# 6 0.0000 0.0000 0.0000 5.8534 0.0000 13.4009
#
#
#
# Elastic Compliance Matrix: (Units=1/GPa)
#
#
# Indices 1 2 3 4 5 6 
#
# 1 0.017578 -0.002917 -0.004505 0.000000 -0.000779 0.000000
# 2 -0.002917 0.030150 -0.006016 0.000000 -0.004026 0.000000
# 3 -0.004505 -0.006016 0.008190 0.000000 0.003265 0.000000
# 4 0.000000 0.000000 0.000000 0.043381 0.000000 -0.018948
# 5 -0.000779 -0.004026 0.003265 0.000000 0.080652 0.000000
# 6 0.000000 0.000000 0.000000 -0.018948 0.000000 0.082899
#
#
# Mechanical properties :
#
#
# Convention : Reuss Voigt Hill
#
# Bulk Modulus (GPa) = 34.43411 58.47985 46.45698
# Shear Modulus (GPa) = 16.69977 22.85543 19.77760
#
# Velocity S-wave (km/s) = 3.08605 3.61030 3.35842
# Velocity P-wave (km/s) = 5.68646 7.12247 6.44458
#
# Compressibility (1/GPa) = 0.02904097
#
# Stress axis : x y z
#
# Youngs Moduli (GPa) = 56.88823 33.16801 122.10548
#
# Poissons Ratio (x) = 0.09676 0.55010
# Poissons Ratio (y) = 0.16595 0.73459
# Poissons Ratio (z) = 0.25629 0.19954
#
# Static dielectric constant tensor:
#      x y z
#    x 2.809450 0.000000 -0.106380 
#    y 0.000000 3.083580 0.000000 
#    z -0.106380 0.000000 4.300870 
# 
# 
# High freq. dielectric constant tensor:
#      x y z
#    x 1.599100 0.000000 0.001950 
#    y 0.000000 1.668810 0.000000 
#    z 0.001950 0.000000 1.715680 
# 
# From -- ./inp_files/248797.got.cif
#   From: 2010.06.25/outbox.cif.g09.slc.cpg/sg12_125_cif.got.tgz:248797.got - 2010.06.28 00:19:55.
