data_PCOD8078088
_publ_section_title
;
Structure prediction by ZEFSAII (Michael W. Deem and Ramdas Pophale) SiO2 
 PCOD8078088
Probable space group: C 2/M
;
_chemical_formula_sum "Si O2"
_cell_formula_units_Z 44
_cell_length_a 20.405753
_cell_length_b 22.062309
_cell_length_c 12.038056
_cell_angle_alpha 90.000000
_cell_angle_beta 25.490908
_cell_angle_gamma 90.000000
_cell_volume 2332.382545
_symmetry_space_group_name_H-M "C 2/M"
_symmetry_group_IT_number 12
_symmetry_cell_setting 'monoclinic'
loop_
_space_group_symop_operation_xyz
x,y,z
-x,y,-z
-x,-y,-z
x,-y,z
1/2+x,1/2+y,z
1/2-x,1/2+y,-z
1/2-x,1/2-y,-z
1/2+x,1/2-y,z
loop_
_atom_site_type_symbol
_atom_site_label
_atom_site_fract_x
_atom_site_fract_y
_atom_site_fract_z
Si Si1 0.500000 0.363497 0.000000
Si Si2 0.202855 0.432124 0.502349
Si Si3 0.659427 0.931655 0.314589
Si Si4 0.884659 0.757195 0.457982
Si Si5 0.639066 0.177016 0.719056
Si Si6 0.326009 0.311364 0.066621
O O1 0.374320 0.407465 0.243409
O O2 0.433378 0.318996 0.009150
O O3 0.200885 0.500000 0.548802
O O4 0.131968 0.425860 0.488045
O O5 0.108351 0.393425 0.736884
O O6 0.500000 0.920742 0.500000
O O7 0.773717 0.877693 0.100332
O O8 0.722960 0.000000 0.189723
O O9 0.788764 0.816257 0.567152
O O10 0.845644 0.707601 0.424456
O O11 0.821791 0.729387 0.671374
O O12 0.065105 0.775710 0.189370
O O13 0.500000 0.204732 0.000000
#
# Coordination Sequence:
#
# PCOD8078088 Si02
#       6
#     4   8   8   8   8   8
#     4  10  15  28  46  74  98 126 157 202 254 292
#     4  10  19  30  48  73 102 129 165 212 251 296
#     4   9  19  36  55  74  97 130 175 220 259 294
#     4  11  19  30  47  76 105 134 171 198 246 311
#     4  11  19  29  47  70 107 141 165 194 247 318
#     4  11  19  32  53  77 104 137 169 208 252 306
#
# _framework density 18.864830000000001
#
# number of rings (size 3 to 8) (size 9 to 14) (size 15 to 20)
#    0.000    1.636    7.273    1.364    0.000    1.091 
#    0.000    0.909    0.000    0.000    0.000    0.000 
#    0.000   13.091    0.000    0.000    0.000    0.000 
#
# Total GULP energy -272599.993541 kJ/mol
# GULP energy per Si atom -12390.908797 kJ/mol
# Density = 1.882189 g / cm^3
# Si number density = 18.864830 Si / 1000 Ang^3
#
#
#
# Elastic Constant Matrix: (Units=GPa)
#
#
# Indices 1 2 3 4 5 6 
#
# 1 21.3482 22.2468 23.5610 -0.0010 -5.5677 0.0035
# 2 22.2468 114.4857 40.8323 -0.0032 -2.8876 0.0011
# 3 23.5610 40.8323 112.9753 0.0007 4.0182 -0.0006
# 4 -0.0010 -0.0032 0.0007 26.8195 -0.0009 -2.1590
# 5 -5.5677 -2.8876 4.0182 -0.0009 16.3326 -0.0022
# 6 0.0035 0.0011 -0.0006 -2.1590 -0.0022 10.9873
#
#
#
# Elastic Compliance Matrix: (Units=1/GPa)
#
#
# Indices 1 2 3 4 5 6 
#
# 1 0.080414 -0.009802 -0.014266 0.000002 0.029189 -0.000020
# 2 -0.009802 0.011340 -0.002025 0.000001 -0.000838 0.000002
# 3 -0.014266 -0.002025 0.012857 -0.000001 -0.008384 0.000004
# 4 0.000002 0.000001 -0.000001 0.037886 0.000004 0.007445
# 5 0.029189 -0.000838 -0.008384 0.000004 0.073092 0.000005
# 6 -0.000020 0.000002 0.000004 0.007445 0.000005 0.092477
#
#
# Mechanical properties :
#
#
# Convention : Reuss Voigt Hill
#
# Bulk Modulus (GPa) = 19.07438 46.89881 32.98660
# Shear Modulus (GPa) = 13.23709 21.63914 17.43812
#
# Velocity S-wave (km/s) = 2.65180 3.39051 3.04365
# Velocity P-wave (km/s) = 4.41691 6.34364 5.46584
#
# Compressibility (1/GPa) = 0.05242634
#
# Stress axis : x y z
#
# Youngs Moduli (GPa) = 12.43563 88.18034 77.78083
#
# Poissons Ratio (x) = 0.86432 1.10961
# Poissons Ratio (y) = 0.12189 0.15749
# Poissons Ratio (z) = 0.17741 0.17854
#
# Static dielectric constant tensor:
#      x y z
#    x 3.017520 -0.000010 -0.051480 
#    y -0.000010 3.732440 0.000030 
#    z -0.051480 0.000030 3.507650 
# 
# 
# High freq. dielectric constant tensor:
#      x y z
#    x 1.680980 0.000000 -0.009060 
#    y 0.000000 1.743300 0.000000 
#    z -0.009060 0.000000 1.722970 
# 
# From -- ./inp_files/241966.got.cif
#   From: 2010.06.25/outbox.cif.g09.slc.cpg/sg12_121_cif.got.tgz:241966.got - 2010.06.28 00:19:55.
