data_PCOD8078578
_publ_section_title
;
Structure prediction by ZEFSAII (Michael W. Deem and Ramdas Pophale) SiO2 
 PCOD8078578
Probable space group: C 2/M
;
_chemical_formula_sum "Si O2"
_cell_formula_units_Z 48
_cell_length_a 24.429092
_cell_length_b 13.375397
_cell_length_c 24.911471
_cell_angle_alpha 90.000000
_cell_angle_beta 157.391674
_cell_angle_gamma 90.000000
_cell_volume 3129.176492
_symmetry_space_group_name_H-M "C 2/M"
_symmetry_group_IT_number 12
_symmetry_cell_setting 'monoclinic'
loop_
_space_group_symop_operation_xyz
x,y,z
-x,y,-z
-x,-y,-z
x,-y,z
1/2+x,1/2+y,z
1/2-x,1/2+y,-z
1/2-x,1/2-y,-z
1/2+x,1/2-y,z
loop_
_atom_site_type_symbol
_atom_site_label
_atom_site_fract_x
_atom_site_fract_y
_atom_site_fract_z
Si Si1 0.105211 0.303494 0.434735
Si Si2 0.242753 0.118312 0.331766
Si Si3 0.528376 0.616958 0.850552
Si Si4 0.202718 0.618906 0.844282
Si Si5 0.659394 0.381808 0.140701
Si Si6 0.643994 0.614170 0.406424
O O1 0.132162 0.325674 0.522151
O O2 0.208426 0.372244 0.492034
O O3 0.135290 0.186653 0.449782
O O4 0.944296 0.328875 0.273939
O O5 0.250274 0.147421 0.275901
O O6 0.092284 0.158649 0.218475
O O7 0.262073 0.000000 0.357920
O O8 0.529941 0.500000 0.861631
O O9 0.487686 0.642467 0.752385
O O10 0.683923 0.657031 0.008200
O O11 0.181749 0.500000 0.825419
O O12 0.257654 0.658261 0.836208
O O13 0.644028 0.500000 0.122273
O O14 0.500000 0.335806 0.000000
O O15 0.633706 0.500000 0.417130
#
# Coordination Sequence:
#
# PCOD8078578 Si02
#       6
#     8   8   8   8   8   8
#     4  10  19  28  43  65  85 110 140 179 212 241
#     4   9  15  26  41  60  90 120 140 160 202 258
#     4   8  14  25  42  59  82 115 141 163 199 248
#     4  10  17  25  40  66  92 111 138 172 202 242
#     4   9  15  24  40  62  89 120 141 157 197 259
#     4   9  18  33  46  57  81 117 145 170 211 256
#
# _framework density 15.339499
#
# number of rings (size 3 to 8) (size 9 to 14) (size 15 to 20)
#    0.000    2.833    1.667    2.500    0.000    1.333 
#    0.000    2.500    0.000    0.000    0.000    2.333 
#    0.000    1.333    0.000    0.000    0.000    0.000 
#
# Total GULP energy -297452.316482 kJ/mol
# GULP energy per Si atom -12393.846520 kJ/mol
# Density = 1.530459 g / cm^3
# Si number density = 15.339499 Si / 1000 Ang^3
#
#
#
# Elastic Constant Matrix: (Units=GPa)
#
#
# Indices 1 2 3 4 5 6 
#
# 1 45.3286 28.2987 29.6671 -0.0001 -7.3230 0.0006
# 2 28.2987 50.0081 27.1362 -0.0061 -8.0735 -0.0009
# 3 29.6671 27.1362 109.0406 -0.0031 -0.8782 -0.0004
# 4 -0.0001 -0.0061 -0.0031 10.3820 -0.0044 0.6260
# 5 -7.3230 -8.0735 -0.8782 -0.0044 22.9631 -0.0004
# 6 0.0006 -0.0009 -0.0004 0.6260 -0.0004 12.8223
#
#
#
# Elastic Compliance Matrix: (Units=1/GPa)
#
#
# Indices 1 2 3 4 5 6 
#
# 1 0.037535 -0.017109 -0.005908 -0.000009 0.005729 -0.000002
# 2 -0.017109 0.032449 -0.003374 0.000020 0.005824 0.000002
# 3 -0.005908 -0.003374 0.011597 0.000000 -0.002627 0.000000
# 4 -0.000009 0.000020 0.000000 0.096605 0.000023 -0.004716
# 5 0.005729 0.005824 -0.002627 0.000023 0.047322 0.000001
# 6 -0.000002 0.000002 0.000000 -0.004716 0.000001 0.078219
#
#
# Mechanical properties :
#
#
# Convention : Reuss Voigt Hill
#
# Bulk Modulus (GPa) = 34.72376 41.62014 38.17195
# Shear Modulus (GPa) = 13.65713 17.18518 15.42115
#
# Velocity S-wave (km/s) = 2.98707 3.35075 3.17412
# Velocity P-wave (km/s) = 5.88071 6.49320 6.19453
#
# Compressibility (1/GPa) = 0.02879873
#
# Stress axis : x y z
#
# Youngs Moduli (GPa) = 26.64186 30.81714 86.23098
#
# Poissons Ratio (x) = 0.52726 0.50947
# Poissons Ratio (y) = 0.45583 0.29090
# Poissons Ratio (z) = 0.15741 0.10396
#
# Static dielectric constant tensor:
#      x y z
#    x 2.848710 0.000000 -0.138060 
#    y 0.000000 2.487720 0.000000 
#    z -0.138060 0.000000 3.234100 
# 
# 
# High freq. dielectric constant tensor:
#      x y z
#    x 1.572330 0.000000 -0.006760 
#    y 0.000000 1.525820 0.000000 
#    z -0.006760 0.000000 1.603310 
# 
# From -- ./inp_files/85154.got.cif
#   From: 2010.06.25/outbox.cif.g09.slc.cpg/sg12_43_cif.got.tgz:85154.got - 2010.06.28 00:19:55.
