data_PCOD8078031
_publ_section_title
;
Structure prediction by ZEFSAII (Michael W. Deem and Ramdas Pophale) SiO2 
 PCOD8078031
Probable space group: C 2/M
;
_chemical_formula_sum "Si O2"
_cell_formula_units_Z 60
_cell_length_a 17.383000
_cell_length_b 19.545205
_cell_length_c 12.295443
_cell_angle_alpha 90.000000
_cell_angle_beta 60.390682
_cell_angle_gamma 90.000000
_cell_volume 3631.918246
_symmetry_space_group_name_H-M "C 2/M"
_symmetry_group_IT_number 12
_symmetry_cell_setting 'monoclinic'
loop_
_space_group_symop_operation_xyz
x,y,z
-x,y,-z
-x,-y,-z
x,-y,z
1/2+x,1/2+y,z
1/2-x,1/2+y,-z
1/2-x,1/2-y,-z
1/2+x,1/2-y,z
loop_
_atom_site_type_symbol
_atom_site_label
_atom_site_fract_x
_atom_site_fract_y
_atom_site_fract_z
Si Si1 0.604295 0.230458 0.276214
Si Si2 0.989921 0.076259 0.689670
Si Si3 0.279402 0.333428 0.138724
Si Si4 0.944792 0.132009 0.140542
Si Si5 0.143802 0.315520 0.901372
Si Si6 0.187392 0.860400 0.124773
Si Si7 0.000000 0.818912 0.500000
Si Si8 0.491254 0.213551 0.164527
O O1 0.675621 0.169924 0.248310
O O2 0.647617 0.284054 0.162003
O O3 0.579558 0.268928 0.405907
O O4 0.515169 0.203356 0.275896
O O5 0.884735 0.085988 0.781359
O O6 0.030111 0.132163 0.577950
O O7 0.041848 0.083223 0.766228
O O8 0.005523 0.000000 0.632909
O O9 0.339853 0.370241 0.187342
O O10 0.314294 0.257305 0.103061
O O11 0.288869 0.373292 0.017869
O O12 0.985050 0.206462 0.138845
O O13 0.000000 0.102750 0.000000
O O14 0.223119 0.369881 0.865018
O O15 0.102801 0.320481 0.807073
O O16 0.066444 0.325256 0.043185
#
# Coordination Sequence:
#
# PCOD8078031 Si02
#       8
#     8   8   8   8   8   8   4   8
#     4  10  16  27  44  63  91 125 151 180 224 276
#     4  11  22  34  48  61  86 131 172 198 222 254
#     4  10  15  24  43  68  93 121 141 183 236 290
#     4  11  16  28  44  69  97 116 147 192 239 279
#     4   9  14  19  40  67  90 114 136 175 228 287
#     4  10  15  27  42  65  91 116 156 190 229 274
#     4  10  21  34  48  62  90 130 171 190 210 270
#     4  10  13  22  41  67  92 114 141 172 226 293
#
# _framework density 16.520195999999999
#
# number of rings (size 3 to 8) (size 9 to 14) (size 15 to 20)
#    0.000    1.867    9.333    1.000    0.000    0.267 
#    0.000    0.667    2.933    0.000    0.000    1.867 
#    0.000    0.000    0.000    2.533    0.000    0.400 
#
# Total GULP energy -371649.138520 kJ/mol
# GULP energy per Si atom -12388.304617 kJ/mol
# Density = 1.648260 g / cm^3
# Si number density = 16.520196 Si / 1000 Ang^3
#
#
#
# Elastic Constant Matrix: (Units=GPa)
#
#
# Indices 1 2 3 4 5 6 
#
# 1 136.5127 24.0535 39.8260 0.0000 14.5518 0.0000
# 2 24.0535 23.2817 19.7434 0.0000 0.5782 0.0000
# 3 39.8260 19.7434 77.0095 0.0000 6.7404 0.0000
# 4 0.0000 0.0000 0.0000 9.3363 0.0000 -0.2986
# 5 14.5518 0.5782 6.7404 0.0000 15.8075 0.0000
# 6 0.0000 0.0000 0.0000 -0.2986 0.0000 9.1049
#
#
#
# Elastic Compliance Matrix: (Units=1/GPa)
#
#
# Indices 1 2 3 4 5 6 
#
# 1 0.010418 -0.008434 -0.002507 0.000000 -0.008213 0.000000
# 2 -0.008434 0.061975 -0.012474 0.000000 0.010816 0.000000
# 3 -0.002507 -0.012474 0.017906 0.000000 -0.004871 0.000000
# 4 0.000000 0.000000 0.000000 0.107221 0.000000 0.003517
# 5 -0.008213 0.010816 -0.004871 0.000000 0.072503 0.000000
# 6 0.000000 0.000000 0.000000 0.003517 0.000000 0.109946
#
#
# Mechanical properties :
#
#
# Convention : Reuss Voigt Hill
#
# Bulk Modulus (GPa) = 23.00417 44.89441 33.94929
# Shear Modulus (GPa) = 11.33044 17.06183 14.19614
#
# Velocity S-wave (km/s) = 2.62172 3.21719 2.93460
# Velocity P-wave (km/s) = 4.80829 6.40584 5.66368
#
# Compressibility (1/GPa) = 0.04347038
#
# Stress axis : x y z
#
# Youngs Moduli (GPa) = 95.98613 16.13552 55.84664
#
# Poissons Ratio (x) = 0.13608 0.13999
# Poissons Ratio (y) = 0.80953 0.69663
# Poissons Ratio (z) = 0.24061 0.20127
#
# Static dielectric constant tensor:
#      x y z
#    x 3.832430 0.000000 0.091990 
#    y 0.000000 2.565310 0.000000 
#    z 0.091990 0.000000 2.915570 
# 
# 
# High freq. dielectric constant tensor:
#      x y z
#    x 1.652390 0.000000 0.014390 
#    y 0.000000 1.563080 0.000000 
#    z 0.014390 0.000000 1.606540 
# 
# From -- ./inp_files/158869.got.cif
#   From: 2010.06.25/outbox.cif.g09.slc.cpg/sg12_80_cif.got.tgz:158869.got - 2010.06.28 00:19:55.
