data_PCOD8078426
_publ_section_title
;
Structure prediction by ZEFSAII (Michael W. Deem and Ramdas Pophale) SiO2 
 PCOD8078426
Probable space group: C 2/M
;
_chemical_formula_sum "Si O2"
_cell_formula_units_Z 32
_cell_length_a 5.221073
_cell_length_b 13.789649
_cell_length_c 21.377649
_cell_angle_alpha 90.000000
_cell_angle_beta 83.615402
_cell_angle_gamma 90.000000
_cell_volume 1529.575685
_symmetry_space_group_name_H-M "C 2/M"
_symmetry_group_IT_number 12
_symmetry_cell_setting 'monoclinic'
loop_
_space_group_symop_operation_xyz
x,y,z
-x,y,-z
-x,-y,-z
x,-y,z
1/2+x,1/2+y,z
1/2-x,1/2+y,-z
1/2-x,1/2-y,-z
1/2+x,1/2-y,z
loop_
_atom_site_type_symbol
_atom_site_label
_atom_site_fract_x
_atom_site_fract_y
_atom_site_fract_z
Si Si1 0.175465 0.814405 0.171747
Si Si2 0.762450 0.857619 0.972683
Si Si3 0.409296 0.000000 0.655678
Si Si4 0.475392 0.810048 0.573246
Si Si5 0.871001 0.000000 0.740136
O O1 0.426936 0.753850 0.183713
O O2 0.202755 0.858452 0.102148
O O3 0.145445 0.903841 0.218440
O O4 0.500000 0.912354 0.000000
O O5 0.750000 0.750000 0.000000
O O6 0.000000 0.912354 0.000000
O O7 0.426188 0.907062 0.611815
O O8 0.637790 0.000000 0.698619
O O9 0.139188 0.000000 0.697535
O O10 0.500000 0.837147 0.500000
O O11 0.737006 0.761980 0.591437
#
# Coordination Sequence:
#
# PCOD8078426 Si02
#       5
#     8   8   4   8   4
#     4  12  23  42  66  85 127 163 205 274 320 371
#     4  10  16  32  61  88 108 149 198 251 337 389
#     4  12  25  46  64  89 142 174 211 262 309 368
#     4  10  22  41  71 105 130 164 217 265 315 368
#     4  12  30  42  59  99 124 176 233 240 301 410
#
# _framework density 20.920832000000001
#
# number of rings (size 3 to 8) (size 9 to 14) (size 15 to 20)
#    0.000    1.000    5.000    3.375    0.000    6.000 
#    0.000    6.250    0.000    0.000    0.000    0.000 
#    0.000    0.000    0.000    0.000    0.000    0.000 
#
# Total GULP energy -198396.879315 kJ/mol
# GULP energy per Si atom -12399.804957 kJ/mol
# Density = 2.087322 g / cm^3
# Si number density = 20.920832 Si / 1000 Ang^3
#
#
#
# Elastic Constant Matrix: (Units=GPa)
#
#
# Indices 1 2 3 4 5 6 
#
# 1 212.6363 51.6133 69.2017 0.0000 -22.0423 0.0000
# 2 51.6133 119.3516 88.5604 0.0000 -26.3537 0.0000
# 3 69.2017 88.5604 132.1293 0.0000 -16.3459 0.0000
# 4 0.0000 0.0000 0.0000 77.4235 0.0000 -16.8042
# 5 -22.0423 -26.3537 -16.3459 0.0000 26.9299 0.0000
# 6 0.0000 0.0000 0.0000 -16.8042 0.0000 31.4304
#
#
#
# Elastic Compliance Matrix: (Units=1/GPa)
#
#
# Indices 1 2 3 4 5 6 
#
# 1 0.005920 0.000364 -0.002921 0.000000 0.003429 0.000000
# 2 0.000364 0.019834 -0.011943 0.000000 0.012458 0.000000
# 3 -0.002921 -0.011943 0.016609 0.000000 -0.003997 0.000000
# 4 0.000000 0.000000 0.000000 0.014612 0.000000 0.007812
# 5 0.003429 0.012458 -0.003997 0.000000 0.049706 0.000000
# 6 0.000000 0.000000 0.000000 0.007812 0.000000 0.035993
#
#
# Mechanical properties :
#
#
# Convention : Reuss Voigt Hill
#
# Bulk Modulus (GPa) = 74.83098 98.09647 86.46372
# Shear Modulus (GPa) = 28.38842 44.13956 36.26399
#
# Velocity S-wave (km/s) = 3.68767 4.59828 4.16792
# Velocity P-wave (km/s) = 7.34698 8.67084 8.03622
#
# Compressibility (1/GPa) = 0.01336345
#
# Stress axis : x y z
#
# Youngs Moduli (GPa) = 168.90502 50.41784 60.20983
#
# Poissons Ratio (x) = -0.01835 0.17584
# Poissons Ratio (y) = -0.06148 0.71911
# Poissons Ratio (z) = 0.49329 0.60216
#
# Static dielectric constant tensor:
#      x y z
#    x 3.655840 0.000000 0.096600 
#    y 0.000000 3.641920 0.000000 
#    z 0.096600 0.000000 3.982330 
# 
# 
# High freq. dielectric constant tensor:
#      x y z
#    x 1.853140 0.000000 -0.000330 
#    y 0.000000 1.821290 0.000000 
#    z -0.000330 0.000000 1.827110 
# 
# From -- ./inp_files/252305.got.cif
#   From: 2010.06.25/outbox.cif.g09.slc.cpg/sg12_127_cif.got.tgz:252305.got - 2010.06.28 00:19:55.
