data_PCOD8078996
_publ_section_title
;
Structure prediction by ZEFSAII (Michael W. Deem and Ramdas Pophale) SiO2 
 PCOD8078996
Probable space group: C 2/M
;
_chemical_formula_sum "Si O2"
_cell_formula_units_Z 64
_cell_length_a 21.485583
_cell_length_b 20.094817
_cell_length_c 11.202177
_cell_angle_alpha 90.000000
_cell_angle_beta 126.050369
_cell_angle_gamma 90.000000
_cell_volume 3910.331979
_symmetry_space_group_name_H-M "C 2/M"
_symmetry_group_IT_number 12
_symmetry_cell_setting 'monoclinic'
loop_
_space_group_symop_operation_xyz
x,y,z
-x,y,-z
-x,-y,-z
x,-y,z
1/2+x,1/2+y,z
1/2-x,1/2+y,-z
1/2-x,1/2-y,-z
1/2+x,1/2-y,z
loop_
_atom_site_type_symbol
_atom_site_label
_atom_site_fract_x
_atom_site_fract_y
_atom_site_fract_z
Si Si1 0.326188 0.768588 0.438714
Si Si2 0.736954 0.924406 0.292518
Si Si3 0.633381 0.259676 0.942581
Si Si4 0.289524 0.351521 0.565870
Si Si5 0.532929 0.795578 0.258620
Si Si6 0.566734 0.074824 0.171019
Si Si7 0.080765 0.812411 0.127568
Si Si8 0.717364 0.311226 0.827815
O O1 0.290900 0.708664 0.474551
O O2 0.280334 0.836307 0.421221
O O3 0.416860 0.776446 0.568658
O O4 0.312479 0.750938 0.285525
O O5 0.773403 0.916302 0.466912
O O6 0.646974 0.904560 0.198509
O O7 0.780753 0.880048 0.243147
O O8 0.748251 0.000000 0.264306
O O9 0.554702 0.223755 0.814781
O O10 0.657213 0.314783 0.870123
O O11 0.628629 0.296863 0.063383
O O12 0.698056 0.202901 0.024368
O O13 0.369212 0.360112 0.729695
O O14 0.544465 0.874173 0.250512
O O15 0.563401 0.757004 0.175476
O O16 0.573505 0.000000 0.232131
O O17 0.500000 0.078650 0.000000
O O18 0.000000 0.847697 0.000000
#
# Coordination Sequence:
#
# PCOD8078996 Si02
#       8
#     8   8   8   8   8   8   8   8
#     4   9  16  26  46  66  93 124 145 199 248 274
#     4  10  19  31  49  71  96 129 163 197 237 290
#     4  10  19  28  45  69  98 129 159 194 242 285
#     4   9  15  27  46  69  93 117 153 194 246 284
#     4  10  17  28  45  70  96 122 155 201 243 284
#     4  10  18  26  41  68  99 128 154 188 234 284
#     4   9  16  27  47  72  92 117 150 199 253 284
#     4  10  19  31  44  69  98 130 161 194 238 292
#
# _framework density 16.366897000000002
#
# number of rings (size 3 to 8) (size 9 to 14) (size 15 to 20)
#    0.000    2.375    2.500    2.625    0.000    0.500 
#    0.000    0.000    0.000    1.125    0.000   30.625 
#    0.000    0.000    0.000    0.000    0.000    0.000 
#
# Total GULP energy -396654.415836 kJ/mol
# GULP energy per Si atom -12395.450495 kJ/mol
# Density = 1.632965 g / cm^3
# Si number density = 16.366897 Si / 1000 Ang^3
#
#
#
# Elastic Constant Matrix: (Units=GPa)
#
#
# Indices 1 2 3 4 5 6 
#
# 1 96.2523 35.5254 40.8574 0.0000 1.9964 0.0000
# 2 35.5254 61.7406 25.7915 0.0000 1.7794 0.0000
# 3 40.8574 25.7915 99.3456 0.0000 16.3247 0.0000
# 4 0.0000 0.0000 0.0000 14.1641 0.0000 0.5812
# 5 1.9964 1.7794 16.3247 0.0000 21.7399 0.0000
# 6 0.0000 0.0000 0.0000 0.5812 0.0000 18.6636
#
#
#
# Elastic Compliance Matrix: (Units=1/GPa)
#
#
# Indices 1 2 3 4 5 6 
#
# 1 0.014819 -0.006582 -0.004849 0.000000 0.002819 0.000000
# 2 -0.006582 0.021196 -0.002977 0.000000 0.001105 0.000000
# 3 -0.004849 -0.002977 0.014510 0.000000 -0.010207 0.000000
# 4 0.000000 0.000000 0.000000 0.070691 0.000000 -0.002201
# 5 0.002819 0.001105 -0.010207 0.000000 0.053313 0.000000
# 6 0.000000 0.000000 0.000000 -0.002201 0.000000 0.053649
#
#
# Mechanical properties :
#
#
# Convention : Reuss Voigt Hill
#
# Bulk Modulus (GPa) = 46.06575 51.29855 48.68215
# Shear Modulus (GPa) = 18.92282 21.25780 20.09031
#
# Velocity S-wave (km/s) = 3.40393 3.60784 3.50737
# Velocity P-wave (km/s) = 6.60725 6.98328 6.79787
#
# Compressibility (1/GPa) = 0.02170810
#
# Stress axis : x y z
#
# Youngs Moduli (GPa) = 67.48314 47.17835 68.91721
#
# Poissons Ratio (x) = 0.31054 0.33416
# Poissons Ratio (y) = 0.44419 0.20519
# Poissons Ratio (z) = 0.32721 0.14047
#
# Static dielectric constant tensor:
#      x y z
#    x 2.999030 0.000000 0.124770 
#    y 0.000000 2.827910 0.000000 
#    z 0.124770 0.000000 3.307480 
# 
# 
# High freq. dielectric constant tensor:
#      x y z
#    x 1.613340 0.000000 0.015340 
#    y 0.000000 1.584150 0.000000 
#    z 0.015340 0.000000 1.645130 
# 
# From -- ./inp_files/169244.got.cif
#   From: 2010.06.25/outbox.cif.g09.slc.cpg/sg12_85_cif.got.tgz:169244.got - 2010.06.28 00:19:55.
