data_PCOD8078863
_publ_section_title
;
Structure prediction by ZEFSAII (Michael W. Deem and Ramdas Pophale) SiO2 
 PCOD8078863
Probable space group: C 2/M
;
_chemical_formula_sum "Si O2"
_cell_formula_units_Z 64
_cell_length_a 23.908882
_cell_length_b 14.400925
_cell_length_c 12.637168
_cell_angle_alpha 90.000000
_cell_angle_beta 67.022946
_cell_angle_gamma 90.000000
_cell_volume 4005.892456
_symmetry_space_group_name_H-M "C 2/M"
_symmetry_group_IT_number 12
_symmetry_cell_setting 'monoclinic'
loop_
_space_group_symop_operation_xyz
x,y,z
-x,y,-z
-x,-y,-z
x,-y,z
1/2+x,1/2+y,z
1/2-x,1/2+y,-z
1/2-x,1/2-y,-z
1/2+x,1/2-y,z
loop_
_atom_site_type_symbol
_atom_site_label
_atom_site_fract_x
_atom_site_fract_y
_atom_site_fract_z
Si Si1 0.158269 0.603718 0.440006
Si Si2 0.800263 0.893116 0.359349
Si Si3 0.002136 0.101628 0.623680
Si Si4 0.685106 0.603460 0.886304
Si Si5 0.818077 0.777857 0.924096
Si Si6 0.670979 0.899822 0.190214
Si Si7 0.620484 0.295682 0.529549
Si Si8 0.631663 0.389971 0.295291
O O1 0.140080 0.500000 0.493712
O O2 0.228525 0.622896 0.411711
O O3 0.143247 0.611966 0.327092
O O4 0.119448 0.683586 0.526441
O O5 0.827925 0.865448 0.224280
O O6 0.828926 0.826953 0.425123
O O7 0.815552 0.000000 0.373775
O O8 0.053905 0.173908 0.620508
O O9 0.000000 0.094322 0.500000
O O10 0.934400 0.131409 0.709004
O O11 0.018825 0.000000 0.658309
O O12 0.659210 0.500000 0.924937
O O13 0.756690 0.603614 0.854002
O O14 0.652770 0.673338 0.993617
O O15 0.853727 0.682883 0.866835
O O16 0.819222 0.848097 0.822662
O O17 0.750000 0.750000 0.000000
O O18 0.651124 0.000000 0.157551
O O19 0.638176 0.340518 0.403832
O O20 0.642059 0.500000 0.302930
#
# Coordination Sequence:
#
# PCOD8078863 Si02
#       8
#     8   8   8   8   8   8   8   8
#     4   9  17  28  41  63  93 122 150 182 228 275
#     4   9  17  28  43  65  93 124 153 183 224 280
#     4   8  16  29  44  65  93 119 146 186 236 278
#     4   8  15  26  40  59  88 118 144 174 218 274
#     4  10  17  27  45  64  86 115 153 181 226 276
#     4   8  14  26  40  57  83 116 147 175 216 269
#     4  11  17  28  49  68  89 124 160 187 223 275
#     4  10  19  30  46  71  95 115 148 195 238 272
#
# _framework density 15.976464999999999
#
# number of rings (size 3 to 8) (size 9 to 14) (size 15 to 20)
#    0.000    2.875    1.250    4.125    0.000    0.500 
#    0.000    0.000    0.000    5.625    0.000    3.500 
#    0.000    0.000    0.000    2.250    0.000    0.250 
#
# Total GULP energy -396482.071673 kJ/mol
# GULP energy per Si atom -12390.064740 kJ/mol
# Density = 1.594010 g / cm^3
# Si number density = 15.976465 Si / 1000 Ang^3
#
#
#
# Elastic Constant Matrix: (Units=GPa)
#
#
# Indices 1 2 3 4 5 6 
#
# 1 39.4521 36.1643 24.5879 0.0000 1.5522 0.0000
# 2 36.1643 139.5449 48.6600 0.0000 9.9929 0.0000
# 3 24.5879 48.6600 66.1372 0.0000 7.6143 0.0000
# 4 0.0000 0.0000 0.0000 29.6374 0.0000 0.3190
# 5 1.5522 9.9929 7.6143 0.0000 12.9403 0.0000
# 6 0.0000 0.0000 0.0000 0.3190 0.0000 13.7644
#
#
#
# Elastic Compliance Matrix: (Units=1/GPa)
#
#
# Indices 1 2 3 4 5 6 
#
# 1 0.037299 -0.006770 -0.009625 0.000000 0.006417 0.000000
# 2 -0.006770 0.011019 -0.005046 0.000000 -0.004728 0.000000
# 3 -0.009625 -0.005046 0.023415 0.000000 -0.008727 0.000000
# 4 0.000000 0.000000 0.000000 0.033750 0.000000 -0.000782
# 5 0.006417 -0.004728 -0.008727 0.000000 0.085294 0.000000
# 6 0.000000 0.000000 0.000000 -0.000782 0.000000 0.072670
#
#
# Mechanical properties :
#
#
# Convention : Reuss Voigt Hill
#
# Bulk Modulus (GPa) = 34.65903 51.55095 43.10499
# Shear Modulus (GPa) = 15.82561 20.31653 18.07107
#
# Velocity S-wave (km/s) = 3.15073 3.56989 3.36684
# Velocity P-wave (km/s) = 5.91414 7.02346 6.49254
#
# Compressibility (1/GPa) = 0.02885251
#
# Stress axis : x y z
#
# Youngs Moduli (GPa) = 26.81064 90.75537 42.70695
#
# Poissons Ratio (x) = 0.61438 0.41104
# Poissons Ratio (y) = 0.18150 0.21549
# Poissons Ratio (z) = 0.25804 0.45794
#
# Static dielectric constant tensor:
#      x y z
#    x 2.765430 0.000000 -0.031890 
#    y 0.000000 3.498870 0.000000 
#    z -0.031890 0.000000 3.103570 
# 
# 
# High freq. dielectric constant tensor:
#      x y z
#    x 1.561810 0.000000 0.003010 
#    y 0.000000 1.625870 0.000000 
#    z 0.003010 0.000000 1.596230 
# 
# From -- ./inp_files/176089.got.cif
#   From: 2010.06.25/outbox.cif.g09.slc.cpg/sg12_89_cif.got.tgz:176089.got - 2010.06.28 00:19:55.
