data_PCOD8078570
_publ_section_title
;
Structure prediction by ZEFSAII (Michael W. Deem and Ramdas Pophale) SiO2 
 PCOD8078570
Probable space group: C 2/M
;
_chemical_formula_sum "Si O2"
_cell_formula_units_Z 56
_cell_length_a 23.912697
_cell_length_b 9.209250
_cell_length_c 25.177640
_cell_angle_alpha 90.000000
_cell_angle_beta 39.112664
_cell_angle_gamma 90.000000
_cell_volume 3497.776905
_symmetry_space_group_name_H-M "C 2/M"
_symmetry_group_IT_number 12
_symmetry_cell_setting 'monoclinic'
loop_
_space_group_symop_operation_xyz
x,y,z
-x,y,-z
-x,-y,-z
x,-y,z
1/2+x,1/2+y,z
1/2-x,1/2+y,-z
1/2-x,1/2-y,-z
1/2+x,1/2-y,z
loop_
_atom_site_type_symbol
_atom_site_label
_atom_site_fract_x
_atom_site_fract_y
_atom_site_fract_z
Si Si1 0.652570 0.330499 0.015004
Si Si2 0.594824 0.168132 0.955919
Si Si3 0.738652 0.667322 0.232999
Si Si4 0.641998 0.162811 0.386244
Si Si5 0.574117 0.669668 0.278744
Si Si6 0.141304 0.669780 0.130329
Si Si7 0.026856 0.664625 0.564855
O O1 0.631176 0.500000 0.037461
O O2 0.618389 0.245576 0.091726
O O3 0.599587 0.266728 0.004393
O O4 0.756659 0.303057 0.929564
O O5 0.668293 0.221203 0.859495
O O6 0.611885 0.000000 0.958879
O O7 0.500000 0.191773 0.000000
O O8 0.741606 0.500000 0.244809
O O9 0.721203 0.743932 0.302493
O O10 0.662958 0.703044 0.246058
O O11 0.611393 0.218225 0.467412
O O12 0.558453 0.169410 0.409362
O O13 0.677767 0.000000 0.365094
O O14 0.561766 0.500000 0.276426
O O15 0.579452 0.756094 0.219846
O O16 0.488387 0.728600 0.374100
O O17 0.119021 0.500000 0.142833
O O18 0.041984 0.500000 0.574025
#
# Coordination Sequence:
#
# PCOD8078570 Si02
#       7
#     8   8   8   8   8   8   8
#     4  10  20  32  47  66  87 113 148 190 228 263
#     4  10  20  34  49  64  88 121 154 188 226 267
#     4   9  17  27  40  59  83 112 148 185 219 259
#     4   8  14  24  38  54  77 111 145 177 213 258
#     4  10  17  25  40  62  88 115 146 182 217 258
#     4  10  19  30  46  65  88 118 148 181 223 272
#     4   8  14  24  36  54  81 112 144 174 211 260
#
# _framework density 16.010169000000001
#
# number of rings (size 3 to 8) (size 9 to 14) (size 15 to 20)
#    0.000    2.714    1.429    2.143    0.000    3.143 
#    0.000    2.857    0.000    0.000    0.000    0.000 
#    0.000    1.143    0.000    3.429    0.000    5.286 
#
# Total GULP energy -347113.683504 kJ/mol
# GULP energy per Si atom -12396.917268 kJ/mol
# Density = 1.597373 g / cm^3
# Si number density = 16.010169 Si / 1000 Ang^3
#
#
#
# Elastic Constant Matrix: (Units=GPa)
#
#
# Indices 1 2 3 4 5 6 
#
# 1 44.5182 37.5970 42.1261 0.0006 11.0998 -0.0006
# 2 37.5970 95.4230 71.4797 0.0020 21.2307 -0.0060
# 3 42.1261 71.4797 138.7086 0.0003 31.9416 -0.0007
# 4 0.0006 0.0020 0.0003 32.9749 -0.0002 8.8852
# 5 11.0998 21.2307 31.9416 -0.0002 19.8720 0.0007
# 6 -0.0006 -0.0060 -0.0007 8.8852 0.0007 17.5362
#
#
#
# Elastic Compliance Matrix: (Units=1/GPa)
#
#
# Indices 1 2 3 4 5 6 
#
# 1 0.036477 -0.009866 -0.005921 0.000001 -0.000317 -0.000003
# 2 -0.009866 0.020284 -0.005930 -0.000003 -0.006628 0.000008
# 3 -0.005921 -0.005930 0.015627 0.000001 -0.015476 -0.000001
# 4 0.000001 -0.000003 0.000001 0.035121 0.000003 -0.017795
# 5 -0.000317 -0.006628 -0.015476 0.000003 0.082456 -0.000008
# 6 -0.000003 0.000008 -0.000001 -0.017795 -0.000008 0.066041
#
#
# Mechanical properties :
#
#
# Convention : Reuss Voigt Hill
#
# Bulk Modulus (GPa) = 34.53815 64.56170 49.54993
# Shear Modulus (GPa) = 16.17646 22.57309 19.37478
#
# Velocity S-wave (km/s) = 3.18211 3.75897 3.48250
# Velocity P-wave (km/s) = 5.92626 7.69758 6.86925
#
# Compressibility (1/GPa) = 0.02895349
#
# Stress axis : x y z
#
# Youngs Moduli (GPa) = 27.41472 49.30061 63.99118
#
# Poissons Ratio (x) = 0.48642 0.37888
# Poissons Ratio (y) = 0.27048 0.37946
# Poissons Ratio (z) = 0.16232 0.29235
#
# Static dielectric constant tensor:
#      x y z
#    x 2.519050 0.000000 0.208060 
#    y 0.000000 3.109560 0.000000 
#    z 0.208060 0.000000 3.354310 
# 
# 
# High freq. dielectric constant tensor:
#      x y z
#    x 1.550080 0.000000 0.027290 
#    y 0.000000 1.622160 0.000000 
#    z 0.027290 0.000000 1.623470 
# 
# From -- ./inp_files/237448.got.cif
#   From: 2010.06.25/outbox.cif.g09.slc.cpg/sg12_119_cif.got.tgz:237448.got - 2010.06.28 00:19:55.
