data_PCOD8078746
_publ_section_title
;
Structure prediction by ZEFSAII (Michael W. Deem and Ramdas Pophale) SiO2 
 PCOD8078746
Probable space group: C 2/M
;
_chemical_formula_sum "Si O2"
_cell_formula_units_Z 64
_cell_length_a 23.013246
_cell_length_b 8.843951
_cell_length_c 21.834763
_cell_angle_alpha 90.000000
_cell_angle_beta 55.143265
_cell_angle_gamma 90.000000
_cell_volume 3646.662447
_symmetry_space_group_name_H-M "C 2/M"
_symmetry_group_IT_number 12
_symmetry_cell_setting 'monoclinic'
loop_
_space_group_symop_operation_xyz
x,y,z
-x,y,-z
-x,-y,-z
x,-y,z
1/2+x,1/2+y,z
1/2-x,1/2+y,-z
1/2-x,1/2-y,-z
1/2+x,1/2-y,z
loop_
_atom_site_type_symbol
_atom_site_label
_atom_site_fract_x
_atom_site_fract_y
_atom_site_fract_z
Si Si1 0.538807 0.173137 0.417211
Si Si2 0.534939 0.826818 0.776854
Si Si3 0.691398 0.174157 0.372824
Si Si4 0.467730 0.175710 0.939421
Si Si5 0.326238 0.821824 0.232886
Si Si6 0.534102 0.673596 0.650976
Si Si7 0.815602 0.176593 0.494266
Si Si8 0.104321 0.178726 0.916759
O O1 0.500000 0.247119 0.500000
O O2 0.623205 0.190543 0.370805
O O3 0.515555 0.249855 0.368876
O O4 0.514780 0.000000 0.427907
O O5 0.470147 0.805612 0.864377
O O6 0.608860 0.771825 0.762445
O O7 0.515179 0.730847 0.729747
O O8 0.542457 0.000000 0.752007
O O9 0.753822 0.273632 0.307805
O O10 0.670126 0.237510 0.451491
O O11 0.715544 0.000000 0.364176
O O12 0.532876 0.271082 0.926432
O O13 0.476650 0.000000 0.951639
O O14 0.396880 0.245143 0.014031
O O15 0.331089 0.740375 0.163587
O O16 0.327994 0.000000 0.220730
O O17 0.514956 0.500000 0.659441
O O18 0.616621 0.703905 0.589104
O O19 0.750000 0.250000 0.500000
O O20 0.801382 0.000000 0.515131
O O21 0.110240 0.000000 0.919734
#
# Coordination Sequence:
#
# PCOD8078746 Si02
#       8
#     8   8   8   8   8   8   8   8
#     4  10  21  39  59  75  95 130 170 213 262 310
#     4   9  19  33  50  72 103 140 173 206 251 307
#     4  11  22  36  55  77  99 129 171 215 258 306
#     4   9  16  28  45  68 100 139 176 209 250 304
#     4  10  20  34  51  74 106 142 172 208 257 308
#     4  11  23  35  52  76 101 130 169 216 258 298
#     4  11  23  36  51  74 103 136 169 206 253 307
#     4  10  17  26  44  71 102 137 173 211 250 298
#
# _framework density 17.550294000000001
#
# number of rings (size 3 to 8) (size 9 to 14) (size 15 to 20)
#    0.000    1.875    1.250    5.250    0.000    7.750 
#    0.000    0.000    0.000    0.000    0.000    0.875 
#    0.000    0.000    0.000    0.000    0.000    0.000 
#
# Total GULP energy -396746.999559 kJ/mol
# GULP energy per Si atom -12398.343736 kJ/mol
# Density = 1.751035 g / cm^3
# Si number density = 17.550294 Si / 1000 Ang^3
#
#
#
# Elastic Constant Matrix: (Units=GPa)
#
#
# Indices 1 2 3 4 5 6 
#
# 1 67.4982 40.0522 31.1657 0.0003 19.3601 -0.0008
# 2 40.0522 91.4508 44.2678 -0.0005 13.3957 -0.0008
# 3 31.1657 44.2678 113.8899 0.0000 24.8930 0.0004
# 4 0.0003 -0.0005 0.0000 32.0250 0.0001 -1.0239
# 5 19.3601 13.3957 24.8930 0.0001 14.3287 0.0002
# 6 -0.0008 -0.0008 0.0004 -1.0239 0.0002 20.3195
#
#
#
# Elastic Compliance Matrix: (Units=1/GPa)
#
#
# Indices 1 2 3 4 5 6 
#
# 1 0.029263 -0.009133 0.003737 0.000000 -0.037492 0.000001
# 2 -0.009133 0.016608 -0.005255 0.000000 0.005943 0.000000
# 3 0.003737 -0.005255 0.015848 0.000000 -0.027669 0.000000
# 4 0.000000 0.000000 0.000000 0.031276 0.000000 0.001576
# 5 -0.037492 0.005943 -0.027669 0.000000 0.162960 -0.000002
# 6 0.000001 0.000000 0.000000 0.001576 -0.000002 0.049293
#
#
# Mechanical properties :
#
#
# Convention : Reuss Voigt Hill
#
# Bulk Modulus (GPa) = 24.74259 55.97891 40.36075
# Shear Modulus (GPa) = 14.70492 23.82486 19.26489
#
# Velocity S-wave (km/s) = 2.89774 3.68845 3.31674
# Velocity P-wave (km/s) = 5.03236 7.07849 6.14124
#
# Compressibility (1/GPa) = 0.04041613
#
# Stress axis : x y z
#
# Youngs Moduli (GPa) = 34.17304 60.21170 63.09953
#
# Poissons Ratio (x) = 0.54992 -0.23580
# Poissons Ratio (y) = 0.31211 0.33160
# Poissons Ratio (z) = -0.12770 0.31642
#
# Static dielectric constant tensor:
#      x y z
#    x 2.880060 0.000000 0.038730 
#    y 0.000000 3.344170 0.000000 
#    z 0.038730 0.000000 3.777150 
# 
# 
# High freq. dielectric constant tensor:
#      x y z
#    x 1.630610 0.000000 0.007230 
#    y 0.000000 1.691340 0.000000 
#    z 0.007230 0.000000 1.694080 
# 
# From -- ./inp_files/319800.got.cif
#   From: 2010.06.25/outbox.cif.g09.slc.cpg/sg12_160_cif.got.tgz:319800.got - 2010.06.28 00:19:55.
