data_PCOD8078837
_publ_section_title
;
Structure prediction by ZEFSAII (Michael W. Deem and Ramdas Pophale) SiO2 
 PCOD8078837
Probable space group: C 2/M
;
_chemical_formula_sum "Si O2"
_cell_formula_units_Z 56
_cell_length_a 20.470067
_cell_length_b 17.963785
_cell_length_c 9.556014
_cell_angle_alpha 90.000000
_cell_angle_beta 63.742693
_cell_angle_gamma 90.000000
_cell_volume 3151.355492
_symmetry_space_group_name_H-M "C 2/M"
_symmetry_group_IT_number 12
_symmetry_cell_setting 'monoclinic'
loop_
_space_group_symop_operation_xyz
x,y,z
-x,y,-z
-x,-y,-z
x,-y,z
1/2+x,1/2+y,z
1/2-x,1/2+y,-z
1/2-x,1/2-y,-z
1/2+x,1/2-y,z
loop_
_atom_site_type_symbol
_atom_site_label
_atom_site_fract_x
_atom_site_fract_y
_atom_site_fract_z
Si Si1 0.826323 0.415509 0.495364
Si Si2 0.588809 0.913885 0.027142
Si Si3 0.146158 0.788027 0.704419
Si Si4 0.703241 0.585996 0.821019
Si Si5 0.267276 0.331212 0.628093
Si Si6 0.946328 0.654992 0.230355
Si Si7 0.754320 0.086171 0.910586
O O1 0.850999 0.500000 0.464183
O O2 0.783327 0.398039 0.679461
O O3 0.773551 0.397084 0.415820
O O4 0.900306 0.366735 0.413011
O O5 0.532119 0.861168 0.167062
O O6 0.569151 0.000000 0.072225
O O7 0.583253 0.896359 0.868126
O O8 0.668883 0.894674 0.006023
O O9 0.142577 0.861845 0.804450
O O10 0.213799 0.739011 0.697108
O O11 0.160969 0.808074 0.527421
O O12 0.070292 0.742198 0.787265
O O13 0.681408 0.500000 0.815643
O O14 0.706124 0.605191 0.981813
O O15 0.291079 0.362714 0.756566
O O16 0.764660 0.000000 0.861250
#
# Coordination Sequence:
#
# PCOD8078837 Si02
#       7
#     8   8   8   8   8   8   8
#     4   9  14  25  42  61  86 121 154 184 224 263
#     4  10  18  28  45  71  96 124 158 188 216 264
#     4   9  17  29  43  65  90 120 154 193 231 276
#     4   9  19  30  43  64  94 124 150 187 236 281
#     4   9  16  26  43  64  87 118 158 191 228 263
#     4  10  17  27  44  65  90 120 160 192 222 258
#     4  10  18  30  45  69  98 123 155 184 220 279
#
# _framework density 17.770130999999999
#
# number of rings (size 3 to 8) (size 9 to 14) (size 15 to 20)
#    0.000    2.571    2.857    3.000    0.000    1.143 
#    0.000    0.714    0.000    3.429    0.000    2.000 
#    0.000    0.000    0.000   12.571    0.000    1.286 
#
# Total GULP energy -347037.045929 kJ/mol
# GULP energy per Si atom -12394.180212 kJ/mol
# Density = 1.772968 g / cm^3
# Si number density = 17.770131 Si / 1000 Ang^3
#
#
#
# Elastic Constant Matrix: (Units=GPa)
#
#
# Indices 1 2 3 4 5 6 
#
# 1 30.1285 34.7630 16.7450 0.0000 -3.7365 0.0000
# 2 34.7630 96.7469 48.0325 0.0000 4.0604 0.0000
# 3 16.7450 48.0325 85.9362 0.0000 8.6988 0.0000
# 4 0.0000 0.0000 0.0000 30.7359 0.0000 -4.2881
# 5 -3.7365 4.0604 8.6988 0.0000 19.6195 0.0000
# 6 0.0000 0.0000 0.0000 -4.2881 0.0000 21.9936
#
#
#
# Elastic Compliance Matrix: (Units=1/GPa)
#
#
# Indices 1 2 3 4 5 6 
#
# 1 0.061643 -0.022209 -0.001311 0.000000 0.016917 0.000000
# 2 -0.022209 0.022315 -0.007590 0.000000 -0.005483 0.000000
# 3 -0.001311 -0.007590 0.016752 0.000000 -0.006106 0.000000
# 4 0.000000 0.000000 0.000000 0.033445 0.000000 0.006521
# 5 0.016917 -0.005483 -0.006106 0.000000 0.058034 0.000000
# 6 0.000000 0.000000 0.000000 0.006521 0.000000 0.046739
#
#
# Mechanical properties :
#
#
# Convention : Reuss Voigt Hill
#
# Bulk Modulus (GPa) = 25.98005 45.76584 35.87295
# Shear Modulus (GPa) = 15.92480 22.02122 18.97301
#
# Velocity S-wave (km/s) = 2.99683 3.52408 3.27110
# Velocity P-wave (km/s) = 5.16009 6.50916 5.87348
#
# Compressibility (1/GPa) = 0.03849107
#
# Stress axis : x y z
#
# Youngs Moduli (GPa) = 16.22256 44.81371 59.69346
#
# Poissons Ratio (x) = 0.99526 0.07823
# Poissons Ratio (y) = 0.36028 0.45307
# Poissons Ratio (z) = 0.02126 0.34013
#
# Static dielectric constant tensor:
#      x y z
#    x 2.781360 0.000000 -0.074970 
#    y 0.000000 3.439990 0.000000 
#    z -0.074970 0.000000 3.412880 
# 
# 
# High freq. dielectric constant tensor:
#      x y z
#    x 1.617080 0.000000 -0.001940 
#    y 0.000000 1.691890 0.000000 
#    z -0.001940 0.000000 1.685230 
# 
# From -- ./inp_files/97647.got.cif
#   From: 2010.06.25/outbox.cif.g09.slc.cpg/sg12_49_cif.got.tgz:97647.got - 2010.06.28 00:19:55.
