data_PCOD8078130
_publ_section_title
;
Structure prediction by ZEFSAII (Michael W. Deem and Ramdas Pophale) SiO2 
 PCOD8078130
Probable space group: C 2/M
;
_chemical_formula_sum "Si O2"
_cell_formula_units_Z 64
_cell_length_a 25.301743
_cell_length_b 8.701885
_cell_length_c 17.903892
_cell_angle_alpha 90.000000
_cell_angle_beta 94.663032
_cell_angle_gamma 90.000000
_cell_volume 3928.903397
_symmetry_space_group_name_H-M "C 2/M"
_symmetry_group_IT_number 12
_symmetry_cell_setting 'monoclinic'
loop_
_space_group_symop_operation_xyz
x,y,z
-x,y,-z
-x,-y,-z
x,-y,z
1/2+x,1/2+y,z
1/2-x,1/2+y,-z
1/2-x,1/2-y,-z
1/2+x,1/2-y,z
loop_
_atom_site_type_symbol
_atom_site_label
_atom_site_fract_x
_atom_site_fract_y
_atom_site_fract_z
Si Si1 0.988564 0.327409 0.911475
Si Si2 0.904445 0.818825 0.098573
Si Si3 0.691181 0.321034 0.634120
Si Si4 0.305795 0.680550 0.660069
Si Si5 0.690832 0.817637 0.488629
Si Si6 0.319532 0.322141 0.203686
Si Si7 0.617648 0.320714 0.073875
Si Si8 0.299919 0.181537 0.811291
O O1 0.979035 0.500000 0.881475
O O2 0.038934 0.255752 0.874837
O O3 0.936004 0.228207 0.889228
O O4 0.000000 0.323691 0.000000
O O5 0.861504 0.747029 0.151312
O O6 0.911407 0.000000 0.108252
O O7 0.885494 0.775540 0.013376
O O8 0.705130 0.500000 0.622917
O O9 0.744448 0.224096 0.649133
O O10 0.660083 0.252058 0.558215
O O11 0.659504 0.298788 0.708437
O O12 0.314645 0.500000 0.656714
O O13 0.335483 0.758877 0.591994
O O14 0.327967 0.744287 0.741311
O O15 0.750000 0.750000 0.500000
O O16 0.690590 0.000000 0.491777
O O17 0.316303 0.500000 0.182716
O O18 0.260246 0.253997 0.186207
O O19 0.626976 0.500000 0.086932
O O20 0.667380 0.228341 0.112098
O O21 0.299301 0.000000 0.800002
#
# Coordination Sequence:
#
# PCOD8078130 Si02
#       8
#     8   8   8   8   8   8   8   8
#     4   9  17  30  47  66  85 106 137 180 227 266
#     4   9  17  31  48  65  86 113 146 182 219 260
#     4   9  15  25  39  56  80 111 144 175 211 253
#     4  10  17  26  39  56  79 108 143 179 214 253
#     4  10  16  23  36  55  78 106 141 177 213 251
#     4   8  16  29  44  61  86 120 150 177 214 258
#     4  10  19  30  46  66  86 112 146 183 221 260
#     4  10  19  31  44  60  87 120 149 178 215 259
#
# _framework density 16.289532000000001
#
# number of rings (size 3 to 8) (size 9 to 14) (size 15 to 20)
#    0.000    2.625    0.000    6.000    0.000    2.500 
#    0.000    3.750    0.000    0.000    0.000    0.000 
#    0.000    1.000    0.000   10.750    0.000    6.250 
#
# Total GULP energy -396549.928287 kJ/mol
# GULP energy per Si atom -12392.185259 kJ/mol
# Density = 1.625246 g / cm^3
# Si number density = 16.289532 Si / 1000 Ang^3
#
#
#
# Elastic Constant Matrix: (Units=GPa)
#
#
# Indices 1 2 3 4 5 6 
#
# 1 65.7220 22.1264 44.6661 0.0000 -16.3268 0.0000
# 2 22.1264 81.7267 34.1658 0.0000 -6.9551 0.0000
# 3 44.6661 34.1658 96.6312 0.0000 -19.3942 0.0000
# 4 0.0000 0.0000 0.0000 24.9846 0.0000 4.2300
# 5 -16.3268 -6.9551 -19.3942 0.0000 7.7276 0.0000
# 6 0.0000 0.0000 0.0000 4.2300 0.0000 17.2571
#
#
#
# Elastic Compliance Matrix: (Units=1/GPa)
#
#
# Indices 1 2 3 4 5 6 
#
# 1 0.032894 -0.002903 -0.001520 0.000000 0.063072 0.000000
# 2 -0.002903 0.014615 -0.004869 0.000000 -0.005199 0.000000
# 3 -0.001520 -0.004869 0.022666 0.000000 0.049291 0.000000
# 4 0.000000 0.000000 0.000000 0.041758 0.000000 -0.010235
# 5 0.063072 -0.005199 0.049291 0.000000 0.381690 0.000000
# 6 0.000000 0.000000 0.000000 -0.010235 0.000000 0.060456
#
#
# Mechanical properties :
#
#
# Convention : Reuss Voigt Hill
#
# Bulk Modulus (GPa) = 19.38310 49.55515 34.46912
# Shear Modulus (GPa) = 8.47661 19.53530 14.00595
#
# Velocity S-wave (km/s) = 2.28364 3.46678 2.93544
# Velocity P-wave (km/s) = 4.34492 6.81999 5.71798
#
# Compressibility (1/GPa) = 0.05159133
#
# Stress axis : x y z
#
# Youngs Moduli (GPa) = 30.40057 68.42355 44.11989
#
# Poissons Ratio (x) = 0.19862 0.06705
# Poissons Ratio (y) = 0.08825 0.21482
# Poissons Ratio (z) = 0.04620 0.33316
#
# Static dielectric constant tensor:
#      x y z
#    x 2.822110 0.000000 -0.183620 
#    y 0.000000 3.074980 0.000000 
#    z -0.183620 0.000000 3.782810 
# 
# 
# High freq. dielectric constant tensor:
#      x y z
#    x 1.567570 0.000000 -0.009140 
#    y 0.000000 1.631970 0.000000 
#    z -0.009140 0.000000 1.630460 
# 
# From -- ./inp_files/291552.got.cif
#   From: 2010.06.25/outbox.cif.g09.slc.cpg/sg12_146_cif.got.tgz:291552.got - 2010.06.28 00:19:55.
