data_PCOD8078268
_publ_section_title
;
Structure prediction by ZEFSAII (Michael W. Deem and Ramdas Pophale) SiO2 
 PCOD8078268
Probable space group: C 2/M
;
_chemical_formula_sum "Si O2"
_cell_formula_units_Z 56
_cell_length_a 19.511399
_cell_length_b 22.662269
_cell_length_c 11.754598
_cell_angle_alpha 90.000000
_cell_angle_beta 37.568621
_cell_angle_gamma 90.000000
_cell_volume 3169.010857
_symmetry_space_group_name_H-M "C 2/M"
_symmetry_group_IT_number 12
_symmetry_cell_setting 'monoclinic'
loop_
_space_group_symop_operation_xyz
x,y,z
-x,y,-z
-x,-y,-z
x,-y,z
1/2+x,1/2+y,z
1/2-x,1/2+y,-z
1/2-x,1/2-y,-z
1/2+x,1/2-y,z
loop_
_atom_site_type_symbol
_atom_site_label
_atom_site_fract_x
_atom_site_fract_y
_atom_site_fract_z
Si Si1 0.739143 0.932609 0.324517
Si Si2 0.735171 0.243289 0.885208
Si Si3 0.395339 0.434560 0.901096
Si Si4 0.898403 0.327092 0.545997
Si Si5 0.402668 0.653014 0.705031
Si Si6 0.992833 0.239456 0.253814
Si Si7 0.076143 0.133669 0.790073
O O1 0.625465 0.895903 0.450250
O O2 0.805886 0.897031 0.335002
O O3 0.711928 0.000000 0.398949
O O4 0.809301 0.934073 0.117131
O O5 0.786409 0.298477 0.748533
O O6 0.801650 0.182887 0.763688
O O7 0.750000 0.250000 0.000000
O O8 0.601600 0.240712 0.034698
O O9 0.413859 0.500000 0.830210
O O10 0.347405 0.395365 0.860706
O O11 0.515468 0.409331 0.780588
O O12 0.000000 0.322143 0.500000
O O13 0.926130 0.295865 0.389103
O O14 0.500000 0.623399 0.500000
O O15 0.463956 0.704879 0.692868
O O16 0.910580 0.198330 0.285449
O O17 0.000000 0.141169 0.000000
#
# Coordination Sequence:
#
# PCOD8078268 Si02
#       7
#     8   8   8   8   8   8   8
#     4  10  21  35  50  71 100 135 172 209 248 293
#     4  10  16  29  47  71 101 137 158 195 247 305
#     4   9  18  30  49  72  96 131 173 212 251 296
#     4  12  20  32  52  78 104 135 165 201 253 306
#     4  10  16  28  45  71 103 135 164 200 250 305
#     4  10  19  30  51  76 102 131 167 204 254 306
#     4   9  17  33  52  73  99 130 165 214 259 298
#
# _framework density 17.671129000000001
#
# number of rings (size 3 to 8) (size 9 to 14) (size 15 to 20)
#    0.000    2.000    4.286    3.857    0.000    2.857 
#    0.000    0.000    0.000    0.000    0.000    0.000 
#    0.000    1.714    0.000    0.000    0.000    0.000 
#
# Total GULP energy -347028.345249 kJ/mol
# GULP energy per Si atom -12393.869473 kJ/mol
# Density = 1.763091 g / cm^3
# Si number density = 17.671129 Si / 1000 Ang^3
#
#
#
# Elastic Constant Matrix: (Units=GPa)
#
#
# Indices 1 2 3 4 5 6 
#
# 1 41.9165 46.6734 16.9893 0.0001 -0.2633 -0.0001
# 2 46.6734 126.6408 35.7037 0.0000 -3.5069 0.0000
# 3 16.9893 35.7037 68.4218 0.0001 -10.0144 -0.0001
# 4 0.0001 0.0000 0.0001 23.3938 -0.0001 1.0543
# 5 -0.2633 -3.5069 -10.0144 -0.0001 9.3384 0.0001
# 6 -0.0001 0.0000 -0.0001 1.0543 0.0001 26.2807
#
#
#
# Elastic Compliance Matrix: (Units=1/GPa)
#
#
# Indices 1 2 3 4 5 6 
#
# 1 0.041445 -0.014371 -0.004046 0.000000 -0.008567 0.000000
# 2 -0.014371 0.014274 -0.003742 0.000000 0.000942 0.000000
# 3 -0.004046 -0.003742 0.020580 0.000000 0.020551 0.000000
# 4 0.000000 0.000000 0.000000 0.042824 0.000000 -0.001718
# 5 -0.008567 0.000942 0.020551 0.000000 0.129236 0.000000
# 6 0.000000 0.000000 0.000000 -0.001718 0.000000 0.038120
#
#
# Mechanical properties :
#
#
# Convention : Reuss Voigt Hill
#
# Bulk Modulus (GPa) = 31.26811 48.41244 39.84027
# Shear Modulus (GPa) = 14.64316 20.97677 17.80996
#
# Velocity S-wave (km/s) = 2.88175 3.44912 3.17812
# Velocity P-wave (km/s) = 5.36708 6.58162 6.00513
#
# Compressibility (1/GPa) = 0.03198146
#
# Stress axis : x y z
#
# Youngs Moduli (GPa) = 24.12845 70.05793 48.59002
#
# Poissons Ratio (x) = 1.00681 0.19658
# Poissons Ratio (y) = 0.34675 0.18183
# Poissons Ratio (z) = 0.09761 0.26216
#
# Static dielectric constant tensor:
#      x y z
#    x 3.245050 0.000000 -0.169410 
#    y 0.000000 3.430850 0.000000 
#    z -0.169410 0.000000 3.400620 
# 
# 
# High freq. dielectric constant tensor:
#      x y z
#    x 1.654890 0.000000 0.000010 
#    y 0.000000 1.675520 0.000000 
#    z 0.000010 0.000000 1.666560 
# 
# From -- ./inp_files/169395.got.cif
#   From: 2010.06.25/outbox.cif.g09.slc.cpg/sg12_85_cif.got.tgz:169395.got - 2010.06.28 00:19:55.
