data_PCOD8078519
_publ_section_title
;
Structure prediction by ZEFSAII (Michael W. Deem and Ramdas Pophale) SiO2 
 PCOD8078519
Probable space group: C 2/M
;
_chemical_formula_sum "Si O2"
_cell_formula_units_Z 48
_cell_length_a 28.472466
_cell_length_b 9.479422
_cell_length_c 12.256871
_cell_angle_alpha 90.000000
_cell_angle_beta 68.855520
_cell_angle_gamma 90.000000
_cell_volume 3085.434445
_symmetry_space_group_name_H-M "C 2/M"
_symmetry_group_IT_number 12
_symmetry_cell_setting 'monoclinic'
loop_
_space_group_symop_operation_xyz
x,y,z
-x,y,-z
-x,-y,-z
x,-y,z
1/2+x,1/2+y,z
1/2-x,1/2+y,-z
1/2-x,1/2-y,-z
1/2+x,1/2-y,z
loop_
_atom_site_type_symbol
_atom_site_label
_atom_site_fract_x
_atom_site_fract_y
_atom_site_fract_z
Si Si1 0.248911 0.836451 0.835713
Si Si2 0.920490 0.836897 0.723355
Si Si3 0.322146 0.339586 0.918357
Si Si4 0.989202 0.655663 0.380806
Si Si5 0.114126 0.335760 0.454248
Si Si6 0.726273 0.163828 0.422742
O O1 0.294928 0.757243 0.853308
O O2 0.245021 0.790871 0.712787
O O3 0.263512 0.000000 0.828886
O O4 0.196529 0.802905 0.942961
O O5 0.882442 0.819578 0.858031
O O6 0.894298 0.762138 0.643052
O O7 0.974074 0.766385 0.710285
O O8 0.930119 0.000000 0.686689
O O9 0.307160 0.500000 0.902563
O O10 0.000255 0.500000 0.323623
O O11 0.929864 0.693998 0.418673
O O12 0.000000 0.659211 0.500000
O O13 0.112023 0.500000 0.418794
O O14 0.167269 0.298477 0.463794
O O15 0.750000 0.250000 0.500000
O O16 0.734201 0.000000 0.441240
#
# Coordination Sequence:
#
# PCOD8078519 Si02
#       6
#     8   8   8   8   8   8
#     4   9  17  30  45  61  84 116 148 175 211 259
#     4  10  17  24  39  65  92 113 136 172 216 256
#     4   9  17  27  42  65  90 114 140 175 215 255
#     4   8  15  26  40  57  82 114 145 172 205 256
#     4   9  17  30  43  58  83 116 148 176 208 253
#     4  10  20  32  47  64  85 115 149 183 217 254
#
# _framework density 15.556967999999999
#
# number of rings (size 3 to 8) (size 9 to 14) (size 15 to 20)
#    0.000    2.833    1.667    1.500    0.000    5.000 
#    0.000    0.000    0.000    0.000    0.000    1.167 
#    0.000    9.333    0.000    0.000    0.000    0.000 
#
# Total GULP energy -297413.820768 kJ/mol
# GULP energy per Si atom -12392.242532 kJ/mol
# Density = 1.552156 g / cm^3
# Si number density = 15.556968 Si / 1000 Ang^3
#
#
#
# Elastic Constant Matrix: (Units=GPa)
#
#
# Indices 1 2 3 4 5 6 
#
# 1 89.3374 45.5283 60.4828 0.0000 -20.6294 0.0000
# 2 45.5283 71.2499 50.4583 0.0000 -11.0074 0.0000
# 3 60.4828 50.4583 101.5918 0.0000 -16.4452 0.0000
# 4 0.0000 0.0000 0.0000 19.6099 0.0000 -2.6955
# 5 -20.6294 -11.0074 -16.4452 0.0000 27.5003 0.0000
# 6 0.0000 0.0000 0.0000 -2.6955 0.0000 25.4437
#
#
#
# Elastic Compliance Matrix: (Units=1/GPa)
#
#
# Indices 1 2 3 4 5 6 
#
# 1 0.022639 -0.007033 -0.008516 0.000000 0.009075 0.000000
# 2 -0.007033 0.023989 -0.007780 0.000000 -0.000327 0.000000
# 3 -0.008516 -0.007780 0.019087 0.000000 0.001912 0.000000
# 4 0.000000 0.000000 0.000000 0.051748 0.000000 0.005482
# 5 0.009075 -0.000327 0.001912 0.000000 0.044183 0.000000
# 6 0.000000 0.000000 0.000000 0.005482 0.000000 0.039883
#
#
# Mechanical properties :
#
#
# Convention : Reuss Voigt Hill
#
# Bulk Modulus (GPa) = 52.47753 63.90199 58.18976
# Shear Modulus (GPa) = 19.64334 21.55808 20.60071
#
# Velocity S-wave (km/s) = 3.55726 3.72661 3.64292
# Velocity P-wave (km/s) = 7.11884 7.72542 7.42832
#
# Compressibility (1/GPa) = 0.01905578
#
# Stress axis : x y z
#
# Youngs Moduli (GPa) = 44.17234 41.68625 52.39200
#
# Poissons Ratio (x) = 0.29319 0.44615
# Poissons Ratio (y) = 0.31068 0.40762
# Poissons Ratio (z) = 0.37616 0.32433
#
# Static dielectric constant tensor:
#      x y z
#    x 3.022030 0.000000 -0.533820 
#    y 0.000000 3.049600 0.000000 
#    z -0.533820 0.000000 3.026940 
# 
# 
# High freq. dielectric constant tensor:
#      x y z
#    x 1.573290 0.000000 -0.045260 
#    y 0.000000 1.603670 0.000000 
#    z -0.045260 0.000000 1.573280 
# 
# From -- ./inp_files/179178.got.cif
#   From: 2010.06.25/outbox.cif.g09.slc.cpg/sg12_90_cif.got.tgz:179178.got - 2010.06.28 00:19:55.
