data_PCOD8078349
_publ_section_title
;
Structure prediction by ZEFSAII (Michael W. Deem and Ramdas Pophale) SiO2 
 PCOD8078349
Probable space group: C 2/M
;
_chemical_formula_sum "Si O2"
_cell_formula_units_Z 56
_cell_length_a 5.257975
_cell_length_b 15.087538
_cell_length_c 35.198575
_cell_angle_alpha 90.000000
_cell_angle_beta 111.791761
_cell_angle_gamma 90.000000
_cell_volume 2592.759459
_symmetry_space_group_name_H-M "C 2/M"
_symmetry_group_IT_number 12
_symmetry_cell_setting 'monoclinic'
loop_
_space_group_symop_operation_xyz
x,y,z
-x,y,-z
-x,-y,-z
x,-y,z
1/2+x,1/2+y,z
1/2-x,1/2+y,-z
1/2-x,1/2-y,-z
1/2+x,1/2-y,z
loop_
_atom_site_type_symbol
_atom_site_label
_atom_site_fract_x
_atom_site_fract_y
_atom_site_fract_z
Si Si1 0.028191 0.806598 0.326219
Si Si2 0.111166 0.894124 0.546505
Si Si3 0.883704 0.805359 0.237580
Si Si4 0.118229 0.646408 0.149758
Si Si5 0.279497 0.103619 0.409511
Si Si6 0.187267 0.103610 0.974756
Si Si7 0.532340 0.345676 0.115197
O O1 0.253211 0.730848 0.330441
O O2 0.156679 0.878936 0.361184
O O3 0.950159 0.853386 0.281543
O O4 0.416192 0.855239 0.569984
O O5 0.000000 0.860219 0.500000
O O6 0.914964 0.855164 0.568614
O O7 0.115101 0.000000 0.548248
O O8 0.668104 0.727148 0.234870
O O9 0.741509 0.868805 0.198743
O O10 0.317601 0.601151 0.129848
O O11 0.085208 0.749787 0.136694
O O12 0.820008 0.600965 0.131014
O O13 0.299496 0.000000 0.417188
O O14 0.084834 0.161964 0.933714
O O15 0.158434 0.000000 0.963135
O O16 0.500000 0.129630 0.000000
O O17 0.000000 0.129620 0.000000
#
# Coordination Sequence:
#
# PCOD8078349 Si02
#       7
#     8   8   8   8   8   8   8
#     4  10  21  33  53  77 103 142 181 213 251 321
#     4   9  17  30  52  78 101 133 178 221 264 315
#     4  10  16  30  49  74  97 128 165 196 240 291
#     4  10  17  30  48  77  99 119 148 201 247 296
#     4  10  19  33  53  77 106 135 172 225 268 303
#     4  10  21  37  52  67  93 133 173 199 231 289
#     4  10  18  30  51  73  97 122 155 199 244 280
#
# _framework density 21.598609
#
# number of rings (size 3 to 8) (size 9 to 14) (size 15 to 20)
#    0.000    2.143    2.857    2.143    0.000    1.714 
#    0.000    8.571    0.000   10.286    0.000    0.000 
#    0.000    0.000    0.000    0.000    0.000    0.000 
#
# Total GULP energy -347027.761155 kJ/mol
# GULP energy per Si atom -12393.848613 kJ/mol
# Density = 2.154945 g / cm^3
# Si number density = 21.598609 Si / 1000 Ang^3
#
#
#
# Elastic Constant Matrix: (Units=GPa)
#
#
# Indices 1 2 3 4 5 6 
#
# 1 209.5519 2.7545 78.6218 0.0000 3.1376 0.0000
# 2 2.7545 11.0132 9.3910 0.0000 -0.2271 0.0000
# 3 78.6218 9.3910 210.0724 0.0000 5.0958 0.0000
# 4 0.0000 0.0000 0.0000 7.4304 0.0000 -0.4942
# 5 3.1376 -0.2271 5.0958 0.0000 41.9630 0.0000
# 6 0.0000 0.0000 0.0000 -0.4942 0.0000 -0.5108
#
#
#
# Elastic Compliance Matrix: (Units=1/GPa)
#
#
# Indices 1 2 3 4 5 6 
#
# 1 0.005554 0.000392 -0.002092 0.000000 -0.000159 0.000000
# 2 0.000392 0.094470 -0.004394 0.000000 0.001016 -0.000001
# 3 -0.002092 -0.004394 0.005754 0.000000 -0.000566 0.000000
# 4 0.000000 0.000000 0.000000 0.126445 0.000000 -0.122348
# 5 -0.000159 0.001016 -0.000566 0.000000 0.023917 0.000000
# 6 0.000000 -0.000001 0.000000 -0.122348 0.000000 -1.839436
#
#
# Mechanical properties :
#
#
# Convention : Reuss Voigt Hill
#
# Bulk Modulus (GPa) = 10.68515 68.01915 39.35215
# Shear Modulus (GPa) = -3.24694 32.43453 14.59379
#
# Velocity S-wave (km/s) = -1.22743 3.87938 2.60221
# Velocity P-wave (km/s) = 1.71730 7.18518 5.22379
#
# Compressibility (1/GPa) = 0.09358786
#
# Stress axis : x y z
#
# Youngs Moduli (GPa) = 180.03800 10.58535 173.80543
#
# Poissons Ratio (x) = -0.00415 0.36368
# Poissons Ratio (y) = -0.07053 0.76378
# Poissons Ratio (z) = 0.37672 0.04652
#
# Static dielectric constant tensor:
#      x y z
#    x 5.900060 0.000000 -0.005420 
#    y 0.000000 3.013690 0.000000 
#    z -0.005420 0.000000 4.144820 
# 
# 
# High freq. dielectric constant tensor:
#      x y z
#    x 1.885180 0.000000 0.001110 
#    y 0.000000 1.767930 0.000000 
#    z 0.001110 0.000000 1.867510 
# 
# From -- ./inp_files/371618.got.cif
#   From: 2010.06.25/outbox.cif.g09.slc.cpg/sg12_186_cif.got.tgz:371618.got - 2010.06.28 00:19:55.
