data_PCOD8078181
_publ_section_title
;
Structure prediction by ZEFSAII (Michael W. Deem and Ramdas Pophale) SiO2 
 PCOD8078181
Probable space group: C 2/M
;
_chemical_formula_sum "Si O2"
_cell_formula_units_Z 60
_cell_length_a 5.258591
_cell_length_b 24.020210
_cell_length_c 26.366486
_cell_angle_alpha 90.000000
_cell_angle_beta 76.744685
_cell_angle_gamma 90.000000
_cell_volume 3241.686752
_symmetry_space_group_name_H-M "C 2/M"
_symmetry_group_IT_number 12
_symmetry_cell_setting 'monoclinic'
loop_
_space_group_symop_operation_xyz
x,y,z
-x,y,-z
-x,-y,-z
x,-y,z
1/2+x,1/2+y,z
1/2-x,1/2+y,-z
1/2-x,1/2-y,-z
1/2+x,1/2-y,z
loop_
_atom_site_type_symbol
_atom_site_label
_atom_site_fract_x
_atom_site_fract_y
_atom_site_fract_z
Si Si1 0.638619 0.312825 0.893807
Si Si2 0.773469 0.286193 0.776249
Si Si3 0.375216 0.560953 0.450990
Si Si4 0.000000 0.350126 0.500000
Si Si5 0.596341 0.563742 0.335574
Si Si6 0.901570 0.285843 0.409416
Si Si7 0.912556 0.688793 0.061553
Si Si8 0.101637 0.370105 0.316565
O O1 0.688617 0.316035 0.831910
O O2 0.364940 0.343047 0.920387
O O3 0.641621 0.249518 0.913138
O O4 0.870977 0.343286 0.914482
O O5 0.556305 0.241707 0.769473
O O6 0.785823 0.333178 0.733569
O O7 0.500000 0.565435 0.500000
O O8 0.238505 0.500000 0.450828
O O9 0.589959 0.568168 0.397295
O O10 0.172887 0.611155 0.455493
O O11 0.158027 0.311694 0.532266
O O12 0.601605 0.500000 0.317012
O O13 0.337498 0.591597 0.324796
O O14 0.863773 0.592768 0.305554
O O15 0.631925 0.259603 0.402340
O O16 0.990029 0.332181 0.366155
O O17 0.000000 0.693540 0.000000
#
# Coordination Sequence:
#
# PCOD8078181 Si02
#       8
#     8   8   8   4   8   8   8   8
#     4  10  16  27  40  65  97 138 192 234 259 299
#     4  12  21  36  54  77 111 151 193 241 260 303
#     4  10  22  38  62  89 109 135 169 222 283 344
#     4  12  23  38  62  76 118 136 181 212 278 328
#     4  11  24  44  65  88 110 132 170 228 289 354
#     4  12  26  42  57  82 112 150 186 215 256 318
#     4  10  16  25  41  64  99 141 196 236 265 307
#     4  12  24  42  63  83 109 143 187 226 281 323
#
# _framework density 18.508882
#
# number of rings (size 3 to 8) (size 9 to 14) (size 15 to 20)
#    0.000    0.933    4.000    6.200    1.867    0.000 
#    0.000    0.000    0.000    0.000    0.000    0.000 
#    0.000    0.000    0.000    0.000    0.000   77.333 
#
# Total GULP energy -371916.800901 kJ/mol
# GULP energy per Si atom -12397.226697 kJ/mol
# Density = 1.846676 g / cm^3
# Si number density = 18.508882 Si / 1000 Ang^3
#
#
#
# Elastic Constant Matrix: (Units=GPa)
#
#
# Indices 1 2 3 4 5 6 
#
# 1 109.0402 17.9667 3.4934 0.0000 -1.6499 0.0000
# 2 17.9667 50.3317 17.8560 0.0000 -1.7334 0.0000
# 3 3.4934 17.8560 89.1463 0.0000 -3.3792 0.0000
# 4 0.0000 0.0000 0.0000 2.5640 0.0000 1.2561
# 5 -1.6499 -1.7334 -3.3792 0.0000 26.2417 0.0000
# 6 0.0000 0.0000 0.0000 1.2561 0.0000 22.7623
#
#
#
# Elastic Compliance Matrix: (Units=1/GPa)
#
#
# Indices 1 2 3 4 5 6 
#
# 1 0.009758 -0.003594 0.000354 0.000000 0.000422 0.000000
# 2 -0.003594 0.022731 -0.004385 0.000000 0.000711 0.000000
# 3 0.000354 -0.004385 0.012131 0.000000 0.001295 0.000000
# 4 0.000000 0.000000 0.000000 0.400854 0.000000 -0.022121
# 5 0.000422 0.000711 0.001295 0.000000 0.038347 0.000000
# 6 0.000000 0.000000 0.000000 -0.022121 0.000000 0.045153
#
#
# Mechanical properties :
#
#
# Convention : Reuss Voigt Hill
#
# Bulk Modulus (GPa) = 34.04987 36.35004 35.19995
# Shear Modulus (GPa) = 9.02499 24.26041 16.64270
#
# Velocity S-wave (km/s) = 2.21057 3.62435 3.00188
# Velocity P-wave (km/s) = 4.99519 6.09889 5.57442
#
# Compressibility (1/GPa) = 0.02936869
#
# Stress axis : x y z
#
# Youngs Moduli (GPa) = 102.47779 43.99194 82.43263
#
# Poissons Ratio (x) = 0.15812 -0.02914
# Poissons Ratio (y) = 0.36833 0.36149
# Poissons Ratio (z) = -0.03623 0.19292
#
# Static dielectric constant tensor:
#      x y z
#    x 6.519030 0.000000 0.213020 
#    y 0.000000 3.299530 0.000000 
#    z 0.213020 0.000000 3.419380 
# 
# 
# High freq. dielectric constant tensor:
#      x y z
#    x 1.743010 0.000000 0.001160 
#    y 0.000000 1.671710 0.000000 
#    z 0.001160 0.000000 1.712450 
# 
# From -- ./inp_files/355058.got.cif
#   From: 2010.06.25/outbox.cif.g09.slc.cpg/sg12_178_cif.got.tgz:355058.got - 2010.06.28 00:19:55.
