data_PCOD8078183
_publ_section_title
;
Structure prediction by ZEFSAII (Michael W. Deem and Ramdas Pophale) SiO2 
 PCOD8078183
Probable space group: C 2/M
;
_chemical_formula_sum "Si O2"
_cell_formula_units_Z 56
_cell_length_a 28.661845
_cell_length_b 8.944433
_cell_length_c 14.357573
_cell_angle_alpha 90.000000
_cell_angle_beta 103.095980
_cell_angle_gamma 90.000000
_cell_volume 3585.034356
_symmetry_space_group_name_H-M "C 2/M"
_symmetry_group_IT_number 12
_symmetry_cell_setting 'monoclinic'
loop_
_space_group_symop_operation_xyz
x,y,z
-x,y,-z
-x,-y,-z
x,-y,z
1/2+x,1/2+y,z
1/2-x,1/2+y,-z
1/2-x,1/2-y,-z
1/2+x,1/2-y,z
loop_
_atom_site_type_symbol
_atom_site_label
_atom_site_fract_x
_atom_site_fract_y
_atom_site_fract_z
Si Si1 0.715405 0.822747 0.058707
Si Si2 0.650218 0.825305 0.357312
Si Si3 0.761472 0.324036 0.722214
Si Si4 0.569971 0.824325 0.190820
Si Si5 0.385290 0.677505 0.969248
Si Si6 0.210613 0.323937 0.547417
Si Si7 0.018760 0.834740 0.903678
O O1 0.735890 0.778172 0.169004
O O2 0.663007 0.755038 0.019011
O O3 0.712874 0.000000 0.044607
O O4 0.750000 0.750000 0.000000
O O5 0.691285 0.757802 0.307832
O O6 0.597242 0.776413 0.299023
O O7 0.660018 0.786845 0.471167
O O8 0.654971 0.000000 0.344009
O O9 0.755990 0.500000 0.707726
O O10 0.714603 0.247942 0.652317
O O11 0.598264 0.742710 0.121675
O O12 0.514351 0.774957 0.172972
O O13 0.571990 0.000000 0.172749
O O14 0.378604 0.500000 0.955981
O O15 0.425552 0.714779 0.066558
O O16 0.219035 0.500000 0.558333
O O17 0.250000 0.250000 0.500000
O O18 0.014076 0.000000 0.858109
O O19 0.000000 0.835045 0.000000
#
# Coordination Sequence:
#
# PCOD8078183 Si02
#       7
#     8   8   8   8   8   8   8
#     4  11  22  35  49  65  86 112 149 190 225 261
#     4   8  14  25  39  59  87 114 140 174 213 248
#     4   9  17  31  44  57  83 113 142 181 220 253
#     4  10  16  25  42  63  87 117 148 176 213 259
#     4  10  19  31  44  59  84 115 147 182 222 258
#     4   9  16  26  40  59  83 112 145 176 211 256
#     4   8  16  28  39  57  85 113 142 179 215 254
#
# _framework density 15.620492
#
# number of rings (size 3 to 8) (size 9 to 14) (size 15 to 20)
#    0.000    2.714    1.429    3.429    0.000    4.286 
#    0.000    2.143    0.000    0.000    0.000    0.000 
#    0.000    1.143    0.000   12.857    0.000    5.714 
#
# Total GULP energy -346870.512198 kJ/mol
# GULP energy per Si atom -12388.232578 kJ/mol
# Density = 1.558494 g / cm^3
# Si number density = 15.620492 Si / 1000 Ang^3
#
#
#
# Elastic Constant Matrix: (Units=GPa)
#
#
# Indices 1 2 3 4 5 6 
#
# 1 89.9937 42.9717 63.3981 0.0000 26.1660 0.0000
# 2 42.9717 67.2786 45.7518 0.0000 15.3428 0.0000
# 3 63.3981 45.7518 105.5710 0.0000 32.5795 0.0000
# 4 0.0000 0.0000 0.0000 22.7800 0.0000 5.4397
# 5 26.1660 15.3428 32.5795 0.0000 28.8661 0.0000
# 6 0.0000 0.0000 0.0000 5.4397 0.0000 23.2894
#
#
#
# Elastic Compliance Matrix: (Units=1/GPa)
#
#
# Indices 1 2 3 4 5 6 
#
# 1 0.022315 -0.007098 -0.008051 0.000000 -0.007369 0.000000
# 2 -0.007098 0.023367 -0.006164 0.000000 0.000971 0.000000
# 3 -0.008051 -0.006164 0.021045 0.000000 -0.013179 0.000000
# 4 0.000000 0.000000 0.000000 0.046491 0.000000 -0.010859
# 5 -0.007369 0.000971 -0.013179 0.000000 0.055680 0.000000
# 6 0.000000 0.000000 0.000000 -0.010859 0.000000 0.045474
#
#
# Mechanical properties :
#
#
# Convention : Reuss Voigt Hill
#
# Bulk Modulus (GPa) = 41.48907 63.00960 52.24933
# Shear Modulus (GPa) = 18.86559 22.36853 20.61706
#
# Velocity S-wave (km/s) = 3.47903 3.78828 3.63695
# Velocity P-wave (km/s) = 6.53885 7.71752 7.15251
#
# Compressibility (1/GPa) = 0.02410274
#
# Stress axis : x y z
#
# Youngs Moduli (GPa) = 44.81271 42.79483 47.51654
#
# Poissons Ratio (x) = 0.30374 0.38255
# Poissons Ratio (y) = 0.31807 0.29289
# Poissons Ratio (z) = 0.36078 0.26379
#
# Static dielectric constant tensor:
#      x y z
#    x 3.248800 0.000000 0.742060 
#    y 0.000000 3.051790 0.000000 
#    z 0.742060 0.000000 3.311550 
# 
# 
# High freq. dielectric constant tensor:
#      x y z
#    x 1.563520 0.000000 0.048090 
#    y 0.000000 1.602780 0.000000 
#    z 0.048090 0.000000 1.582030 
# 
# From -- ./inp_files/247886.got.cif
#   From: 2010.06.25/outbox.cif.g09.slc.cpg/sg12_124_cif.got.tgz:247886.got - 2010.06.28 00:19:55.
