data_PCOD8078115
_publ_section_title
;
Structure prediction by ZEFSAII (Michael W. Deem and Ramdas Pophale) SiO2 
 PCOD8078115
Probable space group: C 2/M
;
_chemical_formula_sum "Si O2"
_cell_formula_units_Z 64
_cell_length_a 17.787331
_cell_length_b 9.206937
_cell_length_c 23.880871
_cell_angle_alpha 90.000000
_cell_angle_beta 59.188767
_cell_angle_gamma 90.000000
_cell_volume 3358.909024
_symmetry_space_group_name_H-M "C 2/M"
_symmetry_group_IT_number 12
_symmetry_cell_setting 'monoclinic'
loop_
_space_group_symop_operation_xyz
x,y,z
-x,y,-z
-x,-y,-z
x,-y,z
1/2+x,1/2+y,z
1/2-x,1/2+y,-z
1/2-x,1/2-y,-z
1/2+x,1/2-y,z
loop_
_atom_site_type_symbol
_atom_site_label
_atom_site_fract_x
_atom_site_fract_y
_atom_site_fract_z
Si Si1 0.423487 0.830970 0.488288
Si Si2 0.784193 0.839170 0.278797
Si Si3 0.513890 0.335706 0.763670
Si Si4 0.361416 0.668958 0.140136
Si Si5 0.266364 0.668448 0.600858
Si Si6 0.570448 0.166944 0.640962
Si Si7 0.030952 0.671805 0.114827
Si Si8 0.094623 0.838802 0.993098
O O1 0.500000 0.777438 0.500000
O O2 0.335795 0.744107 0.534405
O O3 0.454601 0.798178 0.413348
O O4 0.402389 0.000000 0.504631
O O5 0.886390 0.829749 0.254214
O O6 0.778891 0.804076 0.213766
O O7 0.728200 0.728027 0.337370
O O8 0.747237 0.000000 0.305577
O O9 0.478997 0.500000 0.773206
O O10 0.508523 0.263365 0.704274
O O11 0.453757 0.245986 0.830356
O O12 0.393798 0.500000 0.135288
O O13 0.436851 0.781519 0.127731
O O14 0.336526 0.696077 0.084057
O O15 0.287656 0.500000 0.594753
O O16 0.172331 0.704537 0.610689
O O17 0.553158 0.000000 0.663047
O O18 0.037698 0.500000 0.118699
O O19 0.103016 0.727072 0.041769
O O20 0.111566 0.000000 0.010689
O O21 0.000000 0.830393 0.000000
#
# Coordination Sequence:
#
# PCOD8078115 Si02
#       8
#     8   8   8   8   8   8   8   8
#     4  10  21  36  52  69  92 122 150 178 218 269
#     4   8  14  25  40  57  78 106 142 181 219 262
#     4   9  16  26  40  57  78 107 142 179 221 264
#     4   8  14  23  33  46  68 102 141 179 218 260
#     4  10  19  30  47  70  93 117 147 187 228 263
#     4   9  18  32  49  70  92 114 147 188 226 264
#     4  10  16  20  29  47  72 102 138 179 219 258
#     4   8  13  21  30  41  64 100 140 177 214 259
#
# _framework density 19.053806000000002
#
# number of rings (size 3 to 8) (size 9 to 14) (size 15 to 20)
#    0.000    3.000    0.000    3.750    0.000    6.500 
#    0.000    0.000    0.000    0.000    0.000    0.000 
#    0.000    0.000    0.000    1.125    0.000   13.750 
#
# Total GULP energy -396538.286403 kJ/mol
# GULP energy per Si atom -12391.821450 kJ/mol
# Density = 1.901044 g / cm^3
# Si number density = 19.053806 Si / 1000 Ang^3
#
#
#
# Elastic Constant Matrix: (Units=GPa)
#
#
# Indices 1 2 3 4 5 6 
#
# 1 30.5216 27.2552 35.2713 0.0000 18.0033 0.0000
# 2 27.2552 109.3671 59.3174 -0.0001 22.7414 0.0001
# 3 35.2713 59.3174 119.5304 0.0000 43.6282 0.0000
# 4 0.0000 -0.0001 0.0000 37.5339 0.0000 6.6763
# 5 18.0033 22.7414 43.6282 0.0000 19.0423 0.0000
# 6 0.0000 0.0001 0.0000 6.6763 0.0000 8.6926
#
#
#
# Elastic Compliance Matrix: (Units=1/GPa)
#
#
# Indices 1 2 3 4 5 6 
#
# 1 0.091914 -0.009194 0.031454 0.000000 -0.147984 -0.000001
# 2 -0.009194 0.013491 -0.007780 0.000000 0.010406 0.000000
# 3 0.031454 -0.007780 0.063563 0.000000 -0.166077 0.000000
# 4 0.000000 0.000000 0.000000 0.030858 0.000000 -0.023701
# 5 -0.147984 0.010406 -0.166077 0.000000 0.560500 0.000002
# 6 -0.000001 0.000000 0.000000 -0.023701 0.000002 0.133243
#
#
# Mechanical properties :
#
#
# Convention : Reuss Voigt Hill
#
# Bulk Modulus (GPa) = 5.05234 55.90076 30.47655
# Shear Modulus (GPa) = 5.37296 22.22545 13.79921
#
# Velocity S-wave (km/s) = 1.68107 3.41905 2.69406
# Velocity P-wave (km/s) = 2.53484 6.70735 5.07021
#
# Compressibility (1/GPa) = 0.19792808
#
# Stress axis : x y z
#
# Youngs Moduli (GPa) = 10.87970 74.12583 15.73245
#
# Poissons Ratio (x) = 0.68154 -0.49485
# Poissons Ratio (y) = 0.10003 0.12240
# Poissons Ratio (z) = -0.34221 0.57668
#
# Static dielectric constant tensor:
#      x y z
#    x 2.814010 0.000000 0.441360 
#    y 0.000000 3.451980 0.000000 
#    z 0.441360 0.000000 4.079600 
# 
# 
# High freq. dielectric constant tensor:
#      x y z
#    x 1.656700 0.000000 0.034120 
#    y 0.000000 1.737300 0.000000 
#    z 0.034120 0.000000 1.763830 
# 
# From -- ./inp_files/365158.got.cif
#   From: 2010.06.25/outbox.cif.g09.slc.cpg/sg12_183_cif.got.tgz:365158.got - 2010.06.28 00:19:55.
