data_PCOD8078385
_publ_section_title
;
Structure prediction by ZEFSAII (Michael W. Deem and Ramdas Pophale) SiO2 
 PCOD8078385
Probable space group: C 2/M
;
_chemical_formula_sum "Si O2"
_cell_formula_units_Z 48
_cell_length_a 20.003267
_cell_length_b 17.533643
_cell_length_c 9.138095
_cell_angle_alpha 90.000000
_cell_angle_beta 113.080302
_cell_angle_gamma 90.000000
_cell_volume 2948.464958
_symmetry_space_group_name_H-M "C 2/M"
_symmetry_group_IT_number 12
_symmetry_cell_setting 'monoclinic'
loop_
_space_group_symop_operation_xyz
x,y,z
-x,y,-z
-x,-y,-z
x,-y,z
1/2+x,1/2+y,z
1/2-x,1/2+y,-z
1/2-x,1/2-y,-z
1/2+x,1/2-y,z
loop_
_atom_site_type_symbol
_atom_site_label
_atom_site_fract_x
_atom_site_fract_y
_atom_site_fract_z
Si Si1 0.141557 0.269772 0.812331
Si Si2 0.749192 0.000000 0.857213
Si Si3 0.702621 0.000000 0.205114
Si Si4 0.734601 0.629192 0.935434
Si Si5 0.907552 0.500000 0.116362
Si Si6 0.826869 0.500000 0.483537
Si Si7 0.513876 0.842690 0.841384
Si Si8 0.077543 0.354988 0.493712
O O1 0.168564 0.182741 0.828246
O O2 0.069470 0.275064 0.849378
O O3 0.123550 0.295055 0.630215
O O4 0.199168 0.322126 0.944869
O O5 0.665903 0.000000 0.849878
O O6 0.745899 0.000000 0.679268
O O7 0.791119 0.925563 0.953584
O O8 0.741947 0.922957 0.182291
O O9 0.702162 0.000000 0.378002
O O10 0.618960 0.000000 0.076320
O O11 0.954657 0.424515 0.187174
O O12 0.874120 0.428538 0.480620
O O13 0.439716 0.825728 0.686687
O O14 0.500000 0.842695 0.000000
O O15 0.000000 0.373744 0.500000
#
# Coordination Sequence:
#
# PCOD8078385 Si02
#       8
#     8   4   4   8   4   4   8   8
#     4  10  18  33  49  67  93 131 166 195 230 282
#     4  10  16  31  52  70  91 129 168 191 224 289
#     4  10  20  31  49  70  94 125 162 200 238 281
#     4   9  18  34  51  63  92 131 167 194 235 284
#     4  10  16  31  43  68 100 134 163 172 218 296
#     4  12  18  29  44  73 102 124 161 196 223 273
#     4  11  19  29  46  72 102 131 157 190 234 281
#     4  10  20  29  45  70  99 135 160 186 223 285
#
# _framework density 16.279658000000001
#
# number of rings (size 3 to 8) (size 9 to 14) (size 15 to 20)
#    0.000    2.000    5.000    3.000    0.000    0.000 
#    0.000    2.500    0.000    0.000    0.000   23.333 
#    0.000    0.000    0.000    0.000    0.000    0.000 
#
# Total GULP energy -297393.112574 kJ/mol
# GULP energy per Si atom -12391.379691 kJ/mol
# Density = 1.624260 g / cm^3
# Si number density = 16.279658 Si / 1000 Ang^3
#
#
#
# Elastic Constant Matrix: (Units=GPa)
#
#
# Indices 1 2 3 4 5 6 
#
# 1 27.5947 36.6443 34.1265 0.0000 2.7093 0.0000
# 2 36.6443 105.2009 59.3602 0.0000 8.6494 0.0000
# 3 34.1265 59.3602 138.7317 0.0000 -8.8031 0.0000
# 4 0.0000 0.0000 0.0000 32.2906 0.0000 19.9714
# 5 2.7093 8.6494 -8.8031 0.0000 22.1028 0.0000
# 6 0.0000 0.0000 0.0000 19.9714 0.0000 -4.3824
#
#
#
# Elastic Compliance Matrix: (Units=1/GPa)
#
#
# Indices 1 2 3 4 5 6 
#
# 1 0.076893 -0.020357 -0.010564 0.000000 -0.005667 0.000000
# 2 -0.020357 0.019155 -0.003596 0.000000 -0.006433 0.000000
# 3 -0.010564 -0.003596 0.011816 0.000000 0.007408 0.000000
# 4 0.000000 0.000000 0.000000 0.008110 0.000000 0.036959
# 5 -0.005667 -0.006433 0.007408 0.000000 0.051406 0.000000
# 6 0.000000 0.000000 0.000000 0.036959 0.000000 -0.059757
#
#
# Mechanical properties :
#
#
# Convention : Reuss Voigt Hill
#
# Bulk Modulus (GPa) = 25.75447 59.08770 42.42108
# Shear Modulus (GPa) = 26.37121 19.42862 22.89991
#
# Velocity S-wave (km/s) = 4.02915 3.45835 3.75461
# Velocity P-wave (km/s) = 6.12370 7.23334 6.70153
#
# Compressibility (1/GPa) = 0.03882821
#
# Stress axis : x y z
#
# Youngs Moduli (GPa) = 13.00507 52.20635 84.63294
#
# Poissons Ratio (x) = 1.06277 0.89407
# Poissons Ratio (y) = 0.26475 0.30438
# Poissons Ratio (z) = 0.13739 0.18776
#
# Static dielectric constant tensor:
#      x y z
#    x 2.761440 0.000000 0.002490 
#    y 0.000000 3.115270 0.000000 
#    z 0.002490 0.000000 3.549640 
# 
# 
# High freq. dielectric constant tensor:
#      x y z
#    x 1.581410 0.000000 -0.007260 
#    y 0.000000 1.607380 0.000000 
#    z -0.007260 0.000000 1.645600 
# 
# From -- ./inp_files/88710.got.cif
#   From: 2010.06.25/outbox.cif.g09.slc.cpg/sg12_45_cif.got.tgz:88710.got - 2010.06.28 00:19:55.
