data_PCOD8078495
_publ_section_title
;
Structure prediction by ZEFSAII (Michael W. Deem and Ramdas Pophale) SiO2 
 PCOD8078495
Probable space group: C 2/M
;
_chemical_formula_sum "Si O2"
_cell_formula_units_Z 64
_cell_length_a 27.702558
_cell_length_b 8.972744
_cell_length_c 18.622157
_cell_angle_alpha 90.000000
_cell_angle_beta 68.151468
_cell_angle_gamma 90.000000
_cell_volume 4296.384051
_symmetry_space_group_name_H-M "C 2/M"
_symmetry_group_IT_number 12
_symmetry_cell_setting 'monoclinic'
loop_
_space_group_symop_operation_xyz
x,y,z
-x,y,-z
-x,-y,-z
x,-y,z
1/2+x,1/2+y,z
1/2-x,1/2+y,-z
1/2-x,1/2-y,-z
1/2+x,1/2-y,z
loop_
_atom_site_type_symbol
_atom_site_label
_atom_site_fract_x
_atom_site_fract_y
_atom_site_fract_z
Si Si1 0.468026 0.826215 0.928566
Si Si2 0.184944 0.175696 0.472356
Si Si3 0.508688 0.676195 0.380891
Si Si4 0.114005 0.674977 0.771212
Si Si5 0.300653 0.174162 0.388753
Si Si6 0.573425 0.322672 0.924085
Si Si7 0.080327 0.823140 0.465323
Si Si8 0.007088 0.329333 0.757533
O O1 0.519755 0.740333 0.923314
O O2 0.464046 0.807596 0.844653
O O3 0.472017 0.000000 0.946911
O O4 0.420260 0.748226 0.998753
O O5 0.240745 0.223469 0.408772
O O6 0.175912 0.242973 0.555796
O O7 0.139136 0.235505 0.445377
O O8 0.181086 0.000000 0.483143
O O9 0.508888 0.500000 0.375056
O O10 0.456262 0.733438 0.449173
O O11 0.558052 0.733076 0.401032
O O12 0.513050 0.738135 0.298778
O O13 0.110011 0.500000 0.790687
O O14 0.166142 0.717368 0.699413
O O15 0.117647 0.764531 0.844634
O O16 0.063859 0.726008 0.752593
O O17 0.304610 0.000000 0.402829
O O18 0.574005 0.500000 0.928317
O O19 0.078587 0.000000 0.466244
O O20 0.011288 0.500000 0.731774
#
# Coordination Sequence:
#
# PCOD8078495 Si02
#       8
#     8   8   8   8   8   8   8   8
#     4   9  16  27  39  51  75 108 130 150 189 233
#     4   9  16  27  42  57  76 101 129 163 197 228
#     4   9  16  26  40  55  74 101 131 160 189 226
#     4   9  17  28  38  51  77 108 131 154 191 234
#     4   9  17  27  40  58  77 100 131 162 192 230
#     4  10  17  24  37  57  76  97 131 165 186 216
#     4   8  15  27  40  55  75 101 130 158 193 230
#     4   9  17  26  37  54  76 101 128 157 186 220
#
# _framework density 14.896247000000001
#
# number of rings (size 3 to 8) (size 9 to 14) (size 15 to 20)
#    0.000    3.000    0.000    4.500    0.000    3.000 
#    0.000    1.875    0.000    0.000    0.000    0.000 
#    0.000    1.000    0.000    2.000    0.000    2.875 
#
# Total GULP energy -396508.585332 kJ/mol
# GULP energy per Si atom -12390.893292 kJ/mol
# Density = 1.486234 g / cm^3
# Si number density = 14.896247 Si / 1000 Ang^3
#
#
#
# Elastic Constant Matrix: (Units=GPa)
#
#
# Indices 1 2 3 4 5 6 
#
# 1 80.5317 22.8471 49.6049 0.0000 1.2913 0.0000
# 2 22.8471 48.6993 43.0135 0.0000 -0.4238 0.0000
# 3 49.6049 43.0135 127.1078 0.0000 -1.5394 0.0000
# 4 0.0000 0.0000 0.0000 25.4630 0.0000 2.9806
# 5 1.2913 -0.4238 -1.5394 0.0000 17.4178 0.0000
# 6 0.0000 0.0000 0.0000 2.9806 0.0000 11.6588
#
#
#
# Elastic Compliance Matrix: (Units=1/GPa)
#
#
# Indices 1 2 3 4 5 6 
#
# 1 0.016696 -0.002959 -0.005536 0.000000 -0.001799 0.000000
# 2 -0.002959 0.029813 -0.008932 0.000000 0.000155 0.000000
# 3 -0.005536 -0.008932 0.013067 0.000000 0.001348 0.000000
# 4 0.000000 0.000000 0.000000 0.040484 0.000000 -0.010350
# 5 -0.001799 0.000155 0.001348 0.000000 0.057669 0.000000
# 6 0.000000 0.000000 0.000000 -0.010350 0.000000 0.088418
#
#
# Mechanical properties :
#
#
# Convention : Reuss Voigt Hill
#
# Bulk Modulus (GPa) = 40.45064 54.14109 47.29587
# Shear Modulus (GPa) = 17.28659 20.29947 18.79303
#
# Velocity S-wave (km/s) = 3.41026 3.69551 3.55575
# Velocity P-wave (km/s) = 6.53608 7.39144 6.97688
#
# Compressibility (1/GPa) = 0.02472149
#
# Stress axis : x y z
#
# Youngs Moduli (GPa) = 59.89507 33.54255 76.52889
#
# Poissons Ratio (x) = 0.09924 0.42369
# Poissons Ratio (y) = 0.17720 0.68358
# Poissons Ratio (z) = 0.33160 0.29961
#
# Static dielectric constant tensor:
#      x y z
#    x 2.842310 0.000000 -0.085230 
#    y 0.000000 2.756590 0.000000 
#    z -0.085230 0.000000 3.361370 
# 
# 
# High freq. dielectric constant tensor:
#      x y z
#    x 1.523550 0.000000 -0.003980 
#    y 0.000000 1.563350 0.000000 
#    z -0.003980 0.000000 1.576220 
# 
# From -- ./inp_files/294576.got.cif
#   From: 2010.06.25/outbox.cif.g09.slc.cpg/sg12_148_cif.got.tgz:294576.got - 2010.06.28 00:19:55.
