data_PCOD8078418
_publ_section_title
;
Structure prediction by ZEFSAII (Michael W. Deem and Ramdas Pophale) SiO2 
 PCOD8078418
Probable space group: C 2/M
;
_chemical_formula_sum "Si O2"
_cell_formula_units_Z 36
_cell_length_a 26.981830
_cell_length_b 14.918557
_cell_length_c 8.947212
_cell_angle_alpha 90.000000
_cell_angle_beta 31.247731
_cell_angle_gamma 90.000000
_cell_volume 1868.250833
_symmetry_space_group_name_H-M "C 2/M"
_symmetry_group_IT_number 12
_symmetry_cell_setting 'monoclinic'
loop_
_space_group_symop_operation_xyz
x,y,z
-x,y,-z
-x,-y,-z
x,-y,z
1/2+x,1/2+y,z
1/2-x,1/2+y,-z
1/2-x,1/2-y,-z
1/2+x,1/2-y,z
loop_
_atom_site_type_symbol
_atom_site_label
_atom_site_fract_x
_atom_site_fract_y
_atom_site_fract_z
Si Si1 0.427177 0.500000 0.555064
Si Si2 0.506174 0.000000 0.660776
Si Si3 0.255234 0.190489 0.135797
Si Si4 0.452797 0.665822 0.274543
Si Si5 0.716652 0.000000 0.072139
Si Si6 0.943867 0.310110 0.800393
O O1 0.500000 0.500000 0.500000
O O2 0.447117 0.586602 0.406706
O O3 0.317788 0.500000 0.901918
O O4 0.500000 0.000000 0.500000
O O5 0.452957 0.090506 0.851830
O O6 0.618937 0.000000 0.422209
O O7 0.154743 0.199402 0.479953
O O8 0.284356 0.088125 0.027380
O O9 0.250000 0.250000 0.000000
O O10 0.336111 0.222647 0.043370
O O11 0.515177 0.745033 0.180783
O O12 0.500000 0.631764 0.000000
O O13 0.000000 0.304017 0.500000
#
# Coordination Sequence:
#
# PCOD8078418 Si02
#       6
#     4   4   8   8   4   8
#     4  10  23  39  61  83 110 155 200 234 279 355
#     4  10  16  32  57  89 105 137 188 248 278 326
#     4  11  20  34  59  86 110 150 196 238 283 345
#     4  11  24  39  56  85 123 152 188 244 297 340
#     4  10  18  31  55  86 110 136 185 244 291 310
#     4  11  19  35  61  85 112 149 197 238 286 347
#
# _framework density 19.269361
#
# number of rings (size 3 to 8) (size 9 to 14) (size 15 to 20)
#    0.000    1.333    6.667    1.000    3.111    0.889 
#    0.000    0.556    0.000    0.000    0.000    0.000 
#    0.000    0.000    0.000    0.000    0.000    0.000 
#
# Total GULP energy -223105.306041 kJ/mol
# GULP energy per Si atom -12394.739225 kJ/mol
# Density = 1.922550 g / cm^3
# Si number density = 19.269361 Si / 1000 Ang^3
#
#
#
# Elastic Constant Matrix: (Units=GPa)
#
#
# Indices 1 2 3 4 5 6 
#
# 1 103.1165 36.9958 63.6625 0.0000 -41.0788 0.0000
# 2 36.9958 106.5653 16.4680 0.0000 -13.2646 0.0000
# 3 63.6625 16.4680 117.7169 0.0000 -32.4039 0.0000
# 4 0.0000 0.0000 0.0000 -180.9770 0.0000 -150.8960
# 5 -41.0788 -13.2646 -32.4039 0.0000 41.5273 0.0000
# 6 0.0000 0.0000 0.0000 -150.8960 0.0000 -80.1021
#
#
#
# Elastic Compliance Matrix: (Units=1/GPa)
#
#
# Indices 1 2 3 4 5 6 
#
# 1 0.021269 -0.004545 -0.006972 0.000000 0.014147 0.000000
# 2 -0.004545 0.010783 0.000841 0.000000 -0.000396 0.000000
# 3 -0.006972 0.000841 0.013147 0.000000 0.003630 0.000000
# 4 0.000000 0.000000 0.000000 0.009682 0.000000 -0.018240
# 5 0.014147 -0.000396 0.003630 0.000000 0.040781 0.000000
# 6 0.000000 0.000000 0.000000 -0.018240 0.000000 0.021876
#
#
# Mechanical properties :
#
#
# Convention : Reuss Voigt Hill
#
# Bulk Modulus (GPa) = 41.93781 62.40569 52.17175
# Shear Modulus (GPa) = 34.05057 -29.89221 2.07918
#
# Velocity S-wave (km/s) = 4.20823 -3.94290 1.03988
# Velocity P-wave (km/s) = 6.73970 3.42456 5.34561
#
# Compressibility (1/GPa) = 0.02384483
#
# Stress axis : x y z
#
# Youngs Moduli (GPa) = 47.01702 92.74102 76.06048
#
# Poissons Ratio (x) = 0.42155 0.53032
# Poissons Ratio (y) = 0.21371 -0.06395
# Poissons Ratio (z) = 0.32782 -0.07797
#
# Static dielectric constant tensor:
#      x y z
#    x 3.429840 0.000000 -0.587320 
#    y 0.000000 3.930530 0.000000 
#    z -0.587320 0.000000 3.736890 
# 
# 
# High freq. dielectric constant tensor:
#      x y z
#    x 1.729200 0.000000 -0.048890 
#    y 0.000000 1.767630 0.000000 
#    z -0.048890 0.000000 1.732050 
# 
# From -- ./inp_files/58395.got.cif
#   From: 2010.06.25/outbox.cif.g09.slc.cpg/sg12_30_cif.got.tgz:58395.got - 2010.06.28 00:19:55.
