data_PCOD8078817
_publ_section_title
;
Structure prediction by ZEFSAII (Michael W. Deem and Ramdas Pophale) SiO2 
 PCOD8078817
Probable space group: C 2/M
;
_chemical_formula_sum "Si O2"
_cell_formula_units_Z 60
_cell_length_a 21.322203
_cell_length_b 33.752581
_cell_length_c 5.336560
_cell_angle_alpha 90.000000
_cell_angle_beta 101.958341
_cell_angle_gamma 90.000000
_cell_volume 3757.265213
_symmetry_space_group_name_H-M "C 2/M"
_symmetry_group_IT_number 12
_symmetry_cell_setting 'monoclinic'
loop_
_space_group_symop_operation_xyz
x,y,z
-x,y,-z
-x,-y,-z
x,-y,z
1/2+x,1/2+y,z
1/2-x,1/2+y,-z
1/2-x,1/2-y,-z
1/2+x,1/2-y,z
loop_
_atom_site_type_symbol
_atom_site_label
_atom_site_fract_x
_atom_site_fract_y
_atom_site_fract_z
Si Si1 0.168825 0.408506 0.617901
Si Si2 0.281417 0.316091 0.260524
Si Si3 0.668778 0.228587 0.704837
Si Si4 0.052935 0.638393 0.375201
Si Si5 0.138278 0.455011 0.084587
Si Si6 0.500000 0.927602 0.000000
Si Si7 0.731721 0.656828 0.250241
Si Si8 0.865575 0.697844 0.824356
O O1 0.113361 0.375078 0.595582
O O2 0.167639 0.437591 0.853765
O O3 0.236227 0.385800 0.685751
O O4 0.162503 0.431175 0.348099
O O5 0.294765 0.269859 0.240064
O O6 0.312336 0.333784 0.542189
O O7 0.204454 0.322913 0.229266
O O8 0.307944 0.341521 0.044947
O O9 0.720159 0.193676 0.748216
O O10 0.628698 0.226942 0.413134
O O11 0.622412 0.222120 0.908443
O O12 0.079153 0.664594 0.164431
O O13 0.000000 0.661655 0.500000
O O14 0.016320 0.599531 0.250397
O O15 0.161787 0.500000 0.131793
O O16 0.061246 0.454787 0.992590
#
# Coordination Sequence:
#
# PCOD8078817 Si02
#       8
#     8   8   8   8   8   4   8   8
#     4  11  21  34  48  63  77  99 125 163 207 256
#     4  10  17  27  43  63  85 102 121 144 180 234
#     4  10  18  28  42  62  83 105 121 145 181 234
#     4  11  21  32  44  62  77 101 130 169 207 251
#     4  11  23  37  48  60  75  97 129 172 218 263
#     4  10  23  32  50  58  76  92 134 170 226 254
#     4  10  17  27  43  62  83  98 122 145 186 234
#     4  10  19  27  42  56  84  99 128 148 188 231
#
# _framework density 15.969063
#
# number of rings (size 3 to 8) (size 9 to 14) (size 15 to 20)
#    0.000    1.600    4.000    5.400    7.467    0.000 
#    0.000    2.000    0.000    0.000    0.000    0.000 
#    0.000    0.000    0.000    0.000    0.000    0.000 
#
# Total GULP energy -371740.771773 kJ/mol
# GULP energy per Si atom -12391.359059 kJ/mol
# Density = 1.593272 g / cm^3
# Si number density = 15.969063 Si / 1000 Ang^3
#
#
#
# Elastic Constant Matrix: (Units=GPa)
#
#
# Indices 1 2 3 4 5 6 
#
# 1 12.2256 17.3362 11.4592 0.0000 -9.1946 0.0000
# 2 17.3362 67.3693 31.4737 0.0000 -6.9774 0.0000
# 3 11.4592 31.4737 147.0935 0.0000 -18.5666 0.0000
# 4 0.0000 0.0000 0.0000 23.3530 0.0000 -5.8164
# 5 -9.1946 -6.9774 -18.5666 0.0000 17.1092 0.0000
# 6 0.0000 0.0000 0.0000 -5.8164 0.0000 14.2673
#
#
#
# Elastic Compliance Matrix: (Units=1/GPa)
#
#
# Indices 1 2 3 4 5 6 
#
# 1 0.231655 -0.051359 0.006967 0.000000 0.111107 0.000000
# 2 -0.051359 0.028047 -0.004681 0.000000 -0.021243 0.000000
# 3 0.006967 -0.004681 0.008678 0.000000 0.011252 0.000000
# 4 0.000000 0.000000 0.000000 0.047660 0.000000 0.019430
# 5 0.111107 -0.021243 0.011252 0.000000 0.121704 0.000000
# 6 0.000000 0.000000 0.000000 0.019430 0.000000 0.078011
#
#
# Mechanical properties :
#
#
# Convention : Reuss Voigt Hill
#
# Bulk Modulus (GPa) = 5.87435 38.58073 22.22754
# Shear Modulus (GPa) = 7.45548 22.04052 14.74800
#
# Velocity S-wave (km/s) = 2.16306 3.71914 3.04227
# Velocity P-wave (km/s) = 3.15040 6.53106 5.12737
#
# Compressibility (1/GPa) = 0.17023160
#
# Stress axis : x y z
#
# Youngs Moduli (GPa) = 4.31676 35.65458 115.23990
#
# Poissons Ratio (x) = 1.83120 -0.80286
# Poissons Ratio (y) = 0.22171 0.53949
# Poissons Ratio (z) = -0.03007 0.16692
#
# Static dielectric constant tensor:
#      x y z
#    x 2.530990 0.000000 -0.181730 
#    y 0.000000 2.849560 0.000000 
#    z -0.181730 0.000000 4.167390 
# 
# 
# High freq. dielectric constant tensor:
#      x y z
#    x 1.527330 0.000000 -0.018360 
#    y 0.000000 1.588710 0.000000 
#    z -0.018360 0.000000 1.652720 
# 
# From -- ./inp_files/22680.got.cif
#   From: 2010.06.25/outbox.cif.g09.slc.cpg/sg12_12_cif.got.tgz:22680.got - 2010.06.28 00:19:55.
