data_PCOD8078431
_publ_section_title
;
Structure prediction by ZEFSAII (Michael W. Deem and Ramdas Pophale) SiO2 
 PCOD8078431
Probable space group: C 2/M
;
_chemical_formula_sum "Si O2"
_cell_formula_units_Z 56
_cell_length_a 22.621903
_cell_length_b 18.938107
_cell_length_c 9.175072
_cell_angle_alpha 90.000000
_cell_angle_beta 49.183703
_cell_angle_gamma 90.000000
_cell_volume 2974.825993
_symmetry_space_group_name_H-M "C 2/M"
_symmetry_group_IT_number 12
_symmetry_cell_setting 'monoclinic'
loop_
_space_group_symop_operation_xyz
x,y,z
-x,y,-z
-x,-y,-z
x,-y,z
1/2+x,1/2+y,z
1/2-x,1/2+y,-z
1/2-x,1/2-y,-z
1/2+x,1/2-y,z
loop_
_atom_site_type_symbol
_atom_site_label
_atom_site_fract_x
_atom_site_fract_y
_atom_site_fract_z
Si Si1 0.260103 0.082204 0.508673
Si Si2 0.170220 0.076176 0.947121
Si Si3 0.992141 0.887146 0.857924
Si Si4 0.111111 0.693808 0.699715
Si Si5 0.443852 0.767545 0.909655
Si Si6 0.350614 0.336428 0.506348
Si Si7 0.172265 0.792330 0.129225
O O1 0.338586 0.125070 0.425968
O O2 0.223241 0.115442 0.420369
O O3 0.281497 0.000000 0.448735
O O4 0.196230 0.091644 0.739243
O O5 0.076048 0.072624 0.117912
O O6 0.199881 0.137406 0.002248
O O7 0.204072 0.000000 0.942418
O O8 0.072140 0.884494 0.638847
O O9 0.962729 0.808754 0.943504
O O10 0.000000 0.926730 0.000000
O O11 0.104847 0.692465 0.886348
O O12 0.153913 0.765950 0.583844
O O13 0.026224 0.690548 0.754942
O O14 0.395618 0.755297 0.837645
O O15 0.353056 0.312955 0.669097
O O16 0.250000 0.750000 0.000000
#
# Coordination Sequence:
#
# PCOD8078431 Si02
#       7
#     8   8   8   8   8   8   8
#     4  11  22  35  54  82 110 147 193 230 271 328
#     4  10  22  37  53  74 112 150 180 223 280 334
#     4  10  16  33  54  80 105 135 174 223 271 328
#     4  10  18  35  59  79 107 145 184 233 273 322
#     4   9  18  34  55  81 108 139 177 228 281 322
#     4  11  20  33  58  84 109 146 181 228 278 331
#     4  11  22  36  56  85 114 143 183 230 279 335
#
# _framework density 18.824629999999999
#
# number of rings (size 3 to 8) (size 9 to 14) (size 15 to 20)
#    0.000    1.714    4.286    3.000    0.000    6.571 
#    0.000    2.143    0.000    0.857    0.000    3.000 
#    0.000    0.000    0.000    0.000    0.000    0.000 
#
# Total GULP energy -346975.835149 kJ/mol
# GULP energy per Si atom -12391.994112 kJ/mol
# Density = 1.878178 g / cm^3
# Si number density = 18.824630 Si / 1000 Ang^3
#
#
#
# Elastic Constant Matrix: (Units=GPa)
#
#
# Indices 1 2 3 4 5 6 
#
# 1 123.9670 59.0969 52.4911 0.0000 -1.2968 0.0000
# 2 59.0969 103.9851 37.0593 0.0000 -12.0170 0.0000
# 3 52.4911 37.0593 87.9445 0.0000 4.7698 0.0000
# 4 0.0000 0.0000 0.0000 11.5417 0.0000 -0.1888
# 5 -1.2968 -12.0170 4.7698 0.0000 24.7419 0.0000
# 6 0.0000 0.0000 0.0000 -0.1888 0.0000 18.5408
#
#
#
# Elastic Compliance Matrix: (Units=1/GPa)
#
#
# Indices 1 2 3 4 5 6 
#
# 1 0.012982 -0.005592 -0.005337 0.000000 -0.001007 0.000000
# 2 -0.005592 0.014857 -0.003333 0.000000 0.007566 0.000000
# 3 -0.005337 -0.003333 0.016234 0.000000 -0.005028 0.000000
# 4 0.000000 0.000000 0.000000 0.086657 0.000000 0.000882
# 5 -0.001007 0.007566 -0.005028 0.000000 0.045008 0.000000
# 6 0.000000 0.000000 0.000000 0.000882 0.000000 0.053944
#
#
# Mechanical properties :
#
#
# Convention : Reuss Voigt Hill
#
# Bulk Modulus (GPa) = 64.31962 68.13236 66.22599
# Shear Modulus (GPa) = 18.98322 22.11482 20.54902
#
# Velocity S-wave (km/s) = 3.17902 3.43123 3.30753
# Velocity P-wave (km/s) = 6.90774 7.20899 7.05997
#
# Compressibility (1/GPa) = 0.01554736
#
# Stress axis : x y z
#
# Youngs Moduli (GPa) = 77.02996 67.30788 61.59939
#
# Poissons Ratio (x) = 0.37639 0.32878
# Poissons Ratio (y) = 0.43075 0.20533
# Poissons Ratio (z) = 0.41114 0.22436
#
# Static dielectric constant tensor:
#      x y z
#    x 3.606010 0.000000 -0.181600 
#    y 0.000000 3.428620 0.000000 
#    z -0.181600 0.000000 3.411560 
# 
# 
# High freq. dielectric constant tensor:
#      x y z
#    x 1.724890 0.000000 -0.008260 
#    y 0.000000 1.711990 0.000000 
#    z -0.008260 0.000000 1.723840 
# 
# From -- ./inp_files/98033.got.cif
#   From: 2010.06.25/outbox.cif.g09.slc.cpg/sg12_50_cif.got.tgz:98033.got - 2010.06.28 00:19:55.
