data_PCOD8078713
_publ_section_title
;
Structure prediction by ZEFSAII (Michael W. Deem and Ramdas Pophale) SiO2 
 PCOD8078713
Probable space group: C 2/M
;
_chemical_formula_sum "Si O2"
_cell_formula_units_Z 64
_cell_length_a 23.237309
_cell_length_b 8.879375
_cell_length_c 17.961284
_cell_angle_alpha 90.000000
_cell_angle_beta 101.069436
_cell_angle_gamma 90.000000
_cell_volume 3637.052339
_symmetry_space_group_name_H-M "C 2/M"
_symmetry_group_IT_number 12
_symmetry_cell_setting 'monoclinic'
loop_
_space_group_symop_operation_xyz
x,y,z
-x,y,-z
-x,-y,-z
x,-y,z
1/2+x,1/2+y,z
1/2-x,1/2+y,-z
1/2-x,1/2-y,-z
1/2+x,1/2-y,z
loop_
_atom_site_type_symbol
_atom_site_label
_atom_site_fract_x
_atom_site_fract_y
_atom_site_fract_z
Si Si1 0.539109 0.170597 0.699632
Si Si2 0.981377 0.822885 0.074815
Si Si3 0.730941 0.179348 0.572244
Si Si4 0.685517 0.325862 0.274288
Si Si5 0.793370 0.674911 0.215083
Si Si6 0.114048 0.666518 0.868080
Si Si7 0.635954 0.676935 0.640520
Si Si8 0.944500 0.820390 0.766877
O O1 0.580713 0.177092 0.781565
O O2 0.571097 0.254245 0.638657
O O3 0.478508 0.255173 0.703856
O O4 0.525048 0.000000 0.672629
O O5 0.025496 0.762036 0.149146
O O6 0.914345 0.777643 0.078479
O O7 0.983899 0.000000 0.070505
O O8 0.000000 0.752208 0.000000
O O9 0.750000 0.250000 0.500000
O O10 0.778106 0.234655 0.645805
O O11 0.666664 0.243657 0.577247
O O12 0.727607 0.000000 0.566178
O O13 0.673579 0.500000 0.284063
O O14 0.723337 0.298927 0.207405
O O15 0.621363 0.251428 0.250769
O O16 0.808163 0.500000 0.241624
O O17 0.817722 0.705221 0.136850
O O18 0.824513 0.790794 0.277816
O O19 0.109474 0.500000 0.901279
O O20 0.630495 0.500000 0.624714
O O21 0.946923 0.000000 0.764107
#
# Coordination Sequence:
#
# PCOD8078713 Si02
#       8
#     8   8   8   8   8   8   8   8
#     4   9  16  27  42  63  90 116 144 184 227 260
#     4   9  17  27  40  61  88 115 145 183 223 260
#     4  10  19  32  48  68  93 119 147 180 220 263
#     4   8  15  28  47  67  88 115 146 180 216 261
#     4   8  14  26  42  62  87 112 142 183 226 262
#     4   8  14  24  40  60  81 108 143 180 218 260
#     4  10  17  26  43  67  90 115 148 183 219 259
#     4   9  16  28  46  66  87 116 152 183 216 261
#
# _framework density 17.596667
#
# number of rings (size 3 to 8) (size 9 to 14) (size 15 to 20)
#    0.000    3.125    0.000    3.375    0.000    3.250 
#    0.000    3.125    0.000    1.500    0.000    5.250 
#    0.000    0.000    0.000    0.000    0.000    6.500 
#
# Total GULP energy -396451.369619 kJ/mol
# GULP energy per Si atom -12389.105301 kJ/mol
# Density = 1.755662 g / cm^3
# Si number density = 17.596667 Si / 1000 Ang^3
#
#
#
# Elastic Constant Matrix: (Units=GPa)
#
#
# Indices 1 2 3 4 5 6 
#
# 1 139.6969 31.3349 59.9258 0.0000 -41.6433 0.0000
# 2 31.3349 58.5048 30.4273 0.0000 -13.4466 0.0000
# 3 59.9258 30.4273 86.3158 0.0000 -37.5911 0.0000
# 4 0.0000 0.0000 0.0000 20.2119 0.0000 -11.1579
# 5 -41.6433 -13.4466 -37.5911 0.0000 33.2101 0.0000
# 6 0.0000 0.0000 0.0000 -11.1579 0.0000 22.1334
#
#
#
# Elastic Compliance Matrix: (Units=1/GPa)
#
#
# Indices 1 2 3 4 5 6 
#
# 1 0.012249 -0.002572 -0.002686 0.000000 0.011278 0.000000
# 2 -0.002572 0.021471 -0.006709 0.000000 -0.002125 0.000000
# 3 -0.002686 -0.006709 0.025965 0.000000 0.023306 0.000000
# 4 0.000000 0.000000 0.000000 0.068554 0.000000 0.034560
# 5 0.011278 -0.002125 0.023306 0.000000 0.069773 0.000000
# 6 0.000000 0.000000 0.000000 0.034560 0.000000 0.062603
#
#
# Mechanical properties :
#
#
# Convention : Reuss Voigt Hill
#
# Bulk Modulus (GPa) = 27.97024 58.65485 43.31254
# Shear Modulus (GPa) = 16.86538 25.96638 21.41588
#
# Velocity S-wave (km/s) = 3.09923 3.84558 3.49240
# Velocity P-wave (km/s) = 5.36066 7.28857 6.39765
#
# Compressibility (1/GPa) = 0.03575228
#
# Stress axis : x y z
#
# Youngs Moduli (GPa) = 81.63612 46.57523 38.51367
#
# Poissons Ratio (x) = 0.11977 0.10345
# Poissons Ratio (y) = 0.20994 0.25838
# Poissons Ratio (z) = 0.21927 0.31246
#
# Static dielectric constant tensor:
#      x y z
#    x 3.615700 0.000000 -0.473150 
#    y 0.000000 3.107570 0.000000 
#    z -0.473150 0.000000 3.134670 
# 
# 
# High freq. dielectric constant tensor:
#      x y z
#    x 1.675650 0.000000 -0.050140 
#    y 0.000000 1.667430 0.000000 
#    z -0.050140 0.000000 1.640420 
# 
# From -- ./inp_files/287551.got.cif
#   From: 2010.06.25/outbox.cif.g09.slc.cpg/sg12_144_cif.got.tgz:287551.got - 2010.06.28 00:19:55.
