data_PCOD8078204
_publ_section_title
;
Structure prediction by ZEFSAII (Michael W. Deem and Ramdas Pophale) SiO2 
 PCOD8078204
Probable space group: C 2/M
;
_chemical_formula_sum "Si O2"
_cell_formula_units_Z 64
_cell_length_a 27.127292
_cell_length_b 17.125061
_cell_length_c 31.944503
_cell_angle_alpha 90.000000
_cell_angle_beta 17.342309
_cell_angle_gamma 90.000000
_cell_volume 4423.512692
_symmetry_space_group_name_H-M "C 2/M"
_symmetry_group_IT_number 12
_symmetry_cell_setting 'monoclinic'
loop_
_space_group_symop_operation_xyz
x,y,z
-x,y,-z
-x,-y,-z
x,-y,z
1/2+x,1/2+y,z
1/2-x,1/2+y,-z
1/2-x,1/2-y,-z
1/2+x,1/2-y,z
loop_
_atom_site_type_symbol
_atom_site_label
_atom_site_fract_x
_atom_site_fract_y
_atom_site_fract_z
Si Si1 0.989004 0.411776 0.265845
Si Si2 0.707213 0.692609 0.996957
Si Si3 0.408369 0.408175 0.841458
Si Si4 0.509057 0.591573 0.606037
Si Si5 0.644608 0.908916 0.914157
Si Si6 0.175022 0.412013 0.691819
Si Si7 0.848232 0.092299 0.424543
Si Si8 0.109565 0.337632 0.031830
O O1 0.050927 0.500000 0.225391
O O2 0.915074 0.408952 0.279628
O O3 0.846185 0.386369 0.414862
O O4 0.136463 0.350413 0.150419
O O5 0.750000 0.750000 0.000000
O O6 0.585176 0.628990 0.117143
O O7 0.626342 0.744258 0.025686
O O8 0.414258 0.500000 0.842711
O O9 0.565705 0.375388 0.687553
O O10 0.238511 0.386808 0.955281
O O11 0.546626 0.500000 0.578616
O O12 0.318242 0.608744 0.749718
O O13 0.637599 0.622379 0.466305
O O14 0.552321 0.628158 0.616449
O O15 0.633562 0.000000 0.936111
O O16 0.500000 0.884800 0.000000
O O17 0.634912 0.855533 0.962764
O O18 0.178694 0.500000 0.706565
O O19 0.077422 0.359977 0.804239
O O20 0.871705 0.000000 0.405709
#
# Coordination Sequence:
#
# PCOD8078204 Si02
#       8
#     8   8   8   8   8   8   8   8
#     4   9  15  26  40  57  80 110 143 168 192 230
#     4  10  19  26  35  57  85 109 137 167 191 241
#     4  10  16  26  42  58  78 107 137 164 194 234
#     4   8  14  25  39  59  78  97 134 173 202 233
#     4  10  19  31  47  62  75  99 139 179 209 241
#     4   9  15  24  41  57  77 109 136 163 199 237
#     4   8  14  23  40  59  77 104 138 171 198 227
#     4  11  19  28  39  58  85 107 134 168 206 241
#
# _framework density 14.46814
#
# number of rings (size 3 to 8) (size 9 to 14) (size 15 to 20)
#    0.000    2.625    3.750    3.000    0.000    0.000 
#    0.000    4.375    0.000    3.000    0.000    0.000 
#    0.000    2.000    0.000    0.000    0.000   14.250 
#
# Total GULP energy -396490.072689 kJ/mol
# GULP energy per Si atom -12390.314772 kJ/mol
# Density = 1.443521 g / cm^3
# Si number density = 14.468140 Si / 1000 Ang^3
#
#
#
# Elastic Constant Matrix: (Units=GPa)
#
#
# Indices 1 2 3 4 5 6 
#
# 1 34.7100 22.4921 30.3723 -0.0731 1.0118 0.0215
# 2 22.4921 52.8695 39.2940 -0.1225 0.6502 0.0246
# 3 30.3723 39.2940 130.9766 -0.2158 16.4496 0.0265
# 4 -0.0731 -0.1225 -0.2158 5.8112 0.0894 4.4272
# 5 1.0118 0.6502 16.4496 0.0894 15.8307 0.0214
# 6 0.0215 0.0246 0.0265 4.4272 0.0214 16.1579
#
#
#
# Elastic Compliance Matrix: (Units=1/GPa)
#
#
# Indices 1 2 3 4 5 6 
#
# 1 0.043177 -0.013587 -0.006509 -0.000038 0.004562 -0.000022
# 2 -0.013587 0.029435 -0.006483 0.000163 0.006395 -0.000069
# 3 -0.006509 -0.006483 0.012657 0.000546 -0.012472 -0.000135
# 4 -0.000038 0.000163 0.000546 0.217539 -0.001719 -0.059603
# 5 0.004562 0.006395 -0.012472 -0.001719 0.075583 0.000376
# 6 -0.000022 -0.000069 -0.000135 -0.059603 0.000376 0.078220
#
#
# Mechanical properties :
#
#
# Convention : Reuss Voigt Hill
#
# Bulk Modulus (GPa) = 31.14261 44.76364 37.95313
# Shear Modulus (GPa) = 9.60667 15.98648 12.79658
#
# Velocity S-wave (km/s) = 2.57959 3.32768 2.97722
# Velocity P-wave (km/s) = 5.51762 6.76544 6.17314
#
# Compressibility (1/GPa) = 0.03211035
#
# Stress axis : x y z
#
# Youngs Moduli (GPa) = 23.16038 33.97343 79.01038
#
# Poissons Ratio (x) = 0.46160 0.51429
# Poissons Ratio (y) = 0.31468 0.51221
# Poissons Ratio (z) = 0.15076 0.22024
#
# Static dielectric constant tensor:
#      x y z
#    x 2.524690 -0.000040 0.323570 
#    y -0.000040 2.801740 0.000490 
#    z 0.323570 0.000490 3.255360 
# 
# 
# High freq. dielectric constant tensor:
#      x y z
#    x 1.497150 0.000000 0.032860 
#    y 0.000000 1.520280 0.000030 
#    z 0.032860 0.000030 1.569980 
# 
# From -- ./inp_files/383146.got.cif
#   From: 2010.06.25/outbox.cif.g09.slc.cpg/sg12_192_cif.got.tgz:383146.got - 2010.06.28 00:19:55.
