data_PCOD8078246
_publ_section_title
;
Structure prediction by ZEFSAII (Michael W. Deem and Ramdas Pophale) SiO2 
 PCOD8078246
Probable space group: C 2/M
;
_chemical_formula_sum "Si O2"
_cell_formula_units_Z 64
_cell_length_a 17.026329
_cell_length_b 17.508419
_cell_length_c 22.007480
_cell_angle_alpha 90.000000
_cell_angle_beta 149.510500
_cell_angle_gamma 90.000000
_cell_volume 3328.679641
_symmetry_space_group_name_H-M "C 2/M"
_symmetry_group_IT_number 12
_symmetry_cell_setting 'monoclinic'
loop_
_space_group_symop_operation_xyz
x,y,z
-x,y,-z
-x,-y,-z
x,-y,z
1/2+x,1/2+y,z
1/2-x,1/2+y,-z
1/2-x,1/2-y,-z
1/2+x,1/2-y,z
loop_
_atom_site_type_symbol
_atom_site_label
_atom_site_fract_x
_atom_site_fract_y
_atom_site_fract_z
Si Si1 0.008965 0.790597 0.434404
Si Si2 0.185433 0.800359 0.375091
Si Si3 0.592467 0.195729 0.005605
Si Si4 0.324678 0.411975 0.522555
Si Si5 0.224122 0.692399 0.789344
Si Si6 0.267067 0.841132 0.013534
Si Si7 0.057191 0.175447 0.162475
Si Si8 0.007199 0.650064 0.274602
O O1 0.148358 0.737506 0.503488
O O2 0.040442 0.875052 0.428864
O O3 0.000000 0.796053 0.500000
O O4 0.849329 0.756753 0.303361
O O5 0.174495 0.873396 0.410858
O O6 0.168420 0.827145 0.294677
O O7 0.050979 0.739883 0.301450
O O8 0.693539 0.265546 0.099370
O O9 0.500000 0.154913 0.000000
O O10 0.693205 0.136450 0.031144
O O11 0.474743 0.236471 0.879516
O O12 0.364386 0.500000 0.557396
O O13 0.158424 0.402738 0.378273
O O14 0.344453 0.641467 0.829211
O O15 0.095773 0.636972 0.733329
O O16 0.405051 0.872234 0.147751
O O17 0.250000 0.750000 0.000000
O O18 0.100322 0.872127 0.926399
#
# Coordination Sequence:
#
# PCOD8078246 Si02
#       8
#     8   8   8   8   8   8   8   8
#     4  11  21  34  57  83 111 141 184 237 285 328
#     4  11  18  33  55  79 105 139 182 235 277 322
#     4   9  17  25  42  76 118 137 161 213 285 342
#     4  11  25  38  53  77 110 155 196 226 275 343
#     4  11  17  29  49  84 112 137 169 223 289 328
#     4  10  16  27  46  80 114 135 166 227 292 328
#     4  10  18  25  47  81 116 130 166 227 288 330
#     4  11  18  33  56  77 106 143 183 238 281 323
#
# _framework density 19.226844
#
# number of rings (size 3 to 8) (size 9 to 14) (size 15 to 20)
#    0.000    1.500    8.750    0.750    0.000    0.250 
#    0.000    0.000    0.000    4.125    0.000    0.875 
#    0.000    4.500    0.000    0.000    0.000    0.000 
#
# Total GULP energy -396542.896842 kJ/mol
# GULP energy per Si atom -12391.965526 kJ/mol
# Density = 1.918308 g / cm^3
# Si number density = 19.226844 Si / 1000 Ang^3
#
#
#
# Elastic Constant Matrix: (Units=GPa)
#
#
# Indices 1 2 3 4 5 6 
#
# 1 154.3644 11.3145 15.5105 -0.0088 -1.5644 -0.0030
# 2 11.3145 50.3241 5.8730 -0.0183 -5.9761 -0.0074
# 3 15.5105 5.8730 76.1682 -0.0249 -7.2601 -0.0116
# 4 -0.0088 -0.0183 -0.0249 8.2001 -0.0082 -0.5070
# 5 -1.5644 -5.9761 -7.2601 -0.0082 34.9823 -0.0017
# 6 -0.0030 -0.0074 -0.0116 -0.5070 -0.0017 8.3986
#
#
#
# Elastic Compliance Matrix: (Units=1/GPa)
#
#
# Indices 1 2 3 4 5 6 
#
# 1 0.006706 -0.001382 -0.001278 0.000000 -0.000202 -0.000001
# 2 -0.001382 0.020687 -0.001002 0.000046 0.003264 0.000020
# 3 -0.001278 -0.001002 0.013716 0.000042 0.002618 0.000021
# 4 0.000000 0.000046 0.000042 0.122408 0.000046 0.007390
# 5 -0.000202 0.003264 0.002618 0.000046 0.029678 0.000015
# 6 -0.000001 0.000020 0.000021 0.007390 0.000015 0.119513
#
#
# Mechanical properties :
#
#
# Convention : Reuss Voigt Hill
#
# Bulk Modulus (GPa) = 29.60115 38.47249 34.03682
# Shear Modulus (GPa) = 15.09233 26.86012 20.97623
#
# Velocity S-wave (km/s) = 2.80476 3.74172 3.30659
# Velocity P-wave (km/s) = 5.09098 6.22258 5.68500
#
# Compressibility (1/GPa) = 0.03378247
#
# Stress axis : x y z
#
# Youngs Moduli (GPa) = 149.12248 48.34035 72.90764
#
# Poissons Ratio (x) = 0.06683 0.09319
# Poissons Ratio (y) = 0.20616 0.07308
# Poissons Ratio (z) = 0.19060 0.04846
#
# Static dielectric constant tensor:
#      x y z
#    x 4.353350 -0.000010 0.173080 
#    y -0.000010 2.636940 -0.000010 
#    z 0.173080 -0.000010 3.763080 
# 
# 
# High freq. dielectric constant tensor:
#      x y z
#    x 1.781530 0.000000 -0.001940 
#    y 0.000000 1.637260 0.000000 
#    z -0.001940 0.000000 1.765910 
# 
# From -- ./inp_files/317394.got.cif
#   From: 2010.06.25/outbox.cif.g09.slc.cpg/sg12_159_cif.got.tgz:317394.got - 2010.06.28 00:19:55.
