data_PCOD8078568
_publ_section_title
;
Structure prediction by ZEFSAII (Michael W. Deem and Ramdas Pophale) SiO2 
 PCOD8078568
Probable space group: C 2/M
;
_chemical_formula_sum "Si O2"
_cell_formula_units_Z 64
_cell_length_a 29.364906
_cell_length_b 9.510496
_cell_length_c 16.797920
_cell_angle_alpha 90.000000
_cell_angle_beta 116.270065
_cell_angle_gamma 90.000000
_cell_volume 4206.714902
_symmetry_space_group_name_H-M "C 2/M"
_symmetry_group_IT_number 12
_symmetry_cell_setting 'monoclinic'
loop_
_space_group_symop_operation_xyz
x,y,z
-x,y,-z
-x,-y,-z
x,-y,z
1/2+x,1/2+y,z
1/2-x,1/2+y,-z
1/2-x,1/2-y,-z
1/2+x,1/2-y,z
loop_
_atom_site_type_symbol
_atom_site_label
_atom_site_fract_x
_atom_site_fract_y
_atom_site_fract_z
Si Si1 0.476291 0.835146 0.251023
Si Si2 0.092078 0.344007 0.351547
Si Si3 0.239808 0.334504 0.572726
Si Si4 0.953403 0.668240 0.410464
Si Si5 0.635059 0.842626 0.554723
Si Si6 0.072721 0.165766 0.100218
Si Si7 0.153466 0.162483 0.284071
Si Si8 0.467673 0.666519 0.095005
O O1 0.535311 0.798021 0.288523
O O2 0.457122 0.781518 0.322091
O O3 0.448927 0.747832 0.159601
O O4 0.465327 0.000000 0.231723
O O5 0.103048 0.500000 0.326558
O O6 0.098234 0.341690 0.450599
O O7 0.132212 0.238987 0.344940
O O8 0.232639 0.500000 0.545353
O O9 0.250000 0.250000 0.500000
O O10 0.189425 0.270556 0.576682
O O11 0.285996 0.313012 0.671083
O O12 0.954201 0.500000 0.416527
O O13 0.899205 0.727838 0.402164
O O14 0.000000 0.727673 0.500000
O O15 0.648642 0.000000 0.592022
O O16 0.125223 0.218883 0.182132
O O17 0.024828 0.215166 0.116091
O O18 0.070118 0.000000 0.093628
O O19 0.068798 0.218134 0.005863
O O20 0.140049 0.000000 0.284884
O O21 0.464173 0.500000 0.107651
#
# Coordination Sequence:
#
# PCOD8078568 Si02
#       8
#     8   8   8   8   8   8   8   8
#     4  10  18  26  41  66  86 106 140 175 204 240
#     4  10  17  25  40  61  86 111 137 169 203 239
#     4  10  19  28  42  63  85 110 138 170 204 240
#     4   9  15  25  41  60  82 111 142 168 198 238
#     4   9  16  27  40  57  84 113 141 168 196 238
#     4   8  15  27  42  59  79 108 143 169 197 247
#     4  10  18  28  42  61  83 110 142 170 199 240
#     4   9  16  28  44  58  79 112 140 166 208 251
#
# _framework density 15.213770999999999
#
# number of rings (size 3 to 8) (size 9 to 14) (size 15 to 20)
#    0.000    2.625    3.750    0.750    0.000    0.000 
#    0.000    1.875    0.000    1.875    0.000    0.875 
#    0.000    0.000    0.000    0.000    0.000    0.000 
#
# Total GULP energy -396484.645180 kJ/mol
# GULP energy per Si atom -12390.145162 kJ/mol
# Density = 1.517914 g / cm^3
# Si number density = 15.213771 Si / 1000 Ang^3
#
#
#
# Elastic Constant Matrix: (Units=GPa)
#
#
# Indices 1 2 3 4 5 6 
#
# 1 90.4186 25.0331 55.9572 0.0000 -8.0754 0.0000
# 2 25.0331 25.1718 24.6029 0.0000 -4.3309 0.0000
# 3 55.9572 24.6029 107.8724 0.0000 -7.1352 0.0000
# 4 0.0000 0.0000 0.0000 19.8171 0.0000 -2.5987
# 5 -8.0754 -4.3309 -7.1352 0.0000 25.0272 0.0000
# 6 0.0000 0.0000 0.0000 -2.5987 0.0000 12.4569
#
#
#
# Elastic Compliance Matrix: (Units=1/GPa)
#
#
# Indices 1 2 3 4 5 6 
#
# 1 0.018727 -0.011461 -0.006963 0.000000 0.002074 0.000000
# 2 -0.011461 0.058928 -0.007200 0.000000 0.004446 0.000000
# 3 -0.006963 -0.007200 0.014568 0.000000 0.000661 0.000000
# 4 0.000000 0.000000 0.000000 0.051881 0.000000 0.010823
# 5 0.002074 0.004446 0.000661 0.000000 0.041584 0.000000
# 6 0.000000 0.000000 0.000000 0.010823 0.000000 0.082534
#
#
# Mechanical properties :
#
#
# Convention : Reuss Voigt Hill
#
# Bulk Modulus (GPa) = 24.40616 48.29436 36.35026
# Shear Modulus (GPa) = 15.00915 19.31822 17.16369
#
# Velocity S-wave (km/s) = 3.14435 3.56727 3.36246
# Velocity P-wave (km/s) = 5.40921 6.98427 6.24658
#
# Compressibility (1/GPa) = 0.04097326
#
# Stress axis : x y z
#
# Youngs Moduli (GPa) = 53.39743 16.96991 68.64232
#
# Poissons Ratio (x) = 0.19450 0.47798
# Poissons Ratio (y) = 0.61201 0.49425
# Poissons Ratio (z) = 0.37183 0.12219
#
# Static dielectric constant tensor:
#      x y z
#    x 2.966590 0.000000 0.088990 
#    y 0.000000 2.624700 0.000000 
#    z 0.088990 0.000000 3.097140 
# 
# 
# High freq. dielectric constant tensor:
#      x y z
#    x 1.563160 0.000000 0.003210 
#    y 0.000000 1.547530 0.000000 
#    z 0.003210 0.000000 1.579650 
# 
# From -- ./inp_files/294570.got.cif
#   From: 2010.06.25/outbox.cif.g09.slc.cpg/sg12_148_cif.got.tgz:294570.got - 2010.06.28 00:19:55.
