data_PCOD8078452
_publ_section_title
;
Structure prediction by ZEFSAII (Michael W. Deem and Ramdas Pophale) SiO2 
 PCOD8078452
Probable space group: C 2/M
;
_chemical_formula_sum "Si O2"
_cell_formula_units_Z 32
_cell_length_a 14.641921
_cell_length_b 13.980483
_cell_length_c 10.071581
_cell_angle_alpha 90.000000
_cell_angle_beta 44.544238
_cell_angle_gamma 90.000000
_cell_volume 1446.174316
_symmetry_space_group_name_H-M "C 2/M"
_symmetry_group_IT_number 12
_symmetry_cell_setting 'monoclinic'
loop_
_space_group_symop_operation_xyz
x,y,z
-x,y,-z
-x,-y,-z
x,-y,z
1/2+x,1/2+y,z
1/2-x,1/2+y,-z
1/2-x,1/2-y,-z
1/2+x,1/2-y,z
loop_
_atom_site_type_symbol
_atom_site_label
_atom_site_fract_x
_atom_site_fract_y
_atom_site_fract_z
Si Si1 0.477166 0.392186 0.326828
Si Si2 0.084389 0.500000 0.543300
Si Si3 0.293406 0.662269 0.751102
Si Si4 0.098100 0.500000 0.017680
Si Si5 0.722324 0.322742 0.646083
O O1 0.531842 0.500000 0.265620
O O2 0.595362 0.323161 0.250646
O O3 0.358809 0.387401 0.554973
O O4 0.422289 0.363906 0.237400
O O5 0.173239 0.406684 0.459051
O O6 0.000000 0.500000 0.500000
O O7 0.981581 0.500000 0.766165
O O8 0.182502 0.595765 0.925233
O O9 0.230627 0.765074 0.776843
O O10 0.000000 0.500000 0.000000
O O11 0.750000 0.250000 0.500000
#
# Coordination Sequence:
#
# PCOD8078452 Si02
#       5
#     8   4   8   4   8
#     4  10  16  34  63  95 125 174 227 269 328 399
#     4  12  28  45  67  99 149 180 214 284 359 398
#     4  10  20  35  67  97 126 171 233 277 318 400
#     4  12  22  42  71 105 135 175 233 286 328 400
#     4  10  22  38  66  95 130 182 222 266 335 413
#
# _framework density 22.127344999999998
#
# number of rings (size 3 to 8) (size 9 to 14) (size 15 to 20)
#    0.000    1.500    3.750    3.750    7.000    0.000 
#    0.000    1.250    5.500    1.500    0.000    0.000 
#    0.000    0.000    0.000    0.000    0.000    0.000 
#
# Total GULP energy -198332.847376 kJ/mol
# GULP energy per Si atom -12395.802961 kJ/mol
# Density = 2.207698 g / cm^3
# Si number density = 22.127345 Si / 1000 Ang^3
#
#
#
# Elastic Constant Matrix: (Units=GPa)
#
#
# Indices 1 2 3 4 5 6 
#
# 1 227.3071 86.8472 62.8069 0.0000 -26.6849 0.0000
# 2 86.8472 148.6379 47.4779 0.0000 -7.4935 0.0000
# 3 62.8069 47.4779 75.0767 0.0000 -4.1127 0.0000
# 4 0.0000 0.0000 0.0000 5.7272 0.0000 -13.9507
# 5 -26.6849 -7.4935 -4.1127 0.0000 24.6104 0.0000
# 6 0.0000 0.0000 0.0000 -13.9507 0.0000 34.5752
#
#
#
# Elastic Compliance Matrix: (Units=1/GPa)
#
#
# Indices 1 2 3 4 5 6 
#
# 1 0.007284 -0.002630 -0.004080 0.000000 0.006416 0.000000
# 2 -0.002630 0.009450 -0.003810 0.000000 -0.000611 0.000000
# 3 -0.004080 -0.003810 0.019010 0.000000 -0.002407 0.000000
# 4 0.000000 0.000000 0.000000 10.179754 0.000000 4.107412
# 5 0.006416 -0.000611 -0.002407 0.000000 0.047002 0.000000
# 6 0.000000 0.000000 0.000000 4.107412 0.000000 1.686215
#
#
# Mechanical properties :
#
#
# Convention : Reuss Voigt Hill
#
# Bulk Modulus (GPa) = 67.99604 93.92061 80.95833
# Shear Modulus (GPa) = 0.41755 29.90853 15.16304
#
# Velocity S-wave (km/s) = 0.43487 3.68047 2.62059
# Velocity P-wave (km/s) = 5.57210 7.78452 6.76931
#
# Compressibility (1/GPa) = 0.01470674
#
# Stress axis : x y z
#
# Youngs Moduli (GPa) = 137.27807 105.81525 52.60379
#
# Poissons Ratio (x) = 0.27826 0.21460
# Poissons Ratio (y) = 0.36100 0.20042
# Poissons Ratio (z) = 0.56003 0.40315
#
# Static dielectric constant tensor:
#      x y z
#    x 4.881700 0.000000 -0.190370 
#    y 0.000000 4.600350 0.000000 
#    z -0.190370 0.000000 3.484180 
# 
# 
# High freq. dielectric constant tensor:
#      x y z
#    x 1.899280 0.000000 -0.021730 
#    y 0.000000 1.875000 0.000000 
#    z -0.021730 0.000000 1.822950 
# 
# From -- ./inp_files/142480.got.cif
#   From: 2010.06.25/outbox.cif.g09.slc.cpg/sg12_72_cif.got.tgz:142480.got - 2010.06.28 00:19:55.
