data_PCOD8078449
_publ_section_title
;
Structure prediction by ZEFSAII (Michael W. Deem and Ramdas Pophale) SiO2 
 PCOD8078449
Probable space group: C 2/M
;
_chemical_formula_sum "Si O2"
_cell_formula_units_Z 56
_cell_length_a 5.313900
_cell_length_b 25.565496
_cell_length_c 17.142294
_cell_angle_alpha 90.000000
_cell_angle_beta 75.444344
_cell_angle_gamma 90.000000
_cell_volume 2254.077326
_symmetry_space_group_name_H-M "C 2/M"
_symmetry_group_IT_number 12
_symmetry_cell_setting 'monoclinic'
loop_
_space_group_symop_operation_xyz
x,y,z
-x,y,-z
-x,-y,-z
x,-y,z
1/2+x,1/2+y,z
1/2-x,1/2+y,-z
1/2-x,1/2-y,-z
1/2+x,1/2-y,z
loop_
_atom_site_type_symbol
_atom_site_label
_atom_site_fract_x
_atom_site_fract_y
_atom_site_fract_z
Si Si1 0.714320 0.111389 0.050311
Si Si2 0.259572 0.941378 0.367205
Si Si3 0.957384 0.661015 0.415514
Si Si4 0.721278 0.780325 0.705412
Si Si5 0.296814 0.228359 0.909693
Si Si6 0.306533 0.057281 0.796462
Si Si7 0.543120 0.628221 0.707295
O O1 0.744317 0.167136 0.090116
O O2 0.611041 0.069934 0.121429
O O3 0.500000 0.114408 0.000000
O O4 0.000000 0.093672 0.000000
O O5 0.359715 0.899668 0.423545
O O6 0.446960 0.942316 0.278482
O O7 0.990149 0.918927 0.353364
O O8 0.223731 0.000000 0.405655
O O9 0.227312 0.665421 0.344669
O O10 0.000000 0.679754 0.500000
O O11 0.753495 0.701473 0.389179
O O12 0.426263 0.759161 0.731131
O O13 0.779963 0.837133 0.741033
O O14 0.594098 0.244323 0.864207
O O15 0.250000 0.250000 0.000000
O O16 0.104494 0.101821 0.785231
O O17 0.174823 0.000000 0.804503
#
# Coordination Sequence:
#
# PCOD8078449 Si02
#       7
#     8   8   8   8   8   8   8
#     4  12  24  40  66  99 133 167 217 275 330 393
#     4   9  20  40  66  92 128 176 225 280 337 397
#     4  10  22  39  63  98 135 176 224 275 333 397
#     4  11  22  41  66  96 138 176 222 275 326 392
#     4  10  16  34  60  84 122 163 199 246 308 387
#     4  10  24  44  67  94 130 175 223 274 342 407
#     4  10  21  43  67  92 130 176 226 273 326 408
#
# _framework density 24.843869000000002
#
# number of rings (size 3 to 8) (size 9 to 14) (size 15 to 20)
#    0.000    1.714    4.286    0.429    2.000    4.286 
#    0.000    2.143    0.000    0.000    0.000    0.000 
#    0.000    0.000    0.000    0.000    0.000    0.000 
#
# Total GULP energy -346865.957095 kJ/mol
# GULP energy per Si atom -12388.069896 kJ/mol
# Density = 2.478732 g / cm^3
# Si number density = 24.843869 Si / 1000 Ang^3
#
#
#
# Elastic Constant Matrix: (Units=GPa)
#
#
# Indices 1 2 3 4 5 6 
#
# 1 147.0328 35.7200 22.0351 0.0000 15.6588 0.0000
# 2 35.7200 63.1104 14.4881 0.0000 -10.5067 0.0000
# 3 22.0351 14.4881 45.1824 0.0000 1.9564 0.0000
# 4 0.0000 0.0000 0.0000 22.2974 0.0000 5.9605
# 5 15.6588 -10.5067 1.9564 0.0000 18.6986 0.0000
# 6 0.0000 0.0000 0.0000 5.9605 0.0000 41.7964
#
#
#
# Elastic Compliance Matrix: (Units=1/GPa)
#
#
# Indices 1 2 3 4 5 6 
#
# 1 0.010246 -0.007407 -0.002080 0.000000 -0.012525 0.000000
# 2 -0.007407 0.024658 -0.005186 0.000000 0.020601 0.000000
# 3 -0.002080 -0.005186 0.024974 0.000000 -0.003786 0.000000
# 4 0.000000 0.000000 0.000000 0.046626 0.000000 -0.006649
# 5 -0.012525 0.020601 -0.003786 0.000000 0.075940 0.000000
# 6 0.000000 0.000000 0.000000 -0.006649 0.000000 0.024874
#
#
# Mechanical properties :
#
#
# Convention : Reuss Voigt Hill
#
# Bulk Modulus (GPa) = 32.75275 44.42356 38.58815
# Shear Modulus (GPa) = 20.25596 28.76395 24.50995
#
# Velocity S-wave (km/s) = 2.85850 3.40632 3.14436
# Velocity P-wave (km/s) = 4.90986 5.77846 5.36178
#
# Compressibility (1/GPa) = 0.03053179
#
# Stress axis : x y z
#
# Youngs Moduli (GPa) = 97.59708 40.55506 40.04216
#
# Poissons Ratio (x) = 0.30039 0.08327
# Poissons Ratio (y) = 0.72291 0.20767
# Poissons Ratio (z) = 0.20296 0.21033
#
# Static dielectric constant tensor:
#      x y z
#    x 4.515160 0.000000 0.276680 
#    y 0.000000 4.820390 0.000000 
#    z 0.276680 0.000000 4.003370 
# 
# 
# High freq. dielectric constant tensor:
#      x y z
#    x 1.999150 0.000000 0.022440 
#    y 0.000000 1.996050 0.000000 
#    z 0.022440 0.000000 1.958320 
# 
# From -- ./inp_files/253593.got.cif
#   From: 2010.06.25/outbox.cif.g09.slc.cpg/sg12_127_cif.got.tgz:253593.got - 2010.06.28 00:19:55.
