data_PCOD8078591
_publ_section_title
;
Structure prediction by ZEFSAII (Michael W. Deem and Ramdas Pophale) SiO2 
 PCOD8078591
Probable space group: C 2/M
;
_chemical_formula_sum "Si O2"
_cell_formula_units_Z 56
_cell_length_a 19.569288
_cell_length_b 8.839456
_cell_length_c 20.893778
_cell_angle_alpha 90.000000
_cell_angle_beta 61.391947
_cell_angle_gamma 90.000000
_cell_volume 3173.002015
_symmetry_space_group_name_H-M "C 2/M"
_symmetry_group_IT_number 12
_symmetry_cell_setting 'monoclinic'
loop_
_space_group_symop_operation_xyz
x,y,z
-x,y,-z
-x,-y,-z
x,-y,z
1/2+x,1/2+y,z
1/2-x,1/2+y,-z
1/2-x,1/2-y,-z
1/2+x,1/2-y,z
loop_
_atom_site_type_symbol
_atom_site_label
_atom_site_fract_x
_atom_site_fract_y
_atom_site_fract_z
Si Si1 0.533656 0.677518 0.276102
Si Si2 0.813403 0.821525 0.721007
Si Si3 0.494930 0.319785 0.154512
Si Si4 0.543787 0.677333 0.564058
Si Si5 0.389132 0.178939 0.576435
Si Si6 0.083147 0.833212 0.995788
Si Si7 0.352088 0.176361 0.148619
O O1 0.543511 0.500000 0.262736
O O2 0.615815 0.739786 0.266334
O O3 0.513750 0.749311 0.216037
O O4 0.462142 0.713163 0.357203
O O5 0.815425 0.734989 0.651233
O O6 0.733930 0.776965 0.791297
O O7 0.820294 0.000000 0.705338
O O8 0.487661 0.500000 0.158158
O O9 0.566051 0.270874 0.075233
O O10 0.412501 0.257484 0.168153
O O11 0.555014 0.500000 0.546805
O O12 0.614288 0.768765 0.497169
O O13 0.462167 0.731459 0.571970
O O14 0.399468 0.000000 0.576245
O O15 0.121697 0.000000 0.980952
O O16 0.138774 0.723964 0.929973
O O17 0.000000 0.844396 0.000000
O O18 0.366988 0.000000 0.147367
#
# Coordination Sequence:
#
# PCOD8078591 Si02
#       7
#     8   8   8   8   8   8   8
#     4   8  15  29  49  68  87 118 155 185 216 263
#     4   9  18  32  47  65  91 122 153 183 223 272
#     4   9  17  31  50  69  89 116 152 188 222 264
#     4   9  15  26  44  64  89 121 153 183 219 266
#     4  10  17  25  41  66  92 117 149 189 226 259
#     4   8  15  28  46  66  88 117 151 185 219 261
#     4  10  19  30  47  69  92 118 149 187 226 267
#
# _framework density 17.648900000000001
#
# number of rings (size 3 to 8) (size 9 to 14) (size 15 to 20)
#    0.000    3.000    0.000    4.714    0.000    3.714 
#    0.000    4.286    0.000    0.857    0.000    0.000 
#    0.000    0.000    0.000    0.000    0.000    0.000 
#
# Total GULP energy -346905.489323 kJ/mol
# GULP energy per Si atom -12389.481762 kJ/mol
# Density = 1.760873 g / cm^3
# Si number density = 17.648900 Si / 1000 Ang^3
#
#
#
# Elastic Constant Matrix: (Units=GPa)
#
#
# Indices 1 2 3 4 5 6 
#
# 1 47.9842 18.0642 54.4528 -0.0001 5.2887 -0.0002
# 2 18.0642 41.5576 46.9614 -0.0003 -2.5402 -0.0004
# 3 54.4528 46.9614 185.3852 0.0001 11.7732 0.0000
# 4 -0.0001 -0.0003 0.0001 26.8148 -0.0001 -4.1544
# 5 5.2887 -2.5402 11.7732 -0.0001 16.2825 -0.0001
# 6 -0.0002 -0.0004 0.0000 -4.1544 -0.0001 10.6228
#
#
#
# Elastic Compliance Matrix: (Units=1/GPa)
#
#
# Indices 1 2 3 4 5 6 
#
# 1 0.032363 -0.005750 -0.007677 0.000000 -0.005858 0.000000
# 2 -0.005750 0.037125 -0.008597 0.000001 0.013875 0.000002
# 3 -0.007677 -0.008597 0.010223 0.000000 -0.006239 -0.000001
# 4 0.000000 0.000001 0.000000 0.039698 0.000001 0.015525
# 5 -0.005858 0.013875 -0.006239 0.000001 0.069994 0.000001
# 6 0.000000 0.000002 -0.000001 0.015525 0.000001 0.100209
#
#
# Mechanical properties :
#
#
# Convention : Reuss Voigt Hill
#
# Bulk Modulus (GPa) = 28.04014 57.09820 42.56917
# Shear Modulus (GPa) = 14.46978 21.10724 17.78851
#
# Velocity S-wave (km/s) = 2.86644 3.46201 3.17820
# Velocity P-wave (km/s) = 5.18436 6.95724 6.13517
#
# Compressibility (1/GPa) = 0.03566316
#
# Stress axis : x y z
#
# Youngs Moduli (GPa) = 30.89986 26.93606 97.81716
#
# Poissons Ratio (x) = 0.15488 0.75097
# Poissons Ratio (y) = 0.17767 0.84091
# Poissons Ratio (z) = 0.23723 0.23156
#
# Static dielectric constant tensor:
#      x y z
#    x 2.886300 0.000000 0.220510 
#    y 0.000000 3.105890 0.000000 
#    z 0.220510 0.000000 4.431630 
# 
# 
# High freq. dielectric constant tensor:
#      x y z
#    x 1.618030 0.000000 0.002460 
#    y 0.000000 1.669760 0.000000 
#    z 0.002460 0.000000 1.712540 
# 
# From -- ./inp_files/319022.got.cif
#   From: 2010.06.25/outbox.cif.g09.slc.cpg/sg12_160_cif.got.tgz:319022.got - 2010.06.28 00:19:55.
