data_PCOD8078683
_publ_section_title
;
Structure prediction by ZEFSAII (Michael W. Deem and Ramdas Pophale) SiO2 
 PCOD8078683
Probable space group: C 2/M
;
_chemical_formula_sum "Si O2"
_cell_formula_units_Z 56
_cell_length_a 28.582625
_cell_length_b 8.975241
_cell_length_c 14.339567
_cell_angle_alpha 90.000000
_cell_angle_beta 103.654364
_cell_angle_gamma 90.000000
_cell_volume 3574.647399
_symmetry_space_group_name_H-M "C 2/M"
_symmetry_group_IT_number 12
_symmetry_cell_setting 'monoclinic'
loop_
_space_group_symop_operation_xyz
x,y,z
-x,y,-z
-x,-y,-z
x,-y,z
1/2+x,1/2+y,z
1/2-x,1/2+y,-z
1/2-x,1/2-y,-z
1/2+x,1/2-y,z
loop_
_atom_site_type_symbol
_atom_site_label
_atom_site_fract_x
_atom_site_fract_y
_atom_site_fract_z
Si Si1 0.715969 0.822154 0.059765
Si Si2 0.649709 0.827723 0.366093
Si Si3 0.766338 0.326376 0.726949
Si Si4 0.571174 0.827680 0.187416
Si Si5 0.384452 0.676550 0.969748
Si Si6 0.206374 0.173841 0.532639
Si Si7 0.018029 0.835809 0.903218
O O1 0.734736 0.761030 0.169174
O O2 0.662142 0.764062 0.017251
O O3 0.717352 0.000000 0.052040
O O4 0.750000 0.750000 0.000000
O O5 0.688339 0.761703 0.309878
O O6 0.596384 0.801942 0.299717
O O7 0.656577 0.743041 0.468911
O O8 0.660073 0.000000 0.390527
O O9 0.776195 0.500000 0.742186
O O10 0.715899 0.295384 0.647827
O O11 0.599608 0.732402 0.124423
O O12 0.515358 0.777745 0.170932
O O13 0.573710 0.000000 0.158888
O O14 0.374963 0.500000 0.959525
O O15 0.426000 0.713075 0.066196
O O16 0.250000 0.250000 0.500000
O O17 0.206676 0.000000 0.511851
O O18 0.013013 0.000000 0.855791
O O19 0.000000 0.840416 0.000000
#
# Coordination Sequence:
#
# PCOD8078683 Si02
#       7
#     8   8   8   8   8   8   8
#     4  11  21  34  48  64  85 113 149 188 222 257
#     4   9  16  27  40  60  87 115 142 173 210 252
#     4   8  15  29  43  55  81 112 140 176 218 250
#     4  10  17  26  42  63  88 117 147 176 212 258
#     4  10  19  31  44  60  84 114 147 183 221 257
#     4   9  16  26  40  59  80 109 142 174 210 254
#     4   8  16  28  40  58  85 112 142 179 214 254
#
# _framework density 15.665881000000001
#
# number of rings (size 3 to 8) (size 9 to 14) (size 15 to 20)
#    0.000    2.714    1.429    3.429    0.000    4.286 
#    0.000    2.143    0.000    0.000    0.000    0.000 
#    0.000    1.143    0.000   12.857    0.000    6.429 
#
# Total GULP energy -346914.872145 kJ/mol
# GULP energy per Si atom -12389.816862 kJ/mol
# Density = 1.563022 g / cm^3
# Si number density = 15.665881 Si / 1000 Ang^3
#
#
#
# Elastic Constant Matrix: (Units=GPa)
#
#
# Indices 1 2 3 4 5 6 
#
# 1 79.2751 39.7658 53.4261 0.0000 21.2009 0.0000
# 2 39.7658 77.2413 42.5231 0.0000 17.4180 0.0000
# 3 53.4261 42.5231 91.1871 0.0000 26.6899 0.0000
# 4 0.0000 0.0000 0.0000 22.5275 0.0000 7.1685
# 5 21.2009 17.4180 26.6899 0.0000 25.8894 0.0000
# 6 0.0000 0.0000 0.0000 7.1685 0.0000 24.4970
#
#
#
# Elastic Compliance Matrix: (Units=1/GPa)
#
#
# Indices 1 2 3 4 5 6 
#
# 1 0.023205 -0.005516 -0.009377 0.000000 -0.005624 0.000000
# 2 -0.005516 0.019154 -0.004655 0.000000 -0.003570 0.000000
# 3 -0.009377 -0.004655 0.022151 0.000000 -0.012025 0.000000
# 4 0.000000 0.000000 0.000000 0.048948 0.000000 -0.014324
# 5 -0.005624 -0.003570 -0.012025 0.000000 0.058031 0.000000
# 6 0.000000 0.000000 0.000000 -0.014324 0.000000 0.045013
#
#
# Mechanical properties :
#
#
# Convention : Reuss Voigt Hill
#
# Bulk Modulus (GPa) = 39.34949 57.68150 48.51550
# Shear Modulus (GPa) = 18.93439 22.04866 20.49153
#
# Velocity S-wave (km/s) = 3.48032 3.75565 3.62060
# Velocity P-wave (km/s) = 6.42827 7.46366 6.96523
#
# Compressibility (1/GPa) = 0.02541329
#
# Stress axis : x y z
#
# Youngs Moduli (GPa) = 43.09429 52.20808 45.14447
#
# Poissons Ratio (x) = 0.28797 0.42333
# Poissons Ratio (y) = 0.23770 0.21017
# Poissons Ratio (z) = 0.40411 0.24305
#
# Static dielectric constant tensor:
#      x y z
#    x 3.040600 0.000000 0.578660 
#    y 0.000000 3.059310 0.000000 
#    z 0.578660 0.000000 3.249430 
# 
# 
# High freq. dielectric constant tensor:
#      x y z
#    x 1.564040 0.000000 0.047460 
#    y 0.000000 1.604310 0.000000 
#    z 0.047460 0.000000 1.581260 
# 
# From -- ./inp_files/247885.got.cif
#   From: 2010.06.25/outbox.cif.g09.slc.cpg/sg12_124_cif.got.tgz:247885.got - 2010.06.28 00:19:55.
