data_PCOD8078182
_publ_section_title
;
Structure prediction by ZEFSAII (Michael W. Deem and Ramdas Pophale) SiO2 
 PCOD8078182
Probable space group: C 2/M
;
_chemical_formula_sum "Si O2"
_cell_formula_units_Z 64
_cell_length_a 22.493726
_cell_length_b 12.959303
_cell_length_c 17.405687
_cell_angle_alpha 90.000000
_cell_angle_beta 56.294024
_cell_angle_gamma 90.000000
_cell_volume 4220.883634
_symmetry_space_group_name_H-M "C 2/M"
_symmetry_group_IT_number 12
_symmetry_cell_setting 'monoclinic'
loop_
_space_group_symop_operation_xyz
x,y,z
-x,y,-z
-x,-y,-z
x,-y,z
1/2+x,1/2+y,z
1/2-x,1/2+y,-z
1/2-x,1/2-y,-z
1/2+x,1/2-y,z
loop_
_atom_site_type_symbol
_atom_site_label
_atom_site_fract_x
_atom_site_fract_y
_atom_site_fract_z
Si Si1 0.174810 0.884880 0.067282
Si Si2 0.544102 0.304710 0.080220
Si Si3 0.207478 0.315711 0.124501
Si Si4 0.595965 0.621096 0.883123
Si Si5 0.493834 0.122471 0.627462
Si Si6 0.254060 0.120932 0.741461
Si Si7 0.891093 0.378231 0.567943
Si Si8 0.058887 0.381777 0.172872
O O1 0.091485 0.866985 0.107893
O O2 0.203867 0.806432 0.110260
O O3 0.185347 0.000000 0.091514
O O4 0.218915 0.866264 0.957422
O O5 0.465270 0.354803 0.135295
O O6 0.538759 0.185977 0.112488
O O7 0.580657 0.311198 0.969999
O O8 0.206817 0.325302 0.215672
O O9 0.143256 0.375843 0.129213
O O10 0.594770 0.500000 0.906105
O O11 0.671649 0.655499 0.790832
O O12 0.570983 0.160469 0.538144
O O13 0.432848 0.164988 0.613157
O O14 0.482402 0.164192 0.722319
O O15 0.488489 0.000000 0.637065
O O16 0.306178 0.151342 0.632221
O O17 0.256486 0.000000 0.754639
O O18 0.900754 0.500000 0.562871
O O19 0.038009 0.500000 0.169560
#
# Coordination Sequence:
#
# PCOD8078182 Si02
#       8
#     8   8   8   8   8   8   8   8
#     4  10  18  28  40  56  83 113 139 169 203 240
#     4  10  19  29  43  60  78 109 149 175 198 243
#     4  10  18  25  39  62  85 109 136 164 202 256
#     4  10  19  31  45  58  79 109 141 182 213 233
#     4   8  13  22  37  59  87 112 131 156 199 254
#     4  10  16  25  42  62  86 109 132 166 212 250
#     4   8  13  21  37  61  86 110 132 158 199 253
#     4  10  18  28  42  61  89 115 132 163 209 253
#
# _framework density 15.162701
#
# number of rings (size 3 to 8) (size 9 to 14) (size 15 to 20)
#    0.000    2.500    2.500    3.375    0.000    0.000 
#    0.000    1.250    0.000    1.500    0.000    0.000 
#    0.000   10.000    0.000    0.000    0.000    0.000 
#
# Total GULP energy -396498.322180 kJ/mol
# GULP energy per Si atom -12390.572568 kJ/mol
# Density = 1.512819 g / cm^3
# Si number density = 15.162701 Si / 1000 Ang^3
#
#
#
# Elastic Constant Matrix: (Units=GPa)
#
#
# Indices 1 2 3 4 5 6 
#
# 1 68.1163 17.8446 39.0528 0.0000 -20.0156 0.0000
# 2 17.8446 60.8545 28.7155 0.0000 -1.8413 0.0000
# 3 39.0528 28.7155 88.1924 0.0000 -22.8094 0.0000
# 4 0.0000 0.0000 0.0000 11.6135 0.0000 1.9152
# 5 -20.0156 -1.8413 -22.8094 0.0000 24.5632 0.0000
# 6 0.0000 0.0000 0.0000 1.9152 0.0000 13.6301
#
#
#
# Elastic Compliance Matrix: (Units=1/GPa)
#
#
# Indices 1 2 3 4 5 6 
#
# 1 0.022604 -0.003672 -0.005424 0.000000 0.013107 0.000000
# 2 -0.003672 0.020664 -0.007206 0.000000 -0.008135 0.000000
# 3 -0.005424 -0.007206 0.019483 0.000000 0.013132 0.000000
# 4 0.000000 0.000000 0.000000 0.088150 0.000000 -0.012386
# 5 0.013107 -0.008135 0.013132 0.000000 0.062977 0.000000
# 6 0.000000 0.000000 0.000000 -0.012386 0.000000 0.075107
#
#
# Mechanical properties :
#
#
# Convention : Reuss Voigt Hill
#
# Bulk Modulus (GPa) = 33.17077 43.15434 38.16255
# Shear Modulus (GPa) = 15.07672 18.73138 16.90405
#
# Velocity S-wave (km/s) = 3.15672 3.51858 3.34255
# Velocity P-wave (km/s) = 5.93385 6.71043 6.33405
#
# Compressibility (1/GPa) = 0.03014703
#
# Stress axis : x y z
#
# Youngs Moduli (GPa) = 44.24025 48.39424 51.32641
#
# Poissons Ratio (x) = 0.17772 0.27837
# Poissons Ratio (y) = 0.16247 0.36985
# Poissons Ratio (z) = 0.23994 0.34872
#
# Static dielectric constant tensor:
#      x y z
#    x 2.884260 0.000000 -0.304730 
#    y 0.000000 2.662610 0.000000 
#    z -0.304730 0.000000 3.123510 
# 
# 
# High freq. dielectric constant tensor:
#      x y z
#    x 1.565330 0.000000 -0.026070 
#    y 0.000000 1.542180 0.000000 
#    z -0.026070 0.000000 1.573240 
# 
# From -- ./inp_files/288824.got.cif
#   From: 2010.06.25/outbox.cif.g09.slc.cpg/sg12_145_cif.got.tgz:288824.got - 2010.06.28 00:19:55.
