data_PCOD8078466
_publ_section_title
;
Structure prediction by ZEFSAII (Michael W. Deem and Ramdas Pophale) SiO2 
 PCOD8078466
Probable space group: C 2/M
;
_chemical_formula_sum "Si O2"
_cell_formula_units_Z 64
_cell_length_a 24.602504
_cell_length_b 9.038530
_cell_length_c 20.426295
_cell_angle_alpha 90.000000
_cell_angle_beta 63.869400
_cell_angle_gamma 90.000000
_cell_volume 4077.957379
_symmetry_space_group_name_H-M "C 2/M"
_symmetry_group_IT_number 12
_symmetry_cell_setting 'monoclinic'
loop_
_space_group_symop_operation_xyz
x,y,z
-x,y,-z
-x,-y,-z
x,-y,z
1/2+x,1/2+y,z
1/2-x,1/2+y,-z
1/2-x,1/2-y,-z
1/2+x,1/2-y,z
loop_
_atom_site_type_symbol
_atom_site_label
_atom_site_fract_x
_atom_site_fract_y
_atom_site_fract_z
Si Si1 0.390541 0.167763 0.315357
Si Si2 0.423374 0.170280 0.159552
Si Si3 0.570069 0.835845 0.983489
Si Si4 0.546175 0.326960 0.118729
Si Si5 0.585995 0.674478 0.493430
Si Si6 0.039701 0.824984 0.382150
Si Si7 0.814332 0.825117 0.461072
Si Si8 0.032448 0.327799 0.255035
O O1 0.376691 0.189388 0.244767
O O2 0.347852 0.279817 0.376602
O O3 0.460759 0.205202 0.290900
O O4 0.375764 0.000000 0.345060
O O5 0.393128 0.200647 0.103928
O O6 0.477099 0.286096 0.140912
O O7 0.449074 0.000000 0.147904
O O8 0.586241 0.000000 0.999510
O O9 0.500000 0.824554 0.000000
O O10 0.586185 0.726117 0.034764
O O11 0.554578 0.500000 0.123299
O O12 0.566170 0.247049 0.175306
O O13 0.581838 0.500000 0.500843
O O14 0.526777 0.735125 0.562312
O O15 0.585531 0.719506 0.417007
O O16 0.646236 0.732076 0.497725
O O17 0.060735 0.741980 0.305659
O O18 0.039881 0.000000 0.369261
O O19 0.750000 0.750000 0.500000
O O20 0.806046 0.000000 0.466083
O O21 0.046873 0.500000 0.245822
#
# Coordination Sequence:
#
# PCOD8078466 Si02
#       8
#     8   8   8   8   8   8   8   8
#     4   9  17  29  42  58  79 104 138 175 208 249
#     4   8  15  26  38  51  72 101 132 168 210 247
#     4   8  13  23  35  47  69 102 133 164 203 244
#     4  10  17  22  32  51  75 104 138 171 199 237
#     4   8  16  29  46  64  83 105 134 170 214 257
#     4   9  15  28  47  64  81 105 136 173 210 253
#     4  11  21  33  47  63  83 111 141 174 214 254
#     4  10  18  27  39  58  83 109 136 171 211 249
#
# _framework density 15.694132
#
# number of rings (size 3 to 8) (size 9 to 14) (size 15 to 20)
#    0.000    2.875    1.250    4.125    0.000    4.250 
#    0.000    2.500    0.000    0.000    0.000    0.000 
#    0.000    0.000    0.000    1.125    0.000   12.625 
#
# Total GULP energy -396482.356005 kJ/mol
# GULP energy per Si atom -12390.073625 kJ/mol
# Density = 1.565841 g / cm^3
# Si number density = 15.694132 Si / 1000 Ang^3
#
#
#
# Elastic Constant Matrix: (Units=GPa)
#
#
# Indices 1 2 3 4 5 6 
#
# 1 61.7259 28.5648 48.3448 0.0000 15.8534 -0.0003
# 2 28.5648 79.8737 50.1082 0.0002 17.4200 0.0003
# 3 48.3448 50.1082 117.0473 0.0000 40.6974 0.0003
# 4 0.0000 0.0002 0.0000 28.3668 0.0000 6.4979
# 5 15.8534 17.4200 40.6974 0.0000 25.4712 -0.0001
# 6 -0.0003 0.0003 0.0003 6.4979 -0.0001 13.3749
#
#
#
# Elastic Compliance Matrix: (Units=1/GPa)
#
#
# Indices 1 2 3 4 5 6 
#
# 1 0.024620 -0.003316 -0.009472 0.000000 0.002079 0.000001
# 2 -0.003316 0.017563 -0.006053 0.000000 -0.000276 0.000000
# 3 -0.009472 -0.006053 0.026005 0.000000 -0.031515 -0.000001
# 4 0.000000 0.000000 0.000000 0.039667 0.000000 -0.019271
# 5 0.002079 -0.000276 -0.031515 0.000000 0.088509 0.000001
# 6 0.000001 0.000000 -0.000001 -0.019271 0.000001 0.084129
#
#
# Mechanical properties :
#
#
# Convention : Reuss Voigt Hill
#
# Bulk Modulus (GPa) = 32.78065 56.96471 44.87268
# Shear Modulus (GPa) = 15.22787 22.21786 18.72286
#
# Velocity S-wave (km/s) = 3.11833 3.76663 3.45771
# Velocity P-wave (km/s) = 5.82219 7.43588 6.67795
#
# Compressibility (1/GPa) = 0.03050580
#
# Stress axis : x y z
#
# Youngs Moduli (GPa) = 40.61736 56.93687 38.45384
#
# Poissons Ratio (x) = 0.18879 0.36424
# Poissons Ratio (y) = 0.13468 0.23278
# Poissons Ratio (z) = 0.38474 0.34466
#
# Static dielectric constant tensor:
#      x y z
#    x 2.716160 0.000000 0.455060 
#    y 0.000000 2.866100 0.000000 
#    z 0.455060 0.000000 3.374860 
# 
# 
# High freq. dielectric constant tensor:
#      x y z
#    x 1.533960 0.000000 0.045520 
#    y 0.000000 1.597170 0.000000 
#    z 0.045520 0.000000 1.608440 
# 
# From -- ./inp_files/323624.got.cif
#   From: 2010.06.25/outbox.cif.g09.slc.cpg/sg12_162_cif.got.tgz:323624.got - 2010.06.28 00:19:55.
