data_PCOD8078844
_publ_section_title
;
Structure prediction by ZEFSAII (Michael W. Deem and Ramdas Pophale) SiO2 
 PCOD8078844
Probable space group: C 2/M
;
_chemical_formula_sum "Si O2"
_cell_formula_units_Z 64
_cell_length_a 19.391395
_cell_length_b 8.976098
_cell_length_c 24.032930
_cell_angle_alpha 90.000000
_cell_angle_beta 59.155127
_cell_angle_gamma 90.000000
_cell_volume 3591.478810
_symmetry_space_group_name_H-M "C 2/M"
_symmetry_group_IT_number 12
_symmetry_cell_setting 'monoclinic'
loop_
_space_group_symop_operation_xyz
x,y,z
-x,y,-z
-x,-y,-z
x,-y,z
1/2+x,1/2+y,z
1/2-x,1/2+y,-z
1/2-x,1/2-y,-z
1/2+x,1/2-y,z
loop_
_atom_site_type_symbol
_atom_site_label
_atom_site_fract_x
_atom_site_fract_y
_atom_site_fract_z
Si Si1 0.557056 0.176966 0.426296
Si Si2 0.680567 0.827737 0.893456
Si Si3 0.193175 0.326989 0.227108
Si Si4 0.783881 0.823825 0.665795
Si Si5 0.068179 0.168076 0.018222
Si Si6 0.513944 0.828156 0.323929
Si Si7 0.454691 0.827391 0.142248
Si Si8 0.892723 0.323405 0.285337
O O1 0.500000 0.226756 0.500000
O O2 0.644028 0.251100 0.399342
O O3 0.518994 0.239304 0.384286
O O4 0.569525 0.000000 0.418712
O O5 0.762521 0.741372 0.844721
O O6 0.619416 0.802053 0.868318
O O7 0.699910 0.000000 0.895227
O O8 0.644977 0.760764 0.965187
O O9 0.215444 0.500000 0.225090
O O10 0.221007 0.240061 0.270313
O O11 0.098091 0.305623 0.257221
O O12 0.700815 0.781245 0.669150
O O13 0.795990 0.000000 0.664657
O O14 0.033520 0.239977 0.088917
O O15 0.095438 0.000000 0.019385
O O16 0.000000 0.174192 0.000000
O O17 0.443057 0.753804 0.316341
O O18 0.492993 0.000000 0.339917
O O19 0.428930 0.761112 0.212608
O O20 0.478087 0.000000 0.135473
O O21 0.902974 0.500000 0.279319
#
# Coordination Sequence:
#
# PCOD8078844 Si02
#       8
#     8   8   8   8   8   8   8   8
#     4   9  18  34  54  75 100 131 163 194 233 280
#     4  10  17  27  44  67  93 123 161 204 246 287
#     4  10  18  29  47  71  97 127 162 201 244 286
#     4  10  18  30  50  75  98 124 160 200 238 280
#     4   9  17  27  39  62  93 124 157 198 246 292
#     4   8  16  30  49  71  95 127 162 195 233 284
#     4   9  16  27  43  64  90 122 157 195 242 290
#     4   9  16  29  48  71  97 125 161 198 238 287
#
# _framework density 17.819956999999999
#
# number of rings (size 3 to 8) (size 9 to 14) (size 15 to 20)
#    0.000    2.750    1.250    2.250    0.000    2.250 
#    0.000    0.625    0.000   12.000    0.000    0.000 
#    0.000    0.000    0.000    0.000    0.000    0.000 
#
# Total GULP energy -396700.674182 kJ/mol
# GULP energy per Si atom -12396.896068 kJ/mol
# Density = 1.777940 g / cm^3
# Si number density = 17.819957 Si / 1000 Ang^3
#
#
#
# Elastic Constant Matrix: (Units=GPa)
#
#
# Indices 1 2 3 4 5 6 
#
# 1 101.1873 33.8655 58.9686 0.0000 -8.2452 0.0000
# 2 33.8655 67.7461 46.7117 -0.0001 -12.3825 0.0002
# 3 58.9686 46.7117 144.0940 0.0000 -24.2648 -0.0001
# 4 0.0000 -0.0001 0.0000 27.6300 0.0001 -8.6313
# 5 -8.2452 -12.3825 -24.2648 0.0001 22.2493 0.0000
# 6 0.0000 0.0002 -0.0001 -8.6313 0.0000 16.3156
#
#
#
# Elastic Compliance Matrix: (Units=1/GPa)
#
#
# Indices 1 2 3 4 5 6 
#
# 1 0.013806 -0.004068 -0.004717 0.000000 -0.002292 0.000000
# 2 -0.004068 0.020624 -0.004094 0.000000 0.005506 0.000000
# 3 -0.004717 -0.004094 0.011661 0.000000 0.008691 0.000000
# 4 0.000000 0.000000 0.000000 0.043358 0.000000 0.022937
# 5 -0.002292 0.005506 0.008691 0.000000 0.056638 0.000000
# 6 0.000000 0.000000 0.000000 0.022937 0.000000 0.073425
#
#
# Mechanical properties :
#
#
# Convention : Reuss Voigt Hill
#
# Bulk Modulus (GPa) = 49.18160 65.79099 57.48630
# Shear Modulus (GPa) = 19.83747 24.80441 22.32094
#
# Velocity S-wave (km/s) = 3.34011 3.73493 3.54302
# Velocity P-wave (km/s) = 6.52182 7.45651 7.00477
#
# Compressibility (1/GPa) = 0.02033281
#
# Stress axis : x y z
#
# Youngs Moduli (GPa) = 72.42968 48.48836 85.75549
#
# Poissons Ratio (x) = 0.19725 0.40454
# Poissons Ratio (y) = 0.29464 0.35106
# Poissons Ratio (z) = 0.34168 0.19850
#
# Static dielectric constant tensor:
#      x y z
#    x 3.257650 0.000000 -0.080100 
#    y 0.000000 3.151490 0.000000 
#    z -0.080100 0.000000 3.385400 
# 
# 
# High freq. dielectric constant tensor:
#      x y z
#    x 1.662290 0.000000 -0.017560 
#    y 0.000000 1.672510 0.000000 
#    z -0.017560 0.000000 1.686440 
# 
# From -- ./inp_files/345518.got.cif
#   From: 2010.06.25/outbox.cif.g09.slc.cpg/sg12_173_cif.got.tgz:345518.got - 2010.06.28 00:19:55.
