data_PCOD8078340
_publ_section_title
;
Structure prediction by ZEFSAII (Michael W. Deem and Ramdas Pophale) SiO2 
 PCOD8078340
Probable space group: C 2/M
;
_chemical_formula_sum "Si O2"
_cell_formula_units_Z 48
_cell_length_a 5.160998
_cell_length_b 17.516747
_cell_length_c 28.999291
_cell_angle_alpha 90.000000
_cell_angle_beta 84.822983
_cell_angle_gamma 90.000000
_cell_volume 2610.954334
_symmetry_space_group_name_H-M "C 2/M"
_symmetry_group_IT_number 12
_symmetry_cell_setting 'monoclinic'
loop_
_space_group_symop_operation_xyz
x,y,z
-x,y,-z
-x,-y,-z
x,-y,z
1/2+x,1/2+y,z
1/2-x,1/2+y,-z
1/2-x,1/2-y,-z
1/2+x,1/2-y,z
loop_
_atom_site_type_symbol
_atom_site_label
_atom_site_fract_x
_atom_site_fract_y
_atom_site_fract_z
Si Si1 0.454923 0.298332 0.452686
Si Si2 0.380907 0.410821 0.732018
Si Si3 0.648534 0.910785 0.209997
Si Si4 0.706837 0.200276 0.126084
Si Si5 0.239512 0.335242 0.020560
Si Si6 0.410507 0.300844 0.647491
O O1 0.500000 0.346540 0.500000
O O2 0.653475 0.226042 0.454108
O O3 0.536047 0.340030 0.403676
O O4 0.395373 0.500000 0.720614
O O5 0.599288 0.386606 0.765145
O O6 0.432272 0.367724 0.683851
O O7 0.103487 0.386674 0.756846
O O8 0.645925 0.867458 0.161904
O O9 0.645988 0.000000 0.198463
O O10 0.486407 0.264529 0.133303
O O11 0.707669 0.163560 0.075644
O O12 0.500000 0.378791 0.000000
O O13 0.250000 0.250000 0.000000
O O14 0.000000 0.378807 0.000000
O O15 0.124480 0.264159 0.653987
#
# Coordination Sequence:
#
# PCOD8078340 Si02
#       6
#     8   8   8   8   8   8
#     4   8  14  25  41  66  98 128 157 194 248 300
#     4  10  21  38  53  68  98 140 169 197 251 309
#     4  10  23  39  52  70 103 137 164 200 250 301
#     4  12  21  32  55  83  98 127 166 205 241 282
#     4  10  16  30  48  73 102 126 150 192 237 289
#     4  10  19  30  51  77 100 127 166 217 250 279
#
# _framework density 18.384084000000001
#
# number of rings (size 3 to 8) (size 9 to 14) (size 15 to 20)
#    0.000    2.000    3.333    2.000    0.000    4.000 
#    0.000    0.000    0.000    1.500    0.000    0.000 
#    0.000   17.333    0.000    0.000    0.000    2.667 
#
# Total GULP energy -297444.791675 kJ/mol
# GULP energy per Si atom -12393.532986 kJ/mol
# Density = 1.834224 g / cm^3
# Si number density = 18.384084 Si / 1000 Ang^3
#
#
#
# Elastic Constant Matrix: (Units=GPa)
#
#
# Indices 1 2 3 4 5 6 
#
# 1 104.4800 15.3873 15.0979 0.0000 -1.1888 0.0000
# 2 15.3873 30.5120 54.9279 0.0000 -2.5273 0.0000
# 3 15.0979 54.9279 164.6279 0.0000 -4.7267 0.0000
# 4 0.0000 0.0000 0.0000 2.5471 0.0000 -0.7009
# 5 -1.1888 -2.5273 -4.7267 0.0000 27.2815 0.0000
# 6 0.0000 0.0000 0.0000 -0.7009 0.0000 5.4230
#
#
#
# Elastic Compliance Matrix: (Units=1/GPa)
#
#
# Indices 1 2 3 4 5 6 
#
# 1 0.010604 -0.009008 0.002033 0.000000 -0.000020 0.000000
# 2 -0.009008 0.089943 -0.029100 0.000000 0.002898 0.000000
# 3 0.002033 -0.029100 0.015600 0.000000 0.000096 0.000000
# 4 0.000000 0.000000 0.000000 0.407089 0.000000 0.052614
# 5 -0.000020 0.002898 0.000096 0.000000 0.036939 0.000000
# 6 0.000000 0.000000 0.000000 0.052614 0.000000 0.191199
#
#
# Mechanical properties :
#
#
# Convention : Reuss Voigt Hill
#
# Bulk Modulus (GPa) = 22.72973 52.27181 37.50077
# Shear Modulus (GPa) = 5.96523 21.33077 13.64800
#
# Velocity S-wave (km/s) = 1.80328 3.40999 2.72762
# Velocity P-wave (km/s) = 4.08979 6.63317 5.51023
#
# Compressibility (1/GPa) = 0.04399525
#
# Stress axis : x y z
#
# Youngs Moduli (GPa) = 94.30439 11.11814 64.10315
#
# Poissons Ratio (x) = 0.10016 -0.13029
# Poissons Ratio (y) = 0.84952 1.86541
# Poissons Ratio (z) = -0.19168 0.32354
#
# Static dielectric constant tensor:
#      x y z
#    x 3.337520 0.000000 0.011630 
#    y 0.000000 2.736690 0.000000 
#    z 0.011630 0.000000 3.707040 
# 
# 
# High freq. dielectric constant tensor:
#      x y z
#    x 1.747250 0.000000 0.000210 
#    y 0.000000 1.639250 0.000000 
#    z 0.000210 0.000000 1.737390 
# 
# From -- ./inp_files/331013.got.cif
#   From: 2010.06.25/outbox.cif.g09.slc.cpg/sg12_166_cif.got.tgz:331013.got - 2010.06.28 00:19:55.
