data_PCOD8078423
_publ_section_title
;
Structure prediction by ZEFSAII (Michael W. Deem and Ramdas Pophale) SiO2 
 PCOD8078423
Probable space group: C 2/M
;
_chemical_formula_sum "Si O2"
_cell_formula_units_Z 44
_cell_length_a 25.384718
_cell_length_b 9.052291
_cell_length_c 12.612987
_cell_angle_alpha 90.000000
_cell_angle_beta 129.974077
_cell_angle_gamma 90.000000
_cell_volume 2221.097206
_symmetry_space_group_name_H-M "C 2/M"
_symmetry_group_IT_number 12
_symmetry_cell_setting 'monoclinic'
loop_
_space_group_symop_operation_xyz
x,y,z
-x,y,-z
-x,-y,-z
x,-y,z
1/2+x,1/2+y,z
1/2-x,1/2+y,-z
1/2-x,1/2-y,-z
1/2+x,1/2-y,z
loop_
_atom_site_type_symbol
_atom_site_label
_atom_site_fract_x
_atom_site_fract_y
_atom_site_fract_z
Si Si1 0.863158 0.662861 0.905830
Si Si2 0.500000 0.257034 0.000000
Si Si3 0.556665 0.337828 0.287193
Si Si4 0.954851 0.174005 0.339320
Si Si5 0.682369 0.824467 0.373734
Si Si6 0.824705 0.321770 0.083425
O O1 0.832792 0.500000 0.879242
O O2 0.826105 0.738619 0.757190
O O3 0.943410 0.652575 0.980794
O O4 0.848980 0.740659 0.999570
O O5 0.471351 0.358038 0.868473
O O6 0.581723 0.500000 0.357840
O O7 0.498427 0.279212 0.291962
O O8 0.619940 0.224084 0.369379
O O9 0.881369 0.260116 0.240742
O O10 0.000000 0.221269 0.500000
O O11 0.938655 0.000000 0.320867
O O12 0.750000 0.750000 0.500000
O O13 0.686727 0.000000 0.382053
O O14 0.821625 0.500000 0.089376
O O15 0.750000 0.250000 0.000000
#
# Coordination Sequence:
#
# PCOD8078423 Si02
#       6
#     8   4   8   8   8   8
#     4   9  19  34  57  84 113 148 188 236 293 353
#     4  10  16  32  58  88 111 140 183 238 289 338
#     4  10  20  34  56  86 115 146 186 238 294 347
#     4  10  22  41  62  86 120 163 204 247 302 366
#     4  10  21  37  56  82 116 153 191 236 296 359
#     4  11  23  41  62  88 120 160 207 256 304 359
#
# _framework density 19.810030000000001
#
# number of rings (size 3 to 8) (size 9 to 14) (size 15 to 20)
#    0.000    2.000    1.818    1.636    0.000    3.273 
#    0.000   10.000    0.000    0.000    0.000    0.000 
#    0.000    0.000    0.000    0.000    0.000    0.000 
#
# Total GULP energy -272592.099557 kJ/mol
# GULP energy per Si atom -12390.549980 kJ/mol
# Density = 1.976494 g / cm^3
# Si number density = 19.810030 Si / 1000 Ang^3
#
#
#
# Elastic Constant Matrix: (Units=GPa)
#
#
# Indices 1 2 3 4 5 6 
#
# 1 131.6017 37.5115 75.8621 0.0000 8.4357 0.0000
# 2 37.5115 81.2354 47.8008 0.0000 12.0872 0.0000
# 3 75.8621 47.8008 128.9656 0.0000 22.1370 0.0000
# 4 0.0000 0.0000 0.0000 27.5860 0.0000 6.6661
# 5 8.4357 12.0872 22.1370 0.0000 34.6904 0.0000
# 6 0.0000 0.0000 0.0000 6.6661 0.0000 31.1661
#
#
#
# Elastic Compliance Matrix: (Units=1/GPa)
#
#
# Indices 1 2 3 4 5 6 
#
# 1 0.011804 -0.001867 -0.006592 0.000000 0.001987 0.000000
# 2 -0.001867 0.016161 -0.004495 0.000000 -0.002308 0.000000
# 3 -0.006592 -0.004495 0.014323 0.000000 -0.005971 0.000000
# 4 0.000000 0.000000 0.000000 0.038226 0.000000 -0.008176
# 5 0.001987 -0.002308 -0.005971 0.000000 0.032957 0.000000
# 6 0.000000 0.000000 0.000000 -0.008176 0.000000 0.033835
#
#
# Mechanical properties :
#
#
# Convention : Reuss Voigt Hill
#
# Bulk Modulus (GPa) = 61.05926 73.79461 67.42694
# Shear Modulus (GPa) = 27.98380 30.73038 29.35709
#
# Velocity S-wave (km/s) = 3.76254 3.94287 3.85376
# Velocity P-wave (km/s) = 7.05443 7.61973 7.34252
#
# Compressibility (1/GPa) = 0.01637753
#
# Stress axis : x y z
#
# Youngs Moduli (GPa) = 84.71905 61.87844 69.81782
#
# Poissons Ratio (x) = 0.11553 0.46027
# Poissons Ratio (y) = 0.15817 0.31386
# Poissons Ratio (z) = 0.55850 0.27817
#
# Static dielectric constant tensor:
#      x y z
#    x 3.673640 0.000000 -0.098400 
#    y 0.000000 3.410320 0.000000 
#    z -0.098400 0.000000 3.762880 
# 
# 
# High freq. dielectric constant tensor:
#      x y z
#    x 1.773170 0.000000 -0.000180 
#    y 0.000000 1.756170 0.000000 
#    z -0.000180 0.000000 1.775570 
# 
# From -- ./inp_files/181305.got.cif
#   From: 2010.06.25/outbox.cif.g09.slc.cpg/sg12_91_cif.got.tgz:181305.got - 2010.06.28 00:19:55.
