data_PCOD8078112
_publ_section_title
;
Structure prediction by ZEFSAII (Michael W. Deem and Ramdas Pophale) SiO2 
 PCOD8078112
Probable space group: C 2/M
;
_chemical_formula_sum "Si O2"
_cell_formula_units_Z 52
_cell_length_a 26.999557
_cell_length_b 11.583448
_cell_length_c 19.452762
_cell_angle_alpha 90.000000
_cell_angle_beta 153.158340
_cell_angle_gamma 90.000000
_cell_volume 2747.001752
_symmetry_space_group_name_H-M "C 2/M"
_symmetry_group_IT_number 12
_symmetry_cell_setting 'monoclinic'
loop_
_space_group_symop_operation_xyz
x,y,z
-x,y,-z
-x,-y,-z
x,-y,z
1/2+x,1/2+y,z
1/2-x,1/2+y,-z
1/2-x,1/2-y,-z
1/2+x,1/2-y,z
loop_
_atom_site_type_symbol
_atom_site_label
_atom_site_fract_x
_atom_site_fract_y
_atom_site_fract_z
Si Si1 0.068182 0.637575 0.948357
Si Si2 0.603776 0.500000 0.249922
Si Si3 0.795702 0.239384 0.768397
Si Si4 0.669599 0.746705 0.337357
Si Si5 0.107993 0.000000 0.086076
Si Si6 0.213797 0.218857 0.030773
Si Si7 0.872690 0.636734 0.343120
Si Si8 0.596782 0.500000 0.917114
O O1 0.052436 0.500000 0.927239
O O2 0.949865 0.699787 0.794294
O O3 0.125201 0.676788 0.089705
O O4 0.147864 0.675969 0.984742
O O5 0.676202 0.610940 0.335271
O O6 0.524846 0.500000 0.084569
O O7 0.533948 0.500000 0.234371
O O8 0.783800 0.297682 0.677599
O O9 0.679212 0.215724 0.660518
O O10 0.852210 0.115737 0.828325
O O11 0.750000 0.750000 0.500000
O O12 0.154752 0.000000 0.064873
O O13 0.318647 0.176388 0.204302
O O14 0.250000 0.250000 0.000000
O O15 0.130132 0.113340 0.917338
O O16 0.856750 0.500000 0.337354
O O17 0.000000 0.668916 0.500000
#
# Coordination Sequence:
#
# PCOD8078112 Si02
#       8
#     8   4   8   8   4   8   8   4
#     4  11  24  42  60  85 118 161 205 237 286 359
#     4  10  19  40  62  82 116 151 195 254 292 337
#     4  11  20  39  63  85 115 157 204 240 286 349
#     4  12  26  38  58  89 125 154 190 248 304 353
#     4  10  15  36  68  88 104 137 216 251 278 328
#     4  11  21  37  62  88 121 153 195 244 290 350
#     4  10  19  36  60  91 121 145 188 252 301 337
#     4  10  16  38  61  86 112 147 204 243 290 328
#
# _framework density 18.929728999999998
#
# number of rings (size 3 to 8) (size 9 to 14) (size 15 to 20)
#    0.462    0.769    7.692    0.923    2.154    3.077 
#    0.000    1.538    0.000    7.385    0.000    0.000 
#    0.000    0.000    0.000    0.000    0.000    0.000 
#
# Total GULP energy -322141.970068 kJ/mol
# GULP energy per Si atom -12390.075772 kJ/mol
# Density = 1.888664 g / cm^3
# Si number density = 18.929729 Si / 1000 Ang^3
#
#
#
# Elastic Constant Matrix: (Units=GPa)
#
#
# Indices 1 2 3 4 5 6 
#
# 1 146.2118 27.2192 62.1662 0.0000 -17.6218 0.0000
# 2 27.2192 101.1408 25.2864 0.0000 -5.7776 0.0000
# 3 62.1662 25.2864 112.1889 0.0000 -3.5108 0.0000
# 4 0.0000 0.0000 0.0000 14.9499 0.0000 -0.4031
# 5 -17.6218 -5.7776 -3.5108 0.0000 34.4146 0.0000
# 6 0.0000 0.0000 0.0000 -0.4031 0.0000 15.8533
#
#
#
# Elastic Compliance Matrix: (Units=1/GPa)
#
#
# Indices 1 2 3 4 5 6 
#
# 1 0.009677 -0.001117 -0.004977 0.000000 0.004260 0.000000
# 2 -0.001117 0.010687 -0.001757 0.000000 0.001043 0.000000
# 3 -0.004977 -0.001757 0.012017 0.000000 -0.001618 0.000000
# 4 0.000000 0.000000 0.000000 0.066936 0.000000 0.001702
# 5 0.004260 0.001043 -0.001618 0.000000 0.031249 0.000000
# 6 0.000000 0.000000 0.000000 0.001702 0.000000 0.063122
#
#
# Mechanical properties :
#
#
# Convention : Reuss Voigt Hill
#
# Bulk Modulus (GPa) = 59.95807 65.43168 62.69487
# Shear Modulus (GPa) = 23.26140 29.36820 26.31480
#
# Velocity S-wave (km/s) = 3.50927 3.94310 3.73249
# Velocity P-wave (km/s) = 6.93994 7.44119 7.19493
#
# Compressibility (1/GPa) = 0.01667832
#
# Stress axis : x y z
#
# Youngs Moduli (GPa) = 103.33945 93.57485 83.21572
#
# Poissons Ratio (x) = 0.10448 0.41418
# Poissons Ratio (y) = 0.11538 0.14624
# Poissons Ratio (z) = 0.51434 0.16444
#
# Static dielectric constant tensor:
#      x y z
#    x -0.448160 0.000000 1.956760 
#    y 0.000000 3.433350 0.000000 
#    z 1.956760 0.000000 2.435600 
# 
# 
# High freq. dielectric constant tensor:
#      x y z
#    x 1.753370 0.000000 0.003560 
#    y 0.000000 1.726830 0.000000 
#    z 0.003560 0.000000 1.717440 
# 
# From -- ./inp_files/293191.got.cif
#   From: 2010.06.25/outbox.cif.g09.slc.cpg/sg12_147_cif.got.tgz:293191.got - 2010.06.28 00:19:55.
