data_PCOD8078521
_publ_section_title
;
Structure prediction by ZEFSAII (Michael W. Deem and Ramdas Pophale) SiO2 
 PCOD8078521
Probable space group: C 2/M
;
_chemical_formula_sum "Si O2"
_cell_formula_units_Z 48
_cell_length_a 33.344067
_cell_length_b 8.886206
_cell_length_c 10.362911
_cell_angle_alpha 90.000000
_cell_angle_beta 116.229641
_cell_angle_gamma 90.000000
_cell_volume 2754.378421
_symmetry_space_group_name_H-M "C 2/M"
_symmetry_group_IT_number 12
_symmetry_cell_setting 'monoclinic'
loop_
_space_group_symop_operation_xyz
x,y,z
-x,y,-z
-x,-y,-z
x,-y,z
1/2+x,1/2+y,z
1/2-x,1/2+y,-z
1/2-x,1/2-y,-z
1/2+x,1/2-y,z
loop_
_atom_site_type_symbol
_atom_site_label
_atom_site_fract_x
_atom_site_fract_y
_atom_site_fract_z
Si Si1 0.637792 0.327423 0.359806
Si Si2 0.634952 0.324340 0.056674
Si Si3 0.453827 0.822112 0.074947
Si Si4 0.731100 0.676866 0.100437
Si Si5 0.039826 0.824501 0.194848
Si Si6 0.278019 0.177270 0.425879
O O1 0.652694 0.500000 0.398185
O O2 0.642129 0.280604 0.216293
O O3 0.586708 0.303289 0.337584
O O4 0.670062 0.223735 0.490919
O O5 0.623912 0.500000 0.029995
O O6 0.593423 0.233839 0.933768
O O7 0.679180 0.278157 0.041739
O O8 0.455325 0.765853 0.930806
O O9 0.457442 0.000000 0.090494
O O10 0.496971 0.746582 0.209217
O O11 0.736408 0.500000 0.096063
O O12 0.758940 0.736397 0.262811
O O13 0.750000 0.750000 0.000000
O O14 0.031688 0.000000 0.154030
O O15 0.250000 0.250000 0.500000
O O16 0.272702 0.000000 0.429446
#
# Coordination Sequence:
#
# PCOD8078521 Si02
#       6
#     8   8   8   8   8   8
#     4   9  17  30  48  71  98 129 167 205 245 298
#     4   9  17  32  48  65  97 133 165 201 248 301
#     4  10  17  24  39  66  95 123 164 205 242 292
#     4  10  22  38  53  73 101 134 172 212 251 300
#     4   9  16  27  41  60  94 133 161 194 247 299
#     4  11  21  34  52  75 102 132 169 209 253 301
#
# _framework density 17.426798000000002
#
# number of rings (size 3 to 8) (size 9 to 14) (size 15 to 20)
#    0.000    2.333    1.667    4.500    0.000    5.333 
#    0.000    0.000    0.000    0.000    0.000    1.167 
#    0.000    9.333    0.000    0.000    0.000    0.000 
#
# Total GULP energy -297463.328347 kJ/mol
# GULP energy per Si atom -12394.305348 kJ/mol
# Density = 1.738713 g / cm^3
# Si number density = 17.426798 Si / 1000 Ang^3
#
#
#
# Elastic Constant Matrix: (Units=GPa)
#
#
# Indices 1 2 3 4 5 6 
#
# 1 140.7927 54.7348 67.0387 0.0000 27.3594 0.0000
# 2 54.7348 73.8219 38.5605 0.0000 13.5623 0.0000
# 3 67.0387 38.5605 76.2850 0.0000 11.1314 0.0000
# 4 0.0000 0.0000 0.0000 22.8244 0.0000 6.9589
# 5 27.3594 13.5623 11.1314 0.0000 27.8891 0.0000
# 6 0.0000 0.0000 0.0000 6.9589 0.0000 32.7641
#
#
#
# Elastic Compliance Matrix: (Units=1/GPa)
#
#
# Indices 1 2 3 4 5 6 
#
# 1 0.015275 -0.004570 -0.009823 0.000000 -0.008842 0.000000
# 2 -0.004570 0.020623 -0.005946 0.000000 -0.003173 0.000000
# 3 -0.009823 -0.005946 0.024336 0.000000 0.002815 0.000000
# 4 0.000000 0.000000 0.000000 0.046846 0.000000 -0.009950
# 5 -0.008842 -0.003173 0.002815 0.000000 0.044949 0.000000
# 6 0.000000 0.000000 0.000000 -0.009950 0.000000 0.032635
#
#
# Mechanical properties :
#
#
# Convention : Reuss Voigt Hill
#
# Bulk Modulus (GPa) = 51.13429 67.95194 59.54312
# Shear Modulus (GPa) = 21.56479 25.39989 23.48234
#
# Velocity S-wave (km/s) = 3.52156 3.82189 3.67479
# Velocity P-wave (km/s) = 6.77799 7.65201 7.22822
#
# Compressibility (1/GPa) = 0.01955635
#
# Stress axis : x y z
#
# Youngs Moduli (GPa) = 65.46793 48.48978 41.09164
#
# Poissons Ratio (x) = 0.22159 0.40365
# Poissons Ratio (y) = 0.29918 0.24431
# Poissons Ratio (z) = 0.64310 0.28830
#
# Static dielectric constant tensor:
#      x y z
#    x 4.231110 0.000000 0.719640 
#    y 0.000000 3.237400 0.000000 
#    z 0.719640 0.000000 3.190490 
# 
# 
# High freq. dielectric constant tensor:
#      x y z
#    x 1.679480 0.000000 0.046470 
#    y 0.000000 1.675830 0.000000 
#    z 0.046470 0.000000 1.622620 
# 
# From -- ./inp_files/185949.got.cif
#   From: 2010.06.25/outbox.cif.g09.slc.cpg/sg12_93_cif.got.tgz:185949.got - 2010.06.28 00:19:55.
