data_PCOD8078072
_publ_section_title
;
Structure prediction by ZEFSAII (Michael W. Deem and Ramdas Pophale) SiO2 
 PCOD8078072
Probable space group: C 2/M
;
_chemical_formula_sum "Si O2"
_cell_formula_units_Z 56
_cell_length_a 18.723975
_cell_length_b 13.433926
_cell_length_c 31.024066
_cell_angle_alpha 90.000000
_cell_angle_beta 152.219595
_cell_angle_gamma 90.000000
_cell_volume 3637.173324
_symmetry_space_group_name_H-M "C 2/M"
_symmetry_group_IT_number 12
_symmetry_cell_setting 'monoclinic'
loop_
_space_group_symop_operation_xyz
x,y,z
-x,y,-z
-x,-y,-z
x,-y,z
1/2+x,1/2+y,z
1/2-x,1/2+y,-z
1/2-x,1/2-y,-z
1/2+x,1/2-y,z
loop_
_atom_site_type_symbol
_atom_site_label
_atom_site_fract_x
_atom_site_fract_y
_atom_site_fract_z
Si Si1 0.176183 0.612663 0.516408
Si Si2 0.819115 0.119321 0.283310
Si Si3 0.535465 0.111206 0.085504
Si Si4 0.503814 0.302685 0.300997
Si Si5 0.257847 0.112762 0.888412
Si Si6 0.169805 0.612717 0.411813
Si Si7 0.524444 0.303192 0.463420
O O1 0.127169 0.500000 0.500688
O O2 0.341163 0.636059 0.625183
O O3 0.187304 0.633508 0.471652
O O4 0.049748 0.685403 0.469520
O O5 0.642737 0.158055 0.180553
O O6 0.932373 0.159804 0.307318
O O7 0.870939 0.162158 0.356835
O O8 0.825288 0.000000 0.285658
O O9 0.643341 0.109145 0.101759
O O10 0.491529 0.000000 0.075568
O O11 0.369514 0.161290 0.985446
O O12 0.391923 0.319967 0.200203
O O13 0.539993 0.185087 0.323142
O O14 0.206741 0.000000 0.872918
O O15 0.118219 0.500000 0.374812
O O16 0.333186 0.632805 0.477516
O O17 0.500000 0.327153 0.500000
#
# Coordination Sequence:
#
# PCOD8078072 Si02
#       7
#     8   8   8   8   8   8   8
#     4  10  18  31  47  63  84 112 148 182 210 249
#     4  10  16  25  41  61  87 117 142 169 213 258
#     4   7  12  20  32  55  86 111 133 165 211 259
#     4  10  15  25  43  65  83 109 142 174 216 256
#     4   8  12  19  34  60  87 107 130 170 218 254
#     4  10  19  31  45  62  85 115 150 180 208 249
#     4  11  21  31  43  64  91 116 145 175 209 256
#
# _framework density 15.396572000000001
#
# number of rings (size 3 to 8) (size 9 to 14) (size 15 to 20)
#    0.000    2.571    2.857    4.286    0.000    1.429 
#    0.000    0.000    0.000    0.000    0.000   13.000 
#    0.000    2.286    0.000    0.000    0.000    0.000 
#
# Total GULP energy -346872.761401 kJ/mol
# GULP energy per Si atom -12388.312907 kJ/mol
# Density = 1.536153 g / cm^3
# Si number density = 15.396572 Si / 1000 Ang^3
#
#
#
# Elastic Constant Matrix: (Units=GPa)
#
#
# Indices 1 2 3 4 5 6 
#
# 1 31.9911 2.6970 25.8738 0.0002 -12.1026 0.0000
# 2 2.6970 76.0255 54.4215 0.0002 -2.8311 0.0000
# 3 25.8738 54.4215 165.0638 0.0005 -13.4555 -0.0001
# 4 0.0002 0.0002 0.0005 22.0455 0.0000 -0.5567
# 5 -12.1026 -2.8311 -13.4555 0.0000 12.0196 0.0000
# 6 0.0000 0.0000 -0.0001 -0.5567 0.0000 4.2106
#
#
#
# Elastic Compliance Matrix: (Units=1/GPa)
#
#
# Indices 1 2 3 4 5 6 
#
# 1 0.054163 0.004087 -0.005847 0.000000 0.048954 0.000000
# 2 0.004087 0.017595 -0.006348 0.000000 0.001154 0.000000
# 3 -0.005847 -0.006348 0.009316 0.000000 0.003046 0.000000
# 4 0.000000 0.000000 0.000000 0.045513 -0.000001 0.006017
# 5 0.048954 0.001154 0.003046 -0.000001 0.136172 0.000001
# 6 0.000000 0.000000 0.000000 0.006017 0.000001 0.238292
#
#
# Mechanical properties :
#
#
# Convention : Reuss Voigt Hill
#
# Bulk Modulus (GPa) = 15.41803 48.78500 32.10152
# Shear Modulus (GPa) = 9.27841 20.32770 14.80305
#
# Velocity S-wave (km/s) = 2.45751 3.63750 3.10409
# Velocity P-wave (km/s) = 4.25302 7.02825 5.80881
#
# Compressibility (1/GPa) = 0.06485911
#
# Stress axis : x y z
#
# Youngs Moduli (GPa) = 18.46271 56.83298 107.34240
#
# Poissons Ratio (x) = -0.23228 0.62763
# Poissons Ratio (y) = -0.07546 0.68139
# Poissons Ratio (z) = 0.10795 0.36077
#
# Static dielectric constant tensor:
#      x y z
#    x 2.485830 0.000000 -0.100450 
#    y 0.000000 2.893240 0.000000 
#    z -0.100450 0.000000 3.528080 
# 
# 
# High freq. dielectric constant tensor:
#      x y z
#    x 1.535740 0.000000 -0.005490 
#    y 0.000000 1.572250 0.000000 
#    z -0.005490 0.000000 1.601620 
# 
# From -- ./inp_files/246183.got.cif
#   From: 2010.06.25/outbox.cif.g09.slc.cpg/sg12_124_cif.got.tgz:246183.got - 2010.06.28 00:19:55.
