data_PCOD8078453
_publ_section_title
;
Structure prediction by ZEFSAII (Michael W. Deem and Ramdas Pophale) SiO2 
 PCOD8078453
Probable space group: C 2/M
;
_chemical_formula_sum "Si O2"
_cell_formula_units_Z 32
_cell_length_a 11.614365
_cell_length_b 17.869938
_cell_length_c 15.291277
_cell_angle_alpha 90.000000
_cell_angle_beta 29.467930
_cell_angle_gamma 90.000000
_cell_volume 1561.245360
_symmetry_space_group_name_H-M "C 2/M"
_symmetry_group_IT_number 12
_symmetry_cell_setting 'monoclinic'
loop_
_space_group_symop_operation_xyz
x,y,z
-x,y,-z
-x,-y,-z
x,-y,z
1/2+x,1/2+y,z
1/2-x,1/2+y,-z
1/2-x,1/2-y,-z
1/2+x,1/2-y,z
loop_
_atom_site_type_symbol
_atom_site_label
_atom_site_fract_x
_atom_site_fract_y
_atom_site_fract_z
Si Si1 0.255785 0.654603 0.196620
Si Si2 0.000000 0.758217 0.500000
Si Si3 0.168996 0.376497 0.637662
Si Si4 0.242437 0.000000 0.710133
Si Si5 0.930056 0.000000 0.359709
Si Si6 0.243136 0.500000 0.712944
O O1 0.299026 0.571292 0.202453
O O2 0.169423 0.706968 0.331265
O O3 0.074869 0.654990 0.235887
O O4 0.500000 0.687491 0.000000
O O5 0.841101 0.808103 0.542061
O O6 0.287605 0.426820 0.484114
O O7 0.117489 0.424837 0.760575
O O8 0.500000 0.000000 0.500000
O O9 0.053426 0.000000 0.755956
O O10 0.199549 0.000000 0.220617
O O11 0.500000 0.500000 0.500000
#
# Coordination Sequence:
#
# PCOD8078453 Si02
#       6
#     8   4   8   4   4   4
#     4  12  26  40  61  93 125 158 202 254 304 360
#     4  12  22  40  64  90 120 172 200 238 310 358
#     4  10  18  37  64  90 122 158 204 249 296 360
#     4  12  20  39  64  90 115 160 207 247 307 361
#     4  10  16  34  65  97 111 150 216 247 292 363
#     4   8  15  31  61  95 109 153 210 246 297 347
#
# _framework density 20.496458000000001
#
# number of rings (size 3 to 8) (size 9 to 14) (size 15 to 20)
#    0.000    1.500    7.500    1.875    0.000    1.000 
#    0.000    0.000    0.000    1.500    0.000    0.875 
#    0.000    0.000    0.000    0.000    0.000    0.000 
#
# Total GULP energy -198401.863439 kJ/mol
# GULP energy per Si atom -12400.116465 kJ/mol
# Density = 2.044981 g / cm^3
# Si number density = 20.496458 Si / 1000 Ang^3
#
#
#
# Elastic Constant Matrix: (Units=GPa)
#
#
# Indices 1 2 3 4 5 6 
#
# 1 138.1502 30.5865 34.9373 -0.0831 -11.0795 -0.0114
# 2 30.5865 116.4681 44.7294 -0.1063 -2.1320 -0.0229
# 3 34.9373 44.7294 99.2122 -0.6249 -6.9198 -0.1019
# 4 -0.0831 -0.1063 -0.6249 14.7146 0.3233 -12.2271
# 5 -11.0795 -2.1320 -6.9198 0.3233 21.4644 0.0196
# 6 -0.0114 -0.0229 -0.1019 -12.2271 0.0196 12.6042
#
#
#
# Elastic Compliance Matrix: (Units=1/GPa)
#
#
# Indices 1 2 3 4 5 6 
#
# 1 0.008344 -0.001320 -0.002104 -0.000739 0.003509 -0.000734
# 2 -0.001320 0.010599 -0.004390 -0.000555 -0.001035 -0.000555
# 3 -0.002104 -0.004390 0.013003 0.002716 0.002626 0.002725
# 4 -0.000739 -0.000555 0.002716 0.351721 -0.005171 0.341227
# 5 0.003509 -0.001035 0.002626 -0.005171 0.049227 -0.005071
# 6 -0.000734 -0.000555 0.002725 0.341227 -0.005071 0.410385
#
#
# Mechanical properties :
#
#
# Convention : Reuss Voigt Hill
#
# Bulk Modulus (GPa) = 61.28191 63.81519 62.54855
# Shear Modulus (GPa) = 5.78473 25.99513 15.88993
#
# Velocity S-wave (km/s) = 1.68179 3.56515 2.78736
# Velocity P-wave (km/s) = 5.80818 6.93897 6.39861
#
# Compressibility (1/GPa) = 0.01631803
#
# Stress axis : x y z
#
# Youngs Moduli (GPa) = 119.85116 94.34792 76.90785
#
# Poissons Ratio (x) = 0.12452 0.16180
# Poissons Ratio (y) = 0.15818 0.33763
# Poissons Ratio (z) = 0.25215 0.41419
#
# Static dielectric constant tensor:
#      x y z
#    x 4.540330 -0.000370 -0.004700 
#    y -0.000370 3.820270 0.000280 
#    z -0.004700 0.000280 3.333930 
# 
# 
# High freq. dielectric constant tensor:
#      x y z
#    x 1.827150 -0.000010 -0.008660 
#    y -0.000010 1.803500 0.000030 
#    z -0.008660 0.000030 1.753150 
# 
# From -- ./inp_files/131524.got.cif
#   From: 2010.06.25/outbox.cif.g09.slc.cpg/sg12_66_cif.got.tgz:131524.got - 2010.06.28 00:19:55.
