data_PCOD8078122
_publ_section_title
;
Structure prediction by ZEFSAII (Michael W. Deem and Ramdas Pophale) SiO2 
 PCOD8078122
Probable space group: C 2/M
;
_chemical_formula_sum "Si O2"
_cell_formula_units_Z 52
_cell_length_a 5.350385
_cell_length_b 14.830292
_cell_length_c 32.401379
_cell_angle_alpha 90.000000
_cell_angle_beta 114.428023
_cell_angle_gamma 90.000000
_cell_volume 2340.827217
_symmetry_space_group_name_H-M "C 2/M"
_symmetry_group_IT_number 12
_symmetry_cell_setting 'monoclinic'
loop_
_space_group_symop_operation_xyz
x,y,z
-x,y,-z
-x,-y,-z
x,-y,z
1/2+x,1/2+y,z
1/2-x,1/2+y,-z
1/2-x,1/2-y,-z
1/2+x,1/2-y,z
loop_
_atom_site_type_symbol
_atom_site_label
_atom_site_fract_x
_atom_site_fract_y
_atom_site_fract_z
Si Si1 0.069472 0.652517 0.627373
Si Si2 0.317650 0.105715 0.527011
Si Si3 0.000000 0.692506 0.000000
Si Si4 0.844080 0.351624 0.136902
Si Si5 0.379111 0.194042 0.762491
Si Si6 0.750668 0.146722 0.099590
Si Si7 0.837316 0.145098 0.335404
O O1 0.933430 0.662272 0.573277
O O2 0.127394 0.749520 0.651345
O O3 0.859744 0.599559 0.643595
O O4 0.360181 0.599568 0.643431
O O5 0.500000 0.133033 0.500000
O O6 0.000000 0.133025 0.500000
O O7 0.346815 0.000000 0.538652
O O8 0.113802 0.633586 0.045474
O O9 0.250000 0.750000 0.000000
O O10 0.796990 0.249948 0.117209
O O11 0.548693 0.401165 0.118539
O O12 0.974642 0.360256 0.191059
O O13 0.049521 0.401151 0.118942
O O14 0.595170 0.267238 0.760841
O O15 0.300291 0.130145 0.718753
#
# Coordination Sequence:
#
# PCOD8078122 Si02
#       7
#     8   8   4   8   8   8   8
#     4  10  18  32  48  65  90 112 133 164 194 238
#     4  10  21  37  54  70  87 111 142 170 196 226
#     4  12  16  20  28  32  50  72 102 150 196 240
#     4  10  16  22  31  42  59  81 113 148 183 232
#     4  12  16  25  38  53  75 100 124 153 187 242
#     4  10  16  22  26  39  52  76 111 149 195 236
#     4  10  19  30  43  67  90 112 134 157 204 252
#
# _framework density 22.214369999999999
#
# number of rings (size 3 to 8) (size 9 to 14) (size 15 to 20)
#    0.000    1.538    9.231    0.923    0.000    0.000 
#    0.000    9.231    0.000    0.000    0.000    0.000 
#    0.000    0.000    0.000    0.000    0.000    0.000 
#
# Total GULP energy -322167.698142 kJ/mol
# GULP energy per Si atom -12391.065313 kJ/mol
# Density = 2.216381 g / cm^3
# Si number density = 22.214370 Si / 1000 Ang^3
#
#
#
# Elastic Constant Matrix: (Units=GPa)
#
#
# Indices 1 2 3 4 5 6 
#
# 1 261.1819 -4.0883 85.8881 0.0000 -1.4828 0.0001
# 2 -4.0883 16.5767 2.7362 0.0000 -0.0430 0.0000
# 3 85.8881 2.7362 236.3299 0.0000 -0.8615 0.0001
# 4 0.0000 0.0000 0.0000 -7.7363 0.0000 0.0042
# 5 -1.4828 -0.0430 -0.8615 0.0000 48.7530 0.0001
# 6 0.0001 0.0000 0.0001 0.0042 0.0001 -7.0937
#
#
#
# Elastic Compliance Matrix: (Units=1/GPa)
#
#
# Indices 1 2 3 4 5 6 
#
# 1 0.004379 0.001345 -0.001607 0.000000 0.000106 0.000000
# 2 0.001345 0.060854 -0.001193 0.000000 0.000073 0.000000
# 3 -0.001607 -0.001193 0.004829 0.000000 0.000035 0.000000
# 4 0.000000 0.000000 0.000000 -0.129262 0.000000 -0.000076
# 5 0.000106 0.000073 0.000035 0.000000 0.020515 0.000000
# 6 0.000000 0.000000 0.000000 -0.000076 0.000000 -0.140969
#
#
# Mechanical properties :
#
#
# Convention : Reuss Voigt Hill
#
# Bulk Modulus (GPa) = 14.89124 75.90671 45.39898
# Shear Modulus (GPa) = -32.39188 35.42144 1.51478
#
# Velocity S-wave (km/s) = -3.82272 3.99749 0.82666
# Velocity P-wave (km/s) = 3.57299 7.45324 4.62518
#
# Compressibility (1/GPa) = 0.06715358
#
# Stress axis : x y z
#
# Youngs Moduli (GPa) = 228.37806 16.43265 207.07505
#
# Poissons Ratio (x) = -0.02211 0.33267
# Poissons Ratio (y) = -0.30725 0.24709
# Poissons Ratio (z) = 0.36689 0.01961
#
# Static dielectric constant tensor:
#      x y z
#    x 6.306360 0.000000 0.001030 
#    y 0.000000 2.912270 0.000000 
#    z 0.001030 0.000000 4.328200 
# 
# 
# High freq. dielectric constant tensor:
#      x y z
#    x 1.923600 0.000000 -0.000100 
#    y 0.000000 1.775070 0.000000 
#    z -0.000100 0.000000 1.891770 
# 
# From -- ./inp_files/371664.got.cif
#   From: 2010.06.25/outbox.cif.g09.slc.cpg/sg12_186_cif.got.tgz:371664.got - 2010.06.28 00:19:55.
