data_PCOD8078964
_publ_section_title
;
Structure prediction by ZEFSAII (Michael W. Deem and Ramdas Pophale) SiO2 
 PCOD8078964
Probable space group: C 2/M
;
_chemical_formula_sum "Si O2"
_cell_formula_units_Z 56
_cell_length_a 28.468804
_cell_length_b 9.050733
_cell_length_c 17.505107
_cell_angle_alpha 90.000000
_cell_angle_beta 52.541817
_cell_angle_gamma 90.000000
_cell_volume 3580.366079
_symmetry_space_group_name_H-M "C 2/M"
_symmetry_group_IT_number 12
_symmetry_cell_setting 'monoclinic'
loop_
_space_group_symop_operation_xyz
x,y,z
-x,y,-z
-x,-y,-z
x,-y,z
1/2+x,1/2+y,z
1/2-x,1/2+y,-z
1/2-x,1/2-y,-z
1/2+x,1/2-y,z
loop_
_atom_site_type_symbol
_atom_site_label
_atom_site_fract_x
_atom_site_fract_y
_atom_site_fract_z
Si Si1 0.025628 0.325316 0.647998
Si Si2 0.098805 0.828324 0.019396
Si Si3 0.467203 0.672593 0.204688
Si Si4 0.567087 0.833374 0.906254
Si Si5 0.405303 0.326824 0.721690
Si Si6 0.565397 0.336877 0.469235
Si Si7 0.687527 0.672900 0.062416
O O1 0.025118 0.500000 0.655852
O O2 0.051579 0.254649 0.699310
O O3 0.069082 0.278636 0.535145
O O4 0.959598 0.267666 0.699642
O O5 0.149446 0.774919 0.027261
O O6 0.036101 0.795571 0.120988
O O7 0.104039 0.000000 0.993826
O O8 0.107336 0.737814 0.932718
O O9 0.453817 0.500000 0.225486
O O10 0.426799 0.738369 0.176901
O O11 0.588662 0.000000 0.869463
O O12 0.500000 0.829681 0.000000
O O13 0.421400 0.500000 0.717778
O O14 0.392931 0.291939 0.644054
O O15 0.346794 0.283055 0.826125
O O16 0.500000 0.340246 0.500000
O O17 0.582496 0.500000 0.483034
O O18 0.698272 0.500000 0.048095
O O19 0.750000 0.750000 0.000000
#
# Coordination Sequence:
#
# PCOD8078964 Si02
#       7
#     8   8   8   8   8   8   8
#     4  11  19  25  39  64  91 113 141 180 220 257
#     4   9  17  30  45  58  80 115 150 180 214 259
#     4  10  17  28  44  60  84 118 151 174 207 260
#     4   9  17  27  40  62  87 108 139 179 219 258
#     4   9  17  32  46  57  80 116 151 181 215 262
#     4   8  15  27  43  58  78 112 148 175 209 260
#     4  10  20  33  47  65  86 113 153 192 223 256
#
# _framework density 15.640858
#
# number of rings (size 3 to 8) (size 9 to 14) (size 15 to 20)
#    0.000    2.571    1.429    3.000    0.000    6.000 
#    0.000    0.000    0.000    0.000    0.000    0.000 
#    0.000    1.143    0.000    3.429    0.000    5.286 
#
# Total GULP energy -347118.936582 kJ/mol
# GULP energy per Si atom -12397.104878 kJ/mol
# Density = 1.560526 g / cm^3
# Si number density = 15.640858 Si / 1000 Ang^3
#
#
#
# Elastic Constant Matrix: (Units=GPa)
#
#
# Indices 1 2 3 4 5 6 
#
# 1 72.4037 40.6440 56.6414 0.0000 18.6267 0.0000
# 2 40.6440 98.6133 57.8933 0.0003 22.7128 0.0002
# 3 56.6414 57.8933 112.1857 0.0001 27.2907 -0.0001
# 4 0.0000 0.0003 0.0001 18.8923 0.0000 4.4950
# 5 18.6267 22.7128 27.2907 0.0000 25.4265 0.0000
# 6 0.0000 0.0002 -0.0001 4.4950 0.0000 22.8530
#
#
#
# Elastic Compliance Matrix: (Units=1/GPa)
#
#
# Indices 1 2 3 4 5 6 
#
# 1 0.024241 -0.003438 -0.009327 0.000000 -0.004676 0.000000
# 2 -0.003438 0.015926 -0.004919 0.000000 -0.006428 0.000000
# 3 -0.009327 -0.004919 0.018176 0.000000 -0.008282 0.000000
# 4 0.000000 0.000000 0.000000 0.055530 0.000000 -0.010922
# 5 -0.004676 -0.006428 -0.008282 0.000000 0.057385 0.000000
# 6 0.000000 0.000000 0.000000 -0.010922 0.000000 0.045906
#
#
# Mechanical properties :
#
#
# Convention : Reuss Voigt Hill
#
# Bulk Modulus (GPa) = 43.52719 65.95113 54.73916
# Shear Modulus (GPa) = 19.21652 21.96930 20.59291
#
# Velocity S-wave (km/s) = 3.50896 3.75188 3.63245
# Velocity P-wave (km/s) = 6.65632 7.81193 7.25716
#
# Compressibility (1/GPa) = 0.02297414
#
# Stress axis : x y z
#
# Youngs Moduli (GPa) = 41.25196 62.79028 55.01716
#
# Poissons Ratio (x) = 0.21590 0.51316
# Poissons Ratio (y) = 0.14184 0.27063
# Poissons Ratio (z) = 0.38477 0.30886
#
# Static dielectric constant tensor:
#      x y z
#    x 2.709150 0.000000 0.377620 
#    y 0.000000 3.001130 0.000000 
#    z 0.377620 0.000000 3.182280 
# 
# 
# High freq. dielectric constant tensor:
#      x y z
#    x 1.554960 0.000000 0.041980 
#    y 0.000000 1.604760 0.000000 
#    z 0.041980 0.000000 1.589260 
# 
# From -- ./inp_files/291488.got.cif
#   From: 2010.06.25/outbox.cif.g09.slc.cpg/sg12_146_cif.got.tgz:291488.got - 2010.06.28 00:19:55.
