data_PCOD8078167
_publ_section_title
;
Structure prediction by ZEFSAII (Michael W. Deem and Ramdas Pophale) SiO2 
 PCOD8078167
Probable space group: C 2/M
;
_chemical_formula_sum "Si O2"
_cell_formula_units_Z 56
_cell_length_a 29.105620
_cell_length_b 9.578792
_cell_length_c 13.762974
_cell_angle_alpha 90.000000
_cell_angle_beta 105.748852
_cell_angle_gamma 90.000000
_cell_volume 3693.030386
_symmetry_space_group_name_H-M "C 2/M"
_symmetry_group_IT_number 12
_symmetry_cell_setting 'monoclinic'
loop_
_space_group_symop_operation_xyz
x,y,z
-x,y,-z
-x,-y,-z
x,-y,z
1/2+x,1/2+y,z
1/2-x,1/2+y,-z
1/2-x,1/2-y,-z
1/2+x,1/2-y,z
loop_
_atom_site_type_symbol
_atom_site_label
_atom_site_fract_x
_atom_site_fract_y
_atom_site_fract_z
Si Si1 0.442860 0.334912 0.359375
Si Si2 0.305605 0.840943 0.431255
Si Si3 0.739026 0.164226 0.898422
Si Si4 0.141865 0.656686 0.737964
Si Si5 0.856532 0.163774 0.619893
Si Si6 0.715401 0.663126 0.267912
Si Si7 0.951992 0.164576 0.584641
O O1 0.435522 0.500000 0.343748
O O2 0.403002 0.259140 0.270991
O O3 0.495388 0.284194 0.352575
O O4 0.438162 0.284577 0.468656
O O5 0.342620 0.832384 0.364463
O O6 0.322368 0.742625 0.526838
O O7 0.254854 0.778868 0.365907
O O8 0.301606 0.000000 0.467257
O O9 0.685384 0.199436 0.833208
O O10 0.776459 0.219237 0.836857
O O11 0.745221 0.000000 0.922895
O O12 0.750000 0.250000 0.000000
O O13 0.125256 0.500000 0.753022
O O14 0.837516 0.194774 0.719017
O O15 0.911474 0.214594 0.638362
O O16 0.852434 0.000000 0.594040
O O17 0.726765 0.500000 0.267274
O O18 0.954936 0.000000 0.581114
#
# Coordination Sequence:
#
# PCOD8078167 Si02
#       7
#     8   8   8   8   8   8   8
#     4   9  15  26  40  57  83 113 145 177 202 231
#     4   9  16  26  37  55  85 114 136 165 200 234
#     4   9  18  33  48  64  85 106 132 172 216 254
#     4   9  17  28  42  60  85 112 137 169 210 248
#     4  10  16  25  41  59  80 113 146 165 193 240
#     4   8  16  28  42  59  82 109 135 166 206 247
#     4   8  15  24  37  58  85 113 142 177 204 224
#
# _framework density 15.163698
#
# number of rings (size 3 to 8) (size 9 to 14) (size 15 to 20)
#    0.000    3.143    1.429    3.000    0.000    0.571 
#    0.000    5.000    0.000    0.000    0.000    1.000 
#    0.000    8.000    0.000    0.000    0.000    0.000 
#
# Total GULP energy -346899.007037 kJ/mol
# GULP energy per Si atom -12389.250251 kJ/mol
# Density = 1.512919 g / cm^3
# Si number density = 15.163698 Si / 1000 Ang^3
#
#
#
# Elastic Constant Matrix: (Units=GPa)
#
#
# Indices 1 2 3 4 5 6 
#
# 1 132.1321 38.7712 55.9556 0.0000 -8.4493 0.0000
# 2 38.7712 40.5144 34.6450 0.0000 1.3974 0.0000
# 3 55.9556 34.6450 81.2750 0.0000 -3.8910 0.0000
# 4 0.0000 0.0000 0.0000 21.3357 0.0000 4.9889
# 5 -8.4493 1.3974 -3.8910 0.0000 15.3407 0.0000
# 6 0.0000 0.0000 0.0000 4.9889 0.0000 19.2929
#
#
#
# Elastic Compliance Matrix: (Units=1/GPa)
#
#
# Indices 1 2 3 4 5 6 
#
# 1 0.012328 -0.007889 -0.004823 0.000000 0.006285 0.000000
# 2 -0.007889 0.044842 -0.014260 0.000000 -0.012047 0.000000
# 3 -0.004823 -0.014260 0.021904 0.000000 0.004198 0.000000
# 4 0.000000 0.000000 0.000000 0.049886 0.000000 -0.012900
# 5 0.006285 -0.012047 0.004198 0.000000 0.070810 0.000000
# 6 0.000000 0.000000 0.000000 -0.012900 0.000000 0.055168
#
#
# Mechanical properties :
#
#
# Convention : Reuss Voigt Hill
#
# Bulk Modulus (GPa) = 39.79524 56.96278 48.37901
# Shear Modulus (GPa) = 15.75996 19.49718 17.62857
#
# Velocity S-wave (km/s) = 3.22735 3.58967 3.41332
# Velocity P-wave (km/s) = 6.33943 7.40457 6.89261
#
# Compressibility (1/GPa) = 0.02512863
#
# Stress axis : x y z
#
# Youngs Moduli (GPa) = 81.11830 22.30048 45.65349
#
# Poissons Ratio (x) = 0.17594 0.22020
# Poissons Ratio (y) = 0.63998 0.65101
# Poissons Ratio (z) = 0.39126 0.31800
#
# Static dielectric constant tensor:
#      x y z
#    x 3.245830 0.000000 -0.099280 
#    y 0.000000 2.689040 0.000000 
#    z -0.099280 0.000000 2.611910 
# 
# 
# High freq. dielectric constant tensor:
#      x y z
#    x 1.588910 0.000000 -0.004580 
#    y 0.000000 1.558430 0.000000 
#    z -0.004580 0.000000 1.536910 
# 
# From -- ./inp_files/181951.got.cif
#   From: 2010.06.25/outbox.cif.g09.slc.cpg/sg12_91_cif.got.tgz:181951.got - 2010.06.28 00:19:55.
