data_PCOD8078580
_publ_section_title
;
Structure prediction by ZEFSAII (Michael W. Deem and Ramdas Pophale) SiO2 
 PCOD8078580
Probable space group: C 2/M
;
_chemical_formula_sum "Si O2"
_cell_formula_units_Z 64
_cell_length_a 27.867296
_cell_length_b 26.407844
_cell_length_c 12.900240
_cell_angle_alpha 90.000000
_cell_angle_beta 28.289615
_cell_angle_gamma 90.000000
_cell_volume 4499.233118
_symmetry_space_group_name_H-M "C 2/M"
_symmetry_group_IT_number 12
_symmetry_cell_setting 'monoclinic'
loop_
_space_group_symop_operation_xyz
x,y,z
-x,y,-z
-x,-y,-z
x,-y,z
1/2+x,1/2+y,z
1/2-x,1/2+y,-z
1/2-x,1/2-y,-z
1/2+x,1/2-y,z
loop_
_atom_site_type_symbol
_atom_site_label
_atom_site_fract_x
_atom_site_fract_y
_atom_site_fract_z
Si Si1 0.110796 0.057196 0.238787
Si Si2 0.906575 0.220190 0.742431
Si Si3 0.813863 0.140634 0.770062
Si Si4 0.982980 0.127534 0.727273
Si Si5 0.018311 0.714008 0.846698
Si Si6 0.447385 0.326941 0.999928
Si Si7 0.755768 0.274643 0.602058
Si Si8 0.661462 0.795374 0.953924
O O1 0.195176 0.091824 0.136553
O O2 0.089105 0.080425 0.166931
O O3 0.000000 0.061445 0.500000
O O4 0.151734 0.000000 0.155179
O O5 0.834506 0.192053 0.796307
O O6 0.943545 0.178845 0.752406
O O7 0.000000 0.244226 0.500000
O O8 0.854401 0.263293 0.910504
O O9 0.714541 0.152379 0.890240
O O10 0.900625 0.123064 0.525838
O O11 0.972623 0.130513 0.869107
O O12 0.132779 0.701739 0.593682
O O13 0.000000 0.695218 0.000000
O O14 0.000991 0.773901 0.871209
O O15 0.941665 0.688415 0.909853
O O16 0.326499 0.319543 0.239140
O O17 0.500000 0.350146 0.000000
O O18 0.750000 0.250000 0.500000
O O19 0.733295 0.234469 0.736182
#
# Coordination Sequence:
#
# PCOD8078580 Si02
#       8
#     8   8   8   8   8   8   8   8
#     4   8  15  29  47  64  83 105 136 179 222 266
#     4   9  17  28  37  56  85 117 147 172 205 243
#     4   9  18  26  43  60  85 110 144 176 215 254
#     4   9  15  28  41  63  83 111 143 177 209 255
#     4  10  18  28  37  56  81 115 152 177 203 234
#     4  10  17  25  41  58  83 111 152 176 198 247
#     4  11  18  27  40  56  81 122 154 179 201 236
#     4  11  19  27  41  55  86 120 142 181 206 243
#
# _framework density 14.224646999999999
#
# number of rings (size 3 to 8) (size 9 to 14) (size 15 to 20)
#    0.000    2.375    6.250    2.625    1.750    0.000 
#    0.000    0.000    0.000    0.375    0.000    0.000 
#    0.000    5.000    0.000    0.000    0.000    0.125 
#
# Total GULP energy -396439.159561 kJ/mol
# GULP energy per Si atom -12388.723736 kJ/mol
# Density = 1.419227 g / cm^3
# Si number density = 14.224647 Si / 1000 Ang^3
#
#
#
# Elastic Constant Matrix: (Units=GPa)
#
#
# Indices 1 2 3 4 5 6 
#
# 1 113.5775 42.6656 44.4548 0.0003 -3.8334 -0.0003
# 2 42.6656 58.2256 25.0104 0.0001 -0.3730 -0.0001
# 3 44.4548 25.0104 71.3041 0.0002 -3.2690 -0.0002
# 4 0.0003 0.0001 0.0002 8.5415 -0.0003 -1.5564
# 5 -3.8334 -0.3730 -3.2690 -0.0003 29.8723 0.0003
# 6 -0.0003 -0.0001 -0.0002 -1.5564 0.0003 10.6445
#
#
#
# Elastic Compliance Matrix: (Units=1/GPa)
#
#
# Indices 1 2 3 4 5 6 
#
# 1 0.014109 -0.007741 -0.006033 0.000000 0.001054 0.000000
# 2 -0.007741 0.024476 -0.003810 0.000000 -0.001105 0.000000
# 3 -0.006033 -0.003810 0.019181 0.000000 0.001277 0.000000
# 4 0.000000 0.000000 0.000000 0.120280 0.000001 0.017587
# 5 0.001054 -0.001105 0.001277 0.000001 0.033737 -0.000001
# 6 0.000000 0.000000 0.000000 0.017587 -0.000001 0.096517
#
#
# Mechanical properties :
#
#
# Convention : Reuss Voigt Hill
#
# Bulk Modulus (GPa) = 44.25000 51.92986 48.08993
# Shear Modulus (GPa) = 14.24500 18.54340 16.39420
#
# Velocity S-wave (km/s) = 3.16797 3.61447 3.39856
# Velocity P-wave (km/s) = 6.67510 7.34884 7.02005
#
# Compressibility (1/GPa) = 0.02259887
#
# Stress axis : x y z
#
# Youngs Moduli (GPa) = 70.87545 40.85632 52.13567
#
# Poissons Ratio (x) = 0.31625 0.31454
# Poissons Ratio (y) = 0.54861 0.19863
# Poissons Ratio (z) = 0.42760 0.15566
#
# Static dielectric constant tensor:
#      x y z
#    x 3.501000 0.000000 -0.135470 
#    y 0.000000 2.417890 0.000000 
#    z -0.135470 0.000000 3.002950 
# 
# 
# High freq. dielectric constant tensor:
#      x y z
#    x 1.557820 0.000000 0.006360 
#    y 0.000000 1.479420 0.000000 
#    z 0.006360 0.000000 1.533020 
# 
# From -- ./inp_files/185068.got.cif
#   From: 2010.06.25/outbox.cif.g09.slc.cpg/sg12_93_cif.got.tgz:185068.got - 2010.06.28 00:19:55.
