data_PCOD8078345
_publ_section_title
;
Structure prediction by ZEFSAII (Michael W. Deem and Ramdas Pophale) SiO2 
 PCOD8078345
Probable space group: C 2/M
;
_chemical_formula_sum "Si O2"
_cell_formula_units_Z 48
_cell_length_a 5.176932
_cell_length_b 36.195435
_cell_length_c 15.059130
_cell_angle_alpha 90.000000
_cell_angle_beta 116.516983
_cell_angle_gamma 90.000000
_cell_volume 2524.951968
_symmetry_space_group_name_H-M "C 2/M"
_symmetry_group_IT_number 12
_symmetry_cell_setting 'monoclinic'
loop_
_space_group_symop_operation_xyz
x,y,z
-x,y,-z
-x,-y,-z
x,-y,z
1/2+x,1/2+y,z
1/2-x,1/2+y,-z
1/2-x,1/2-y,-z
1/2+x,1/2-y,z
loop_
_atom_site_type_symbol
_atom_site_label
_atom_site_fract_x
_atom_site_fract_y
_atom_site_fract_z
Si Si1 0.829049 0.670499 0.561799
Si Si2 0.318404 0.956998 0.232181
Si Si3 0.696368 0.791119 0.956546
Si Si4 0.938181 0.726401 0.730294
Si Si5 0.834953 0.415822 0.562920
Si Si6 0.828974 0.457054 0.890110
O O1 0.500000 0.681603 0.500000
O O2 0.870173 0.627446 0.587351
O O3 0.000000 0.682986 0.500000
O O4 0.935643 0.692190 0.663715
O O5 0.514601 0.936843 0.334112
O O6 0.469580 0.949801 0.162274
O O7 0.992391 0.940320 0.176202
O O8 0.310440 0.000000 0.256635
O O9 0.573252 0.790261 0.839562
O O10 0.500000 0.811912 0.000000
O O11 0.750000 0.750000 0.000000
O O12 0.000000 0.812795 0.000000
O O13 0.126215 0.758108 0.711005
O O14 0.500000 0.427053 0.500000
O O15 0.000000 0.427826 0.500000
O O16 0.779751 0.500000 0.903013
O O17 0.000000 0.439060 0.000000
#
# Coordination Sequence:
#
# PCOD8078345 Si02
#       6
#     8   8   8   8   8   8
#     4  10  23  40  53  73 104 139 174 209 260 320
#     4  10  19  31  53  83 106 134 182 226 258 307
#     4  10  16  30  48  74 103 127 157 195 242 310
#     4  12  21  32  56  81 100 132 169 213 258 295
#     4  10  21  38  56  72 103 146 177 213 271 324
#     4   9  17  30  49  78 111 141 170 210 266 317
#
# _framework density 19.010262000000001
#
# number of rings (size 3 to 8) (size 9 to 14) (size 15 to 20)
#    0.000    1.833    3.333    2.500    0.000    4.667 
#    0.000    0.000    0.000    3.000    0.000    0.000 
#    0.000    0.000    0.000    0.000    0.000    0.000 
#
# Total GULP energy -297490.212664 kJ/mol
# GULP energy per Si atom -12395.425528 kJ/mol
# Density = 1.896699 g / cm^3
# Si number density = 19.010262 Si / 1000 Ang^3
#
#
#
# Elastic Constant Matrix: (Units=GPa)
#
#
# Indices 1 2 3 4 5 6 
#
# 1 149.8207 22.8278 47.3864 0.0000 4.0215 0.0000
# 2 22.8278 31.5998 49.3463 0.0000 -1.5496 0.0000
# 3 47.3864 49.3463 158.5051 0.0000 0.5825 0.0000
# 4 0.0000 0.0000 0.0000 -11.2142 0.0000 -4.5699
# 5 4.0215 -1.5496 0.5825 0.0000 33.2372 0.0000
# 6 0.0000 0.0000 0.0000 -4.5699 0.0000 -2.3545
#
#
#
# Elastic Compliance Matrix: (Units=1/GPa)
#
#
# Indices 1 2 3 4 5 6 
#
# 1 0.007635 -0.003913 -0.001060 0.000000 -0.001088 0.000000
# 2 -0.003913 0.063937 -0.018749 0.000000 0.003783 0.000000
# 3 -0.001060 -0.018749 0.012466 0.000000 -0.000964 0.000000
# 4 0.000000 0.000000 0.000000 -0.426584 0.000000 0.827977
# 5 -0.001088 0.003783 -0.000964 0.000000 0.030412 0.000000
# 6 0.000000 0.000000 0.000000 0.827977 0.000000 -2.031784
#
#
# Mechanical properties :
#
#
# Convention : Reuss Voigt Hill
#
# Bulk Modulus (GPa) = 27.32737 64.33853 45.83295
# Shear Modulus (GPa) = -2.18888 18.62471 8.21792
#
# Velocity S-wave (km/s) = -1.07421 3.13344 2.08141
# Velocity P-wave (km/s) = 3.58716 6.85630 5.47159
#
# Compressibility (1/GPa) = 0.03659334
#
# Stress axis : x y z
#
# Youngs Moduli (GPa) = 130.96723 15.64044 80.21509
#
# Poissons Ratio (x) = 0.06121 0.08506
# Poissons Ratio (y) = 0.51252 1.50395
# Poissons Ratio (z) = 0.13887 0.29324
#
# Static dielectric constant tensor:
#      x y z
#    x 3.742290 0.000000 -0.393190 
#    y 0.000000 2.983680 0.000000 
#    z -0.393190 0.000000 4.310370 
# 
# 
# High freq. dielectric constant tensor:
#      x y z
#    x 1.771000 0.000000 -0.001380 
#    y 0.000000 1.682560 0.000000 
#    z -0.001380 0.000000 1.754600 
# 
# From -- ./inp_files/192656.got.cif
#   From: 2010.06.25/outbox.cif.g09.slc.cpg/sg12_97_cif.got.tgz:192656.got - 2010.06.28 00:19:55.
