data_PCOD8078839
_publ_section_title
;
Structure prediction by ZEFSAII (Michael W. Deem and Ramdas Pophale) SiO2 
 PCOD8078839
Probable space group: C 2/M
;
_chemical_formula_sum "Si O2"
_cell_formula_units_Z 64
_cell_length_a 23.089279
_cell_length_b 25.674521
_cell_length_c 17.453639
_cell_angle_alpha 90.000000
_cell_angle_beta 158.426594
_cell_angle_gamma 90.000000
_cell_volume 3804.381131
_symmetry_space_group_name_H-M "C 2/M"
_symmetry_group_IT_number 12
_symmetry_cell_setting 'monoclinic'
loop_
_space_group_symop_operation_xyz
x,y,z
-x,y,-z
-x,-y,-z
x,-y,z
1/2+x,1/2+y,z
1/2-x,1/2+y,-z
1/2-x,1/2-y,-z
1/2+x,1/2-y,z
loop_
_atom_site_type_symbol
_atom_site_label
_atom_site_fract_x
_atom_site_fract_y
_atom_site_fract_z
Si Si1 0.665671 0.284809 0.333777
Si Si2 0.336263 0.896315 0.755669
Si Si3 0.018854 0.438362 0.843484
Si Si4 0.957453 0.344739 0.674321
Si Si5 0.668174 0.439957 0.684735
Si Si6 0.959645 0.719522 0.364702
Si Si7 0.751436 0.214610 0.308589
Si Si8 0.633617 0.763060 0.998686
O O1 0.750000 0.250000 0.500000
O O2 0.660717 0.258316 0.244199
O O3 0.482010 0.287403 0.131938
O O4 0.767052 0.337888 0.451126
O O5 0.371528 0.922223 0.716854
O O6 0.209726 0.930835 0.646746
O O7 0.263081 0.838655 0.660975
O O8 0.500000 0.894334 0.000000
O O9 0.012494 0.500000 0.818793
O O10 0.997913 0.405282 0.739561
O O11 0.186548 0.419978 0.084767
O O12 0.009688 0.329657 0.652839
O O13 0.050703 0.307891 0.848007
O O14 0.500000 0.412571 0.500000
O O15 0.649099 0.500000 0.677748
O O16 0.000000 0.700418 0.500000
O O17 0.065735 0.769128 0.471844
O O18 0.782191 0.739427 0.137740
O O19 0.678705 0.209475 0.134465
#
# Coordination Sequence:
#
# PCOD8078839 Si02
#       8
#     8   8   8   8   8   8   8   8
#     4   9  17  28  43  63  90 123 155 189 226 270
#     4  10  17  27  44  66  92 126 159 188 222 269
#     4  10  20  33  49  67  90 126 169 208 241 275
#     4  10  19  32  47  66  94 124 157 198 243 284
#     4   9  18  31  45  65  94 126 161 198 234 273
#     4   9  20  33  48  71  98 125 155 192 235 292
#     4  10  18  28  44  69  98 124 153 186 224 278
#     4  10  17  29  47  70  98 126 154 185 228 287
#
# _framework density 16.822710000000001
#
# number of rings (size 3 to 8) (size 9 to 14) (size 15 to 20)
#    0.000    2.375    0.000    4.875    0.000    4.000 
#    0.000    1.250    0.000    0.375    0.000    0.000 
#    0.000   13.000    0.000    0.000    0.000    0.000 
#
# Total GULP energy -396485.754767 kJ/mol
# GULP energy per Si atom -12390.179836 kJ/mol
# Density = 1.678442 g / cm^3
# Si number density = 16.822710 Si / 1000 Ang^3
#
#
#
# Elastic Constant Matrix: (Units=GPa)
#
#
# Indices 1 2 3 4 5 6 
#
# 1 83.3954 35.0490 40.0733 0.0000 11.4258 0.0000
# 2 35.0490 74.1551 32.0492 0.0000 0.7943 0.0000
# 3 40.0733 32.0492 73.9808 0.0000 26.9701 0.0000
# 4 0.0000 0.0000 0.0000 19.6015 0.0000 -4.0514
# 5 11.4258 0.7943 26.9701 0.0000 32.4118 0.0000
# 6 0.0000 0.0000 0.0000 -4.0514 0.0000 23.3367
#
#
#
# Elastic Compliance Matrix: (Units=1/GPa)
#
#
# Indices 1 2 3 4 5 6 
#
# 1 0.017700 -0.005197 -0.007332 0.000000 -0.000011 0.000000
# 2 -0.005197 0.019701 -0.008916 0.000000 0.008769 0.000000
# 3 -0.007332 -0.008916 0.029182 0.000000 -0.021479 0.000000
# 4 0.000000 0.000000 0.000000 0.052915 0.000000 0.009186
# 5 -0.000011 0.008769 -0.021479 0.000000 0.048515 0.000000
# 6 0.000000 0.000000 0.000000 0.009186 0.000000 0.044446
#
#
# Mechanical properties :
#
#
# Convention : Reuss Voigt Hill
#
# Bulk Modulus (GPa) = 42.20852 49.54159 45.87506
# Shear Modulus (GPa) = 18.99354 23.36064 21.17709
#
# Velocity S-wave (km/s) = 3.36377 3.73048 3.55186
# Velocity P-wave (km/s) = 6.34281 6.93315 6.64454
#
# Compressibility (1/GPa) = 0.02369190
#
# Stress axis : x y z
#
# Youngs Moduli (GPa) = 56.49739 50.75850 34.26789
#
# Poissons Ratio (x) = 0.26378 0.25126
# Poissons Ratio (y) = 0.29360 0.30555
# Poissons Ratio (z) = 0.41426 0.45259
#
# Static dielectric constant tensor:
#      x y z
#    x 3.459750 0.000000 0.303600 
#    y 0.000000 2.882660 0.000000 
#    z 0.303600 0.000000 3.473710 
# 
# 
# High freq. dielectric constant tensor:
#      x y z
#    x 1.654640 0.000000 0.019270 
#    y 0.000000 1.605900 0.000000 
#    z 0.019270 0.000000 1.643200 
# 
# From -- ./inp_files/291200.got.cif
#   From: 2010.06.25/outbox.cif.g09.slc.cpg/sg12_146_cif.got.tgz:291200.got - 2010.06.28 00:19:55.
