data_PCOD8078324
_publ_section_title
;
Structure prediction by ZEFSAII (Michael W. Deem and Ramdas Pophale) SiO2 
 PCOD8078324
Probable space group: C 2/M
;
_chemical_formula_sum "Si O2"
_cell_formula_units_Z 64
_cell_length_a 17.428854
_cell_length_b 13.675595
_cell_length_c 23.089823
_cell_angle_alpha 90.000000
_cell_angle_beta 38.746907
_cell_angle_gamma 90.000000
_cell_volume 3444.511916
_symmetry_space_group_name_H-M "C 2/M"
_symmetry_group_IT_number 12
_symmetry_cell_setting 'monoclinic'
loop_
_space_group_symop_operation_xyz
x,y,z
-x,y,-z
-x,-y,-z
x,-y,z
1/2+x,1/2+y,z
1/2-x,1/2+y,-z
1/2-x,1/2-y,-z
1/2+x,1/2-y,z
loop_
_atom_site_type_symbol
_atom_site_label
_atom_site_fract_x
_atom_site_fract_y
_atom_site_fract_z
Si Si1 0.605709 0.890659 0.062401
Si Si2 0.924510 0.246765 0.192477
Si Si3 0.002859 0.108641 0.681545
Si Si4 0.291444 0.887578 0.685555
Si Si5 0.774396 0.610808 0.561864
Si Si6 0.008592 0.691647 0.631231
Si Si7 0.372231 0.389289 0.874184
Si Si8 0.527111 0.890131 0.747275
O O1 0.493806 0.819922 0.105882
O O2 0.594857 0.891828 0.139730
O O3 0.587049 0.000000 0.047997
O O4 0.736667 0.847242 0.966596
O O5 0.812267 0.187780 0.229998
O O6 0.880309 0.313939 0.274207
O O7 0.026389 0.169852 0.151669
O O8 0.895278 0.115139 0.791927
O O9 0.130863 0.131639 0.638475
O O10 0.979963 0.191939 0.646901
O O11 0.004555 0.000000 0.651906
O O12 0.310115 0.867940 0.606864
O O13 0.418030 0.866211 0.642685
O O14 0.251680 0.000000 0.720190
O O15 0.806575 0.500000 0.526330
O O16 0.853177 0.678395 0.472747
O O17 0.991856 0.649900 0.705410
O O18 0.380289 0.500000 0.892380
O O19 0.583495 0.000000 0.709283
#
# Coordination Sequence:
#
# PCOD8078324 Si02
#       8
#     8   8   8   8   8   8   8   8
#     4   8  17  30  52  80 104 131 176 222 260 309
#     4  10  17  31  50  76 104 138 173 215 258 307
#     4  10  20  35  56  82 106 131 181 231 264 302
#     4  11  22  35  52  78 108 142 181 215 254 319
#     4  10  20  36  56  78 102 136 181 222 256 309
#     4  12  21  34  54  78 111 146 170 212 274 315
#     4  10  16  29  54  80 102 132 176 227 263 297
#     4   9  18  32  50  79 107 134 174 216 262 312
#
# _framework density 18.580280999999999
#
# number of rings (size 3 to 8) (size 9 to 14) (size 15 to 20)
#    0.750    1.250    2.500    2.625    0.000    1.000 
#    0.000    1.250    0.000    4.500    0.000    8.750 
#    0.000    0.000    0.000    0.000    0.000    0.000 
#
# Total GULP energy -396459.739346 kJ/mol
# GULP energy per Si atom -12389.366855 kJ/mol
# Density = 1.853799 g / cm^3
# Si number density = 18.580281 Si / 1000 Ang^3
#
#
#
# Elastic Constant Matrix: (Units=GPa)
#
#
# Indices 1 2 3 4 5 6 
#
# 1 43.0663 22.8264 16.7872 0.0000 -3.7140 0.0000
# 2 22.8264 112.7178 30.8345 0.0000 -6.7676 0.0000
# 3 16.7872 30.8345 87.1019 0.0000 -15.0603 0.0000
# 4 0.0000 0.0000 0.0000 27.3062 0.0000 -3.0234
# 5 -3.7140 -6.7676 -15.0603 0.0000 16.8089 0.0000
# 6 0.0000 0.0000 0.0000 -3.0234 0.0000 24.9718
#
#
#
# Elastic Compliance Matrix: (Units=1/GPa)
#
#
# Indices 1 2 3 4 5 6 
#
# 1 0.027021 -0.004466 -0.003438 0.000000 0.001092 0.000000
# 2 -0.004466 0.010575 -0.002742 0.000000 0.000814 0.000000
# 3 -0.003438 -0.002742 0.015137 0.000000 0.011699 0.000000
# 4 0.000000 0.000000 0.000000 0.037119 0.000000 0.004494
# 5 0.001092 0.000814 0.011699 0.000000 0.070543 0.000000
# 6 0.000000 0.000000 0.000000 0.004494 0.000000 0.040589
#
#
# Mechanical properties :
#
#
# Convention : Reuss Voigt Hill
#
# Bulk Modulus (GPa) = 31.80557 42.64246 37.22401
# Shear Modulus (GPa) = 21.48153 25.31323 23.39738
#
# Velocity S-wave (km/s) = 3.40390 3.69503 3.55245
# Velocity P-wave (km/s) = 5.70998 6.41908 6.07488
#
# Compressibility (1/GPa) = 0.03144104
#
# Stress axis : x y z
#
# Youngs Moduli (GPa) = 37.00764 94.56148 66.06371
#
# Poissons Ratio (x) = 0.42231 0.22713
# Poissons Ratio (y) = 0.16528 0.18116
# Poissons Ratio (z) = 0.12723 0.25930
#
# Static dielectric constant tensor:
#      x y z
#    x 2.954540 0.000000 -0.153100 
#    y 0.000000 3.896550 0.000000 
#    z -0.153100 0.000000 3.376230 
# 
# 
# High freq. dielectric constant tensor:
#      x y z
#    x 1.664220 0.000000 -0.014770 
#    y 0.000000 1.747800 0.000000 
#    z -0.014770 0.000000 1.713350 
# 
# From -- ./inp_files/270634.got.cif
#   From: 2010.06.25/outbox.cif.g09.slc.cpg/sg12_136_cif.got.tgz:270634.got - 2010.06.28 00:19:55.
