data_PCOD8078679
_publ_section_title
;
Structure prediction by ZEFSAII (Michael W. Deem and Ramdas Pophale) SiO2 
 PCOD8078679
Probable space group: C 2/M
;
_chemical_formula_sum "Si O2"
_cell_formula_units_Z 56
_cell_length_a 29.515629
_cell_length_b 9.144658
_cell_length_c 13.670157
_cell_angle_alpha 90.000000
_cell_angle_beta 105.741091
_cell_angle_gamma 90.000000
_cell_volume 3551.342775
_symmetry_space_group_name_H-M "C 2/M"
_symmetry_group_IT_number 12
_symmetry_cell_setting 'monoclinic'
loop_
_space_group_symop_operation_xyz
x,y,z
-x,y,-z
-x,-y,-z
x,-y,z
1/2+x,1/2+y,z
1/2-x,1/2+y,-z
1/2-x,1/2-y,-z
1/2+x,1/2-y,z
loop_
_atom_site_type_symbol
_atom_site_label
_atom_site_fract_x
_atom_site_fract_y
_atom_site_fract_z
Si Si1 0.360815 0.165900 0.635113
Si Si2 0.263553 0.330682 0.105608
Si Si3 0.804626 0.667798 0.407618
Si Si4 0.217874 0.673890 0.278112
Si Si5 0.643482 0.328014 0.728677
Si Si6 0.049981 0.326878 0.416821
Si Si7 0.445604 0.172249 0.357730
O O1 0.321856 0.178858 0.528294
O O2 0.334753 0.225589 0.718452
O O3 0.410045 0.244149 0.631785
O O4 0.374548 0.000000 0.664298
O O5 0.257479 0.500000 0.080988
O O6 0.228070 0.281501 0.171844
O O7 0.317377 0.293158 0.166059
O O8 0.250000 0.250000 0.000000
O O9 0.800592 0.500000 0.370768
O O10 0.754557 0.746119 0.370376
O O11 0.842768 0.749467 0.363604
O O12 0.224711 0.500000 0.296172
O O13 0.639605 0.500000 0.708443
O O14 0.592764 0.260795 0.729315
O O15 0.056641 0.500000 0.425829
O O16 0.057120 0.271379 0.531795
O O17 0.997737 0.288379 0.347198
O O18 0.435699 0.000000 0.343165
#
# Coordination Sequence:
#
# PCOD8078679 Si02
#       7
#     8   8   8   8   8   8   8
#     4   9  15  25  42  62  87 120 149 172 206 249
#     4   9  19  33  47  64  84 108 138 179 226 265
#     4  10  17  26  42  62  85 118 153 174 200 249
#     4   9  18  30  43  62  88 113 140 177 220 259
#     4  10  19  30  44  64  91 116 142 180 224 259
#     4   8  14  24  41  64  89 118 152 183 203 235
#     4   9  15  26  44  64  87 117 154 183 204 242
#
# _framework density 15.768682999999999
#
# number of rings (size 3 to 8) (size 9 to 14) (size 15 to 20)
#    0.000    2.857    1.429    3.000    0.000    2.857 
#    0.000    2.143    0.000    0.000    0.000    1.000 
#    0.000    8.000    0.000    0.000    0.000    0.000 
#
# Total GULP energy -346895.145329 kJ/mol
# GULP energy per Si atom -12389.112333 kJ/mol
# Density = 1.573279 g / cm^3
# Si number density = 15.768683 Si / 1000 Ang^3
#
#
#
# Elastic Constant Matrix: (Units=GPa)
#
#
# Indices 1 2 3 4 5 6 
#
# 1 155.3302 34.1954 52.9119 0.0000 -8.9619 0.0000
# 2 34.1954 45.7160 25.5781 0.0000 2.1750 0.0000
# 3 52.9119 25.5781 58.7965 0.0000 -2.4702 0.0000
# 4 0.0000 0.0000 0.0000 17.7993 0.0000 5.0079
# 5 -8.9619 2.1750 -2.4702 0.0000 14.4464 0.0000
# 6 0.0000 0.0000 0.0000 5.0079 0.0000 21.4047
#
#
#
# Elastic Compliance Matrix: (Units=1/GPa)
#
#
# Indices 1 2 3 4 5 6 
#
# 1 0.010022 -0.003761 -0.007149 0.000000 0.005561 0.000000
# 2 -0.003761 0.030951 -0.010449 0.000000 -0.008780 0.000000
# 3 -0.007149 -0.010449 0.028068 0.000000 0.001938 0.000000
# 4 0.000000 0.000000 0.000000 0.060141 0.000000 -0.014071
# 5 0.005561 -0.008780 0.001938 0.000000 0.074324 0.000000
# 6 0.000000 0.000000 0.000000 -0.014071 0.000000 0.050011
#
#
# Mechanical properties :
#
#
# Convention : Reuss Voigt Hill
#
# Bulk Modulus (GPa) = 37.98888 53.91261 45.95074
# Shear Modulus (GPa) = 16.39288 20.54056 18.46672
#
# Velocity S-wave (km/s) = 3.22776 3.61309 3.42585
# Velocity P-wave (km/s) = 6.16724 7.18817 6.69719
#
# Compressibility (1/GPa) = 0.02632349
#
# Stress axis : x y z
#
# Youngs Moduli (GPa) = 99.78010 32.30882 35.62717
#
# Poissons Ratio (x) = 0.12151 0.25471
# Poissons Ratio (y) = 0.37528 0.37227
# Poissons Ratio (z) = 0.71335 0.33759
#
# Static dielectric constant tensor:
#      x y z
#    x 3.527080 0.000000 -0.091390 
#    y 0.000000 2.827840 0.000000 
#    z -0.091390 0.000000 2.655140 
# 
# 
# High freq. dielectric constant tensor:
#      x y z
#    x 1.619100 0.000000 -0.002740 
#    y 0.000000 1.583910 0.000000 
#    z -0.002740 0.000000 1.555840 
# 
# From -- ./inp_files/247895.got.cif
#   From: 2010.06.25/outbox.cif.g09.slc.cpg/sg12_124_cif.got.tgz:247895.got - 2010.06.28 00:19:55.
