data_PCOD8078316
_publ_section_title
;
Structure prediction by ZEFSAII (Michael W. Deem and Ramdas Pophale) SiO2 
 PCOD8078316
Probable space group: C 2/M
;
_chemical_formula_sum "Si O2"
_cell_formula_units_Z 48
_cell_length_a 10.953157
_cell_length_b 17.959699
_cell_length_c 13.085167
_cell_angle_alpha 90.000000
_cell_angle_beta 88.488616
_cell_angle_gamma 90.000000
_cell_volume 2573.158395
_symmetry_space_group_name_H-M "C 2/M"
_symmetry_group_IT_number 12
_symmetry_cell_setting 'monoclinic'
loop_
_space_group_symop_operation_xyz
x,y,z
-x,y,-z
-x,-y,-z
x,-y,z
1/2+x,1/2+y,z
1/2-x,1/2+y,-z
1/2-x,1/2-y,-z
1/2+x,1/2-y,z
loop_
_atom_site_type_symbol
_atom_site_label
_atom_site_fract_x
_atom_site_fract_y
_atom_site_fract_z
Si Si1 0.139031 0.365331 0.410258
Si Si2 0.328430 0.319061 0.252775
Si Si3 0.121761 0.416819 0.629003
Si Si4 0.017432 0.913998 0.119477
Si Si5 0.964234 0.204905 0.605909
Si Si6 0.780979 0.834042 0.770078
O O1 0.242303 0.374114 0.320863
O O2 0.185095 0.388480 0.522152
O O3 0.101791 0.280212 0.423998
O O4 0.024460 0.414563 0.378056
O O5 0.404377 0.368566 0.171311
O O6 0.416699 0.276426 0.329675
O O7 0.248791 0.252667 0.200608
O O8 0.165928 0.500000 0.645664
O O9 0.158719 0.373518 0.732272
O O10 0.149605 0.875388 0.138520
O O11 0.016888 0.000000 0.157715
O O12 0.000000 0.910424 0.000000
O O13 0.873855 0.154614 0.673398
O O14 0.000000 0.162617 0.500000
#
# Coordination Sequence:
#
# PCOD8078316 Si02
#       6
#     8   8   8   8   8   8
#     4  10  18  30  47  76 112 144 179 206 246 306
#     4  10  20  34  58  80 105 139 180 222 264 316
#     4  11  20  31  47  75 115 152 179 206 249 310
#     4  10  23  42  61  80 103 134 176 231 288 327
#     4  10  16  29  50  77 109 140 178 217 252 297
#     4  10  20  34  56  81 105 140 181 221 264 315
#
# _framework density 18.654116999999999
#
# number of rings (size 3 to 8) (size 9 to 14) (size 15 to 20)
#    0.000    1.833    3.333    2.500    0.000    4.667 
#    0.000    0.000    0.000    5.500    0.000    3.500 
#    0.000    0.000    0.000    0.000    0.000    0.000 
#
# Total GULP energy -297444.700626 kJ/mol
# GULP energy per Si atom -12393.529193 kJ/mol
# Density = 1.861166 g / cm^3
# Si number density = 18.654117 Si / 1000 Ang^3
#
#
#
# Elastic Constant Matrix: (Units=GPa)
#
#
# Indices 1 2 3 4 5 6 
#
# 1 72.1941 25.2980 32.1667 0.0000 -0.0117 0.0000
# 2 25.2980 92.5024 35.3922 0.0000 4.4521 0.0000
# 3 32.1667 35.3922 74.4064 0.0000 6.5052 0.0000
# 4 0.0000 0.0000 0.0000 23.9708 0.0000 2.0212
# 5 -0.0117 4.4521 6.5052 0.0000 28.0144 0.0000
# 6 0.0000 0.0000 0.0000 2.0212 0.0000 22.3716
#
#
#
# Elastic Compliance Matrix: (Units=1/GPa)
#
#
# Indices 1 2 3 4 5 6 
#
# 1 0.017656 -0.002367 -0.006676 0.000000 0.001934 0.000000
# 2 -0.002367 0.013545 -0.005339 0.000000 -0.000914 0.000000
# 3 -0.006676 -0.005339 0.019181 0.000000 -0.003608 0.000000
# 4 0.000000 0.000000 0.000000 0.042038 0.000000 -0.003798
# 5 0.001934 -0.000914 -0.003608 0.000000 0.036680 0.000000
# 6 0.000000 0.000000 0.000000 -0.003798 0.000000 0.045043
#
#
# Mechanical properties :
#
#
# Convention : Reuss Voigt Hill
#
# Bulk Modulus (GPa) = 46.26121 47.20185 46.73153
# Shear Modulus (GPa) = 23.79675 24.62109 24.20892
#
# Velocity S-wave (km/s) = 3.57555 3.63695 3.60638
# Velocity P-wave (km/s) = 6.47297 6.55707 6.51516
#
# Compressibility (1/GPa) = 0.02161638
#
# Stress axis : x y z
#
# Youngs Moduli (GPa) = 56.63827 73.82865 52.13517
#
# Poissons Ratio (x) = 0.17479 0.34804
# Poissons Ratio (y) = 0.13409 0.27837
# Poissons Ratio (z) = 0.37810 0.39420
#
# Static dielectric constant tensor:
#      x y z
#    x 3.705980 0.000000 -0.063190 
#    y 0.000000 3.302900 0.000000 
#    z -0.063190 0.000000 3.384240 
# 
# 
# High freq. dielectric constant tensor:
#      x y z
#    x 1.727070 0.000000 0.011880 
#    y 0.000000 1.714420 0.000000 
#    z 0.011880 0.000000 1.697800 
# 
# From -- ./inp_files/131086.got.cif
#   From: 2010.06.25/outbox.cif.g09.slc.cpg/sg12_66_cif.got.tgz:131086.got - 2010.06.28 00:19:55.
