data_PCOD8078653
_publ_section_title
;
Structure prediction by ZEFSAII (Michael W. Deem and Ramdas Pophale) SiO2 
 PCOD8078653
Probable space group: C 2/M
;
_chemical_formula_sum "Si O2"
_cell_formula_units_Z 56
_cell_length_a 5.239878
_cell_length_b 34.482301
_cell_length_c 17.319516
_cell_angle_alpha 90.000000
_cell_angle_beta 89.216597
_cell_angle_gamma 90.000000
_cell_volume 3129.050472
_symmetry_space_group_name_H-M "C 2/M"
_symmetry_group_IT_number 12
_symmetry_cell_setting 'monoclinic'
loop_
_space_group_symop_operation_xyz
x,y,z
-x,y,-z
-x,-y,-z
x,-y,z
1/2+x,1/2+y,z
1/2-x,1/2+y,-z
1/2-x,1/2-y,-z
1/2+x,1/2-y,z
loop_
_atom_site_type_symbol
_atom_site_label
_atom_site_fract_x
_atom_site_fract_y
_atom_site_fract_z
Si Si1 0.436578 0.790937 0.582535
Si Si2 0.010165 0.454421 0.650392
Si Si3 0.055376 0.235868 0.269391
Si Si4 0.003867 0.953740 0.912598
Si Si5 0.558238 0.669186 0.370792
Si Si6 0.491770 0.953880 0.173819
Si Si7 0.992261 0.915693 0.410384
O O1 0.500000 0.770720 0.500000
O O2 0.410437 0.757431 0.646811
O O3 0.661413 0.821535 0.598527
O O4 0.174683 0.815285 0.575741
O O5 0.961978 0.500000 0.646491
O O6 0.011703 0.439307 0.738331
O O7 0.282317 0.445564 0.610591
O O8 0.781445 0.433953 0.606352
O O9 0.315292 0.246944 0.222794
O O10 0.031580 0.190060 0.286133
O O11 0.255780 0.937640 0.869144
O O12 0.756537 0.937415 0.869071
O O13 0.003715 0.000000 0.911938
O O14 0.000000 0.938033 0.000000
O O15 0.533400 0.623214 0.360353
O O16 0.488777 0.000000 0.170839
O O17 0.000000 0.904649 0.500000
#
# Coordination Sequence:
#
# PCOD8078653 Si02
#       7
#     8   8   8   8   8   8   8
#     4  10  17  26  41  59  81 106 124 143 189 264
#     4  11  24  40  53  63  78 107 148 190 240 293
#     4   8  16  26  39  58  80 105 125 143 185 257
#     4   9  15  24  43  72  98 113 125 146 185 240
#     4  10  20  31  42  60  82  99 124 167 222 274
#     4   9  17  30  46  63  86 113 136 161 199 255
#     4  12  24  36  51  66  79 101 141 203 262 285
#
# _framework density 17.896802999999998
#
# number of rings (size 3 to 8) (size 9 to 14) (size 15 to 20)
#    0.000    2.143    0.000    4.286    0.000   11.429 
#    0.000    0.000    0.000    0.000    0.000    0.000 
#    0.000    0.000    0.000    0.000    0.000    0.000 
#
# Total GULP energy -347065.734350 kJ/mol
# GULP energy per Si atom -12395.204798 kJ/mol
# Density = 1.785607 g / cm^3
# Si number density = 17.896803 Si / 1000 Ang^3
#
#
#
# Elastic Constant Matrix: (Units=GPa)
#
#
# Indices 1 2 3 4 5 6 
#
# 1 140.5973 10.5218 29.0250 0.0000 6.1924 0.0000
# 2 10.5218 59.3105 8.7044 0.0000 7.0440 0.0000
# 3 29.0250 8.7044 48.5810 0.0000 1.4488 0.0000
# 4 0.0000 0.0000 0.0000 -0.4297 0.0000 -0.0595
# 5 6.1924 7.0440 1.4488 0.0000 20.8697 0.0000
# 6 0.0000 0.0000 0.0000 -0.0595 0.0000 18.4829
#
#
#
# Elastic Compliance Matrix: (Units=1/GPa)
#
#
# Indices 1 2 3 4 5 6 
#
# 1 0.008219 -0.000531 -0.004758 0.000000 -0.001929 0.000000
# 2 -0.000531 0.018039 -0.002744 0.000000 -0.005741 0.000000
# 3 -0.004758 -0.002744 0.023898 0.000000 0.000679 0.000000
# 4 0.000000 0.000000 0.000000 -2.326226 0.000000 -0.007483
# 5 -0.001929 -0.005741 0.000679 0.000000 0.050379 0.000000
# 6 0.000000 0.000000 0.000000 -0.007483 0.000000 0.054080
#
#
# Mechanical properties :
#
#
# Convention : Reuss Voigt Hill
#
# Bulk Modulus (GPa) = 29.33286 38.33235 33.83261
# Shear Modulus (GPa) = -2.33189 21.13376 9.40093
#
# Velocity S-wave (km/s) = -1.14271 3.44010 2.29440
# Velocity P-wave (km/s) = 3.83204 6.10280 5.09552
#
# Compressibility (1/GPa) = 0.03409146
#
# Stress axis : x y z
#
# Youngs Moduli (GPa) = 121.66219 55.43535 41.84393
#
# Poissons Ratio (x) = 0.02942 0.19910
# Poissons Ratio (y) = 0.06457 0.11481
# Poissons Ratio (z) = 0.57889 0.15211
#
# Static dielectric constant tensor:
#      x y z
#    x 4.140010 0.000000 -0.044520 
#    y 0.000000 2.974300 0.000000 
#    z -0.044520 0.000000 2.923720 
# 
# 
# High freq. dielectric constant tensor:
#      x y z
#    x 1.733300 0.000000 -0.000330 
#    y 0.000000 1.652420 0.000000 
#    z -0.000330 0.000000 1.631350 
# 
# From -- ./inp_files/192605.got.cif
#   From: 2010.06.25/outbox.cif.g09.slc.cpg/sg12_97_cif.got.tgz:192605.got - 2010.06.28 00:19:55.
