data_PCOD8078753
_publ_section_title
;
Structure prediction by ZEFSAII (Michael W. Deem and Ramdas Pophale) SiO2 
 PCOD8078753
Probable space group: C 2/M
;
_chemical_formula_sum "Si O2"
_cell_formula_units_Z 56
_cell_length_a 29.135035
_cell_length_b 9.668565
_cell_length_c 14.188968
_cell_angle_alpha 90.000000
_cell_angle_beta 59.588912
_cell_angle_gamma 90.000000
_cell_volume 3447.029824
_symmetry_space_group_name_H-M "C 2/M"
_symmetry_group_IT_number 12
_symmetry_cell_setting 'monoclinic'
loop_
_space_group_symop_operation_xyz
x,y,z
-x,y,-z
-x,-y,-z
x,-y,z
1/2+x,1/2+y,z
1/2-x,1/2+y,-z
1/2-x,1/2-y,-z
1/2+x,1/2-y,z
loop_
_atom_site_type_symbol
_atom_site_label
_atom_site_fract_x
_atom_site_fract_y
_atom_site_fract_z
Si Si1 0.361572 0.654526 0.572923
Si Si2 0.050110 0.165460 0.387969
Si Si3 0.966748 0.161901 0.807020
Si Si4 0.243315 0.161679 0.412306
Si Si5 0.641408 0.843202 0.757650
Si Si6 0.412017 0.347650 0.325699
Si Si7 0.445497 0.837806 0.002891
O O1 0.345695 0.500000 0.619338
O O2 0.393883 0.723819 0.626369
O O3 0.306229 0.725197 0.596628
O O4 0.404964 0.654692 0.444725
O O5 0.048763 0.214314 0.281111
O O6 0.000000 0.224368 0.500000
O O7 0.049101 0.000000 0.395407
O O8 0.028328 0.193890 0.760574
O O9 0.953378 0.000000 0.833733
O O10 0.936551 0.252303 0.916360
O O11 0.250000 0.250000 0.500000
O O12 0.295354 0.173597 0.291181
O O13 0.232571 0.000000 0.450932
O O14 0.628803 0.757513 0.677675
O O15 0.605896 0.793363 0.882263
O O16 0.625941 0.000000 0.750508
O O17 0.399299 0.500000 0.298911
O O18 0.445689 0.000000 0.978558
O O19 0.500000 0.796021 0.000000
#
# Coordination Sequence:
#
# PCOD8078753 Si02
#       7
#     8   8   8   8   8   8   8
#     4   9  16  27  44  68  97 124 147 178 228 280
#     4   9  15  26  45  70  97 121 146 183 230 277
#     4  10  19  29  47  74  96 118 153 193 231 270
#     4  10  19  30  47  70  94 121 153 188 228 274
#     4  10  20  32  45  65  93 126 159 186 221 275
#     4  10  17  26  45  72  97 119 148 187 228 271
#     4  10  20  33  47  63  90 129 161 187 228 275
#
# _framework density 16.245871000000001
#
# number of rings (size 3 to 8) (size 9 to 14) (size 15 to 20)
#    0.000    2.286    4.286    0.000    0.000    0.857 
#    0.000    0.000    0.000    3.000    0.000    0.000 
#    0.000    0.000    0.000    0.000    0.000    0.000 
#
# Total GULP energy -346986.597402 kJ/mol
# GULP energy per Si atom -12392.378479 kJ/mol
# Density = 1.620889 g / cm^3
# Si number density = 16.245871 Si / 1000 Ang^3
#
#
#
# Elastic Constant Matrix: (Units=GPa)
#
#
# Indices 1 2 3 4 5 6 
#
# 1 106.0227 32.0558 55.4630 0.0000 7.5628 0.0000
# 2 32.0558 31.7689 25.1173 0.0000 4.8639 0.0000
# 3 55.4630 25.1173 88.6255 0.0000 -0.2017 0.0000
# 4 0.0000 0.0000 0.0000 14.7873 0.0000 1.2991
# 5 7.5628 4.8639 -0.2017 0.0000 27.7271 0.0000
# 6 0.0000 0.0000 0.0000 1.2991 0.0000 14.5732
#
#
#
# Elastic Compliance Matrix: (Units=1/GPa)
#
#
# Indices 1 2 3 4 5 6 
#
# 1 0.016736 -0.010538 -0.007493 0.000000 -0.002771 0.000000
# 2 -0.010538 0.048693 -0.007218 0.000000 -0.005720 0.000000
# 3 -0.007493 -0.007218 0.018026 0.000000 0.003441 0.000000
# 4 0.000000 0.000000 0.000000 0.068159 0.000000 -0.006076
# 5 -0.002771 -0.005720 0.003441 0.000000 0.037850 0.000000
# 6 0.000000 0.000000 0.000000 -0.006076 0.000000 0.069161
#
#
# Mechanical properties :
#
#
# Convention : Reuss Voigt Hill
#
# Bulk Modulus (GPa) = 30.34332 50.18769 40.26551
# Shear Modulus (GPa) = 15.61966 19.00294 17.31130
#
# Velocity S-wave (km/s) = 3.10410 3.42381 3.26787
# Velocity P-wave (km/s) = 5.61830 6.82566 6.25120
#
# Compressibility (1/GPa) = 0.03295618
#
# Stress axis : x y z
#
# Youngs Moduli (GPa) = 59.75291 20.53664 55.47497
#
# Poissons Ratio (x) = 0.21642 0.41567
# Poissons Ratio (y) = 0.62970 0.40043
# Poissons Ratio (z) = 0.44773 0.14824
#
# Static dielectric constant tensor:
#      x y z
#    x 3.224090 0.000000 -0.091210 
#    y 0.000000 2.820770 0.000000 
#    z -0.091210 0.000000 3.008020 
# 
# 
# High freq. dielectric constant tensor:
#      x y z
#    x 1.621860 0.000000 -0.007100 
#    y 0.000000 1.593390 0.000000 
#    z -0.007100 0.000000 1.613720 
# 
# From -- ./inp_files/181955.got.cif
#   From: 2010.06.25/outbox.cif.g09.slc.cpg/sg12_91_cif.got.tgz:181955.got - 2010.06.28 00:19:55.
