data_PCOD8078304
_publ_section_title
;
Structure prediction by ZEFSAII (Michael W. Deem and Ramdas Pophale) SiO2 
 PCOD8078304
Probable space group: C 2/M
;
_chemical_formula_sum "Si O2"
_cell_formula_units_Z 56
_cell_length_a 28.829617
_cell_length_b 21.221983
_cell_length_c 18.107011
_cell_angle_alpha 90.000000
_cell_angle_beta 19.047237
_cell_angle_gamma 90.000000
_cell_volume 3615.363602
_symmetry_space_group_name_H-M "C 2/M"
_symmetry_group_IT_number 12
_symmetry_cell_setting 'monoclinic'
loop_
_space_group_symop_operation_xyz
x,y,z
-x,y,-z
-x,-y,-z
x,-y,z
1/2+x,1/2+y,z
1/2-x,1/2+y,-z
1/2-x,1/2-y,-z
1/2+x,1/2-y,z
loop_
_atom_site_type_symbol
_atom_site_label
_atom_site_fract_x
_atom_site_fract_y
_atom_site_fract_z
Si Si1 0.714164 0.573026 0.268424
Si Si2 0.643064 0.744560 0.942748
Si Si3 0.175847 0.343976 0.019364
Si Si4 0.661051 0.277297 0.567243
Si Si5 0.354378 0.145496 0.179899
Si Si6 0.591532 0.788519 0.530083
Si Si7 0.972720 0.826901 0.623042
O O1 0.679997 0.500000 0.312417
O O2 0.809418 0.594812 0.054864
O O3 0.800668 0.586080 0.213422
O O4 0.564786 0.609851 0.494614
O O5 0.679820 0.781118 0.962712
O O6 0.624358 0.794280 0.904552
O O7 0.774709 0.697331 0.725232
O O8 0.498747 0.704061 0.166367
O O9 0.305229 0.342121 0.883379
O O10 0.027249 0.344110 0.289362
O O11 0.750000 0.250000 0.500000
O O12 0.737456 0.338509 0.418430
O O13 0.649198 0.220543 0.526147
O O14 0.500000 0.126220 0.000000
O O15 0.518282 0.722949 0.615766
O O16 0.000000 0.799342 0.500000
#
# Coordination Sequence:
#
# PCOD8078304 Si02
#       7
#     8   8   8   8   8   8   8
#     4  10  20  33  46  68  97 127 164 197 229 279
#     4   9  16  27  40  67  96 121 148 185 232 287
#     4   9  18  28  45  66  92 125 153 190 234 281
#     4  10  17  25  44  66  92 128 151 190 235 288
#     4  10  17  29  45  64  95 125 155 188 237 279
#     4  10  17  28  43  66  96 122 151 190 239 289
#     4  10  16  29  45  65  93 125 152 190 237 281
#
# _framework density 15.489452
#
# number of rings (size 3 to 8) (size 9 to 14) (size 15 to 20)
#    0.000    2.286    7.143    0.429    0.000    2.857 
#    0.000    0.000    0.000    0.000    0.000    1.000 
#    0.000    2.857    0.000    0.000    0.000    0.000 
#
# Total GULP energy -347009.746688 kJ/mol
# GULP energy per Si atom -12393.205239 kJ/mol
# Density = 1.545420 g / cm^3
# Si number density = 15.489452 Si / 1000 Ang^3
#
#
#
# Elastic Constant Matrix: (Units=GPa)
#
#
# Indices 1 2 3 4 5 6 
#
# 1 74.4606 23.8836 31.4056 -0.0036 -15.3005 0.0018
# 2 23.8836 56.5692 30.8058 -0.0007 -3.9756 0.0019
# 3 31.4056 30.8058 129.9956 -0.0019 -15.8959 0.0026
# 4 -0.0036 -0.0007 -0.0019 15.0819 0.0027 0.0562
# 5 -15.3005 -3.9756 -15.8959 0.0027 25.5132 -0.0019
# 6 0.0018 0.0019 0.0026 0.0562 -0.0019 9.1713
#
#
#
# Elastic Compliance Matrix: (Units=1/GPa)
#
#
# Indices 1 2 3 4 5 6 
#
# 1 0.017895 -0.005935 -0.001859 0.000002 0.008649 0.000000
# 2 -0.005935 0.022266 -0.004171 0.000000 -0.002689 -0.000003
# 3 -0.001859 -0.004171 0.009650 0.000000 0.004247 -0.000001
# 4 0.000002 0.000000 0.000000 0.066306 -0.000006 -0.000406
# 5 0.008649 -0.002689 0.004247 -0.000006 0.046609 0.000007
# 6 0.000000 -0.000003 -0.000001 -0.000406 0.000007 0.109039
#
#
# Mechanical properties :
#
#
# Convention : Reuss Voigt Hill
#
# Bulk Modulus (GPa) = 38.64119 48.13508 43.38813
# Shear Modulus (GPa) = 16.42998 21.61530 19.02264
#
# Velocity S-wave (km/s) = 3.26040 3.73967 3.50823
# Velocity P-wave (km/s) = 6.25896 7.05623 6.66952
#
# Compressibility (1/GPa) = 0.02587912
#
# Stress axis : x y z
#
# Youngs Moduli (GPa) = 55.88183 44.91175 103.63122
#
# Poissons Ratio (x) = 0.26655 0.19268
# Poissons Ratio (y) = 0.33166 0.43229
# Poissons Ratio (z) = 0.10390 0.18735
#
# Static dielectric constant tensor:
#      x y z
#    x 3.122310 0.000000 -0.094480 
#    y 0.000000 2.418590 0.000010 
#    z -0.094480 0.000010 3.404130 
# 
# 
# High freq. dielectric constant tensor:
#      x y z
#    x 1.608630 0.000000 -0.014870 
#    y 0.000000 1.518600 0.000000 
#    z -0.014870 0.000000 1.604460 
# 
# From -- ./inp_files/184903.got.cif
#   From: 2010.06.25/outbox.cif.g09.slc.cpg/sg12_93_cif.got.tgz:184903.got - 2010.06.28 00:19:55.
