data_PCOD8078563
_publ_section_title
;
Structure prediction by ZEFSAII (Michael W. Deem and Ramdas Pophale) SiO2 
 PCOD8078563
Probable space group: C 2/M
;
_chemical_formula_sum "Si O2"
_cell_formula_units_Z 64
_cell_length_a 24.256090
_cell_length_b 9.224400
_cell_length_c 18.783390
_cell_angle_alpha 90.000000
_cell_angle_beta 79.237036
_cell_angle_gamma 90.000000
_cell_volume 4128.809671
_symmetry_space_group_name_H-M "C 2/M"
_symmetry_group_IT_number 12
_symmetry_cell_setting 'monoclinic'
loop_
_space_group_symop_operation_xyz
x,y,z
-x,y,-z
-x,-y,-z
x,-y,z
1/2+x,1/2+y,z
1/2-x,1/2+y,-z
1/2-x,1/2-y,-z
1/2+x,1/2-y,z
loop_
_atom_site_type_symbol
_atom_site_label
_atom_site_fract_x
_atom_site_fract_y
_atom_site_fract_z
Si Si1 0.100092 0.166882 0.379675
Si Si2 0.942775 0.160784 0.468602
Si Si3 0.056926 0.666395 0.194612
Si Si4 0.053425 0.332026 0.032428
Si Si5 0.337940 0.332341 0.769539
Si Si6 0.164476 0.168903 0.002040
Si Si7 0.727835 0.168259 0.110451
Si Si8 0.996696 0.334275 0.344395
O O1 0.107648 0.199984 0.462877
O O2 0.156091 0.187304 0.318034
O O3 0.054869 0.277129 0.360884
O O4 0.078352 0.000000 0.376863
O O5 0.000000 0.177757 0.500000
O O6 0.944080 0.257667 0.396708
O O7 0.934564 0.000000 0.441360
O O8 0.077826 0.500000 0.198940
O O9 0.039073 0.698430 0.118286
O O10 0.106533 0.774458 0.204334
O O11 0.001399 0.691475 0.257805
O O12 0.068206 0.500000 0.015418
O O13 0.105221 0.234958 0.992938
O O14 0.000000 0.282769 0.000000
O O15 0.329930 0.500000 0.791609
O O16 0.283848 0.241897 0.809878
O O17 0.186193 0.254736 0.065288
O O18 0.158784 0.000000 0.022839
O O19 0.207522 0.191716 0.926219
O O20 0.711669 0.000000 0.116396
O O21 0.990164 0.500000 0.366029
#
# Coordination Sequence:
#
# PCOD8078563 Si02
#       8
#     8   8   8   8   8   8   8   8
#     4   8  15  24  32  46  71 100 129 159 191 232
#     4   8  13  22  32  43  65  97 128 158 192 227
#     4   9  17  28  39  54  78 104 132 169 209 245
#     4  10  20  33  48  63  82 110 140 173 214 254
#     4  10  17  25  40  60  79 104 137 168 201 240
#     4  10  20  32  46  64  82 106 138 172 209 248
#     4  10  19  30  44  62  86 109 133 170 212 249
#     4   9  15  21  32  49  68  93 127 165 198 229
#
# _framework density 15.500835
#
# number of rings (size 3 to 8) (size 9 to 14) (size 15 to 20)
#    0.000    2.750    1.250    2.250    0.000    5.000 
#    0.000    0.000    0.000    0.000    0.000    0.000 
#    0.000    0.000    0.000    1.125    0.000   12.875 
#
# Total GULP energy -396443.072096 kJ/mol
# GULP energy per Si atom -12388.846003 kJ/mol
# Density = 1.546555 g / cm^3
# Si number density = 15.500835 Si / 1000 Ang^3
#
#
#
# Elastic Constant Matrix: (Units=GPa)
#
#
# Indices 1 2 3 4 5 6 
#
# 1 58.4778 39.1798 45.0607 0.0000 -15.8000 0.0000
# 2 39.1798 96.1006 53.8780 0.0000 -20.6369 0.0000
# 3 45.0607 53.8780 107.7733 0.0000 -37.4902 0.0000
# 4 0.0000 0.0000 0.0000 23.7529 0.0000 -8.9520
# 5 -15.8000 -20.6369 -37.4902 0.0000 24.5426 0.0000
# 6 0.0000 0.0000 0.0000 -8.9520 0.0000 17.0528
#
#
#
# Elastic Compliance Matrix: (Units=1/GPa)
#
#
# Indices 1 2 3 4 5 6 
#
# 1 0.028075 -0.006782 -0.008631 0.000000 -0.000812 0.000000
# 2 -0.006782 0.016162 -0.004343 0.000000 0.002589 0.000000
# 3 -0.008631 -0.004343 0.025298 0.000000 0.029436 0.000000
# 4 0.000000 0.000000 0.000000 0.052484 0.000000 0.027552
# 5 -0.000812 0.002589 0.029436 0.000000 0.087365 0.000000
# 6 0.000000 0.000000 0.000000 0.027552 0.000000 0.073105
#
#
# Mechanical properties :
#
#
# Convention : Reuss Voigt Hill
#
# Bulk Modulus (GPa) = 33.30709 59.84320 46.57514
# Shear Modulus (GPa) = 15.05981 21.35186 18.20584
#
# Velocity S-wave (km/s) = 3.12035 3.71545 3.43083
# Velocity P-wave (km/s) = 5.87503 7.55621 6.76803
#
# Compressibility (1/GPa) = 0.03002364
#
# Stress axis : x y z
#
# Youngs Moduli (GPa) = 35.61845 61.87436 39.52832
#
# Poissons Ratio (x) = 0.41963 0.34115
# Poissons Ratio (y) = 0.24156 0.17169
# Poissons Ratio (z) = 0.30741 0.26875
#
# Static dielectric constant tensor:
#      x y z
#    x 2.572200 0.000000 -0.575070 
#    y 0.000000 3.096080 0.000000 
#    z -0.575070 0.000000 3.475640 
# 
# 
# High freq. dielectric constant tensor:
#      x y z
#    x 1.523420 0.000000 -0.052500 
#    y 0.000000 1.608230 0.000000 
#    z -0.052500 0.000000 1.599120 
# 
# From -- ./inp_files/287669.got.cif
#   From: 2010.06.25/outbox.cif.g09.slc.cpg/sg12_144_cif.got.tgz:287669.got - 2010.06.28 00:19:55.
