data_PCOD8078614
_publ_section_title
;
Structure prediction by ZEFSAII (Michael W. Deem and Ramdas Pophale) SiO2 
 PCOD8078614
Probable space group: C 2/M
;
_chemical_formula_sum "Si O2"
_cell_formula_units_Z 48
_cell_length_a 28.114919
_cell_length_b 9.138927
_cell_length_c 20.114609
_cell_angle_alpha 90.000000
_cell_angle_beta 34.040329
_cell_angle_gamma 90.000000
_cell_volume 2893.064719
_symmetry_space_group_name_H-M "C 2/M"
_symmetry_group_IT_number 12
_symmetry_cell_setting 'monoclinic'
loop_
_space_group_symop_operation_xyz
x,y,z
-x,y,-z
-x,-y,-z
x,-y,z
1/2+x,1/2+y,z
1/2-x,1/2+y,-z
1/2-x,1/2-y,-z
1/2+x,1/2-y,z
loop_
_atom_site_type_symbol
_atom_site_label
_atom_site_fract_x
_atom_site_fract_y
_atom_site_fract_z
Si Si1 0.562378 0.838662 0.865445
Si Si2 0.309001 0.326815 0.203881
Si Si3 0.597023 0.171958 0.023407
Si Si4 0.160728 0.673124 0.094097
Si Si5 0.120835 0.673513 0.402773
Si Si6 0.446595 0.826136 0.658286
O O1 0.639543 0.728043 0.790721
O O2 0.503165 0.789047 0.871947
O O3 0.601103 0.000000 0.807930
O O4 0.500000 0.842629 0.000000
O O5 0.317024 0.500000 0.190509
O O6 0.211707 0.272896 0.324811
O O7 0.343946 0.261053 0.095115
O O8 0.620603 0.218439 0.070326
O O9 0.611719 0.000000 0.992984
O O10 0.173943 0.500000 0.084391
O O11 0.096821 0.734243 0.224576
O O12 0.250000 0.750000 0.000000
O O13 0.118905 0.500000 0.402464
O O14 0.105718 0.731935 0.345176
O O15 0.044577 0.729453 0.539105
O O16 0.445441 0.000000 0.661098
#
# Coordination Sequence:
#
# PCOD8078614 Si02
#       6
#     8   8   8   8   8   8
#     4   8  15  28  42  57  83 116 144 171 206 251
#     4  10  17  25  43  69  88 105 138 182 220 247
#     4   9  18  30  42  60  88 118 143 168 205 257
#     4  10  19  30  46  66  87 113 143 173 208 251
#     4   8  14  24  40  63  87 107 134 175 213 245
#     4   8  14  26  42  60  84 113 140 167 205 251
#
# _framework density 16.591401999999999
#
# number of rings (size 3 to 8) (size 9 to 14) (size 15 to 20)
#    0.000    3.167    0.000    3.500    0.000    5.000 
#    0.000    0.000    0.000    3.000    0.000    8.167 
#    0.000    0.000    0.000    0.000    0.000    1.667 
#
# Total GULP energy -297405.902316 kJ/mol
# GULP energy per Si atom -12391.912596 kJ/mol
# Density = 1.655364 g / cm^3
# Si number density = 16.591402 Si / 1000 Ang^3
#
#
#
# Elastic Constant Matrix: (Units=GPa)
#
#
# Indices 1 2 3 4 5 6 
#
# 1 150.1078 36.9175 79.7453 -0.0007 -20.3971 0.0002
# 2 36.9175 37.9468 33.8239 -0.0039 -8.9062 0.0001
# 3 79.7453 33.8239 119.7383 -0.0021 -16.1892 0.0000
# 4 -0.0007 -0.0039 -0.0021 14.2262 0.0001 -4.7279
# 5 -20.3971 -8.9062 -16.1892 0.0001 29.5201 0.0003
# 6 0.0002 0.0001 0.0000 -4.7279 0.0003 21.9294
#
#
#
# Elastic Compliance Matrix: (Units=1/GPa)
#
#
# Indices 1 2 3 4 5 6 
#
# 1 0.011410 -0.005299 -0.005673 -0.000002 0.003174 -0.000001
# 2 -0.005299 0.038555 -0.006788 0.000010 0.004248 0.000002
# 3 -0.005673 -0.006788 0.014301 0.000000 0.001875 0.000000
# 4 -0.000002 0.000010 0.000000 0.075718 0.000001 0.016325
# 5 0.003174 0.004248 0.001875 0.000001 0.038378 0.000000
# 6 -0.000001 0.000002 0.000000 0.016325 0.000000 0.049120
#
#
# Mechanical properties :
#
#
# Convention : Reuss Voigt Hill
#
# Bulk Modulus (GPa) = 34.78674 67.64069 51.21372
# Shear Modulus (GPa) = 18.34287 23.62219 20.98253
#
# Velocity S-wave (km/s) = 3.32861 3.77737 3.56007
# Velocity P-wave (km/s) = 5.98207 7.73833 6.91617
#
# Compressibility (1/GPa) = 0.02874658
#
# Stress axis : x y z
#
# Youngs Moduli (GPa) = 87.63973 25.93686 69.92633
#
# Poissons Ratio (x) = 0.13744 0.39671
# Poissons Ratio (y) = 0.46441 0.47463
# Poissons Ratio (z) = 0.49720 0.17605
#
# Static dielectric constant tensor:
#      x y z
#    x 3.528690 0.000000 -0.194230 
#    y 0.000000 2.835190 0.000000 
#    z -0.194230 0.000000 3.243710 
# 
# 
# High freq. dielectric constant tensor:
#      x y z
#    x 1.643610 0.000000 -0.018940 
#    y 0.000000 1.607290 0.000000 
#    z -0.018940 0.000000 1.619820 
# 
# From -- ./inp_files/329005.got.cif
#   From: 2010.06.25/outbox.cif.g09.slc.cpg/sg12_165_cif.got.tgz:329005.got - 2010.06.28 00:19:55.
