data_PCOD8078414
_publ_section_title
;
Structure prediction by ZEFSAII (Michael W. Deem and Ramdas Pophale) SiO2 
 PCOD8078414
Probable space group: C 2/M
;
_chemical_formula_sum "Si O2"
_cell_formula_units_Z 48
_cell_length_a 16.604318
_cell_length_b 16.487185
_cell_length_c 9.890430
_cell_angle_alpha 90.000000
_cell_angle_beta 108.219955
_cell_angle_gamma 90.000000
_cell_volume 2571.839105
_symmetry_space_group_name_H-M "C 2/M"
_symmetry_group_IT_number 12
_symmetry_cell_setting 'monoclinic'
loop_
_space_group_symop_operation_xyz
x,y,z
-x,y,-z
-x,-y,-z
x,-y,z
1/2+x,1/2+y,z
1/2-x,1/2+y,-z
1/2-x,1/2-y,-z
1/2+x,1/2-y,z
loop_
_atom_site_type_symbol
_atom_site_label
_atom_site_fract_x
_atom_site_fract_y
_atom_site_fract_z
Si Si1 0.589816 0.183616 0.565986
Si Si2 0.904922 0.696026 0.927150
Si Si3 0.102603 0.795730 0.817353
Si Si4 0.917707 0.802688 0.678093
Si Si5 0.750993 0.152482 0.513038
Si Si6 0.748839 0.093455 0.211265
O O1 0.500000 0.135104 0.500000
O O2 0.604279 0.214436 0.726332
O O3 0.580446 0.263962 0.469690
O O4 0.669403 0.127602 0.561594
O O5 0.895137 0.732577 0.772992
O O6 0.838602 0.622617 0.903401
O O7 0.881988 0.766551 0.021763
O O8 0.000000 0.662252 0.000000
O O9 0.173456 0.859034 0.813779
O O10 0.010160 0.840119 0.759474
O O11 0.840864 0.869136 0.635001
O O12 0.750000 0.250000 0.500000
O O13 0.746222 0.105874 0.370195
O O14 0.761143 0.000000 0.182988
#
# Coordination Sequence:
#
# PCOD8078414 Si02
#       6
#     8   8   8   8   8   8
#     4   9  15  27  55  82 102 130 182 235 260 303
#     4  10  20  35  58  85 104 147 195 233 266 324
#     4  10  19  32  55  88 106 143 191 227 268 327
#     4   9  16  31  57  83 109 133 193 235 264 310
#     4  10  16  32  55  75 106 142 189 221 267 317
#     4  12  23  35  53  85 120 149 176 228 289 334
#
# _framework density 18.663686999999999
#
# number of rings (size 3 to 8) (size 9 to 14) (size 15 to 20)
#    0.000    2.000    6.667    0.500    0.000    0.333 
#    0.000    1.667    0.000    9.000    0.000    0.000 
#    0.000    0.000    0.000    0.000    0.000    0.000 
#
# Total GULP energy -297408.076282 kJ/mol
# GULP energy per Si atom -12392.003178 kJ/mol
# Density = 1.862121 g / cm^3
# Si number density = 18.663687 Si / 1000 Ang^3
#
#
#
# Elastic Constant Matrix: (Units=GPa)
#
#
# Indices 1 2 3 4 5 6 
#
# 1 170.4014 39.5238 36.0788 0.0000 23.2098 0.0000
# 2 39.5238 47.1777 16.7858 0.0000 9.8418 0.0000
# 3 36.0788 16.7858 60.9481 0.0000 13.7166 0.0000
# 4 0.0000 0.0000 0.0000 13.8051 0.0000 0.1444
# 5 23.2098 9.8418 13.7166 0.0000 35.3911 0.0000
# 6 0.0000 0.0000 0.0000 0.1444 0.0000 5.6786
#
#
#
# Elastic Compliance Matrix: (Units=1/GPa)
#
#
# Indices 1 2 3 4 5 6 
#
# 1 0.008018 -0.005180 -0.002696 0.000000 -0.002773 0.000000
# 2 -0.005180 0.027491 -0.003888 0.000000 -0.002741 0.000000
# 3 -0.002696 -0.003888 0.020194 0.000000 -0.004978 0.000000
# 4 0.000000 0.000000 0.000000 0.072456 0.000000 -0.001843
# 5 -0.002773 -0.002741 -0.004978 0.000000 0.032766 0.000000
# 6 0.000000 0.000000 0.000000 -0.001843 0.000000 0.176145
#
#
# Mechanical properties :
#
#
# Convention : Reuss Voigt Hill
#
# Bulk Modulus (GPa) = 31.07904 51.47821 41.27862
# Shear Modulus (GPa) = 13.46530 23.38421 18.42476
#
# Velocity S-wave (km/s) = 2.68893 3.54351 3.14538
# Velocity P-wave (km/s) = 5.13116 6.66212 5.94612
#
# Compressibility (1/GPa) = 0.03217603
#
# Stress axis : x y z
#
# Youngs Moduli (GPa) = 124.71200 36.37525 49.51880
#
# Poissons Ratio (x) = 0.18842 0.13350
# Poissons Ratio (y) = 0.64599 0.19254
# Poissons Ratio (z) = 0.33621 0.14144
#
# Static dielectric constant tensor:
#      x y z
#    x 4.571800 0.000000 0.325690 
#    y 0.000000 2.651740 0.000000 
#    z 0.325690 0.000000 3.551450 
# 
# 
# High freq. dielectric constant tensor:
#      x y z
#    x 1.764750 0.000000 0.008830 
#    y 0.000000 1.630450 0.000000 
#    z 0.008830 0.000000 1.732280 
# 
# From -- ./inp_files/155498.got.cif
#   From: 2010.06.25/outbox.cif.g09.slc.cpg/sg12_78_cif.got.tgz:155498.got - 2010.06.28 00:19:55.
