data_PCOD8078360
_publ_section_title
;
Structure prediction by ZEFSAII (Michael W. Deem and Ramdas Pophale) SiO2 
 PCOD8078360
Probable space group: C 2/M
;
_chemical_formula_sum "Si O2"
_cell_formula_units_Z 40
_cell_length_a 22.123766
_cell_length_b 22.324913
_cell_length_c 11.182438
_cell_angle_alpha 90.000000
_cell_angle_beta 23.451145
_cell_angle_gamma 90.000000
_cell_volume 2198.023610
_symmetry_space_group_name_H-M "C 2/M"
_symmetry_group_IT_number 12
_symmetry_cell_setting 'monoclinic'
loop_
_space_group_symop_operation_xyz
x,y,z
-x,y,-z
-x,-y,-z
x,-y,z
1/2+x,1/2+y,z
1/2-x,1/2+y,-z
1/2-x,1/2-y,-z
1/2+x,1/2-y,z
loop_
_atom_site_type_symbol
_atom_site_label
_atom_site_fract_x
_atom_site_fract_y
_atom_site_fract_z
Si Si1 0.492761 0.930535 0.152586
Si Si2 0.000000 0.594392 0.500000
Si Si3 0.392061 0.829482 0.497099
Si Si4 0.351202 0.262840 0.933562
Si Si5 0.240373 0.563905 0.883528
Si Si6 0.000000 0.149248 0.500000
O O1 0.379622 0.879983 0.414908
O O2 0.439876 0.000000 0.273520
O O3 0.500000 0.917694 0.000000
O O4 0.661923 0.919427 0.899423
O O5 0.114870 0.636346 0.364602
O O6 0.100088 0.554803 0.229550
O O7 0.553204 0.794430 0.194100
O O8 0.247188 0.784904 0.772044
O O9 0.470098 0.312705 0.673812
O O10 0.250000 0.250000 0.000000
O O11 0.325216 0.500000 0.718419
O O12 0.355251 0.611919 0.723668
#
# Coordination Sequence:
#
# PCOD8078360 Si02
#       6
#     8   4   8   8   8   4
#     4   9  20  40  62  80 105 148 198 237 269 317
#     4  10  16  30  50  78 110 138 184 220 268 330
#     4  11  20  32  55  82 108 146 185 225 271 330
#     4  12  19  32  51  80 117 150 179 212 279 344
#     4  10  20  32  52  83 114 143 179 230 283 334
#     4  12  20  32  52  82 123 148 169 224 292 346
#
# _framework density 18.198167000000002
#
# number of rings (size 3 to 8) (size 9 to 14) (size 15 to 20)
#    0.000    1.400    6.000    1.800    0.000    0.800 
#    0.000    1.000    0.000    0.000    0.000    4.200 
#    0.000    0.000    0.000    0.000    0.000    0.000 
#
# Total GULP energy -247762.224263 kJ/mol
# GULP energy per Si atom -12388.111213 kJ/mol
# Density = 1.815675 g / cm^3
# Si number density = 18.198167 Si / 1000 Ang^3
#
#
#
# Elastic Constant Matrix: (Units=GPa)
#
#
# Indices 1 2 3 4 5 6 
#
# 1 90.8274 36.8288 30.9299 -0.0004 16.5537 0.0013
# 2 36.8288 101.6094 40.0045 -0.0034 10.2991 0.0019
# 3 30.9299 40.0045 77.8111 -0.0205 7.0245 0.0052
# 4 -0.0004 -0.0034 -0.0205 10.7256 0.0057 6.5334
# 5 16.5537 10.2991 7.0245 0.0057 19.6538 -0.0017
# 6 0.0013 0.0019 0.0052 6.5334 -0.0017 26.9980
#
#
#
# Elastic Compliance Matrix: (Units=1/GPa)
#
#
# Indices 1 2 3 4 5 6 
#
# 1 0.015317 -0.003132 -0.003577 -0.000002 -0.009981 0.000000
# 2 -0.003132 0.013348 -0.005399 -0.000006 -0.002428 0.000002
# 3 -0.003577 -0.005399 0.017073 0.000038 -0.000260 -0.000012
# 4 -0.000002 -0.000006 0.000038 0.109355 -0.000043 -0.026463
# 5 -0.009981 -0.002428 -0.000260 -0.000043 0.060653 0.000015
# 6 0.000000 0.000002 -0.000012 -0.026463 0.000015 0.043444
#
#
# Mechanical properties :
#
#
# Convention : Reuss Voigt Hill
#
# Bulk Modulus (GPa) = 46.46269 53.97494 50.21882
# Shear Modulus (GPa) = 17.20704 22.30780 19.75742
#
# Velocity S-wave (km/s) = 3.07829 3.50498 3.29854
# Velocity P-wave (km/s) = 6.18235 6.78998 6.49328
#
# Compressibility (1/GPa) = 0.02152264
#
# Stress axis : x y z
#
# Youngs Moduli (GPa) = 65.28651 74.91625 58.57294
#
# Poissons Ratio (x) = 0.23461 0.20954
# Poissons Ratio (y) = 0.20445 0.31622
# Poissons Ratio (z) = 0.23356 0.40445
#
# Static dielectric constant tensor:
#      x y z
#    x 3.099830 -0.000010 0.014370 
#    y -0.000010 3.654300 0.000040 
#    z 0.014370 0.000040 3.348470 
# 
# 
# High freq. dielectric constant tensor:
#      x y z
#    x 1.661760 0.000000 0.003050 
#    y 0.000000 1.731820 0.000000 
#    z 0.003050 0.000000 1.687490 
# 
# From -- ./inp_files/178245.got.cif
#   From: 2010.06.25/outbox.cif.g09.slc.cpg/sg12_90_cif.got.tgz:178245.got - 2010.06.28 00:19:55.
