data_PCOD8078124
_publ_section_title
;
Structure prediction by ZEFSAII (Michael W. Deem and Ramdas Pophale) SiO2 
 PCOD8078124
Probable space group: C 2/M
;
_chemical_formula_sum "Si O2"
_cell_formula_units_Z 64
_cell_length_a 28.073858
_cell_length_b 12.370749
_cell_length_c 25.408183
_cell_angle_alpha 90.000000
_cell_angle_beta 32.671608
_cell_angle_gamma 90.000000
_cell_volume 4763.468461
_symmetry_space_group_name_H-M "C 2/M"
_symmetry_group_IT_number 12
_symmetry_cell_setting 'monoclinic'
loop_
_space_group_symop_operation_xyz
x,y,z
-x,y,-z
-x,-y,-z
x,-y,z
1/2+x,1/2+y,z
1/2-x,1/2+y,-z
1/2-x,1/2-y,-z
1/2+x,1/2-y,z
loop_
_atom_site_type_symbol
_atom_site_label
_atom_site_fract_x
_atom_site_fract_y
_atom_site_fract_z
Si Si1 0.216106 0.316753 0.908480
Si Si2 0.924918 0.871653 0.607427
Si Si3 0.264610 0.375464 0.037882
Si Si4 0.050982 0.626959 0.901329
Si Si5 0.088407 0.121879 0.262348
Si Si6 0.398505 0.248332 0.847344
Si Si7 0.729383 0.873463 0.782457
Si Si8 0.461728 0.122043 0.879701
O O1 0.221332 0.192661 0.922035
O O2 0.305688 0.380367 0.837664
O O3 0.195417 0.313341 0.866080
O O4 0.141089 0.380776 0.009569
O O5 0.941220 0.833587 0.652533
O O6 0.828384 0.834162 0.675478
O O7 0.000000 0.820247 0.500000
O O8 0.930254 0.000000 0.600902
O O9 0.270648 0.500000 0.047251
O O10 0.168182 0.349388 0.104111
O O11 0.341664 0.346179 0.924952
O O12 0.031096 0.500000 0.918484
O O13 0.156308 0.652111 0.805900
O O14 0.016134 0.674268 0.878165
O O15 0.000000 0.675553 0.000000
O O16 0.052790 0.202515 0.249774
O O17 0.053025 0.000000 0.286008
O O18 0.472333 0.199734 0.818584
O O19 0.731330 0.000000 0.793867
O O20 0.493572 0.000000 0.836994
#
# Coordination Sequence:
#
# PCOD8078124 Si02
#       8
#     8   8   8   8   8   8   8   8
#     4   9  15  21  33  50  67  96 121 137 172 206
#     4   8  14  23  36  54  74  93 109 132 173 216
#     4   9  16  24  31  44  68  92 122 150 166 195
#     4   9  15  21  32  50  71  96 121 142 170 202
#     4   9  15  23  35  50  71  91 114 142 169 211
#     4   9  17  23  32  47  64  95 122 140 175 205
#     4   9  14  22  35  53  76  94 113 141 169 210
#     4  10  16  22  32  48  72  94 119 146 168 199
#
# _framework density 13.435587999999999
#
# number of rings (size 3 to 8) (size 9 to 14) (size 15 to 20)
#    0.000    3.000    1.250    3.375    0.000    0.000 
#    0.000    0.000    0.000    0.000    0.000    8.750 
#    0.000   50.000    0.000    0.000    0.000    0.000 
#
# Total GULP energy -396519.226151 kJ/mol
# GULP energy per Si atom -12391.225817 kJ/mol
# Density = 1.340501 g / cm^3
# Si number density = 13.435588 Si / 1000 Ang^3
#
#
#
# Elastic Constant Matrix: (Units=GPa)
#
#
# Indices 1 2 3 4 5 6 
#
# 1 110.9030 27.8888 35.5940 0.0000 5.2124 0.0000
# 2 27.8888 49.1693 12.0395 0.0000 3.4010 0.0000
# 3 35.5940 12.0395 58.1495 0.0000 9.4524 0.0000
# 4 0.0000 0.0000 0.0000 6.7100 0.0000 3.8287
# 5 5.2124 3.4010 9.4524 0.0000 15.0771 0.0000
# 6 0.0000 0.0000 0.0000 3.8287 0.0000 19.4018
#
#
#
# Elastic Compliance Matrix: (Units=1/GPa)
#
#
# Indices 1 2 3 4 5 6 
#
# 1 0.012502 -0.005531 -0.006690 0.000000 0.001119 0.000000
# 2 -0.005531 0.023942 -0.001119 0.000000 -0.002787 0.000000
# 3 -0.006690 -0.001119 0.023502 0.000000 -0.012169 0.000000
# 4 0.000000 0.000000 0.000000 0.167943 0.000000 -0.033142
# 5 0.001119 -0.002787 -0.012169 0.000000 0.074197 0.000000
# 6 0.000000 0.000000 0.000000 -0.033142 0.000000 0.058082
#
#
# Mechanical properties :
#
#
# Convention : Reuss Voigt Hill
#
# Bulk Modulus (GPa) = 30.05909 41.02959 35.54434
# Shear Modulus (GPa) = 12.56492 17.75107 15.15799
#
# Velocity S-wave (km/s) = 3.06142 3.63877 3.36251
# Velocity P-wave (km/s) = 5.90912 6.94683 6.44888
#
# Compressibility (1/GPa) = 0.03326780
#
# Stress axis : x y z
#
# Youngs Moduli (GPa) = 79.98694 41.76844 42.55045
#
# Poissons Ratio (x) = 0.23100 0.28464
# Poissons Ratio (y) = 0.44237 0.04759
# Poissons Ratio (z) = 0.53507 0.04672
#
# Static dielectric constant tensor:
#      x y z
#    x 2.889710 0.000000 0.089530 
#    y 0.000000 2.365480 0.000000 
#    z 0.089530 0.000000 2.571150 
# 
# 
# High freq. dielectric constant tensor:
#      x y z
#    x 1.516170 0.000000 0.006020 
#    y 0.000000 1.470150 0.000000 
#    z 0.006020 0.000000 1.470280 
# 
# From -- ./inp_files/369188.got.cif
#   From: 2010.06.25/outbox.cif.g09.slc.cpg/sg12_185_cif.got.tgz:369188.got - 2010.06.28 00:19:55.
