data_PCOD8078693
_publ_section_title
;
Structure prediction by ZEFSAII (Michael W. Deem and Ramdas Pophale) SiO2 
 PCOD8078693
Probable space group: C 2/M
;
_chemical_formula_sum "Si O2"
_cell_formula_units_Z 64
_cell_length_a 23.300654
_cell_length_b 13.350328
_cell_length_c 12.462827
_cell_angle_alpha 90.000000
_cell_angle_beta 113.616464
_cell_angle_gamma 90.000000
_cell_volume 3552.135202
_symmetry_space_group_name_H-M "C 2/M"
_symmetry_group_IT_number 12
_symmetry_cell_setting 'monoclinic'
loop_
_space_group_symop_operation_xyz
x,y,z
-x,y,-z
-x,-y,-z
x,-y,z
1/2+x,1/2+y,z
1/2-x,1/2+y,-z
1/2-x,1/2-y,-z
1/2+x,1/2-y,z
loop_
_atom_site_type_symbol
_atom_site_label
_atom_site_fract_x
_atom_site_fract_y
_atom_site_fract_z
Si Si1 0.082525 0.762260 0.981186
Si Si2 0.583814 0.387653 0.192750
Si Si3 0.646716 0.112068 0.155943
Si Si4 0.848643 0.785542 0.568221
Si Si5 0.519389 0.229298 0.400319
Si Si6 0.544347 0.387305 0.772634
Si Si7 0.481506 0.114756 0.817081
Si Si8 0.268865 0.113029 0.592219
O O1 0.095826 0.828343 0.884092
O O2 0.024233 0.686565 0.921236
O O3 0.070561 0.838494 0.068797
O O4 0.142108 0.691487 0.054776
O O5 0.609412 0.500000 0.195312
O O6 0.634253 0.325556 0.299874
O O7 0.518196 0.388923 0.203844
O O8 0.589596 0.130534 0.197337
O O9 0.711191 0.129082 0.268591
O O10 0.643423 0.000000 0.105859
O O11 0.805019 0.865914 0.474525
O O12 0.809761 0.682819 0.545178
O O13 0.909803 0.770063 0.541612
O O14 0.500000 0.181803 0.500000
O O15 0.471572 0.322811 0.344874
O O16 0.513439 0.145447 0.303826
O O17 0.566722 0.500000 0.759879
O O18 0.503499 0.000000 0.847079
O O19 0.283692 0.000000 0.567755
#
# Coordination Sequence:
#
# PCOD8078693 Si02
#       8
#     8   8   8   8   8   8   8   8
#     4  11  17  26  41  66  96 129 158 188 234 290
#     4  10  17  26  42  65  95 127 158 191 233 289
#     4  10  17  27  44  68  97 128 156 189 236 290
#     4  10  19  33  48  70 101 129 162 200 241 284
#     4  10  20  34  51  70  95 127 165 204 242 278
#     4   9  18  29  42  62  91 125 158 195 237 280
#     4  10  19  30  44  67  99 129 160 195 236 286
#     4  10  19  31  49  69  98 133 161 194 239 290
#
# _framework density 18.017332
#
# number of rings (size 3 to 8) (size 9 to 14) (size 15 to 20)
#    0.000    2.000    2.500    4.125    0.000    3.000 
#    0.000    0.000    0.000    0.000    0.000    3.500 
#    0.000    2.000    0.000    0.000    0.000    0.000 
#
# Total GULP energy -396657.556964 kJ/mol
# GULP energy per Si atom -12395.548655 kJ/mol
# Density = 1.797632 g / cm^3
# Si number density = 18.017332 Si / 1000 Ang^3
#
#
#
# Elastic Constant Matrix: (Units=GPa)
#
#
# Indices 1 2 3 4 5 6 
#
# 1 32.2773 15.4883 35.7811 0.0000 5.7801 0.0000
# 2 15.4883 108.3294 29.2256 0.0000 9.3190 0.0000
# 3 35.7811 29.2256 87.2973 0.0000 16.8511 0.0000
# 4 0.0000 0.0000 0.0000 27.5213 0.0000 8.0872
# 5 5.7801 9.3190 16.8511 0.0000 19.9783 0.0000
# 6 0.0000 0.0000 0.0000 8.0872 0.0000 14.2532
#
#
#
# Elastic Compliance Matrix: (Units=1/GPa)
#
#
# Indices 1 2 3 4 5 6 
#
# 1 0.057501 -0.002210 -0.023670 0.000000 0.004360 0.000000
# 2 -0.002210 0.010317 -0.002081 0.000000 -0.002417 0.000000
# 3 -0.023670 -0.002081 0.024301 0.000000 -0.012678 0.000000
# 4 0.000000 0.000000 0.000000 0.043606 0.000000 -0.024742
# 5 0.004360 -0.002417 -0.012678 0.000000 0.060614 0.000000
# 6 0.000000 0.000000 0.000000 -0.024742 0.000000 0.084198
#
#
# Mechanical properties :
#
#
# Convention : Reuss Voigt Hill
#
# Bulk Modulus (GPa) = 27.62785 43.21046 35.41915
# Shear Modulus (GPa) = 14.34623 22.17782 18.26202
#
# Velocity S-wave (km/s) = 2.82484 3.51225 3.18713
# Velocity P-wave (km/s) = 5.09970 6.36260 5.76583
#
# Compressibility (1/GPa) = 0.03619536
#
# Stress axis : x y z
#
# Youngs Moduli (GPa) = 17.39108 96.93149 41.15094
#
# Poissons Ratio (x) = 0.21426 0.97403
# Poissons Ratio (y) = 0.03844 0.08564
# Poissons Ratio (z) = 0.41164 0.20173
#
# Static dielectric constant tensor:
#      x y z
#    x 2.731850 0.000000 0.367080 
#    y 0.000000 3.832600 0.000000 
#    z 0.367080 0.000000 3.528910 
# 
# 
# High freq. dielectric constant tensor:
#      x y z
#    x 1.617970 0.000000 0.030730 
#    y 0.000000 1.720620 0.000000 
#    z 0.030730 0.000000 1.704640 
# 
# From -- ./inp_files/167291.got.cif
#   From: 2010.06.25/outbox.cif.g09.slc.cpg/sg12_84_cif.got.tgz:167291.got - 2010.06.28 00:19:55.
