data_PCOD8078704
_publ_section_title
;
Structure prediction by ZEFSAII (Michael W. Deem and Ramdas Pophale) SiO2 
 PCOD8078704
Probable space group: C 2/M
;
_chemical_formula_sum "Si O2"
_cell_formula_units_Z 48
_cell_length_a 32.740873
_cell_length_b 9.244804
_cell_length_c 22.880755
_cell_angle_alpha 90.000000
_cell_angle_beta 155.544139
_cell_angle_gamma 90.000000
_cell_volume 2867.149776
_symmetry_space_group_name_H-M "C 2/M"
_symmetry_group_IT_number 12
_symmetry_cell_setting 'monoclinic'
loop_
_space_group_symop_operation_xyz
x,y,z
-x,y,-z
-x,-y,-z
x,-y,z
1/2+x,1/2+y,z
1/2-x,1/2+y,-z
1/2-x,1/2-y,-z
1/2+x,1/2-y,z
loop_
_atom_site_type_symbol
_atom_site_label
_atom_site_fract_x
_atom_site_fract_y
_atom_site_fract_z
Si Si1 0.923204 0.830635 0.076638
Si Si2 0.964826 0.830920 0.893128
Si Si3 0.610232 0.839539 0.790888
Si Si4 0.759898 0.661979 0.923699
Si Si5 0.764464 0.832121 0.578795
Si Si6 0.050670 0.332928 0.334550
O O1 0.952226 0.800722 0.047489
O O2 0.009838 0.767119 0.229711
O O3 0.913030 0.000000 0.077208
O O4 0.818088 0.754520 0.950978
O O5 0.858789 0.766055 0.735591
O O6 0.949069 0.000000 0.882521
O O7 0.000000 0.758745 0.000000
O O8 0.652526 0.731855 0.796812
O O9 0.500866 0.792239 0.670435
O O10 0.608653 0.000000 0.761404
O O11 0.677901 0.837287 0.936291
O O12 0.743310 0.500000 0.878515
O O13 0.750000 0.750000 0.500000
O O14 0.667791 0.810322 0.493316
O O15 0.781993 0.000000 0.586490
O O16 0.024423 0.500000 0.284938
#
# Coordination Sequence:
#
# PCOD8078704 Si02
#       6
#     8   8   8   8   8   8
#     4  10  17  26  43  64  86 118 153 185 222 267
#     4   9  18  31  46  67  94 123 156 190 226 270
#     4   8  14  24  36  56  85 115 143 176 221 271
#     4   9  16  25  38  58  86 117 145 181 225 268
#     4  10  18  30  48  69  92 121 154 190 230 272
#     4   9  17  27  42  64  91 117 145 185 229 267
#
# _framework density 16.741364999999998
#
# number of rings (size 3 to 8) (size 9 to 14) (size 15 to 20)
#    0.000    2.833    1.667    2.000    0.000    4.000 
#    0.000    0.000    0.000    4.500    0.000    1.167 
#    0.000    9.333    0.000    0.000    0.000    0.000 
#
# Total GULP energy -297472.458737 kJ/mol
# GULP energy per Si atom -12394.685781 kJ/mol
# Density = 1.670326 g / cm^3
# Si number density = 16.741365 Si / 1000 Ang^3
#
#
#
# Elastic Constant Matrix: (Units=GPa)
#
#
# Indices 1 2 3 4 5 6 
#
# 1 114.8223 53.6760 64.9065 0.0000 23.5800 0.0000
# 2 53.6760 81.1768 31.7518 0.0000 10.1965 0.0000
# 3 64.9065 31.7518 80.9668 0.0000 10.4895 0.0000
# 4 0.0000 0.0000 0.0000 12.6485 0.0000 6.2515
# 5 23.5800 10.1965 10.4895 0.0000 26.8179 0.0000
# 6 0.0000 0.0000 0.0000 6.2515 0.0000 22.8625
#
#
#
# Elastic Compliance Matrix: (Units=1/GPa)
#
#
# Indices 1 2 3 4 5 6 
#
# 1 0.022343 -0.008170 -0.013236 0.000000 -0.011363 0.000000
# 2 -0.008170 0.017852 -0.000530 0.000000 0.000603 0.000000
# 3 -0.013236 -0.000530 0.022790 0.000000 0.002925 0.000000
# 4 0.000000 0.000000 0.000000 0.091415 0.000000 -0.024996
# 5 -0.011363 0.000603 0.002925 0.000000 0.045906 0.000000
# 6 0.000000 0.000000 0.000000 -0.024996 0.000000 0.050575
#
#
# Mechanical properties :
#
#
# Convention : Reuss Voigt Hill
#
# Bulk Modulus (GPa) = 52.31420 64.18159 58.24790
# Shear Modulus (GPa) = 16.60449 20.90788 18.75619
#
# Velocity S-wave (km/s) = 3.15274 3.53778 3.35079
# Velocity P-wave (km/s) = 6.67603 7.42349 7.05966
#
# Compressibility (1/GPa) = 0.01911527
#
# Stress axis : x y z
#
# Youngs Moduli (GPa) = 44.75586 56.01508 43.87932
#
# Poissons Ratio (x) = 0.45763 0.58077
# Poissons Ratio (y) = 0.36564 0.02325
# Poissons Ratio (z) = 0.59237 0.02968
#
# Static dielectric constant tensor:
#      x y z
#    x 3.327650 0.000000 0.427530 
#    y 0.000000 3.157600 0.000000 
#    z 0.427530 0.000000 3.053500 
# 
# 
# High freq. dielectric constant tensor:
#      x y z
#    x 1.644360 0.000000 0.042260 
#    y 0.000000 1.636520 0.000000 
#    z 0.042260 0.000000 1.599230 
# 
# From -- ./inp_files/314481.got.cif
#   From: 2010.06.25/outbox.cif.g09.slc.cpg/sg12_158_cif.got.tgz:314481.got - 2010.06.28 00:19:55.
