data_PCOD8078870
_publ_section_title
;
Structure prediction by ZEFSAII (Michael W. Deem and Ramdas Pophale) SiO2 
 PCOD8078870
Probable space group: C 2/M
;
_chemical_formula_sum "Si O2"
_cell_formula_units_Z 64
_cell_length_a 19.357425
_cell_length_b 9.156796
_cell_length_c 24.119000
_cell_angle_alpha 90.000000
_cell_angle_beta 121.662655
_cell_angle_gamma 90.000000
_cell_volume 3638.800737
_symmetry_space_group_name_H-M "C 2/M"
_symmetry_group_IT_number 12
_symmetry_cell_setting 'monoclinic'
loop_
_space_group_symop_operation_xyz
x,y,z
-x,y,-z
-x,-y,-z
x,-y,z
1/2+x,1/2+y,z
1/2-x,1/2+y,-z
1/2-x,1/2-y,-z
1/2+x,1/2-y,z
loop_
_atom_site_type_symbol
_atom_site_label
_atom_site_fract_x
_atom_site_fract_y
_atom_site_fract_z
Si Si1 0.454454 0.330480 0.858894
Si Si2 0.894011 0.171100 0.715573
Si Si3 0.989945 0.830195 0.329312
Si Si4 0.181222 0.169254 0.106170
Si Si5 0.041807 0.330317 0.572911
Si Si6 0.431737 0.834979 0.017901
Si Si7 0.220993 0.668469 0.676695
Si Si8 0.691952 0.669530 0.775057
O O1 0.478783 0.500000 0.867344
O O2 0.429479 0.267292 0.788301
O O3 0.378613 0.306415 0.867445
O O4 0.532952 0.241028 0.912191
O O5 0.797870 0.205645 0.669881
O O6 0.941135 0.236593 0.682361
O O7 0.910475 0.000000 0.722820
O O8 0.996230 0.748554 0.390200
O O9 0.904209 0.803046 0.262999
O O10 0.003343 0.000000 0.347637
O O11 0.146033 0.245240 0.036233
O O12 0.267027 0.244344 0.156858
O O13 0.195263 0.000000 0.099029
O O14 0.022017 0.500000 0.571484
O O15 0.138324 0.301656 0.608244
O O16 0.000000 0.266999 0.500000
O O17 0.405391 0.000000 0.020901
O O18 0.500000 0.831944 0.000000
O O19 0.225569 0.500000 0.699018
O O20 0.226913 0.771024 0.732199
O O21 0.714408 0.500000 0.789202
#
# Coordination Sequence:
#
# PCOD8078870 Si02
#       8
#     8   8   8   8   8   8   8   8
#     4   9  16  27  44  65  89 120 159 197 235 284
#     4   9  16  30  50  71  94 124 163 199 234 281
#     4   9  19  33  50  72  98 127 158 195 238 285
#     4  10  17  27  45  67  90 122 164 202 237 283
#     4   9  18  33  53  75 100 129 160 195 233 276
#     4   9  17  27  39  62  95 125 153 195 249 291
#     4   9  16  30  51  71  92 125 165 196 228 279
#     4  10  18  28  44  69  97 122 153 199 249 285
#
# _framework density 17.588213
#
# number of rings (size 3 to 8) (size 9 to 14) (size 15 to 20)
#    0.000    2.750    1.250    1.125    0.000    2.750 
#    0.000    1.875    0.000    0.750    0.000    0.000 
#    0.000    0.000    0.000    0.000    0.000    0.000 
#
# Total GULP energy -396748.956561 kJ/mol
# GULP energy per Si atom -12398.404893 kJ/mol
# Density = 1.754818 g / cm^3
# Si number density = 17.588213 Si / 1000 Ang^3
#
#
#
# Elastic Constant Matrix: (Units=GPa)
#
#
# Indices 1 2 3 4 5 6 
#
# 1 99.5199 29.4086 49.2909 0.0000 0.2235 0.0000
# 2 29.4086 74.2195 46.4776 0.0000 4.9870 0.0000
# 3 49.2909 46.4776 132.4564 0.0000 4.6802 0.0000
# 4 0.0000 0.0000 0.0000 26.8513 0.0000 0.8260
# 5 0.2235 4.9870 4.6802 0.0000 17.6050 0.0000
# 6 0.0000 0.0000 0.0000 0.8260 0.0000 14.8672
#
#
#
# Elastic Compliance Matrix: (Units=1/GPa)
#
#
# Indices 1 2 3 4 5 6 
#
# 1 0.012762 -0.002764 -0.003837 0.000000 0.001641 0.000000
# 2 -0.002764 0.018060 -0.005178 0.000000 -0.003704 0.000000
# 3 -0.003837 -0.005178 0.010843 0.000000 -0.001367 0.000000
# 4 0.000000 0.000000 0.000000 0.037306 0.000000 -0.002073
# 5 0.001641 -0.003704 -0.001367 0.000000 0.058194 0.000000
# 6 0.000000 0.000000 0.000000 -0.002073 0.000000 0.067377
#
#
# Mechanical properties :
#
#
# Convention : Reuss Voigt Hill
#
# Bulk Modulus (GPa) = 55.22781 61.83889 58.53335
# Shear Modulus (GPa) = 21.35522 23.93262 22.64392
#
# Velocity S-wave (km/s) = 3.48829 3.69279 3.59200
# Velocity P-wave (km/s) = 6.90600 7.30876 7.11023
#
# Compressibility (1/GPa) = 0.01810682
#
# Stress axis : x y z
#
# Youngs Moduli (GPa) = 78.35862 55.37104 92.22854
#
# Poissons Ratio (x) = 0.15305 0.35389
# Poissons Ratio (y) = 0.21659 0.47752
# Poissons Ratio (z) = 0.30067 0.28669
#
# Static dielectric constant tensor:
#      x y z
#    x 3.122430 0.000000 0.122290 
#    y 0.000000 3.220100 0.000000 
#    z 0.122290 0.000000 3.355140 
# 
# 
# High freq. dielectric constant tensor:
#      x y z
#    x 1.648500 0.000000 0.014250 
#    y 0.000000 1.670920 0.000000 
#    z 0.014250 0.000000 1.678880 
# 
# From -- ./inp_files/365250.got.cif
#   From: 2010.06.25/outbox.cif.g09.slc.cpg/sg12_183_cif.got.tgz:365250.got - 2010.06.28 00:19:55.
