data_PCOD8078187
_publ_section_title
;
Structure prediction by ZEFSAII (Michael W. Deem and Ramdas Pophale) SiO2 
 PCOD8078187
Probable space group: C 2/M
;
_chemical_formula_sum "Si O2"
_cell_formula_units_Z 64
_cell_length_a 30.216343
_cell_length_b 8.866681
_cell_length_c 31.012133
_cell_angle_alpha 90.000000
_cell_angle_beta 151.099930
_cell_angle_gamma 90.000000
_cell_volume 4015.471512
_symmetry_space_group_name_H-M "C 2/M"
_symmetry_group_IT_number 12
_symmetry_cell_setting 'monoclinic'
loop_
_space_group_symop_operation_xyz
x,y,z
-x,y,-z
-x,-y,-z
x,-y,z
1/2+x,1/2+y,z
1/2-x,1/2+y,-z
1/2-x,1/2-y,-z
1/2+x,1/2-y,z
loop_
_atom_site_type_symbol
_atom_site_label
_atom_site_fract_x
_atom_site_fract_y
_atom_site_fract_z
Si Si1 0.870814 0.677455 0.067643
Si Si2 0.337680 0.320352 0.798522
Si Si3 0.131834 0.321203 0.759035
Si Si4 0.676542 0.321164 0.116915
Si Si5 0.641554 0.820665 0.608719
Si Si6 0.027092 0.820736 0.921621
Si Si7 0.478824 0.178831 0.415292
Si Si8 0.836701 0.822720 0.126132
O O1 0.883439 0.500000 0.080965
O O2 0.947062 0.746903 0.101624
O O3 0.886731 0.745929 0.128449
O O4 0.770345 0.722973 0.964505
O O5 0.338980 0.500000 0.801748
O O6 0.339112 0.255571 0.848492
O O7 0.245980 0.260690 0.695949
O O8 0.425810 0.262825 0.847564
O O9 0.132529 0.500000 0.767251
O O10 0.226919 0.264733 0.819421
O O11 0.050069 0.268151 0.657180
O O12 0.115043 0.238656 0.789801
O O13 0.675810 0.500000 0.118313
O O14 0.595620 0.262091 0.017177
O O15 0.593488 0.758771 0.611209
O O16 0.581752 0.766574 0.516083
O O17 0.642877 0.000000 0.611500
O O18 0.032169 0.000000 0.921263
O O19 0.473637 0.000000 0.412482
O O20 0.850240 0.000000 0.134054
#
# Coordination Sequence:
#
# PCOD8078187 Si02
#       8
#     8   8   8   8   8   8   8   8
#     4  10  20  33  47  63  85 113 144 179 218 260
#     4   9  15  23  37  60  89 121 155 185 211 242
#     4  10  16  25  43  66  90 117 145 176 217 258
#     4   9  15  23  36  59  90 119 150 181 206 242
#     4   8  12  20  33  57  90 118 146 183 218 245
#     4  10  18  27  42  63  88 119 152 183 214 249
#     4   8  13  20  35  59  89 118 144 179 220 254
#     4  10  20  32  47  65  86 111 142 178 219 264
#
# _framework density 15.938352999999999
#
# number of rings (size 3 to 8) (size 9 to 14) (size 15 to 20)
#    0.000    2.750    2.500    1.875    0.000    2.500 
#    0.000    0.000    0.000    2.250    0.000    3.500 
#    0.000    0.000    0.000    0.000    0.000    0.000 
#
# Total GULP energy -396636.670660 kJ/mol
# GULP energy per Si atom -12394.895958 kJ/mol
# Density = 1.590208 g / cm^3
# Si number density = 15.938353 Si / 1000 Ang^3
#
#
#
# Elastic Constant Matrix: (Units=GPa)
#
#
# Indices 1 2 3 4 5 6 
#
# 1 123.6136 25.3440 74.2453 -0.0001 -10.3097 -0.0001
# 2 25.3440 24.8592 19.6897 -0.0007 -4.2076 -0.0024
# 3 74.2453 19.6897 135.2845 0.0001 -9.0497 0.0000
# 4 -0.0001 -0.0007 0.0001 9.0545 0.0001 -3.8894
# 5 -10.3097 -4.2076 -9.0497 0.0001 25.0471 0.0000
# 6 -0.0001 -0.0024 0.0000 -3.8894 0.0000 18.3227
#
#
#
# Elastic Compliance Matrix: (Units=1/GPa)
#
#
# Indices 1 2 3 4 5 6 
#
# 1 0.013742 -0.008826 -0.006126 -0.000001 0.001960 -0.000001
# 2 -0.008826 0.051855 -0.002422 0.000008 0.004203 0.000008
# 3 -0.006126 -0.002422 0.011181 -0.000001 0.001111 0.000000
# 4 -0.000001 0.000008 -0.000001 0.121523 0.000000 0.025796
# 5 0.001960 0.004203 0.001111 0.000000 0.041839 0.000001
# 6 -0.000001 0.000008 0.000000 0.025796 0.000001 0.060053
#
#
# Mechanical properties :
#
#
# Convention : Reuss Voigt Hill
#
# Bulk Modulus (GPa) = 23.79319 58.03504 40.91411
# Shear Modulus (GPa) = 14.32866 21.45009 17.88937
#
# Velocity S-wave (km/s) = 3.00159 3.67252 3.35387
# Velocity P-wave (km/s) = 5.19359 7.38068 6.38153
#
# Compressibility (1/GPa) = 0.04202884
#
# Stress axis : x y z
#
# Youngs Moduli (GPa) = 72.76740 19.28465 89.43921
#
# Poissons Ratio (x) = 0.17021 0.54792
# Poissons Ratio (y) = 0.64227 0.21662
# Poissons Ratio (z) = 0.44579 0.04671
#
# Static dielectric constant tensor:
#      x y z
#    x 2.962220 0.000000 -0.055760 
#    y 0.000000 2.555030 0.000000 
#    z -0.055760 0.000000 3.321160 
# 
# 
# High freq. dielectric constant tensor:
#      x y z
#    x 1.596270 0.000000 -0.011430 
#    y 0.000000 1.567510 0.000000 
#    z -0.011430 0.000000 1.607060 
# 
# From -- ./inp_files/384537.got.cif
#   From: 2010.06.25/outbox.cif.g09.slc.cpg/sg12_193_cif.got.tgz:384537.got - 2010.06.28 00:19:55.
