data_PCOD8078264
_publ_section_title
;
Structure prediction by ZEFSAII (Michael W. Deem and Ramdas Pophale) SiO2 
 PCOD8078264
Probable space group: C 2/M
;
_chemical_formula_sum "Si O2"
_cell_formula_units_Z 40
_cell_length_a 19.782026
_cell_length_b 26.207735
_cell_length_c 5.190886
_cell_angle_alpha 90.000000
_cell_angle_beta 84.620544
_cell_angle_gamma 90.000000
_cell_volume 2679.320926
_symmetry_space_group_name_H-M "C 2/M"
_symmetry_group_IT_number 12
_symmetry_cell_setting 'monoclinic'
loop_
_space_group_symop_operation_xyz
x,y,z
-x,y,-z
-x,-y,-z
x,-y,z
1/2+x,1/2+y,z
1/2-x,1/2+y,-z
1/2-x,1/2-y,-z
1/2+x,1/2-y,z
loop_
_atom_site_type_symbol
_atom_site_label
_atom_site_fract_x
_atom_site_fract_y
_atom_site_fract_z
Si Si1 0.956368 0.943358 0.760732
Si Si2 0.184250 0.713749 0.549272
Si Si3 0.075937 0.795198 0.561331
Si Si4 0.377311 0.349269 0.957490
Si Si5 0.766692 0.309970 0.968265
O O1 0.000000 0.922081 0.500000
O O2 0.928514 0.000000 0.699353
O O3 0.894490 0.905962 0.850848
O O4 0.000000 0.946936 0.000000
O O5 0.250000 0.750000 0.500000
O O6 0.114989 0.744176 0.633138
O O7 0.195873 0.674170 0.780677
O O8 0.180696 0.681470 0.286235
O O9 0.076873 0.833704 0.808485
O O10 0.000000 0.783202 0.500000
O O11 0.114375 0.813760 0.293473
O O12 0.298980 0.344778 0.066593
O O13 0.750000 0.250000 0.000000
#
# Coordination Sequence:
#
# PCOD8078264 Si02
#       5
#     8   8   8   8   8
#     4  10  21  35  45  57  82 111 140 182 226 249
#     4  10  16  30  40  54  81 108 127 164 204 248
#     4  12  21  27  41  63  83 103 139 179 203 237
#     4  12  19  30  45  61  78 105 144 177 209 245
#     4  10  16  28  44  57  77 105 131 167 199 254
#
# _framework density 14.929157
#
# number of rings (size 3 to 8) (size 9 to 14) (size 15 to 20)
#    0.000    1.200    8.000    3.600    0.000    0.000 
#    0.000    0.000    0.000    0.000    0.000    0.000 
#    0.000    0.000    0.000    0.000    0.000    6.000 
#
# Total GULP energy -247789.428559 kJ/mol
# GULP energy per Si atom -12389.471428 kJ/mol
# Density = 1.489518 g / cm^3
# Si number density = 14.929157 Si / 1000 Ang^3
#
#
#
# Elastic Constant Matrix: (Units=GPa)
#
#
# Indices 1 2 3 4 5 6 
#
# 1 65.8583 37.3655 22.9906 0.0000 6.3168 0.0000
# 2 37.3655 48.9349 18.8346 0.0000 -7.0842 0.0000
# 3 22.9906 18.8346 130.8460 0.0000 10.2127 0.0000
# 4 0.0000 0.0000 0.0000 19.2742 0.0000 -6.8211
# 5 6.3168 -7.0842 10.2127 0.0000 24.4281 0.0000
# 6 0.0000 0.0000 0.0000 -6.8211 0.0000 24.1757
#
#
#
# Elastic Compliance Matrix: (Units=1/GPa)
#
#
# Indices 1 2 3 4 5 6 
#
# 1 0.031834 -0.026347 -0.000581 0.000000 -0.015630 0.000000
# 2 -0.026347 0.044993 -0.003512 0.000000 0.021329 0.000000
# 3 -0.000581 -0.003512 0.008599 0.000000 -0.004463 0.000000
# 4 0.000000 0.000000 0.000000 0.057638 0.000000 0.016262
# 5 -0.015630 0.021329 -0.004463 0.000000 0.053030 0.000000
# 6 0.000000 0.000000 0.000000 0.016262 0.000000 0.045952
#
#
# Mechanical properties :
#
#
# Convention : Reuss Voigt Hill
#
# Bulk Modulus (GPa) = 40.74037 44.89120 42.81579
# Shear Modulus (GPa) = 16.07163 24.67217 20.37190
#
# Velocity S-wave (km/s) = 3.28461 4.06965 3.69802
# Velocity P-wave (km/s) = 6.46013 7.22617 6.85386
#
# Compressibility (1/GPa) = 0.02454568
#
# Stress axis : x y z
#
# Youngs Moduli (GPa) = 31.41251 22.22583 116.29898
#
# Poissons Ratio (x) = 0.58558 0.06758
# Poissons Ratio (y) = 0.82763 0.40842
# Poissons Ratio (z) = 0.01825 0.07805
#
# Static dielectric constant tensor:
#      x y z
#    x 2.691480 0.000000 -0.374270 
#    y 0.000000 2.680520 0.000000 
#    z -0.374270 0.000000 -4.073460 
# 
# 
# High freq. dielectric constant tensor:
#      x y z
#    x 1.543260 0.000000 0.011730 
#    y 0.000000 1.505670 0.000000 
#    z 0.011730 0.000000 1.615160 
# 
# From -- ./inp_files/17088.got.cif
#   From: 2010.06.25/outbox.cif.g09.slc.cpg/sg12_9_cif.got.tgz:17088.got - 2010.06.28 00:19:55.
