data_PCOD8078607
_publ_section_title
;
Structure prediction by ZEFSAII (Michael W. Deem and Ramdas Pophale) SiO2 
 PCOD8078607
Probable space group: C 2/M
;
_chemical_formula_sum "Si O2"
_cell_formula_units_Z 56
_cell_length_a 18.946068
_cell_length_b 8.966053
_cell_length_c 20.456245
_cell_angle_alpha 90.000000
_cell_angle_beta 117.573363
_cell_angle_gamma 90.000000
_cell_volume 3080.245298
_symmetry_space_group_name_H-M "C 2/M"
_symmetry_group_IT_number 12
_symmetry_cell_setting 'monoclinic'
loop_
_space_group_symop_operation_xyz
x,y,z
-x,y,-z
-x,-y,-z
x,-y,z
1/2+x,1/2+y,z
1/2-x,1/2+y,-z
1/2-x,1/2-y,-z
1/2+x,1/2-y,z
loop_
_atom_site_type_symbol
_atom_site_label
_atom_site_fract_x
_atom_site_fract_y
_atom_site_fract_z
Si Si1 0.078123 0.331683 0.489569
Si Si2 0.548645 0.826156 0.939796
Si Si3 0.990476 0.670139 0.778446
Si Si4 0.112478 0.177317 0.080423
Si Si5 0.163820 0.174646 0.634931
Si Si6 0.675848 0.174536 0.226476
Si Si7 0.013556 0.174470 0.655305
O O1 0.103075 0.500000 0.484875
O O2 0.150254 0.254151 0.559430
O O3 0.000000 0.320523 0.500000
O O4 0.060914 0.250835 0.413486
O O5 0.555881 0.808786 0.864495
O O6 0.470448 0.736592 0.927200
O O7 0.539958 0.000000 0.954612
O O8 0.622138 0.750803 0.011558
O O9 0.990465 0.500000 0.753422
O O10 0.902912 0.714499 0.766395
O O11 0.016001 0.777655 0.731394
O O12 0.179785 0.235196 0.159543
O O13 0.114890 0.000000 0.076130
O O14 0.248876 0.225842 0.698729
O O15 0.096837 0.223191 0.658427
O O16 0.160582 0.000000 0.620236
O O17 0.678741 0.000000 0.210602
O O18 0.000295 0.000000 0.644761
#
# Coordination Sequence:
#
# PCOD8078607 Si02
#       7
#     8   8   8   8   8   8   8
#     4   9  17  30  49  71  94 121 155 194 231 273
#     4   9  16  28  45  64  90 126 162 192 228 275
#     4   9  18  31  48  70  95 124 156 191 231 277
#     4  10  17  25  42  69  96 120 153 197 236 272
#     4   9  18  33  52  72  93 121 158 195 232 276
#     4   9  18  33  50  68  95 128 158 190 232 281
#     4  10  19  31  50  73  96 122 153 193 236 278
#
# _framework density 18.180368999999999
#
# number of rings (size 3 to 8) (size 9 to 14) (size 15 to 20)
#    0.000    2.714    0.000    4.286    0.000    5.714 
#    0.000    0.714    0.000    0.857    0.000    0.000 
#    0.000    0.000    0.000    0.000    0.000    0.000 
#
# Total GULP energy -347063.285507 kJ/mol
# GULP energy per Si atom -12395.117340 kJ/mol
# Density = 1.813899 g / cm^3
# Si number density = 18.180369 Si / 1000 Ang^3
#
#
#
# Elastic Constant Matrix: (Units=GPa)
#
#
# Indices 1 2 3 4 5 6 
#
# 1 19.8601 9.6584 2.7970 0.0000 -6.5624 0.0000
# 2 9.6584 76.2859 31.4343 0.0000 -8.7038 0.0000
# 3 2.7970 31.4343 60.1983 0.0000 -21.6873 0.0000
# 4 0.0000 0.0000 0.0000 39.2860 0.0000 -4.4168
# 5 -6.5624 -8.7038 -21.6873 0.0000 19.3562 0.0000
# 6 0.0000 0.0000 0.0000 -4.4168 0.0000 14.5259
#
#
#
# Elastic Compliance Matrix: (Units=1/GPa)
#
#
# Indices 1 2 3 4 5 6 
#
# 1 0.064319 -0.010264 0.014362 0.000000 0.033282 0.000000
# 2 -0.010264 0.018508 -0.012481 0.000000 -0.009141 0.000000
# 3 0.014362 -0.012481 0.037217 0.000000 0.040956 0.000000
# 4 0.000000 0.000000 0.000000 0.026355 0.000000 0.008014
# 5 0.033282 -0.009141 0.040956 0.000000 0.104725 0.000000
# 6 0.000000 0.000000 0.000000 0.008014 0.000000 0.071279
#
#
# Mechanical properties :
#
#
# Convention : Reuss Voigt Hill
#
# Bulk Modulus (GPa) = 9.68268 27.12486 18.40377
# Shear Modulus (GPa) = 13.38349 22.13059 17.75704
#
# Velocity S-wave (km/s) = 2.71615 3.49274 3.12863
# Velocity P-wave (km/s) = 3.89540 5.58730 4.81622
#
# Compressibility (1/GPa) = 0.10327715
#
# Stress axis : x y z
#
# Youngs Moduli (GPa) = 15.54755 54.03089 26.86968
#
# Poissons Ratio (x) = 0.55456 -0.38589
# Poissons Ratio (y) = 0.15958 0.33536
# Poissons Ratio (z) = -0.22329 0.67435
#
# Static dielectric constant tensor:
#      x y z
#    x 2.855920 0.000000 0.047650 
#    y 0.000000 3.328190 0.000000 
#    z 0.047650 0.000000 4.020890 
# 
# 
# High freq. dielectric constant tensor:
#      x y z
#    x 1.638440 0.000000 -0.000910 
#    y 0.000000 1.709000 0.000000 
#    z -0.000910 0.000000 1.729720 
# 
# From -- ./inp_files/319327.got.cif
#   From: 2010.06.25/outbox.cif.g09.slc.cpg/sg12_160_cif.got.tgz:319327.got - 2010.06.28 00:19:55.
