data_PCOD8078711
_publ_section_title
;
Structure prediction by ZEFSAII (Michael W. Deem and Ramdas Pophale) SiO2 
 PCOD8078711
Probable space group: C 2/M
;
_chemical_formula_sum "Si O2"
_cell_formula_units_Z 56
_cell_length_a 17.618004
_cell_length_b 13.354798
_cell_length_c 15.927632
_cell_angle_alpha 90.000000
_cell_angle_beta 111.715093
_cell_angle_gamma 90.000000
_cell_volume 3481.588039
_symmetry_space_group_name_H-M "C 2/M"
_symmetry_group_IT_number 12
_symmetry_cell_setting 'monoclinic'
loop_
_space_group_symop_operation_xyz
x,y,z
-x,y,-z
-x,-y,-z
x,-y,z
1/2+x,1/2+y,z
1/2-x,1/2+y,-z
1/2-x,1/2-y,-z
1/2+x,1/2-y,z
loop_
_atom_site_type_symbol
_atom_site_label
_atom_site_fract_x
_atom_site_fract_y
_atom_site_fract_z
Si Si1 0.097400 0.386600 0.870940
Si Si2 0.641930 0.698909 0.795361
Si Si3 0.031077 0.117512 0.230327
Si Si4 0.425801 0.387769 0.576219
Si Si5 0.453435 0.777258 0.896815
Si Si6 0.884216 0.886448 0.385204
Si Si7 0.807787 0.614865 0.920455
O O1 0.093560 0.500000 0.835866
O O2 0.125265 0.316293 0.805351
O O3 0.007868 0.355874 0.866951
O O4 0.162186 0.375272 0.972106
O O5 0.565646 0.633850 0.796692
O O6 0.659556 0.682115 0.703044
O O7 0.718998 0.663745 0.880638
O O8 0.081723 0.159409 0.333277
O O9 0.063875 0.177148 0.163464
O O10 0.046881 0.000000 0.223027
O O11 0.392547 0.500000 0.567605
O O12 0.375219 0.339060 0.476752
O O13 0.520796 0.389048 0.594953
O O14 0.367563 0.828340 0.881151
O O15 0.500000 0.744202 0.000000
O O16 0.849028 0.000000 0.366077
O O17 0.804279 0.500000 0.890423
#
# Coordination Sequence:
#
# PCOD8078711 Si02
#       7
#     8   8   8   8   8   8   8
#     4   9  18  31  44  58  80 112 144 170 198 241
#     4  10  17  26  43  67  86 102 131 173 216 246
#     4   9  16  27  43  64  88 110 134 168 208 245
#     4   7  11  20  36  58  83 108 131 158 197 245
#     4   9  18  30  43  59  80 112 149 172 193 237
#     4   8  12  20  36  61  87 104 125 162 205 244
#     4  10  18  29  44  61  83 108 137 174 208 238
#
# _framework density 16.084613999999998
#
# number of rings (size 3 to 8) (size 9 to 14) (size 15 to 20)
#    0.000    3.143    0.000    3.857    0.000    2.000 
#    0.000    0.714    0.000    0.857    0.000   19.000 
#    0.000    0.000    0.000    0.000    0.000    0.000 
#
# Total GULP energy -346870.297608 kJ/mol
# GULP energy per Si atom -12388.224915 kJ/mol
# Density = 1.604800 g / cm^3
# Si number density = 16.084614 Si / 1000 Ang^3
#
#
#
# Elastic Constant Matrix: (Units=GPa)
#
#
# Indices 1 2 3 4 5 6 
#
# 1 34.7208 26.2859 24.6571 0.0000 -6.4355 0.0000
# 2 26.2859 101.7906 53.4353 0.0000 -16.1545 0.0000
# 3 24.6571 53.4353 78.2434 0.0000 -16.4939 0.0000
# 4 0.0000 0.0000 0.0000 19.2599 0.0000 -3.7836
# 5 -6.4355 -16.1545 -16.4939 0.0000 16.3853 0.0000
# 6 0.0000 0.0000 0.0000 -3.7836 0.0000 16.9058
#
#
#
# Elastic Compliance Matrix: (Units=1/GPa)
#
#
# Indices 1 2 3 4 5 6 
#
# 1 0.039121 -0.005536 -0.008199 0.000000 0.001654 0.000000
# 2 -0.005536 0.016545 -0.008345 0.000000 0.005737 0.000000
# 3 -0.008199 -0.008345 0.023674 0.000000 0.012383 0.000000
# 4 0.000000 0.000000 0.000000 0.054309 0.000000 0.012155
# 5 0.001654 0.005737 0.012383 0.000000 0.079802 0.000000
# 6 0.000000 0.000000 0.000000 0.012155 0.000000 0.061872
#
#
# Mechanical properties :
#
#
# Convention : Reuss Voigt Hill
#
# Bulk Modulus (GPa) = 28.42529 47.05683 37.74106
# Shear Modulus (GPa) = 15.09614 17.86861 16.48238
#
# Velocity S-wave (km/s) = 3.06689 3.33665 3.20461
# Velocity P-wave (km/s) = 5.50016 6.64557 6.09981
#
# Compressibility (1/GPa) = 0.03517994
#
# Stress axis : x y z
#
# Youngs Moduli (GPa) = 25.56145 60.44114 42.24016
#
# Poissons Ratio (x) = 0.33459 0.34634
# Poissons Ratio (y) = 0.14151 0.35250
# Poissons Ratio (z) = 0.20958 0.50440
#
# Static dielectric constant tensor:
#      x y z
#    x 2.709130 0.000000 -0.183030 
#    y 0.000000 2.933010 0.000000 
#    z -0.183030 0.000000 3.554010 
# 
# 
# High freq. dielectric constant tensor:
#      x y z
#    x 1.577990 0.000000 -0.006570 
#    y 0.000000 1.595850 0.000000 
#    z -0.006570 0.000000 1.626650 
# 
# From -- ./inp_files/224659.got.cif
#   From: 2010.06.25/outbox.cif.g09.slc.cpg/sg12_113_cif.got.tgz:224659.got - 2010.06.28 00:19:55.
