data_PCOD8078567
_publ_section_title
;
Structure prediction by ZEFSAII (Michael W. Deem and Ramdas Pophale) SiO2 
 PCOD8078567
Probable space group: C 2/M
;
_chemical_formula_sum "Si O2"
_cell_formula_units_Z 56
_cell_length_a 28.895434
_cell_length_b 7.995695
_cell_length_c 19.234891
_cell_angle_alpha 90.000000
_cell_angle_beta 127.831144
_cell_angle_gamma 90.000000
_cell_volume 3509.976871
_symmetry_space_group_name_H-M "C 2/M"
_symmetry_group_IT_number 12
_symmetry_cell_setting 'monoclinic'
loop_
_space_group_symop_operation_xyz
x,y,z
-x,y,-z
-x,-y,-z
x,-y,z
1/2+x,1/2+y,z
1/2-x,1/2+y,-z
1/2-x,1/2-y,-z
1/2+x,1/2-y,z
loop_
_atom_site_type_symbol
_atom_site_label
_atom_site_fract_x
_atom_site_fract_y
_atom_site_fract_z
Si Si1 0.985150 0.811725 0.825205
Si Si2 0.949463 0.500000 0.549840
Si Si3 0.104310 0.806325 0.741562
Si Si4 0.469582 0.688928 0.656324
Si Si5 0.584097 0.000000 0.631816
Si Si6 0.315792 0.310294 0.061685
Si Si7 0.435150 0.814211 0.910430
Si Si8 0.605825 0.191308 0.984703
O O1 0.955727 0.770038 0.724156
O O2 0.935235 0.790913 0.839004
O O3 0.009076 0.000000 0.847322
O O4 0.041633 0.697331 0.890581
O O5 0.936038 0.329643 0.580415
O O6 0.907843 0.500000 0.443979
O O7 0.016438 0.500000 0.589237
O O8 0.112685 0.673216 0.686524
O O9 0.145898 0.731008 0.840817
O O10 0.038942 0.799099 0.710452
O O11 0.118571 0.000000 0.731718
O O12 0.448112 0.500000 0.616623
O O13 0.314674 0.500000 0.080702
O O14 0.250000 0.250000 0.000000
O O15 0.345410 0.287893 0.013912
O O16 0.395732 0.736742 0.937030
O O17 0.412834 0.000000 0.871820
O O18 0.500000 0.821511 0.000000
O O19 0.625295 0.000000 0.004762
#
# Coordination Sequence:
#
# PCOD8078567 Si02
#       8
#     8   4   8   8   4   8   8   8
#     4  10  17  25  40  61  84 116 151 182 215 261
#     4   9  18  28  42  66  82 115 144 181 222 264
#     4   9  18  31  45  61  83 114 148 186 223 261
#     4   9  17  27  41  63  88 114 148 182 215 260
#     4   9  18  30  46  62  83 110 153 176 223 275
#     4  11  22  33  46  65  85 112 154 192 229 261
#     4   8  16  27  37  57  81 109 149 182 216 256
#     4  10  19  29  43  58  81 114 149 191 223 256
#
# _framework density 15.954522000000001
#
# number of rings (size 3 to 8) (size 9 to 14) (size 15 to 20)
#    0.000    2.571    1.429    2.143    4.000    3.714 
#    0.000    2.857    0.000    0.000    0.000    0.000 
#    0.000    0.000    0.000    1.286    4.857    0.571 
#
# Total GULP energy -346908.425846 kJ/mol
# GULP energy per Si atom -12389.586637 kJ/mol
# Density = 1.591821 g / cm^3
# Si number density = 15.954522 Si / 1000 Ang^3
#
#
#
# Elastic Constant Matrix: (Units=GPa)
#
#
# Indices 1 2 3 4 5 6 
#
# 1 73.0162 28.3247 47.0882 0.0000 -22.6117 0.0000
# 2 28.3247 82.0756 42.8452 -0.0001 -21.1099 0.0000
# 3 47.0882 42.8452 71.8562 0.0000 -28.2780 0.0000
# 4 0.0000 -0.0001 0.0000 20.6156 0.0000 -6.5636
# 5 -22.6117 -21.1099 -28.2780 0.0000 25.5492 0.0000
# 6 0.0000 0.0000 0.0000 -6.5636 0.0000 20.9406
#
#
#
# Elastic Compliance Matrix: (Units=1/GPa)
#
#
# Indices 1 2 3 4 5 6 
#
# 1 0.024398 0.000421 -0.013473 0.000000 0.007028 0.000000
# 2 0.000421 0.018098 -0.008922 0.000000 0.005451 0.000000
# 3 -0.013473 -0.008922 0.036270 0.000000 0.020848 0.000000
# 4 0.000000 0.000000 0.000000 0.053884 0.000000 0.016890
# 5 0.007028 0.005451 0.020848 0.000000 0.072939 0.000000
# 6 0.000000 0.000000 0.000000 0.016890 0.000000 0.053048
#
#
# Mechanical properties :
#
#
# Convention : Reuss Voigt Hill
#
# Bulk Modulus (GPa) = 28.72088 51.49603 40.10846
# Shear Modulus (GPa) = 15.91384 20.66707 18.29046
#
# Velocity S-wave (km/s) = 3.16167 3.60303 3.38954
# Velocity P-wave (km/s) = 5.60080 7.04670 6.36494
#
# Compressibility (1/GPa) = 0.03481788
#
# Stress axis : x y z
#
# Youngs Moduli (GPa) = 40.98751 55.25450 27.57073
#
# Poissons Ratio (x) = -0.02328 0.37147
# Poissons Ratio (y) = -0.01727 0.24598
# Poissons Ratio (z) = 0.55224 0.49298
#
# Static dielectric constant tensor:
#      x y z
#    x 3.012210 0.000000 -0.419960 
#    y 0.000000 3.228960 0.000000 
#    z -0.419960 0.000000 2.793370 
# 
# 
# High freq. dielectric constant tensor:
#      x y z
#    x 1.580490 0.000000 -0.043410 
#    y 0.000000 1.626090 0.000000 
#    z -0.043410 0.000000 1.569130 
# 
# From -- ./inp_files/248937.got.cif
#   From: 2010.06.25/outbox.cif.g09.slc.cpg/sg12_125_cif.got.tgz:248937.got - 2010.06.28 00:19:55.
