data_PCOD8078271
_publ_section_title
;
Structure prediction by ZEFSAII (Michael W. Deem and Ramdas Pophale) SiO2 
 PCOD8078271
Probable space group: C 2/M
;
_chemical_formula_sum "Si O2"
_cell_formula_units_Z 52
_cell_length_a 26.755224
_cell_length_b 12.968134
_cell_length_c 18.945369
_cell_angle_alpha 90.000000
_cell_angle_beta 27.324566
_cell_angle_gamma 90.000000
_cell_volume 3017.384848
_symmetry_space_group_name_H-M "C 2/M"
_symmetry_group_IT_number 12
_symmetry_cell_setting 'monoclinic'
loop_
_space_group_symop_operation_xyz
x,y,z
-x,y,-z
-x,-y,-z
x,-y,z
1/2+x,1/2+y,z
1/2-x,1/2+y,-z
1/2-x,1/2-y,-z
1/2+x,1/2-y,z
loop_
_atom_site_type_symbol
_atom_site_label
_atom_site_fract_x
_atom_site_fract_y
_atom_site_fract_z
Si Si1 0.985927 0.309794 0.678276
Si Si2 0.076124 0.881439 0.968256
Si Si3 0.802914 0.000000 0.823434
Si Si4 0.084085 0.793406 0.105331
Si Si5 0.172919 0.380248 0.350827
Si Si6 0.175600 0.773524 0.221269
Si Si7 0.605243 0.500000 0.147711
Si Si8 0.841386 0.500000 0.869061
O O1 0.989629 0.287411 0.757995
O O2 0.921830 0.221001 0.714471
O O3 0.909416 0.404642 0.758210
O O4 0.107077 0.336273 0.500447
O O5 0.200723 0.870260 0.787795
O O6 0.051478 0.000000 0.021057
O O7 0.052625 0.803149 0.062490
O O8 0.000000 0.845240 0.000000
O O9 0.811200 0.106663 0.767801
O O10 0.899056 0.000000 0.761746
O O11 0.687116 0.000000 0.011152
O O12 0.050009 0.900000 0.184676
O O13 0.210720 0.762833 0.956468
O O14 0.143462 0.500000 0.370622
O O15 0.141800 0.305525 0.325102
O O16 0.730663 0.500000 0.962340
#
# Coordination Sequence:
#
# PCOD8078271 Si02
#       8
#     8   8   4   8   8   8   4   4
#     4  12  19  31  47  79 105 136 169 207 255 299
#     4   9  19  36  56  76  97 127 169 218 266 312
#     4  10  18  32  46  70 107 148 184 201 227 295
#     4  11  18  30  53  76 101 137 174 209 251 297
#     4  10  23  34  51  76 107 134 169 217 266 296
#     4  11  20  31  47  75 108 148 175 200 244 300
#     4  10  16  28  45  77 101 136 174 215 231 287
#     4  10  18  26  48  71 107 136 163 214 241 282
#
# _framework density 17.233466
#
# number of rings (size 3 to 8) (size 9 to 14) (size 15 to 20)
#    0.462    1.077    6.154    0.923    2.154    0.615 
#    0.000    3.077    0.000    0.000    0.000   13.462 
#    0.000    0.000    0.000    0.000    0.000    0.000 
#
# Total GULP energy -322112.298759 kJ/mol
# GULP energy per Si atom -12388.934568 kJ/mol
# Density = 1.719424 g / cm^3
# Si number density = 17.233466 Si / 1000 Ang^3
#
#
#
# Elastic Constant Matrix: (Units=GPa)
#
#
# Indices 1 2 3 4 5 6 
#
# 1 83.5510 19.0129 34.1579 0.0000 5.1320 0.0000
# 2 19.0129 89.5195 27.8884 0.0000 7.4210 0.0000
# 3 34.1579 27.8884 86.6808 0.0000 19.3346 0.0000
# 4 0.0000 0.0000 0.0000 32.3303 0.0000 12.5872
# 5 5.1320 7.4210 19.3346 0.0000 17.0966 0.0000
# 6 0.0000 0.0000 0.0000 12.5872 0.0000 20.7183
#
#
#
# Elastic Compliance Matrix: (Units=1/GPa)
#
#
# Indices 1 2 3 4 5 6 
#
# 1 0.014544 -0.001493 -0.005913 0.000000 0.002970 0.000000
# 2 -0.001493 0.012586 -0.003133 0.000000 -0.001472 0.000000
# 3 -0.005913 -0.003133 0.018958 0.000000 -0.018304 0.000000
# 4 0.000000 0.000000 0.000000 0.040514 0.000000 -0.024614
# 5 0.002970 -0.001472 -0.018304 0.000000 0.078939 0.000000
# 6 0.000000 0.000000 0.000000 -0.024614 0.000000 0.063220
#
#
# Mechanical properties :
#
#
# Convention : Reuss Voigt Hill
#
# Bulk Modulus (GPa) = 39.98490 46.87442 43.42966
# Shear Modulus (GPa) = 19.36680 25.94185 22.65432
#
# Velocity S-wave (km/s) = 3.35594 3.88405 3.62961
# Velocity P-wave (km/s) = 6.18617 6.88282 6.54377
#
# Compressibility (1/GPa) = 0.02500944
#
# Stress axis : x y z
#
# Youngs Moduli (GPa) = 68.75919 79.45466 52.74950
#
# Poissons Ratio (x) = 0.11862 0.31192
# Poissons Ratio (y) = 0.10265 0.16525
# Poissons Ratio (z) = 0.40658 0.24890
#
# Static dielectric constant tensor:
#      x y z
#    x 2.813680 0.000000 0.117810 
#    y 0.000000 2.651190 0.000000 
#    z 0.117810 0.000000 3.123510 
# 
# 
# High freq. dielectric constant tensor:
#      x y z
#    x 1.613830 0.000000 0.016720 
#    y 0.000000 1.672580 0.000000 
#    z 0.016720 0.000000 1.649960 
# 
# From -- ./inp_files/293125.got.cif
#   From: 2010.06.25/outbox.cif.g09.slc.cpg/sg12_147_cif.got.tgz:293125.got - 2010.06.28 00:19:55.
