data_PCOD8078714
_publ_section_title
;
Structure prediction by ZEFSAII (Michael W. Deem and Ramdas Pophale) SiO2 
 PCOD8078714
Probable space group: C 2/M
;
_chemical_formula_sum "Si O2"
_cell_formula_units_Z 64
_cell_length_a 25.415699
_cell_length_b 9.491017
_cell_length_c 15.593957
_cell_angle_alpha 90.000000
_cell_angle_beta 73.562216
_cell_angle_gamma 90.000000
_cell_volume 3607.842075
_symmetry_space_group_name_H-M "C 2/M"
_symmetry_group_IT_number 12
_symmetry_cell_setting 'monoclinic'
loop_
_space_group_symop_operation_xyz
x,y,z
-x,y,-z
-x,-y,-z
x,-y,z
1/2+x,1/2+y,z
1/2-x,1/2+y,-z
1/2-x,1/2-y,-z
1/2+x,1/2-y,z
loop_
_atom_site_type_symbol
_atom_site_label
_atom_site_fract_x
_atom_site_fract_y
_atom_site_fract_z
Si Si1 0.932208 0.167286 0.875134
Si Si2 0.125583 0.166488 0.923894
Si Si3 0.773384 0.659278 0.164493
Si Si4 0.850518 0.167879 0.769968
Si Si5 0.872886 0.834612 0.390765
Si Si6 0.724235 0.840514 0.636936
Si Si7 0.346054 0.665561 0.584845
Si Si8 0.054021 0.167105 0.796702
O O1 0.892874 0.231559 0.819417
O O2 0.993156 0.231191 0.834924
O O3 0.933972 0.000000 0.866132
O O4 0.910316 0.212040 0.977977
O O5 0.184593 0.240410 0.905259
O O6 0.093197 0.221421 0.854882
O O7 0.135635 0.000000 0.916224
O O8 0.779257 0.500000 0.126760
O O9 0.711385 0.715496 0.178152
O O10 0.788806 0.664713 0.256745
O O11 0.867319 0.225720 0.666686
O O12 0.852935 0.000000 0.770511
O O13 0.816645 0.760185 0.393660
O O14 0.885975 0.799674 0.485474
O O15 0.922160 0.782846 0.306553
O O16 0.863295 0.000000 0.382276
O O17 0.785013 0.778555 0.591939
O O18 0.717618 0.000000 0.605495
O O19 0.339516 0.500000 0.601488
O O20 0.050586 0.000000 0.803803
#
# Coordination Sequence:
#
# PCOD8078714 Si02
#       8
#     8   8   8   8   8   8   8   8
#     4   9  17  29  46  64  86 122 158 183 216 265
#     4  10  18  29  47  70  92 115 147 186 227 266
#     4   9  17  29  46  67  92 119 146 182 224 265
#     4   8  15  29  45  63  90 122 153 181 214 264
#     4  10  17  26  43  67  92 115 141 180 226 259
#     4   9  16  27  42  62  90 121 147 171 212 270
#     4   8  15  26  41  62  89 118 145 177 218 263
#     4   9  17  28  42  65  94 117 145 186 225 261
#
# _framework density 17.739135000000001
#
# number of rings (size 3 to 8) (size 9 to 14) (size 15 to 20)
#    0.000    3.000    1.250    2.250    0.000    2.000 
#    0.000    0.625    0.000    6.000    0.000    0.000 
#    0.000    1.000    0.000    0.000    0.000    0.000 
#
# Total GULP energy -396555.669470 kJ/mol
# GULP energy per Si atom -12392.364671 kJ/mol
# Density = 1.769876 g / cm^3
# Si number density = 17.739135 Si / 1000 Ang^3
#
#
#
# Elastic Constant Matrix: (Units=GPa)
#
#
# Indices 1 2 3 4 5 6 
#
# 1 100.6267 15.6700 71.4477 0.0000 0.7898 0.0000
# 2 15.6700 19.3228 22.5063 0.0000 -1.7633 0.0000
# 3 71.4477 22.5063 135.7909 0.0000 -17.0404 0.0000
# 4 0.0000 0.0000 0.0000 11.6073 0.0000 -2.9628
# 5 0.7898 -1.7633 -17.0404 0.0000 21.8985 0.0000
# 6 0.0000 0.0000 0.0000 -2.9628 0.0000 16.4336
#
#
#
# Elastic Compliance Matrix: (Units=1/GPa)
#
#
# Indices 1 2 3 4 5 6 
#
# 1 0.017387 -0.003698 -0.009588 0.000000 -0.008386 0.000000
# 2 -0.003698 0.065155 -0.009063 0.000000 -0.001673 0.000000
# 3 -0.009588 -0.009063 0.015363 0.000000 0.011571 0.000000
# 4 0.000000 0.000000 0.000000 0.090308 0.000000 0.016282
# 5 -0.008386 -0.001673 0.011571 0.000000 0.054837 0.000000
# 6 0.000000 0.000000 0.000000 0.016282 0.000000 0.063786
#
#
# Mechanical properties :
#
#
# Convention : Reuss Voigt Hill
#
# Bulk Modulus (GPa) = 18.79445 52.77649 35.78547
# Shear Modulus (GPa) = 13.54024 19.72898 16.63461
#
# Velocity S-wave (km/s) = 2.76578 3.33854 3.06557
# Velocity P-wave (km/s) = 4.56260 6.68410 5.72252
#
# Compressibility (1/GPa) = 0.05320721
#
# Stress axis : x y z
#
# Youngs Moduli (GPa) = 57.51444 15.34809 65.09108
#
# Poissons Ratio (x) = 0.05676 0.62407
# Poissons Ratio (y) = 0.21269 0.58992
# Poissons Ratio (z) = 0.55143 0.13910
#
# Static dielectric constant tensor:
#      x y z
#    x 3.357650 0.000000 0.010130 
#    y 0.000000 2.764810 0.000000 
#    z 0.010130 0.000000 3.570250 
# 
# 
# High freq. dielectric constant tensor:
#      x y z
#    x 1.672540 0.000000 -0.004560 
#    y 0.000000 1.623850 0.000000 
#    z -0.004560 0.000000 1.700170 
# 
# From -- ./inp_files/243996.got.cif
#   From: 2010.06.25/outbox.cif.g09.slc.cpg/sg12_122_cif.got.tgz:243996.got - 2010.06.28 00:19:55.
