data_PCOD8078972
_publ_section_title
;
Structure prediction by ZEFSAII (Michael W. Deem and Ramdas Pophale) SiO2 
 PCOD8078972
Probable space group: C 2/M
;
_chemical_formula_sum "Si O2"
_cell_formula_units_Z 64
_cell_length_a 35.832481
_cell_length_b 13.658385
_cell_length_c 9.306386
_cell_angle_alpha 90.000000
_cell_angle_beta 108.970544
_cell_angle_gamma 90.000000
_cell_volume 4307.290582
_symmetry_space_group_name_H-M "C 2/M"
_symmetry_group_IT_number 12
_symmetry_cell_setting 'monoclinic'
loop_
_space_group_symop_operation_xyz
x,y,z
-x,y,-z
-x,-y,-z
x,-y,z
1/2+x,1/2+y,z
1/2-x,1/2+y,-z
1/2-x,1/2-y,-z
1/2+x,1/2-y,z
loop_
_atom_site_type_symbol
_atom_site_label
_atom_site_fract_x
_atom_site_fract_y
_atom_site_fract_z
Si Si1 0.835844 0.220445 0.549619
Si Si2 0.764732 0.112709 0.595756
Si Si3 0.415225 0.615291 0.574524
Si Si4 0.219056 0.272169 0.770297
Si Si5 0.190460 0.389830 0.308832
Si Si6 0.538022 0.615954 0.626539
Si Si7 0.505079 0.615976 0.162917
Si Si8 0.275041 0.113008 0.946599
O O1 0.807371 0.142518 0.590674
O O2 0.878465 0.174303 0.587629
O O3 0.819454 0.251562 0.373209
O O4 0.840512 0.315780 0.657642
O O5 0.753588 0.176364 0.720819
O O6 0.733717 0.133424 0.429146
O O7 0.765436 0.000000 0.642805
O O8 0.406471 0.500000 0.576044
O O9 0.423115 0.646756 0.416147
O O10 0.453147 0.646390 0.716001
O O11 0.235058 0.171154 0.857398
O O12 0.206207 0.344494 0.883553
O O13 0.177327 0.500000 0.331516
O O14 0.192776 0.375522 0.140286
O O15 0.500000 0.660359 0.500000
O O16 0.535642 0.500000 0.616046
O O17 0.532837 0.650286 0.786279
O O18 0.504068 0.500000 0.148127
O O19 0.500000 0.665123 0.000000
O O20 0.263131 0.000000 0.951727
#
# Coordination Sequence:
#
# PCOD8078972 Si02
#       8
#     8   8   8   8   8   8   8   8
#     4  11  18  29  41  64  89 112 140 186 225 252
#     4  10  17  28  44  63  83 113 147 180 216 260
#     4   9  17  26  40  63  88 117 142 167 209 254
#     4  10  19  30  43  61  82 109 148 186 223 263
#     4   9  17  30  46  59  77 112 156 185 216 256
#     4   7  11  22  38  55  77 107 141 165 187 235
#     4   8  13  24  43  62  83 112 144 171 193 238
#     4  10  18  30  46  60  75 103 149 191 222 260
#
# _framework density 14.858529000000001
#
# number of rings (size 3 to 8) (size 9 to 14) (size 15 to 20)
#    0.000    2.750    2.500    3.000    0.000    1.000 
#    0.000    1.250    0.000    0.000    0.000    0.000 
#    0.000    5.000    0.000    0.000    0.000    0.125 
#
# Total GULP energy -396494.250661 kJ/mol
# GULP energy per Si atom -12390.445333 kJ/mol
# Density = 1.482471 g / cm^3
# Si number density = 14.858529 Si / 1000 Ang^3
#
#
#
# Elastic Constant Matrix: (Units=GPa)
#
#
# Indices 1 2 3 4 5 6 
#
# 1 87.4714 34.5493 39.6548 0.0000 -19.0913 0.0000
# 2 34.5493 73.3831 34.3661 0.0000 -8.3672 0.0000
# 3 39.6548 34.3661 102.2933 0.0000 -16.4168 0.0000
# 4 0.0000 0.0000 0.0000 19.6971 0.0000 -4.1331
# 5 -19.0913 -8.3672 -16.4168 0.0000 16.2829 0.0000
# 6 0.0000 0.0000 0.0000 -4.1331 0.0000 18.8633
#
#
#
# Elastic Compliance Matrix: (Units=1/GPa)
#
#
# Indices 1 2 3 4 5 6 
#
# 1 0.018315 -0.005553 -0.002680 0.000000 0.015919 0.000000
# 2 -0.005553 0.018012 -0.004126 0.000000 -0.001414 0.000000
# 3 -0.002680 -0.004126 0.013548 0.000000 0.008398 0.000000
# 4 0.000000 0.000000 0.000000 0.053216 0.000000 0.011660
# 5 0.015919 -0.001414 0.008398 0.000000 0.087819 0.000000
# 6 0.000000 0.000000 0.000000 0.011660 0.000000 0.055568
#
#
# Mechanical properties :
#
#
# Convention : Reuss Voigt Hill
#
# Bulk Modulus (GPa) = 39.74693 53.36535 46.55614
# Shear Modulus (GPa) = 17.88396 21.27381 19.57889
#
# Velocity S-wave (km/s) = 3.47308 3.78796 3.63393
# Velocity P-wave (km/s) = 6.54915 7.42463 7.00059
#
# Compressibility (1/GPa) = 0.02515917
#
# Stress axis : x y z
#
# Youngs Moduli (GPa) = 54.60113 55.51770 73.80922
#
# Poissons Ratio (x) = 0.30827 0.19778
# Poissons Ratio (y) = 0.30319 0.30452
# Poissons Ratio (z) = 0.14631 0.22905
#
# Static dielectric constant tensor:
#      x y z
#    x 2.590370 0.000000 -0.301840 
#    y 0.000000 2.749990 0.000000 
#    z -0.301840 0.000000 3.246260 
# 
# 
# High freq. dielectric constant tensor:
#      x y z
#    x 1.529810 0.000000 -0.026810 
#    y 0.000000 1.545320 0.000000 
#    z -0.026810 0.000000 1.577410 
# 
# From -- ./inp_files/111201.got.cif
#   From: 2010.06.25/outbox.cif.g09.slc.cpg/sg12_56_cif.got.tgz:111201.got - 2010.06.28 00:19:55.
