data_PCOD8078158
_publ_section_title
;
Structure prediction by ZEFSAII (Michael W. Deem and Ramdas Pophale) SiO2 
 PCOD8078158
Probable space group: C 2/M
;
_chemical_formula_sum "Si O2"
_cell_formula_units_Z 64
_cell_length_a 5.357316
_cell_length_b 35.062877
_cell_length_c 23.867282
_cell_angle_alpha 90.000000
_cell_angle_beta 81.573421
_cell_angle_gamma 90.000000
_cell_volume 4434.900109
_symmetry_space_group_name_H-M "C 2/M"
_symmetry_group_IT_number 12
_symmetry_cell_setting 'monoclinic'
loop_
_space_group_symop_operation_xyz
x,y,z
-x,y,-z
-x,-y,-z
x,-y,z
1/2+x,1/2+y,z
1/2-x,1/2+y,-z
1/2-x,1/2-y,-z
1/2+x,1/2-y,z
loop_
_atom_site_type_symbol
_atom_site_label
_atom_site_fract_x
_atom_site_fract_y
_atom_site_fract_z
Si Si1 0.376275 0.290956 0.295631
Si Si2 0.036014 0.042606 0.933001
Si Si3 0.345559 0.206521 0.342617
Si Si4 0.765392 0.706983 0.476478
Si Si5 0.965704 0.585821 0.067300
Si Si6 0.423054 0.760400 0.935042
Si Si7 0.516514 0.699280 0.833518
Si Si8 0.482350 0.165667 0.873633
O O1 0.344785 0.250599 0.326327
O O2 0.609798 0.313354 0.317605
O O3 0.428161 0.283276 0.228792
O O4 0.110463 0.313140 0.314780
O O5 0.313632 0.059809 0.913405
O O6 0.809285 0.067110 0.912674
O O7 0.026288 0.000000 0.907707
O O8 0.000000 0.040679 0.000000
O O9 0.310453 0.203847 0.409548
O O10 0.500000 0.686319 0.500000
O O11 0.750000 0.750000 0.500000
O O12 0.000000 0.686307 0.500000
O O13 0.987410 0.624728 0.100241
O O14 0.000000 0.593105 0.000000
O O15 0.659605 0.754929 0.969105
O O16 0.507049 0.734777 0.877522
O O17 0.407168 0.805056 0.924947
O O18 0.744556 0.669188 0.838933
O O19 0.251215 0.677097 0.838411
#
# Coordination Sequence:
#
# PCOD8078158 Si02
#       8
#     8   8   8   8   8   8   8   8
#     4  10  18  25  36  50  71  83 114 158 204 224
#     4   9  17  30  49  70  87 103 121 139 173 220
#     4  10  19  24  35  53  67  83 113 158 197 240
#     4  10  16  25  35  43  63  89 111 133 182 250
#     4  10  19  31  47  65  87 106 121 152 181 215
#     4   8  16  25  39  51  69  89 129 153 186 217
#     4  10  19  28  42  54  73 102 128 166 198 234
#     4  10  19  29  41  59  77  99 131 148 189 236
#
# _framework density 14.430991000000001
#
# number of rings (size 3 to 8) (size 9 to 14) (size 15 to 20)
#    0.000    2.375    0.000    5.625   10.500    1.500 
#    0.000    0.000    0.000    6.750    0.000    0.000 
#    0.000    0.000    0.000    0.000    0.000    0.000 
#
# Total GULP energy -396429.974167 kJ/mol
# GULP energy per Si atom -12388.436693 kJ/mol
# Density = 1.439815 g / cm^3
# Si number density = 14.430991 Si / 1000 Ang^3
#
#
#
# Elastic Constant Matrix: (Units=GPa)
#
#
# Indices 1 2 3 4 5 6 
#
# 1 151.9470 24.5402 25.1285 0.0000 0.1316 0.0000
# 2 24.5402 61.1197 11.5978 0.0000 0.9547 0.0000
# 3 25.1285 11.5978 73.8990 0.0000 0.8046 0.0000
# 4 0.0000 0.0000 0.0000 -0.9088 0.0000 -0.5767
# 5 0.1316 0.9547 0.8046 0.0000 21.7135 0.0000
# 6 0.0000 0.0000 0.0000 -0.5767 0.0000 15.9358
#
#
#
# Elastic Compliance Matrix: (Units=1/GPa)
#
#
# Indices 1 2 3 4 5 6 
#
# 1 0.007340 -0.002551 -0.002097 0.000000 0.000145 0.000000
# 2 -0.002551 0.017759 -0.001912 0.000000 -0.000694 0.000000
# 3 -0.002097 -0.001912 0.014550 0.000000 -0.000442 0.000000
# 4 0.000000 0.000000 0.000000 -1.075610 0.000000 -0.038927
# 5 0.000145 -0.000694 -0.000442 0.000000 0.046100 0.000000
# 6 0.000000 0.000000 0.000000 -0.038927 0.000000 0.061343
#
#
# Mechanical properties :
#
#
# Convention : Reuss Voigt Hill
#
# Bulk Modulus (GPa) = 37.69550 45.49984 41.59767
# Shear Modulus (GPa) = -5.51539 22.39472 8.43966
#
# Velocity S-wave (km/s) = -1.95709 3.94363 2.42095
# Velocity P-wave (km/s) = 4.59031 7.23422 6.05826
#
# Compressibility (1/GPa) = 0.02652836
#
# Stress axis : x y z
#
# Youngs Moduli (GPa) = 136.24005 56.30808 68.72878
#
# Poissons Ratio (x) = 0.14367 0.14413
# Poissons Ratio (y) = 0.34761 0.13141
# Poissons Ratio (z) = 0.28570 0.10766
#
# Static dielectric constant tensor:
#      x y z
#    x 7.206140 0.000000 0.096690 
#    y 0.000000 2.385810 0.000000 
#    z 0.096690 0.000000 2.651230 
# 
# 
# High freq. dielectric constant tensor:
#      x y z
#    x 1.602790 0.000000 0.002190 
#    y 0.000000 1.476320 0.000000 
#    z 0.002190 0.000000 1.534560 
# 
# From -- ./inp_files/331532.got.cif
#   From: 2010.06.25/outbox.cif.g09.slc.cpg/sg12_166_cif.got.tgz:331532.got - 2010.06.28 00:19:55.
