data_PCOD8078030
_publ_section_title
;
Structure prediction by ZEFSAII (Michael W. Deem and Ramdas Pophale) SiO2 
 PCOD8078030
Probable space group: C 2/M
;
_chemical_formula_sum "Si O2"
_cell_formula_units_Z 64
_cell_length_a 20.302709
_cell_length_b 18.511634
_cell_length_c 14.368018
_cell_angle_alpha 90.000000
_cell_angle_beta 120.419587
_cell_angle_gamma 90.000000
_cell_volume 4656.659208
_symmetry_space_group_name_H-M "C 2/M"
_symmetry_group_IT_number 12
_symmetry_cell_setting 'monoclinic'
loop_
_space_group_symop_operation_xyz
x,y,z
-x,y,-z
-x,-y,-z
x,-y,z
1/2+x,1/2+y,z
1/2-x,1/2+y,-z
1/2-x,1/2-y,-z
1/2+x,1/2-y,z
loop_
_atom_site_type_symbol
_atom_site_label
_atom_site_fract_x
_atom_site_fract_y
_atom_site_fract_z
Si Si1 0.210088 0.418120 0.080581
Si Si2 0.139520 0.717456 0.981439
Si Si3 0.778907 0.918999 0.926935
Si Si4 0.077035 0.079799 0.496411
Si Si5 0.202709 0.716999 0.836364
Si Si6 0.444352 0.355969 0.043773
Si Si7 0.339113 0.352787 0.286748
Si Si8 0.475256 0.585952 0.261817
O O1 0.180699 0.500000 0.071404
O O2 0.136043 0.364609 0.020210
O O3 0.262043 0.396091 0.205885
O O4 0.260226 0.408219 0.022651
O O5 0.221509 0.747005 0.069512
O O6 0.136285 0.716526 0.866888
O O7 0.072467 0.769605 0.970039
O O8 0.725440 0.865641 0.826256
O O9 0.761668 0.000000 0.880935
O O10 0.867583 0.901859 0.976313
O O11 0.138105 0.132586 0.589492
O O12 0.053324 0.103942 0.375072
O O13 0.000000 0.077935 0.500000
O O14 0.113830 0.000000 0.521289
O O15 0.172603 0.765809 0.729350
O O16 0.486024 0.379210 0.168511
O O17 0.500000 0.375828 0.000000
O O18 0.403159 0.379056 0.260970
O O19 0.461775 0.500000 0.246228
#
# Coordination Sequence:
#
# PCOD8078030 Si02
#       8
#     8   8   8   8   8   8   8   8
#     4   9  14  21  40  59  74  94 115 149 196 230
#     4   8  14  25  33  51  75  93 123 154 180 210
#     4   9  16  25  35  54  79  97 120 154 183 214
#     4   8  15  22  31  49  74 100 121 144 178 215
#     4   8  13  22  38  52  70  98 118 148 190 219
#     4  11  19  26  37  51  73 110 135 142 164 208
#     4  10  13  21  37  55  76  96 118 142 183 230
#     4  10  17  25  33  48  77 104 125 149 170 205
#
# _framework density 13.743758
#
# number of rings (size 3 to 8) (size 9 to 14) (size 15 to 20)
#    0.000    2.875    2.500    3.750    0.000    1.000 
#    0.000    0.000    0.000    0.375    0.000    7.875 
#    0.000    5.500    0.000    0.000    0.000    0.000 
#
# Total GULP energy -396437.956587 kJ/mol
# GULP energy per Si atom -12388.686143 kJ/mol
# Density = 1.371248 g / cm^3
# Si number density = 13.743758 Si / 1000 Ang^3
#
#
#
# Elastic Constant Matrix: (Units=GPa)
#
#
# Indices 1 2 3 4 5 6 
#
# 1 22.8040 15.5187 18.7211 0.0000 -4.2191 0.0000
# 2 15.5187 120.4531 48.9100 0.0000 9.6184 0.0000
# 3 18.7211 48.9100 83.1967 0.0000 4.7532 0.0000
# 4 0.0000 0.0000 0.0000 20.0197 0.0000 5.6408
# 5 -4.2191 9.6184 4.7532 0.0000 10.5246 0.0000
# 6 0.0000 0.0000 0.0000 5.6408 0.0000 11.3990
#
#
#
# Elastic Compliance Matrix: (Units=1/GPa)
#
#
# Indices 1 2 3 4 5 6 
#
# 1 0.066124 -0.006094 -0.013477 0.000000 0.038164 0.000000
# 2 -0.006094 0.012035 -0.005067 0.000000 -0.011154 0.000000
# 3 -0.013477 -0.005067 0.018554 0.000000 -0.009152 0.000000
# 4 0.000000 0.000000 0.000000 0.058044 0.000000 -0.028723
# 5 0.038164 -0.011154 -0.009152 0.000000 0.124641 0.000000
# 6 0.000000 0.000000 0.000000 -0.028723 0.000000 0.101940
#
#
# Mechanical properties :
#
#
# Convention : Reuss Voigt Hill
#
# Bulk Modulus (GPa) = 21.08056 43.63926 32.35991
# Shear Modulus (GPa) = 11.20006 17.94228 14.57117
#
# Velocity S-wave (km/s) = 2.85778 3.61707 3.25961
# Velocity P-wave (km/s) = 5.12453 7.01892 6.14516
#
# Compressibility (1/GPa) = 0.04743708
#
# Stress axis : x y z
#
# Youngs Moduli (GPa) = 15.12306 83.09025 53.89722
#
# Poissons Ratio (x) = 0.50637 0.72638
# Poissons Ratio (y) = 0.09216 0.27308
# Poissons Ratio (z) = 0.20382 0.42099
#
# Static dielectric constant tensor:
#      x y z
#    x 2.264490 0.000000 0.084310 
#    y 0.000000 3.126920 0.000000 
#    z 0.084310 0.000000 2.753640 
# 
# 
# High freq. dielectric constant tensor:
#      x y z
#    x 1.466700 0.000000 0.005650 
#    y 0.000000 1.531850 0.000000 
#    z 0.005650 0.000000 1.498750 
# 
# From -- ./inp_files/233974.got.cif
#   From: 2010.06.25/outbox.cif.g09.slc.cpg/sg12_117_cif.got.tgz:233974.got - 2010.06.28 00:19:55.
