data_PCOD8078514
_publ_section_title
;
Structure prediction by ZEFSAII (Michael W. Deem and Ramdas Pophale) SiO2 
 PCOD8078514
Probable space group: C 2/M
;
_chemical_formula_sum "Si O2"
_cell_formula_units_Z 56
_cell_length_a 18.391234
_cell_length_b 8.974168
_cell_length_c 29.193087
_cell_angle_alpha 90.000000
_cell_angle_beta 140.841840
_cell_angle_gamma 90.000000
_cell_volume 3042.518004
_symmetry_space_group_name_H-M "C 2/M"
_symmetry_group_IT_number 12
_symmetry_cell_setting 'monoclinic'
loop_
_space_group_symop_operation_xyz
x,y,z
-x,y,-z
-x,-y,-z
x,-y,z
1/2+x,1/2+y,z
1/2-x,1/2+y,-z
1/2-x,1/2-y,-z
1/2+x,1/2-y,z
loop_
_atom_site_type_symbol
_atom_site_label
_atom_site_fract_x
_atom_site_fract_y
_atom_site_fract_z
Si Si1 0.072682 0.834022 0.988728
Si Si2 0.392349 0.825863 0.849420
Si Si3 0.709771 0.823665 0.433958
Si Si4 0.132268 0.826332 0.573252
Si Si5 0.044294 0.326942 0.700411
Si Si6 0.714398 0.176566 0.704591
Si Si7 0.749829 0.173351 0.857090
O O1 0.023633 0.726164 0.925093
O O2 0.067023 0.000000 0.965660
O O3 0.205304 0.794379 0.069007
O O4 0.000000 0.822097 0.000000
O O5 0.338999 0.745721 0.778641
O O6 0.315846 0.783155 0.855483
O O7 0.392801 0.000000 0.840539
O O8 0.750000 0.750000 0.500000
O O9 0.797001 0.777014 0.436754
O O10 0.583128 0.756899 0.359659
O O11 0.708717 0.000000 0.439998
O O12 0.179177 0.729172 0.637523
O O13 0.000000 0.786669 0.500000
O O14 0.149216 0.000000 0.593020
O O15 0.027229 0.500000 0.683613
O O16 0.118548 0.263889 0.693968
O O17 0.113260 0.297524 0.782176
O O18 0.725365 0.000000 0.711256
O O19 0.778454 0.000000 0.858123
#
# Coordination Sequence:
#
# PCOD8078514 Si02
#       7
#     8   8   8   8   8   8   8
#     4   8  13  22  36  56  86 122 156 191 231 275
#     4  10  17  24  38  62  93 124 154 191 236 281
#     4  10  20  34  52  72  96 124 155 192 231 277
#     4  10  21  35  50  72 101 127 151 187 238 286
#     4   8  15  29  48  69  91 121 161 198 232 271
#     4  10  19  32  50  69  92 124 163 200 231 274
#     4   8  14  25  40  59  87 122 159 196 232 274
#
# _framework density 18.405806999999999
#
# number of rings (size 3 to 8) (size 9 to 14) (size 15 to 20)
#    0.000    2.857    0.000    4.286    0.000    3.429 
#    0.000    2.857    0.000    0.000    0.000    1.000 
#    0.000    0.000    0.000    0.000    0.000    0.000 
#
# Total GULP energy -346911.919263 kJ/mol
# GULP energy per Si atom -12389.711402 kJ/mol
# Density = 1.836391 g / cm^3
# Si number density = 18.405807 Si / 1000 Ang^3
#
#
#
# Elastic Constant Matrix: (Units=GPa)
#
#
# Indices 1 2 3 4 5 6 
#
# 1 69.6696 26.5306 62.9678 0.0000 3.4561 0.0000
# 2 26.5306 76.2014 59.8149 0.0000 -8.6757 -0.0002
# 3 62.9678 59.8149 203.7383 0.0000 4.2660 0.0000
# 4 0.0000 0.0000 0.0000 31.0907 0.0000 -8.4443
# 5 3.4561 -8.6757 4.2660 0.0000 19.3620 0.0000
# 6 0.0000 -0.0002 0.0000 -8.4443 0.0000 11.7747
#
#
#
# Elastic Compliance Matrix: (Units=1/GPa)
#
#
# Indices 1 2 3 4 5 6 
#
# 1 0.020657 -0.003529 -0.005262 0.000000 -0.004109 0.000000
# 2 -0.003529 0.019286 -0.004787 0.000000 0.010326 0.000000
# 3 -0.005262 -0.004787 0.008002 0.000000 -0.002969 0.000000
# 4 0.000000 0.000000 0.000000 0.039945 0.000000 0.028647
# 5 -0.004109 0.010326 -0.002969 0.000000 0.057662 0.000000
# 6 0.000000 0.000000 0.000000 0.028647 0.000000 0.105472
#
#
# Mechanical properties :
#
#
# Convention : Reuss Voigt Hill
#
# Bulk Modulus (GPa) = 48.10662 72.02621 60.06642
# Shear Modulus (GPa) = 17.53703 25.79853 21.66778
#
# Velocity S-wave (km/s) = 3.09009 3.74793 3.43479
# Velocity P-wave (km/s) = 6.23899 7.61226 6.95958
#
# Compressibility (1/GPa) = 0.02078716
#
# Stress axis : x y z
#
# Youngs Moduli (GPa) = 48.40903 51.85241 124.96453
#
# Poissons Ratio (x) = 0.18301 0.65758
# Poissons Ratio (y) = 0.17086 0.59825
# Poissons Ratio (z) = 0.25474 0.24824
#
# Static dielectric constant tensor:
#      x y z
#    x 2.982420 0.000000 0.212110 
#    y 0.000000 3.150690 0.000000 
#    z 0.212110 0.000000 4.146670 
# 
# 
# High freq. dielectric constant tensor:
#      x y z
#    x 1.647930 0.000000 0.002870 
#    y 0.000000 1.694140 0.000000 
#    z 0.002870 0.000000 1.748910 
# 
# From -- ./inp_files/377729.got.cif
#   From: 2010.06.25/outbox.cif.g09.slc.cpg/sg12_189_cif.got.tgz:377729.got - 2010.06.28 00:19:55.
