data_PCOD8078925
_publ_section_title
;
Structure prediction by ZEFSAII (Michael W. Deem and Ramdas Pophale) SiO2 
 PCOD8078925
Probable space group: C 2/M
;
_chemical_formula_sum "Si O2"
_cell_formula_units_Z 48
_cell_length_a 15.127106
_cell_length_b 13.442133
_cell_length_c 12.330055
_cell_angle_alpha 90.000000
_cell_angle_beta 67.530618
_cell_angle_gamma 90.000000
_cell_volume 2316.863545
_symmetry_space_group_name_H-M "C 2/M"
_symmetry_group_IT_number 12
_symmetry_cell_setting 'monoclinic'
loop_
_space_group_symop_operation_xyz
x,y,z
-x,y,-z
-x,-y,-z
x,-y,z
1/2+x,1/2+y,z
1/2-x,1/2+y,-z
1/2-x,1/2-y,-z
1/2+x,1/2-y,z
loop_
_atom_site_type_symbol
_atom_site_label
_atom_site_fract_x
_atom_site_fract_y
_atom_site_fract_z
Si Si1 0.266979 0.383318 0.990081
Si Si2 0.607326 0.110998 0.491506
Si Si3 0.055877 0.707580 0.724676
Si Si4 0.397717 0.883138 0.084951
Si Si5 0.519681 0.384695 0.117350
Si Si6 0.855254 0.616992 0.756754
O O1 0.268133 0.500000 0.976384
O O2 0.236194 0.354231 0.127154
O O3 0.189672 0.335636 0.943268
O O4 0.372516 0.344998 0.912661
O O5 0.500000 0.103894 0.500000
O O6 0.614476 0.192932 0.584438
O O7 0.668199 0.147453 0.357549
O O8 0.639532 0.000000 0.515856
O O9 0.050297 0.821433 0.770811
O O10 0.948817 0.667966 0.761725
O O11 0.115270 0.642272 0.783146
O O12 0.398494 0.000000 0.063873
O O13 0.500000 0.836401 0.000000
O O14 0.504916 0.500000 0.155875
O O15 0.500000 0.368230 0.000000
O O16 0.876919 0.500000 0.751552
#
# Coordination Sequence:
#
# PCOD8078925 Si02
#       6
#     8   8   8   8   8   8
#     4   9  18  33  53  77 107 139 172 213 264 315
#     4   8  15  27  48  79 112 139 162 198 260 332
#     4  11  18  29  49  78 108 138 169 208 259 315
#     4  10  17  27  47  81 115 132 153 204 277 341
#     4  10  23  40  52  69 100 146 195 226 249 289
#     4   9  16  29  51  82 113 136 162 204 265 331
#
# _framework density 20.717663000000002
#
# number of rings (size 3 to 8) (size 9 to 14) (size 15 to 20)
#    0.000    2.500    1.667    3.000    0.000    0.667 
#    0.000    0.000    0.000    5.500    4.333    0.000 
#    0.000    0.000    0.000    0.000    0.000    0.000 
#
# Total GULP energy -297380.711648 kJ/mol
# GULP energy per Si atom -12390.862985 kJ/mol
# Density = 2.067051 g / cm^3
# Si number density = 20.717663 Si / 1000 Ang^3
#
#
#
# Elastic Constant Matrix: (Units=GPa)
#
#
# Indices 1 2 3 4 5 6 
#
# 1 71.7392 9.1631 30.2410 0.0000 13.4725 0.0000
# 2 9.1631 72.4848 38.6916 0.0000 5.4337 0.0000
# 3 30.2410 38.6916 142.8524 0.0000 22.2926 0.0000
# 4 0.0000 0.0000 0.0000 11.0797 0.0000 -12.6179
# 5 13.4725 5.4337 22.2926 0.0000 17.5099 0.0000
# 6 0.0000 0.0000 0.0000 -12.6179 0.0000 -0.4577
#
#
#
# Elastic Compliance Matrix: (Units=1/GPa)
#
#
# Indices 1 2 3 4 5 6 
#
# 1 0.016709 -0.000364 -0.001810 0.000000 -0.010440 0.000000
# 2 -0.000364 0.016142 -0.004439 0.000000 0.000922 0.000000
# 3 -0.001810 -0.004439 0.010175 0.000000 -0.010184 0.000000
# 4 0.000000 0.000000 0.000000 0.002786 0.000000 -0.076806
# 5 -0.010440 0.000922 -0.010184 0.000000 0.077823 0.000000
# 6 0.000000 0.000000 0.000000 -0.076806 0.000000 -0.067443
#
#
# Mechanical properties :
#
#
# Convention : Reuss Voigt Hill
#
# Bulk Modulus (GPa) = 33.55508 49.25197 41.40352
# Shear Modulus (GPa) = 63.01176 19.55844 41.28510
#
# Velocity S-wave (km/s) = 5.52092 3.07587 4.46886
# Velocity P-wave (km/s) = 7.54137 6.03649 6.83050
#
# Compressibility (1/GPa) = 0.02980175
#
# Stress axis : x y z
#
# Youngs Moduli (GPa) = 59.84730 61.94869 98.28101
#
# Poissons Ratio (x) = 0.02253 0.17785
# Poissons Ratio (y) = 0.02177 0.43628
# Poissons Ratio (z) = 0.10830 0.27499
#
# Static dielectric constant tensor:
#      x y z
#    x 3.791360 0.000000 0.001380 
#    y 0.000000 3.596610 0.000000 
#    z 0.001380 0.000000 4.321390 
# 
# 
# High freq. dielectric constant tensor:
#      x y z
#    x 1.781520 0.000000 0.013610 
#    y 0.000000 1.803590 0.000000 
#    z 0.013610 0.000000 1.802580 
# 
# From -- ./inp_files/142844.got.cif
#   From: 2010.06.25/outbox.cif.g09.slc.cpg/sg12_72_cif.got.tgz:142844.got - 2010.06.28 00:19:55.
