data_PCOD8078524
_publ_section_title
;
Structure prediction by ZEFSAII (Michael W. Deem and Ramdas Pophale) SiO2 
 PCOD8078524
Probable space group: C 2/M
;
_chemical_formula_sum "Si O2"
_cell_formula_units_Z 64
_cell_length_a 19.279478
_cell_length_b 9.425545
_cell_length_c 23.669806
_cell_angle_alpha 90.000000
_cell_angle_beta 60.216587
_cell_angle_gamma 90.000000
_cell_volume 3733.109919
_symmetry_space_group_name_H-M "C 2/M"
_symmetry_group_IT_number 12
_symmetry_cell_setting 'monoclinic'
loop_
_space_group_symop_operation_xyz
x,y,z
-x,y,-z
-x,-y,-z
x,-y,z
1/2+x,1/2+y,z
1/2-x,1/2+y,-z
1/2-x,1/2-y,-z
1/2+x,1/2-y,z
loop_
_atom_site_type_symbol
_atom_site_label
_atom_site_fract_x
_atom_site_fract_y
_atom_site_fract_z
Si Si1 0.434736 0.665809 0.222836
Si Si2 0.757376 0.837291 0.323521
Si Si3 0.186392 0.164819 0.151591
Si Si4 0.643612 0.333464 0.293300
Si Si5 0.066736 0.666564 0.119248
Si Si6 0.030206 0.167837 0.666601
Si Si7 0.306690 0.839777 0.015167
Si Si8 0.200523 0.165441 0.565600
O O1 0.451789 0.500000 0.206088
O O2 0.340433 0.697830 0.258265
O O3 0.480275 0.757909 0.156764
O O4 0.468977 0.720824 0.269079
O O5 0.686958 0.742658 0.327153
O O6 0.763929 0.803880 0.387051
O O7 0.734518 0.000000 0.322963
O O8 0.184992 0.210190 0.217479
O O9 0.125504 0.261665 0.141135
O O10 0.278585 0.186158 0.091629
O O11 0.158994 0.000000 0.156955
O O12 0.649356 0.500000 0.301595
O O13 0.551033 0.282524 0.330828
O O14 0.058001 0.500000 0.136362
O O15 0.101556 0.691898 0.040889
O O16 0.108488 0.221375 0.601064
O O17 0.036574 0.000000 0.667816
O O18 0.287656 0.000000 0.006030
O O19 0.250000 0.750000 0.000000
O O20 0.250000 0.250000 0.500000
O O21 0.205392 0.000000 0.548806
#
# Coordination Sequence:
#
# PCOD8078524 Si02
#       8
#     8   8   8   8   8   8   8   8
#     4   9  16  31  50  65  89 128 166 195 235 291
#     4   9  20  35  51  72 100 130 156 193 242 284
#     4   9  16  28  45  63  90 131 166 190 234 296
#     4  10  18  30  51  74  96 125 163 202 235 279
#     4  10  17  24  40  69  97 118 153 209 253 277
#     4   8  15  30  51  73  94 123 162 196 227 273
#     4   8  15  25  37  59  91 122 155 197 242 286
#     4   9  18  35  57  76  98 127 159 192 229 277
#
# _framework density 17.143882999999999
#
# number of rings (size 3 to 8) (size 9 to 14) (size 15 to 20)
#    0.000    3.000    1.250    1.875    0.000    2.000 
#    0.000    3.125    0.000    4.500    0.000    5.250 
#    0.000    0.000    0.000    0.000    0.000    0.000 
#
# Total GULP energy -396448.386174 kJ/mol
# GULP energy per Si atom -12389.012068 kJ/mol
# Density = 1.710486 g / cm^3
# Si number density = 17.143883 Si / 1000 Ang^3
#
#
#
# Elastic Constant Matrix: (Units=GPa)
#
#
# Indices 1 2 3 4 5 6 
#
# 1 97.8375 39.7764 52.4340 0.0000 -11.9034 0.0002
# 2 39.7764 55.6492 46.1640 -0.0001 -8.7391 0.0002
# 3 52.4340 46.1640 129.1170 0.0000 -27.5178 0.0001
# 4 0.0000 -0.0001 0.0000 28.0663 0.0000 -3.5616
# 5 -11.9034 -8.7391 -27.5178 0.0000 21.3018 0.0001
# 6 0.0002 0.0002 0.0001 -3.5616 0.0001 25.9852
#
#
#
# Elastic Compliance Matrix: (Units=1/GPa)
#
#
# Indices 1 2 3 4 5 6 
#
# 1 0.015353 -0.008285 -0.002992 0.000000 0.001315 0.000000
# 2 -0.008285 0.030069 -0.007926 0.000000 -0.002533 0.000000
# 3 -0.002992 -0.007926 0.014826 0.000000 0.014229 0.000000
# 4 0.000000 0.000000 0.000000 0.036261 0.000000 0.004970
# 5 0.001315 -0.002533 0.014229 0.000000 0.065021 0.000000
# 6 0.000000 0.000000 0.000000 0.004970 0.000000 0.039165
#
#
# Mechanical properties :
#
#
# Convention : Reuss Voigt Hill
#
# Bulk Modulus (GPa) = 45.78423 62.15029 53.96726
# Shear Modulus (GPa) = 20.29367 24.68596 22.48981
#
# Velocity S-wave (km/s) = 3.44427 3.79875 3.62584
# Velocity P-wave (km/s) = 6.52542 7.45463 7.00545
#
# Compressibility (1/GPa) = 0.02184158
#
# Stress axis : x y z
#
# Youngs Moduli (GPa) = 65.13360 33.25695 67.44692
#
# Poissons Ratio (x) = 0.27554 0.20183
# Poissons Ratio (y) = 0.53964 0.53458
# Poissons Ratio (z) = 0.19491 0.26359
#
# Static dielectric constant tensor:
#      x y z
#    x 0.925470 0.000030 -1.003920 
#    y 0.000030 3.016710 0.000010 
#    z -1.003920 0.000010 3.294970 
# 
# 
# High freq. dielectric constant tensor:
#      x y z
#    x 1.629220 0.000000 -0.026160 
#    y 0.000000 1.649950 0.000000 
#    z -0.026160 0.000000 1.665490 
# 
# From -- ./inp_files/345529.got.cif
#   From: 2010.06.25/outbox.cif.g09.slc.cpg/sg12_173_cif.got.tgz:345529.got - 2010.06.28 00:19:55.
