data_PCOD8078060
_publ_section_title
;
Structure prediction by ZEFSAII (Michael W. Deem and Ramdas Pophale) SiO2 
 PCOD8078060
Probable space group: C 2/M
;
_chemical_formula_sum "Si O2"
_cell_formula_units_Z 36
_cell_length_a 25.897547
_cell_length_b 13.928698
_cell_length_c 8.903686
_cell_angle_alpha 90.000000
_cell_angle_beta 148.740551
_cell_angle_gamma 90.000000
_cell_volume 1666.612276
_symmetry_space_group_name_H-M "C 2/M"
_symmetry_group_IT_number 12
_symmetry_cell_setting 'monoclinic'
loop_
_space_group_symop_operation_xyz
x,y,z
-x,y,-z
-x,-y,-z
x,-y,z
1/2+x,1/2+y,z
1/2-x,1/2+y,-z
1/2-x,1/2-y,-z
1/2+x,1/2-y,z
loop_
_atom_site_type_symbol
_atom_site_label
_atom_site_fract_x
_atom_site_fract_y
_atom_site_fract_z
Si Si1 0.824471 0.176166 0.759405
Si Si2 0.231845 0.000000 0.853936
Si Si3 0.307052 0.107815 0.296209
Si Si4 0.384743 0.500000 0.711589
Si Si5 0.429214 0.000000 0.179370
Si Si6 0.497953 0.801530 0.314175
O O1 0.750000 0.250000 0.500000
O O2 0.771455 0.136134 0.774498
O O3 0.840387 0.093374 0.679279
O O4 0.932698 0.218877 0.074027
O O5 0.131793 0.000000 0.509844
O O6 0.242824 0.096430 0.982431
O O7 0.314708 0.000000 0.932559
O O8 0.390386 0.190603 0.477727
O O9 0.353769 0.000000 0.444546
O O10 0.500000 0.500000 0.000000
O O11 0.500000 0.000000 0.500000
O O12 0.448922 0.097901 0.139129
O O13 0.500000 0.788113 0.500000
#
# Coordination Sequence:
#
# PCOD8078060 Si02
#       6
#     8   4   8   4   4   8
#     4  12  29  46  68 106 150 189 230 292 364 431
#     4  10  19  43  82  93 132 190 239 294 349 405
#     4  10  21  46  76 103 133 184 243 294 348 409
#     4  12  29  51  66 100 155 195 228 288 372 427
#     4  10  14  36  67 113 132 156 227 310 348 376
#     4  11  21  41  74 110 137 178 248 298 346 419
#
# _framework density 21.600705000000001
#
# number of rings (size 3 to 8) (size 9 to 14) (size 15 to 20)
#    0.667    0.444    6.667    1.333    3.111    2.667 
#    0.000    2.778    0.000    0.000    0.000    0.000 
#    0.000    0.000    0.000    0.000    0.000    0.000 
#
# Total GULP energy -223022.517391 kJ/mol
# GULP energy per Si atom -12390.139855 kJ/mol
# Density = 2.155154 g / cm^3
# Si number density = 21.600705 Si / 1000 Ang^3
#
#
#
# Elastic Constant Matrix: (Units=GPa)
#
#
# Indices 1 2 3 4 5 6 
#
# 1 113.6201 36.7884 53.7741 0.0000 6.4875 0.0000
# 2 36.7884 105.2200 50.7202 0.0000 -8.4771 0.0000
# 3 53.7741 50.7202 140.1049 0.0000 -3.9066 0.0000
# 4 0.0000 0.0000 0.0000 33.9918 0.0000 10.2271
# 5 6.4875 -8.4771 -3.9066 0.0000 26.3096 0.0000
# 6 0.0000 0.0000 0.0000 10.2271 0.0000 27.3187
#
#
#
# Elastic Compliance Matrix: (Units=1/GPa)
#
#
# Indices 1 2 3 4 5 6 
#
# 1 0.011617 -0.002663 -0.003613 0.000000 -0.004259 0.000000
# 2 -0.002663 0.012381 -0.003344 0.000000 0.004149 0.000000
# 3 -0.003613 -0.003344 0.009770 0.000000 0.001264 0.000000
# 4 0.000000 0.000000 0.000000 0.033153 0.000000 -0.012411
# 5 -0.004259 0.004149 0.001264 0.000000 0.040584 0.000000
# 6 0.000000 0.000000 0.000000 -0.012411 0.000000 0.041251
#
#
# Mechanical properties :
#
#
# Convention : Reuss Voigt Hill
#
# Bulk Modulus (GPa) = 68.83773 71.27893 70.05833
# Shear Modulus (GPa) = 28.92836 32.03484 30.48160
#
# Velocity S-wave (km/s) = 3.66352 3.85521 3.76059
# Velocity P-wave (km/s) = 7.05922 7.27234 7.16657
#
# Compressibility (1/GPa) = 0.01452692
#
# Stress axis : x y z
#
# Youngs Moduli (GPa) = 86.08206 80.76611 102.35002
#
# Poissons Ratio (x) = 0.21508 0.36983
# Poissons Ratio (y) = 0.22923 0.34231
# Poissons Ratio (z) = 0.31105 0.27012
#
# Static dielectric constant tensor:
#      x y z
#    x 3.859720 0.000000 0.153240 
#    y 0.000000 65.163530 0.000000 
#    z 0.153240 0.000000 3.742110 
# 
# 
# High freq. dielectric constant tensor:
#      x y z
#    x 1.848820 0.000000 0.007230 
#    y 0.000000 1.844290 0.000000 
#    z 0.007230 0.000000 1.841270 
# 
# From -- ./inp_files/105130.got.cif
#   From: 2010.06.25/outbox.cif.g09.slc.cpg/sg12_53_cif.got.tgz:105130.got - 2010.06.28 00:19:55.
