data_PCOD8078715
_publ_section_title
;
Structure prediction by ZEFSAII (Michael W. Deem and Ramdas Pophale) SiO2 
 PCOD8078715
Probable space group: C 2/M
;
_chemical_formula_sum "Si O2"
_cell_formula_units_Z 64
_cell_length_a 23.221036
_cell_length_b 8.900743
_cell_length_c 19.337677
_cell_angle_alpha 90.000000
_cell_angle_beta 64.949327
_cell_angle_gamma 90.000000
_cell_volume 3620.833489
_symmetry_space_group_name_H-M "C 2/M"
_symmetry_group_IT_number 12
_symmetry_cell_setting 'monoclinic'
loop_
_space_group_symop_operation_xyz
x,y,z
-x,y,-z
-x,-y,-z
x,-y,z
1/2+x,1/2+y,z
1/2-x,1/2+y,-z
1/2-x,1/2-y,-z
1/2+x,1/2-y,z
loop_
_atom_site_type_symbol
_atom_site_label
_atom_site_fract_x
_atom_site_fract_y
_atom_site_fract_z
Si Si1 0.810723 0.321311 0.767145
Si Si2 0.937002 0.174255 0.213918
Si Si3 0.700604 0.326299 0.727168
Si Si4 0.694516 0.678929 0.572451
Si Si5 0.304341 0.824853 0.928114
Si Si6 0.438938 0.669902 0.699573
Si Si7 0.065242 0.676625 0.640984
Si Si8 0.428315 0.666100 0.869418
O O1 0.816256 0.500000 0.761469
O O2 0.753048 0.252073 0.750719
O O3 0.798458 0.268721 0.852166
O O4 0.875778 0.252507 0.704137
O O5 0.870964 0.201082 0.205779
O O6 0.936803 0.290733 0.276623
O O7 0.000878 0.202513 0.135154
O O8 0.937579 0.000000 0.241447
O O9 0.717447 0.500000 0.717904
O O10 0.704559 0.266574 0.646617
O O11 0.694276 0.500000 0.565914
O O12 0.750000 0.750000 0.500000
O O13 0.627747 0.743585 0.577505
O O14 0.374154 0.780494 0.922174
O O15 0.295904 0.000000 0.939357
O O16 0.250000 0.750000 0.000000
O O17 0.439382 0.500000 0.671511
O O18 0.501296 0.755389 0.638775
O O19 0.439132 0.674917 0.782142
O O20 0.068099 0.500000 0.625149
O O21 0.406007 0.500000 0.903378
#
# Coordination Sequence:
#
# PCOD8078715 Si02
#       8
#     8   8   8   8   8   8   8   8
#     4   9  17  30  48  70  92 119 154 190 225 270
#     4   8  14  26  44  66  91 119 147 184 230 272
#     4   8  15  29  49  70  94 121 150 184 226 270
#     4  10  19  32  49  70  96 125 153 186 227 272
#     4  10  19  29  44  65  90 118 151 188 228 271
#     4   9  16  27  43  65  92 120 149 188 233 272
#     4  10  17  26  43  67  92 119 153 192 227 265
#     4   8  14  25  42  63  87 113 146 184 224 266
#
# _framework density 17.675488000000001
#
# number of rings (size 3 to 8) (size 9 to 14) (size 15 to 20)
#    0.000    3.000    0.000    3.750    0.000    3.500 
#    0.000    3.125    0.000    1.500    0.000   10.500 
#    0.000    0.000    0.000    0.000    0.000    0.000 
#
# Total GULP energy -396485.612212 kJ/mol
# GULP energy per Si atom -12390.175382 kJ/mol
# Density = 1.763526 g / cm^3
# Si number density = 17.675488 Si / 1000 Ang^3
#
#
#
# Elastic Constant Matrix: (Units=GPa)
#
#
# Indices 1 2 3 4 5 6 
#
# 1 150.1860 40.1870 58.5582 -0.0001 -40.9655 -0.0003
# 2 40.1870 75.7824 37.9110 -0.0002 -18.1135 -0.0009
# 3 58.5582 37.9110 75.9394 0.0000 -35.0368 -0.0001
# 4 -0.0001 -0.0002 0.0000 23.8709 0.0000 -11.7651
# 5 -40.9655 -18.1135 -35.0368 0.0000 32.7190 0.0000
# 6 -0.0003 -0.0009 -0.0001 -11.7651 0.0000 23.8422
#
#
#
# Elastic Compliance Matrix: (Units=1/GPa)
#
#
# Indices 1 2 3 4 5 6 
#
# 1 0.010945 -0.002008 -0.003217 0.000000 0.009147 0.000000
# 2 -0.002008 0.017964 -0.007889 0.000001 -0.001017 0.000001
# 3 -0.003217 -0.007889 0.031059 0.000000 0.024864 0.000000
# 4 0.000000 0.000001 0.000000 0.055355 0.000000 0.027315
# 5 0.009147 -0.001017 0.024864 0.000000 0.068078 0.000000
# 6 0.000000 0.000001 0.000000 0.027315 0.000000 0.055421
#
#
# Mechanical properties :
#
#
# Convention : Reuss Voigt Hill
#
# Bulk Modulus (GPa) = 29.63856 63.91335 46.77596
# Shear Modulus (GPa) = 18.09646 27.10320 22.59983
#
# Velocity S-wave (km/s) = 3.20318 3.92009 3.57963
# Velocity P-wave (km/s) = 5.52133 7.53175 6.60350
#
# Compressibility (1/GPa) = 0.03373983
#
# Stress axis : x y z
#
# Youngs Moduli (GPa) = 91.36455 55.66682 32.19659
#
# Poissons Ratio (x) = 0.11180 0.10358
# Poissons Ratio (y) = 0.18350 0.25399
# Poissons Ratio (z) = 0.29394 0.43913
#
# Static dielectric constant tensor:
#      x y z
#    x 3.723940 0.000000 -0.436030 
#    y 0.000000 3.186950 0.000000 
#    z -0.436030 0.000000 2.995410 
# 
# 
# High freq. dielectric constant tensor:
#      x y z
#    x 1.685190 0.000000 -0.047740 
#    y 0.000000 1.675840 0.000000 
#    z -0.047740 0.000000 1.637670 
# 
# From -- ./inp_files/345559.got.cif
#   From: 2010.06.25/outbox.cif.g09.slc.cpg/sg12_173_cif.got.tgz:345559.got - 2010.06.28 00:19:55.
