data_PCOD8078901
_publ_section_title
;
Structure prediction by ZEFSAII (Michael W. Deem and Ramdas Pophale) SiO2 
 PCOD8078901
Probable space group: C 2/M
;
_chemical_formula_sum "Si O2"
_cell_formula_units_Z 64
_cell_length_a 16.465353
_cell_length_b 13.311195
_cell_length_c 23.310350
_cell_angle_alpha 90.000000
_cell_angle_beta 45.581085
_cell_angle_gamma 90.000000
_cell_volume 3649.068911
_symmetry_space_group_name_H-M "C 2/M"
_symmetry_group_IT_number 12
_symmetry_cell_setting 'monoclinic'
loop_
_space_group_symop_operation_xyz
x,y,z
-x,y,-z
-x,-y,-z
x,-y,z
1/2+x,1/2+y,z
1/2-x,1/2+y,-z
1/2-x,1/2-y,-z
1/2+x,1/2-y,z
loop_
_atom_site_type_symbol
_atom_site_label
_atom_site_fract_x
_atom_site_fract_y
_atom_site_fract_z
Si Si1 0.896877 0.805417 0.211968
Si Si2 0.208851 0.613044 0.115247
Si Si3 0.545226 0.116938 0.759624
Si Si4 0.685343 0.885981 0.255434
Si Si5 0.448182 0.380352 0.964563
Si Si6 0.860248 0.114124 0.347238
Si Si7 0.602346 0.883904 0.489807
Si Si8 0.447707 0.201468 0.365414
O O1 0.776042 0.850546 0.256111
O O2 0.930862 0.860718 0.254473
O O3 0.883447 0.685613 0.231441
O O4 0.990082 0.823923 0.117419
O O5 0.194088 0.500000 0.101543
O O6 0.084172 0.660902 0.168531
O O7 0.244643 0.616398 0.164234
O O8 0.316265 0.658673 0.027662
O O9 0.585107 0.133238 0.673982
O O10 0.559242 0.000000 0.768420
O O11 0.581934 0.808517 0.309963
O O12 0.643961 0.000000 0.290208
O O13 0.457871 0.500000 0.951284
O O14 0.500000 0.348367 0.000000
O O15 0.726138 0.133625 0.400559
O O16 0.910154 0.183819 0.373073
O O17 0.881920 0.000000 0.355741
O O18 0.500000 0.839464 0.500000
O O19 0.613441 0.832924 0.546518
O O20 0.575278 0.000000 0.513441
#
# Coordination Sequence:
#
# PCOD8078901 Si02
#       8
#     8   8   8   8   8   8   8   8
#     4  11  20  30  50  75  99 129 162 207 259 297
#     4   8  15  28  46  68  94 123 156 201 247 288
#     4   9  19  34  49  69  98 132 170 203 240 297
#     4  10  17  29  50  75  98 120 160 210 250 286
#     4  10  17  27  46  75 101 122 157 206 258 301
#     4  10  21  34  48  73 108 136 161 201 250 295
#     4  10  19  32  53  80 104 126 160 209 252 285
#     4  10  19  33  54  74  97 136 170 198 242 297
#
# _framework density 17.538720000000001
#
# number of rings (size 3 to 8) (size 9 to 14) (size 15 to 20)
#    0.000    2.250    1.250    4.125    0.000    1.500 
#    0.000    0.625    0.000    0.750    0.000    0.000 
#    0.000    0.000    0.000    0.000    0.000    0.000 
#
# Total GULP energy -396533.652112 kJ/mol
# GULP energy per Si atom -12391.676628 kJ/mol
# Density = 1.749880 g / cm^3
# Si number density = 17.538720 Si / 1000 Ang^3
#
#
#
# Elastic Constant Matrix: (Units=GPa)
#
#
# Indices 1 2 3 4 5 6 
#
# 1 56.1326 41.2170 21.5194 0.0000 2.8370 0.0000
# 2 41.2170 95.5402 35.0480 0.0000 1.1230 0.0000
# 3 21.5194 35.0480 99.1656 0.0000 7.2583 0.0000
# 4 0.0000 0.0000 0.0000 20.0650 0.0000 2.2837
# 5 2.8370 1.1230 7.2583 0.0000 21.8163 0.0000
# 6 0.0000 0.0000 0.0000 2.2837 0.0000 29.1712
#
#
#
# Elastic Compliance Matrix: (Units=1/GPa)
#
#
# Indices 1 2 3 4 5 6 
#
# 1 0.026513 -0.010757 -0.001783 0.000000 -0.002301 0.000000
# 2 -0.010757 0.016404 -0.003592 0.000000 0.001749 0.000000
# 3 -0.001783 -0.003592 0.012002 0.000000 -0.003576 0.000000
# 4 0.000000 0.000000 0.000000 0.050286 0.000000 -0.003937
# 5 -0.002301 0.001749 -0.003576 0.000000 0.047236 0.000000
# 6 0.000000 0.000000 0.000000 -0.003937 0.000000 0.034589
#
#
# Mechanical properties :
#
#
# Convention : Reuss Voigt Hill
#
# Bulk Modulus (GPa) = 44.13735 49.60082 46.86909
# Shear Modulus (GPa) = 22.04129 24.41410 23.22769
#
# Velocity S-wave (km/s) = 3.54887 3.73501 3.64313
# Velocity P-wave (km/s) = 6.48174 6.85147 6.66917
#
# Compressibility (1/GPa) = 0.02265655
#
# Stress axis : x y z
#
# Youngs Moduli (GPa) = 37.71664 60.95921 83.31769
#
# Poissons Ratio (x) = 0.65573 0.14858
# Poissons Ratio (y) = 0.40572 0.29924
# Poissons Ratio (z) = 0.06726 0.21894
#
# Static dielectric constant tensor:
#      x y z
#    x 3.204010 0.000000 -0.108330 
#    y 0.000000 3.037460 0.000000 
#    z -0.108330 0.000000 3.391340 
# 
# 
# High freq. dielectric constant tensor:
#      x y z
#    x 1.661520 0.000000 -0.004890 
#    y 0.000000 1.647160 0.000000 
#    z -0.004890 0.000000 1.690570 
# 
# From -- ./inp_files/315696.got.cif
#   From: 2010.06.25/outbox.cif.g09.slc.cpg/sg12_158_cif.got.tgz:315696.got - 2010.06.28 00:19:55.
