data_PCOD8078922
_publ_section_title
;
Structure prediction by ZEFSAII (Michael W. Deem and Ramdas Pophale) SiO2 
 PCOD8078922
Probable space group: C 2/M
;
_chemical_formula_sum "Si O2"
_cell_formula_units_Z 40
_cell_length_a 14.680729
_cell_length_b 8.654632
_cell_length_c 16.410056
_cell_angle_alpha 90.000000
_cell_angle_beta 114.727126
_cell_angle_gamma 90.000000
_cell_volume 1893.827864
_symmetry_space_group_name_H-M "C 2/M"
_symmetry_group_IT_number 12
_symmetry_cell_setting 'monoclinic'
loop_
_space_group_symop_operation_xyz
x,y,z
-x,y,-z
-x,-y,-z
x,-y,z
1/2+x,1/2+y,z
1/2-x,1/2+y,-z
1/2-x,1/2-y,-z
1/2+x,1/2-y,z
loop_
_atom_site_type_symbol
_atom_site_label
_atom_site_fract_x
_atom_site_fract_y
_atom_site_fract_z
Si Si1 0.458435 0.318799 0.103962
Si Si2 0.765814 0.819930 0.265107
Si Si3 0.070963 0.317336 0.285373
Si Si4 0.521255 0.316708 0.599718
Si Si5 0.639878 0.819298 0.071742
O O1 0.440551 0.500000 0.103392
O O2 0.474982 0.252085 0.200720
O O3 0.555602 0.275821 0.088033
O O4 0.360575 0.243785 0.021680
O O5 0.674846 0.752736 0.286054
O O6 0.871094 0.746445 0.332074
O O7 0.743982 0.790168 0.160006
O O8 0.772669 0.000000 0.286007
O O9 0.066400 0.500000 0.277367
O O10 0.063860 0.259975 0.375614
O O11 0.500000 0.264051 0.500000
O O12 0.515354 0.500000 0.607195
O O13 0.612480 0.000000 0.063523
#
# Coordination Sequence:
#
# PCOD8078922 Si02
#       5
#     8   8   8   8   8
#     4  10  17  27  47  77 109 139 176 218 260 306
#     4   8  17  34  55  78 108 144 176 212 262 317
#     4  10  20  36  56  78 107 143 180 216 261 317
#     4  10  21  38  58  80 106 136 174 223 274 318
#     4   9  15  27  48  74 107 145 179 210 254 311
#
# _framework density 21.121243
#
# number of rings (size 3 to 8) (size 9 to 14) (size 15 to 20)
#    0.000    2.600    0.000    5.400    0.000    1.200 
#    0.000    7.000    0.000    0.000    0.000    0.000 
#    0.000    0.000    0.000    0.000    0.000    0.000 
#
# Total GULP energy -247853.894678 kJ/mol
# GULP energy per Si atom -12392.694734 kJ/mol
# Density = 2.107317 g / cm^3
# Si number density = 21.121243 Si / 1000 Ang^3
#
#
#
# Elastic Constant Matrix: (Units=GPa)
#
#
# Indices 1 2 3 4 5 6 
#
# 1 27.7625 10.5835 17.4093 0.0000 4.4378 0.0000
# 2 10.5835 59.3831 27.0041 0.0000 -1.8723 0.0000
# 3 17.4093 27.0041 117.7631 0.0000 3.5412 0.0000
# 4 0.0000 0.0000 0.0000 25.9542 0.0000 -11.3645
# 5 4.4378 -1.8723 3.5412 0.0000 34.9233 0.0000
# 6 0.0000 0.0000 0.0000 -11.3645 0.0000 16.5607
#
#
#
# Elastic Compliance Matrix: (Units=1/GPa)
#
#
# Indices 1 2 3 4 5 6 
#
# 1 0.041925 -0.005454 -0.004793 0.000000 -0.005134 0.000000
# 2 -0.005454 0.019583 -0.003748 0.000000 0.002123 0.000000
# 3 -0.004793 -0.003748 0.010078 0.000000 -0.000614 0.000000
# 4 0.000000 0.000000 0.000000 0.055080 0.000000 0.037797
# 5 -0.005134 0.002123 -0.000614 0.000000 0.029463 0.000000
# 6 0.000000 0.000000 0.000000 0.037797 0.000000 0.086321
#
#
# Mechanical properties :
#
#
# Convention : Reuss Voigt Hill
#
# Bulk Modulus (GPa) = 22.93793 34.98915 28.96354
# Shear Modulus (GPa) = 17.54554 25.48177 21.51365
#
# Velocity S-wave (km/s) = 2.88532 3.47717 3.19498
# Velocity P-wave (km/s) = 4.68869 5.72038 5.23004
#
# Compressibility (1/GPa) = 0.04359591
#
# Stress axis : x y z
#
# Youngs Moduli (GPa) = 23.85198 51.06394 99.22511
#
# Poissons Ratio (x) = 0.27852 0.47557
# Poissons Ratio (y) = 0.13010 0.37191
# Poissons Ratio (z) = 0.11432 0.19139
#
# Static dielectric constant tensor:
#      x y z
#    x 3.628600 0.000000 0.122660 
#    y 0.000000 3.467350 0.000000 
#    z 0.122660 0.000000 4.461330 
# 
# 
# High freq. dielectric constant tensor:
#      x y z
#    x 1.801560 0.000000 -0.001060 
#    y 0.000000 1.803460 0.000000 
#    z -0.001060 0.000000 1.841160 
# 
# From -- ./inp_files/266947.got.cif
#   From: 2010.06.25/outbox.cif.g09.slc.cpg/sg12_134_cif.got.tgz:266947.got - 2010.06.28 00:19:55.
