data_PCOD8078638
_publ_section_title
;
Structure prediction by ZEFSAII (Michael W. Deem and Ramdas Pophale) SiO2 
 PCOD8078638
Probable space group: C 2/M
;
_chemical_formula_sum "Si O2"
_cell_formula_units_Z 56
_cell_length_a 18.124700
_cell_length_b 22.293694
_cell_length_c 23.081592
_cell_angle_alpha 90.000000
_cell_angle_beta 156.503327
_cell_angle_gamma 90.000000
_cell_volume 3718.435923
_symmetry_space_group_name_H-M "C 2/M"
_symmetry_group_IT_number 12
_symmetry_cell_setting 'monoclinic'
loop_
_space_group_symop_operation_xyz
x,y,z
-x,y,-z
-x,-y,-z
x,-y,z
1/2+x,1/2+y,z
1/2-x,1/2+y,-z
1/2-x,1/2-y,-z
1/2+x,1/2-y,z
loop_
_atom_site_type_symbol
_atom_site_label
_atom_site_fract_x
_atom_site_fract_y
_atom_site_fract_z
Si Si1 0.529980 0.215107 0.956741
Si Si2 0.811625 0.151534 0.942524
Si Si3 0.791768 0.183590 0.052530
Si Si4 0.188782 0.856850 0.335367
Si Si5 0.171246 0.740169 0.654356
Si Si6 0.355289 0.569568 0.801781
Si Si7 0.435580 0.858896 0.340237
O O1 0.332434 0.212701 0.782333
O O2 0.500000 0.190442 0.000000
O O3 0.610716 0.282304 0.015392
O O4 0.661512 0.170501 0.014272
O O5 0.631087 0.137085 0.774263
O O6 0.753924 0.142734 0.968523
O O7 0.976837 0.105657 0.046757
O O8 0.001049 0.172061 0.226092
O O9 0.750000 0.250000 0.000000
O O10 0.266314 0.811755 0.343650
O O11 0.149330 0.917815 0.270918
O O12 0.341432 0.868229 0.495412
O O13 0.114093 0.707900 0.673115
O O14 0.000000 0.774480 0.500000
O O15 0.388107 0.500000 0.836290
O O16 0.162914 0.589629 0.692820
#
# Coordination Sequence:
#
# PCOD8078638 Si02
#       7
#     8   8   8   8   8   8   8
#     4  11  16  28  45  59  77 106 142 179 209 251
#     4  10  17  29  40  59  83 110 139 175 209 243
#     4   9  17  29  42  56  77 107 142 174 210 255
#     4   9  17  29  40  55  83 111 140 176 207 239
#     4   9  15  24  38  56  78 105 132 165 206 240
#     4  10  18  28  43  62  86 117 149 172 199 241
#     4  10  17  26  40  57  82 112 140 173 205 237
#
# _framework density 15.060096
#
# number of rings (size 3 to 8) (size 9 to 14) (size 15 to 20)
#    0.000    2.286    7.143    1.714    0.000    2.286 
#    0.000    4.286    0.000    0.000    0.000    0.000 
#    0.000    9.143    0.000    0.000    0.000   28.286 
#
# Total GULP energy -346947.051097 kJ/mol
# GULP energy per Si atom -12390.966111 kJ/mol
# Density = 1.502582 g / cm^3
# Si number density = 15.060096 Si / 1000 Ang^3
#
#
#
# Elastic Constant Matrix: (Units=GPa)
#
#
# Indices 1 2 3 4 5 6 
#
# 1 86.1679 14.9187 48.2011 0.0019 4.2767 0.0011
# 2 14.9187 29.6481 25.9666 -0.0440 6.6838 -0.0204
# 3 48.2011 25.9666 143.3107 -0.0853 -11.3297 -0.0444
# 4 0.0019 -0.0440 -0.0853 9.0532 -0.0391 2.1539
# 5 4.2767 6.6838 -11.3297 -0.0391 19.0401 -0.0126
# 6 0.0011 -0.0204 -0.0444 2.1539 -0.0126 7.1859
#
#
#
# Elastic Compliance Matrix: (Units=1/GPa)
#
#
# Indices 1 2 3 4 5 6 
#
# 1 0.015129 -0.001672 -0.005255 -0.000080 -0.005939 -0.000026
# 2 -0.001672 0.048409 -0.009993 0.000038 -0.022564 0.000025
# 3 -0.005255 -0.009993 0.011466 0.000102 0.011511 0.000033
# 4 -0.000080 0.000038 0.000102 0.118943 0.000286 -0.035651
# 5 -0.005939 -0.022564 0.011511 0.000286 0.068626 0.000043
# 6 -0.000026 0.000025 0.000033 -0.035651 0.000043 0.149848
#
#
# Mechanical properties :
#
#
# Convention : Reuss Voigt Hill
#
# Bulk Modulus (GPa) = 24.29251 48.58884 36.44067
# Shear Modulus (GPa) = 10.87000 18.39186 14.63093
#
# Velocity S-wave (km/s) = 2.68950 3.49840 3.12028
# Velocity P-wave (km/s) = 5.08035 6.97508 6.10171
#
# Compressibility (1/GPa) = 0.04116495
#
# Stress axis : x y z
#
# Youngs Moduli (GPa) = 66.09786 20.65732 87.21343
#
# Poissons Ratio (x) = 0.03453 0.45832
# Poissons Ratio (y) = 0.11049 0.87151
# Poissons Ratio (z) = 0.34736 0.20643
#
# Static dielectric constant tensor:
#      x y z
#    x 3.054630 0.000000 -0.049840 
#    y 0.000000 2.424920 -0.000120 
#    z -0.049840 -0.000120 3.517820 
# 
# 
# High freq. dielectric constant tensor:
#      x y z
#    x 1.554400 0.000000 -0.010590 
#    y 0.000000 1.506990 -0.000010 
#    z -0.010590 -0.000010 1.592780 
# 
# From -- ./inp_files/366925.got.cif
#   From: 2010.06.25/outbox.cif.g09.slc.cpg/sg12_184_cif.got.tgz:366925.got - 2010.06.28 00:19:55.
