data_PCOD8078315
_publ_section_title
;
Structure prediction by ZEFSAII (Michael W. Deem and Ramdas Pophale) SiO2 
 PCOD8078315
Probable space group: C 2/M
;
_chemical_formula_sum "Si O2"
_cell_formula_units_Z 64
_cell_length_a 14.290374
_cell_length_b 27.903070
_cell_length_c 9.185152
_cell_angle_alpha 90.000000
_cell_angle_beta 99.246744
_cell_angle_gamma 90.000000
_cell_volume 3614.943417
_symmetry_space_group_name_H-M "C 2/M"
_symmetry_group_IT_number 12
_symmetry_cell_setting 'monoclinic'
loop_
_space_group_symop_operation_xyz
x,y,z
-x,y,-z
-x,-y,-z
x,-y,z
1/2+x,1/2+y,z
1/2-x,1/2+y,-z
1/2-x,1/2-y,-z
1/2+x,1/2-y,z
loop_
_atom_site_type_symbol
_atom_site_label
_atom_site_fract_x
_atom_site_fract_y
_atom_site_fract_z
Si Si1 0.409674 0.284162 0.400851
Si Si2 0.096044 0.243411 0.931539
Si Si3 0.254629 0.855353 0.686299
Si Si4 0.394199 0.818178 0.505048
Si Si5 0.329980 0.890975 0.275269
Si Si6 0.715172 0.054844 0.455077
Si Si7 0.239933 0.670780 0.986125
Si Si8 0.007521 0.447850 0.330001
O O1 0.500000 0.309465 0.500000
O O2 0.431809 0.268180 0.241393
O O3 0.321549 0.318332 0.392590
O O4 0.386132 0.238588 0.495793
O O5 0.148369 0.294792 0.949624
O O6 0.164864 0.202134 0.014280
O O7 0.000000 0.245513 0.000000
O O8 0.356842 0.837768 0.650504
O O9 0.219356 0.907106 0.614562
O O10 0.258420 0.855400 0.859359
O O11 0.500000 0.837139 0.500000
O O12 0.330757 0.841629 0.364378
O O13 0.289366 0.932525 0.372823
O O14 0.264594 0.875250 0.123258
O O15 0.433927 0.908999 0.245344
O O16 0.618203 0.064141 0.337970
O O17 0.750390 0.000000 0.449665
O O18 0.983421 0.500000 0.255006
O O19 0.000000 0.450996 0.500000
#
# Coordination Sequence:
#
# PCOD8078315 Si02
#       8
#     8   8   8   8   8   8   8   8
#     4  10  21  35  52  77 101 138 187 217 257 306
#     4  10  22  37  51  71 110 148 174 216 260 306
#     4  10  21  35  52  73 109 140 171 224 262 309
#     4  10  19  30  47  76 103 137 177 211 251 301
#     4  10  16  29  50  72 104 134 177 213 248 310
#     4   9  18  33  53  76 101 136 178 221 270 311
#     4  10  22  35  49  77 107 143 181 207 263 318
#     4   8  14  26  45  70  99 130 166 211 256 299
#
# _framework density 17.704287000000001
#
# number of rings (size 3 to 8) (size 9 to 14) (size 15 to 20)
#    0.000    2.375    1.250    3.375    3.500    3.000 
#    0.000    1.250    0.000    1.875    0.000    0.000 
#    0.000    6.000    0.000    0.000    0.000    0.000 
#
# Total GULP energy -396443.048606 kJ/mol
# GULP energy per Si atom -12388.845269 kJ/mol
# Density = 1.766399 g / cm^3
# Si number density = 17.704287 Si / 1000 Ang^3
#
#
#
# Elastic Constant Matrix: (Units=GPa)
#
#
# Indices 1 2 3 4 5 6 
#
# 1 61.9337 25.1825 28.4275 0.0000 -5.1365 0.0000
# 2 25.1825 92.5251 40.4200 0.0000 -4.9681 0.0000
# 3 28.4275 40.4200 72.9300 0.0000 7.5027 0.0000
# 4 0.0000 0.0000 0.0000 23.3620 0.0000 -0.3640
# 5 -5.1365 -4.9681 7.5027 0.0000 22.4327 0.0000
# 6 0.0000 0.0000 0.0000 -0.3640 0.0000 26.6682
#
#
#
# Elastic Compliance Matrix: (Units=1/GPa)
#
#
# Indices 1 2 3 4 5 6 
#
# 1 0.021140 -0.001924 -0.007900 0.000000 0.007057 0.000000
# 2 -0.001924 0.015263 -0.008297 0.000000 0.005715 0.000000
# 3 -0.007900 -0.008297 0.022540 0.000000 -0.011185 0.000000
# 4 0.000000 0.000000 0.000000 0.042814 0.000000 0.000584
# 5 0.007057 0.005715 -0.011185 0.000000 0.051200 0.000000
# 6 0.000000 0.000000 0.000000 0.000584 0.000000 0.037506
#
#
# Mechanical properties :
#
#
# Convention : Reuss Voigt Hill
#
# Bulk Modulus (GPa) = 44.05000 46.16096 45.10548
# Shear Modulus (GPa) = 21.34274 23.38317 22.36296
#
# Velocity S-wave (km/s) = 3.47582 3.63817 3.55792
# Velocity P-wave (km/s) = 6.40651 6.61652 6.51236
#
# Compressibility (1/GPa) = 0.02270147
#
# Stress axis : x y z
#
# Youngs Moduli (GPa) = 47.30426 65.51785 44.36474
#
# Poissons Ratio (x) = 0.12603 0.35048
# Poissons Ratio (y) = 0.09099 0.36811
# Poissons Ratio (z) = 0.37370 0.54363
#
# Static dielectric constant tensor:
#      x y z
#    x 3.261590 0.000000 0.059940 
#    y 0.000000 3.386590 0.000000 
#    z 0.059940 0.000000 3.234340 
# 
# 
# High freq. dielectric constant tensor:
#      x y z
#    x 1.652990 0.000000 0.000280 
#    y 0.000000 1.685380 0.000000 
#    z 0.000280 0.000000 1.669170 
# 
# From -- ./inp_files/67001.got.cif
#   From: 2010.06.25/outbox.cif.g09.slc.cpg/sg12_34_cif.got.tgz:67001.got - 2010.06.28 00:19:55.
