data_PCOD8078816
_publ_section_title
;
Structure prediction by ZEFSAII (Michael W. Deem and Ramdas Pophale) SiO2 
 PCOD8078816
Probable space group: C 2/M
;
_chemical_formula_sum "Si O2"
_cell_formula_units_Z 56
_cell_length_a 26.824836
_cell_length_b 16.760239
_cell_length_c 26.627244
_cell_angle_alpha 90.000000
_cell_angle_beta 162.818814
_cell_angle_gamma 90.000000
_cell_volume 3536.272221
_symmetry_space_group_name_H-M "C 2/M"
_symmetry_group_IT_number 12
_symmetry_cell_setting 'monoclinic'
loop_
_space_group_symop_operation_xyz
x,y,z
-x,y,-z
-x,-y,-z
x,-y,z
1/2+x,1/2+y,z
1/2-x,1/2+y,-z
1/2-x,1/2-y,-z
1/2+x,1/2-y,z
loop_
_atom_site_type_symbol
_atom_site_label
_atom_site_fract_x
_atom_site_fract_y
_atom_site_fract_z
Si Si1 0.374285 0.673968 0.028725
Si Si2 0.415603 0.905628 0.468487
Si Si3 0.673585 0.181516 0.961827
Si Si4 0.954603 0.590119 0.302360
Si Si5 0.357808 0.910015 0.614032
Si Si6 0.033051 0.906696 0.089084
Si Si7 0.009627 0.093797 0.762676
O O1 0.417666 0.646299 0.014288
O O2 0.496722 0.637857 0.189360
O O3 0.366761 0.770985 0.024878
O O4 0.189280 0.640185 0.863858
O O5 0.500000 0.867629 0.500000
O O6 0.500707 0.870918 0.600698
O O7 0.221689 0.882726 0.283753
O O8 0.439328 0.000000 0.490237
O O9 0.823691 0.116120 0.110053
O O10 0.750000 0.250000 0.000000
O O11 0.493098 0.145828 0.771844
O O12 0.889365 0.500000 0.247398
O O13 0.115112 0.591927 0.420124
O O14 0.162173 0.882550 0.433146
O O15 0.383330 0.000000 0.659145
O O16 0.993452 0.000000 0.059718
O O17 0.000000 0.882766 0.000000
O O18 0.012349 0.000000 0.775818
#
# Coordination Sequence:
#
# PCOD8078816 Si02
#       7
#     8   8   8   8   8   8   8
#     4  11  20  30  44  68  94 124 155 190 241 278
#     4   9  17  28  41  61  84 112 155 201 233 255
#     4  10  20  32  44  67  97 124 155 195 238 282
#     4  10  17  27  43  61  87 120 158 194 226 269
#     4  10  19  32  49  67  88 123 163 198 232 275
#     4  10  19  31  47  65  88 122 163 198 225 265
#     4  10  19  32  50  67  91 125 163 198 232 276
#
# _framework density 15.835884999999999
#
# number of rings (size 3 to 8) (size 9 to 14) (size 15 to 20)
#    0.000    2.000    2.857    3.429    0.000    6.857 
#    2.571    0.000    0.000    0.000    0.000    0.000 
#    0.000    2.286    0.000    3.143    0.000    0.000 
#
# Total GULP energy -346986.317001 kJ/mol
# GULP energy per Si atom -12392.368464 kJ/mol
# Density = 1.579984 g / cm^3
# Si number density = 15.835885 Si / 1000 Ang^3
#
#
#
# Elastic Constant Matrix: (Units=GPa)
#
#
# Indices 1 2 3 4 5 6 
#
# 1 62.4326 30.7579 25.5705 -0.0126 1.5047 -0.0003
# 2 30.7579 54.3950 40.8049 -0.0109 -3.4824 -0.0012
# 3 25.5705 40.8049 112.5096 0.0032 -1.6646 0.0004
# 4 -0.0126 -0.0109 0.0032 13.7395 -0.0058 1.5136
# 5 1.5047 -3.4824 -1.6646 -0.0058 17.9331 0.0007
# 6 -0.0003 -0.0012 0.0004 1.5136 0.0007 20.2511
#
#
#
# Elastic Compliance Matrix: (Units=1/GPa)
#
#
# Indices 1 2 3 4 5 6 
#
# 1 0.022577 -0.012569 -0.000638 0.000009 -0.004394 -0.000001
# 2 -0.012569 0.032551 -0.008852 0.000019 0.006554 0.000000
# 3 -0.000638 -0.008852 0.012236 -0.000011 -0.000530 0.000000
# 4 0.000009 0.000019 -0.000011 0.073387 0.000026 -0.005485
# 5 -0.004394 0.006554 -0.000530 0.000026 0.057355 -0.000004
# 6 -0.000001 0.000000 0.000000 -0.005485 -0.000004 0.049790
#
#
# Mechanical properties :
#
#
# Convention : Reuss Voigt Hill
#
# Bulk Modulus (GPa) = 43.01790 47.06709 45.04249
# Shear Modulus (GPa) = 16.67990 19.19834 17.93912
#
# Velocity S-wave (km/s) = 3.24898 3.48563 3.36938
# Velocity P-wave (km/s) = 6.42637 6.78128 6.60621
#
# Compressibility (1/GPa) = 0.02324614
#
# Stress axis : x y z
#
# Youngs Moduli (GPa) = 44.29371 30.72063 81.72831
#
# Poissons Ratio (x) = 0.38613 0.05210
# Poissons Ratio (y) = 0.55673 0.72347
# Poissons Ratio (z) = 0.02824 0.27194
#
# Static dielectric constant tensor:
#      x y z
#    x 2.996810 0.000040 0.083270 
#    y 0.000040 3.003730 -0.000080 
#    z 0.083270 -0.000080 3.213460 
# 
# 
# High freq. dielectric constant tensor:
#      x y z
#    x 1.578230 0.000000 0.009290 
#    y 0.000000 1.569730 -0.000010 
#    z 0.009290 -0.000010 1.627100 
# 
# From -- ./inp_files/105406.got.cif
#   From: 2010.06.25/outbox.cif.g09.slc.cpg/sg12_53_cif.got.tgz:105406.got - 2010.06.28 00:19:55.
