data_PCOD8078460
_publ_section_title
;
Structure prediction by ZEFSAII (Michael W. Deem and Ramdas Pophale) SiO2 
 PCOD8078460
Probable space group: C 2/M
;
_chemical_formula_sum "Si O2"
_cell_formula_units_Z 32
_cell_length_a 11.573945
_cell_length_b 16.087709
_cell_length_c 9.916583
_cell_angle_alpha 90.000000
_cell_angle_beta 61.554418
_cell_angle_gamma 90.000000
_cell_volume 1623.528355
_symmetry_space_group_name_H-M "C 2/M"
_symmetry_group_IT_number 12
_symmetry_cell_setting 'monoclinic'
loop_
_space_group_symop_operation_xyz
x,y,z
-x,y,-z
-x,-y,-z
x,-y,z
1/2+x,1/2+y,z
1/2-x,1/2+y,-z
1/2-x,1/2-y,-z
1/2+x,1/2-y,z
loop_
_atom_site_type_symbol
_atom_site_label
_atom_site_fract_x
_atom_site_fract_y
_atom_site_fract_z
Si Si1 0.533627 0.686801 0.736601
Si Si2 0.000000 0.289753 0.500000
Si Si3 0.268147 0.905815 0.722824
Si Si4 0.740579 0.652539 0.031373
Si Si5 0.500000 0.811699 0.000000
O O1 0.563160 0.732043 0.579542
O O2 0.645963 0.618835 0.697033
O O3 0.392967 0.638452 0.809155
O O4 0.538468 0.754029 0.853174
O O5 0.110114 0.346173 0.371346
O O6 0.307576 0.000000 0.666450
O O7 0.228744 0.899545 0.901314
O O8 0.874350 0.628788 0.037721
O O9 0.750000 0.750000 0.000000
#
# Coordination Sequence:
#
# PCOD8078460 Si02
#       5
#     8   4   8   8   4
#     4  11  20  38  67  92 119 164 217 252 299 372
#     4  12  23  40  63  94 126 168 208 248 307 382
#     4  12  24  39  62  97 130 160 202 263 319 359
#     4  10  18  36  62  88 120 160 208 254 289 372
#     4  10  16  36  64  86 118 150 214 250 284 362
#
# _framework density 19.710156999999999
#
# number of rings (size 3 to 8) (size 9 to 14) (size 15 to 20)
#    0.000    1.000   10.000    1.125    0.000    2.000 
#    0.000    1.250    0.000    0.000    0.000    0.000 
#    0.000    0.000    0.000    0.000    0.000    0.000 
#
# Total GULP energy -198393.990893 kJ/mol
# GULP energy per Si atom -12399.624431 kJ/mol
# Density = 1.966530 g / cm^3
# Si number density = 19.710157 Si / 1000 Ang^3
#
#
#
# Elastic Constant Matrix: (Units=GPa)
#
#
# Indices 1 2 3 4 5 6 
#
# 1 129.2714 36.9213 3.1194 0.0000 0.0469 0.0000
# 2 36.9213 65.1150 27.9161 0.0000 10.8764 0.0000
# 3 3.1194 27.9161 64.9784 0.0000 16.4971 0.0000
# 4 0.0000 0.0000 0.0000 15.5949 0.0000 4.2084
# 5 0.0469 10.8764 16.4971 0.0000 39.6368 0.0000
# 6 0.0000 0.0000 0.0000 4.2084 0.0000 6.0127
#
#
#
# Elastic Compliance Matrix: (Units=1/GPa)
#
#
# Indices 1 2 3 4 5 6 
#
# 1 0.009525 -0.006444 0.002085 0.000000 0.000889 0.000000
# 2 -0.006444 0.023328 -0.009045 0.000000 -0.002629 0.000000
# 3 0.002085 -0.009045 0.020738 0.000000 -0.006151 0.000000
# 4 0.000000 0.000000 0.000000 0.079055 0.000000 -0.055332
# 5 0.000889 -0.002629 -0.006151 0.000000 0.028510 0.000000
# 6 0.000000 0.000000 0.000000 -0.055332 0.000000 0.205044
#
#
# Mechanical properties :
#
#
# Convention : Reuss Voigt Hill
#
# Bulk Modulus (GPa) = 37.33631 43.91981 40.62806
# Shear Modulus (GPa) = 12.43982 25.00940 18.72461
#
# Velocity S-wave (km/s) = 2.51497 3.56597 3.08555
# Velocity P-wave (km/s) = 5.23615 6.26786 5.77509
#
# Compressibility (1/GPa) = 0.02678358
#
# Stress axis : x y z
#
# Youngs Moduli (GPa) = 104.98288 42.86677 48.22178
#
# Poissons Ratio (x) = 0.27621 -0.10056
# Poissons Ratio (y) = 0.67646 0.43619
# Poissons Ratio (z) = -0.21892 0.38775
#
# Static dielectric constant tensor:
#      x y z
#    x 4.686530 0.000000 -0.169150 
#    y 0.000000 3.224460 0.000000 
#    z -0.169150 0.000000 3.701220 
# 
# 
# High freq. dielectric constant tensor:
#      x y z
#    x 1.792550 0.000000 -0.007960 
#    y 0.000000 1.723310 0.000000 
#    z -0.007960 0.000000 1.759750 
# 
# From -- ./inp_files/45450.got.cif
#   From: 2010.06.25/outbox.cif.g09.slc.cpg/sg12_23_cif.got.tgz:45450.got - 2010.06.28 00:19:55.
