data_PCOD8078643
_publ_section_title
;
Structure prediction by ZEFSAII (Michael W. Deem and Ramdas Pophale) SiO2 
 PCOD8078643
Probable space group: C 2/M
;
_chemical_formula_sum "Si O2"
_cell_formula_units_Z 56
_cell_length_a 24.527079
_cell_length_b 9.101758
_cell_length_c 17.558951
_cell_angle_alpha 90.000000
_cell_angle_beta 115.754778
_cell_angle_gamma 90.000000
_cell_volume 3530.461860
_symmetry_space_group_name_H-M "C 2/M"
_symmetry_group_IT_number 12
_symmetry_cell_setting 'monoclinic'
loop_
_space_group_symop_operation_xyz
x,y,z
-x,y,-z
-x,-y,-z
x,-y,z
1/2+x,1/2+y,z
1/2-x,1/2+y,-z
1/2-x,1/2-y,-z
1/2+x,1/2-y,z
loop_
_atom_site_type_symbol
_atom_site_label
_atom_site_fract_x
_atom_site_fract_y
_atom_site_fract_z
Si Si1 0.715387 0.830747 0.866855
Si Si2 0.190506 0.665998 0.553845
Si Si3 0.353130 0.171047 0.765068
Si Si4 0.066775 0.326967 0.047708
Si Si5 0.331966 0.665661 0.604521
Si Si6 0.285969 0.670666 0.284035
Si Si7 0.329750 0.831220 0.999262
O O1 0.689939 0.739619 0.780066
O O2 0.780866 0.774153 0.931757
O O3 0.721722 0.000000 0.846761
O O4 0.668570 0.810394 0.908523
O O5 0.166425 0.500000 0.547040
O O6 0.260921 0.667795 0.577009
O O7 0.153578 0.746324 0.464159
O O8 0.178969 0.751717 0.625399
O O9 0.398917 0.233383 0.856641
O O10 0.366545 0.258067 0.695573
O O11 0.285630 0.199511 0.754466
O O12 0.362919 0.000000 0.753798
O O13 0.060730 0.500000 0.053819
O O14 0.104754 0.288563 0.994706
O O15 0.000000 0.255153 0.000000
O O16 0.355919 0.500000 0.610052
O O17 0.302133 0.500000 0.296218
O O18 0.312966 0.000000 0.967656
#
# Coordination Sequence:
#
# PCOD8078643 Si02
#       7
#     8   8   8   8   8   8   8
#     4  10  18  26  41  61  84 111 141 175 212 255
#     4   9  16  25  37  56  81 108 139 170 204 246
#     4   9  16  26  40  57  78 107 141 176 210 247
#     4   9  16  28  46  64  82 108 145 185 219 249
#     4   9  16  25  37  54  78 109 140 169 204 247
#     4  10  17  26  40  58  84 112 141 173 207 250
#     4   9  17  30  43  60  82 108 142 179 216 253
#
# _framework density 15.861947000000001
#
# number of rings (size 3 to 8) (size 9 to 14) (size 15 to 20)
#    0.000    2.714    1.429    1.714    0.000    4.571 
#    0.000    0.000    0.000    1.714    0.000    0.000 
#    0.000    1.143    0.000   13.429    0.000    3.143 
#
# Total GULP energy -347143.920694 kJ/mol
# GULP energy per Si atom -12397.997168 kJ/mol
# Density = 1.582584 g / cm^3
# Si number density = 15.861947 Si / 1000 Ang^3
#
#
#
# Elastic Constant Matrix: (Units=GPa)
#
#
# Indices 1 2 3 4 5 6 
#
# 1 63.0124 29.1207 47.0591 0.0000 -11.1680 0.0000
# 2 29.1207 99.3605 59.2138 0.0000 -20.0521 0.0000
# 3 47.0591 59.2138 124.6849 0.0000 -29.4487 0.0000
# 4 0.0000 0.0000 0.0000 28.7457 0.0000 -8.6700
# 5 -11.1680 -20.0521 -29.4487 0.0000 22.5574 0.0000
# 6 0.0000 0.0000 0.0000 -8.6700 0.0000 11.5157
#
#
#
# Elastic Compliance Matrix: (Units=1/GPa)
#
#
# Indices 1 2 3 4 5 6 
#
# 1 0.022427 -0.002198 -0.007604 0.000000 -0.000778 0.000000
# 2 -0.002198 0.014733 -0.004816 0.000000 0.005721 0.000000
# 3 -0.007604 -0.004816 0.016304 0.000000 0.013239 0.000000
# 4 0.000000 0.000000 0.000000 0.045008 0.000000 0.033886
# 5 -0.000778 0.005721 0.013239 0.000000 0.066316 0.000000
# 6 0.000000 0.000000 0.000000 0.033886 0.000000 0.112350
#
#
# Mechanical properties :
#
#
# Convention : Reuss Voigt Hill
#
# Bulk Modulus (GPa) = 41.27512 61.98277 51.62895
# Shear Modulus (GPa) = 15.90071 22.67471 19.28771
#
# Velocity S-wave (km/s) = 3.16957 3.78498 3.49086
# Velocity P-wave (km/s) = 6.28275 7.63300 6.99055
#
# Compressibility (1/GPa) = 0.02422767
#
# Stress axis : x y z
#
# Youngs Moduli (GPa) = 44.58931 67.87313 61.33317
#
# Poissons Ratio (x) = 0.14919 0.46640
# Poissons Ratio (y) = 0.09801 0.29538
# Poissons Ratio (z) = 0.33907 0.32688
#
# Static dielectric constant tensor:
#      x y z
#    x 2.709560 0.000000 -0.256690 
#    y 0.000000 3.046010 0.000000 
#    z -0.256690 0.000000 3.144480 
# 
# 
# High freq. dielectric constant tensor:
#      x y z
#    x 1.549180 0.000000 -0.035940 
#    y 0.000000 1.609960 0.000000 
#    z -0.035940 0.000000 1.609940 
# 
# From -- ./inp_files/287922.got.cif
#   From: 2010.06.25/outbox.cif.g09.slc.cpg/sg12_144_cif.got.tgz:287922.got - 2010.06.28 00:19:55.
