data_PCOD8078438
_publ_section_title
;
Structure prediction by ZEFSAII (Michael W. Deem and Ramdas Pophale) SiO2 
 PCOD8078438
Probable space group: C 2/M
;
_chemical_formula_sum "Si O2"
_cell_formula_units_Z 40
_cell_length_a 15.462406
_cell_length_b 18.831758
_cell_length_c 10.174236
_cell_angle_alpha 90.000000
_cell_angle_beta 137.669104
_cell_angle_gamma 90.000000
_cell_volume 1995.033134
_symmetry_space_group_name_H-M "C 2/M"
_symmetry_group_IT_number 12
_symmetry_cell_setting 'monoclinic'
loop_
_space_group_symop_operation_xyz
x,y,z
-x,y,-z
-x,-y,-z
x,-y,z
1/2+x,1/2+y,z
1/2-x,1/2+y,-z
1/2-x,1/2-y,-z
1/2+x,1/2-y,z
loop_
_atom_site_type_symbol
_atom_site_label
_atom_site_fract_x
_atom_site_fract_y
_atom_site_fract_z
Si Si1 0.563616 0.778491 0.212871
Si Si2 0.886829 0.000000 0.481595
Si Si3 0.683153 0.079202 0.647635
Si Si4 0.878349 0.500000 0.959124
Si Si5 0.572835 0.114797 0.779211
Si Si6 0.815592 0.861162 0.556982
O O1 0.459509 0.809200 0.197275
O O2 0.685312 0.833207 0.337356
O O3 0.592844 0.705752 0.320935
O O4 0.500000 0.766679 0.000000
O O5 0.746822 0.000000 0.266951
O O6 0.890196 0.073767 0.568943
O O7 0.000000 0.000000 0.500000
O O8 0.673913 0.123868 0.773114
O O9 0.550278 0.074967 0.418798
O O10 0.788595 0.115133 0.675426
O O11 0.726290 0.000000 0.733283
O O12 0.871458 0.569297 0.039897
O O13 0.000000 0.500000 0.000000
#
# Coordination Sequence:
#
# PCOD8078438 Si02
#       6
#     8   4   8   4   8   8
#     4  10  21  40  62  91 121 158 211 261 312 361
#     4  12  26  45  62  89 132 170 204 255 320 381
#     4  10  16  33  59  92 126 146 197 263 316 357
#     4  12  20  34  67  98 119 156 211 272 311 354
#     4  10  18  31  59  97 120 143 199 271 313 349
#     4  10  22  42  63  84 122 170 205 249 311 382
#
# _framework density 20.049793000000001
#
# number of rings (size 3 to 8) (size 9 to 14) (size 15 to 20)
#    0.000    1.600    3.000    4.800    0.000    0.000 
#   14.400    1.500    0.000    0.000    0.000    0.000 
#    0.000    0.000    0.000    0.000    0.000    0.000 
#
# Total GULP energy -247860.050123 kJ/mol
# GULP energy per Si atom -12393.002506 kJ/mol
# Density = 2.000416 g / cm^3
# Si number density = 20.049793 Si / 1000 Ang^3
#
#
#
# Elastic Constant Matrix: (Units=GPa)
#
#
# Indices 1 2 3 4 5 6 
#
# 1 137.4938 62.2574 35.7804 0.0000 -24.0714 0.0000
# 2 62.2574 140.5602 35.9635 0.0000 -12.4570 0.0000
# 3 35.7804 35.9635 76.8151 0.0000 -17.4366 0.0000
# 4 0.0000 0.0000 0.0000 4.5653 0.0000 -17.9764
# 5 -24.0714 -12.4570 -17.4366 0.0000 26.9966 0.0000
# 6 0.0000 0.0000 0.0000 -17.9764 0.0000 4.6662
#
#
#
# Elastic Compliance Matrix: (Units=1/GPa)
#
#
# Indices 1 2 3 4 5 6 
#
# 1 0.010519 -0.003640 -0.001697 0.000000 0.006604 0.000000
# 2 -0.003640 0.009395 -0.002878 0.000000 -0.000769 0.000000
# 3 -0.001697 -0.002878 0.017004 0.000000 0.008142 0.000000
# 4 0.000000 0.000000 0.000000 -0.015459 0.000000 -0.059555
# 5 0.006604 -0.000769 0.008142 0.000000 0.047834 0.000000
# 6 0.000000 0.000000 0.000000 -0.059555 0.000000 -0.015125
#
#
# Mechanical properties :
#
#
# Convention : Reuss Voigt Hill
#
# Bulk Modulus (GPa) = 48.80513 69.20796 59.00655
# Shear Modulus (GPa) = 64.57846 21.97015 43.27430
#
# Velocity S-wave (km/s) = 5.68146 3.31385 4.65084
# Velocity P-wave (km/s) = 8.21179 7.01677 7.63769
#
# Compressibility (1/GPa) = 0.02048965
#
# Stress axis : x y z
#
# Youngs Moduli (GPa) = 95.06841 106.44429 58.80988
#
# Poissons Ratio (x) = 0.38742 0.09978
# Poissons Ratio (y) = 0.34602 0.16923
# Poissons Ratio (z) = 0.16129 0.30630
#
# Static dielectric constant tensor:
#      x y z
#    x 3.720450 0.000000 -0.302830 
#    y 0.000000 3.700270 0.000000 
#    z -0.302830 0.000000 3.478410 
# 
# 
# High freq. dielectric constant tensor:
#      x y z
#    x 1.771640 0.000000 -0.027780 
#    y 0.000000 1.788630 0.000000 
#    z -0.027780 0.000000 1.766060 
# 
# From -- ./inp_files/63835.got.cif
#   From: 2010.06.25/outbox.cif.g09.slc.cpg/sg12_32_cif.got.tgz:63835.got - 2010.06.28 00:19:55.
