data_PCOD8078310
_publ_section_title
;
Structure prediction by ZEFSAII (Michael W. Deem and Ramdas Pophale) SiO2 
 PCOD8078310
Probable space group: C 2/M
;
_chemical_formula_sum "Si O2"
_cell_formula_units_Z 64
_cell_length_a 14.303699
_cell_length_b 23.064762
_cell_length_c 11.926569
_cell_angle_alpha 90.000000
_cell_angle_beta 110.052704
_cell_angle_gamma 90.000000
_cell_volume 3696.179647
_symmetry_space_group_name_H-M "C 2/M"
_symmetry_group_IT_number 12
_symmetry_cell_setting 'monoclinic'
loop_
_space_group_symop_operation_xyz
x,y,z
-x,y,-z
-x,-y,-z
x,-y,z
1/2+x,1/2+y,z
1/2-x,1/2+y,-z
1/2-x,1/2-y,-z
1/2+x,1/2-y,z
loop_
_atom_site_type_symbol
_atom_site_label
_atom_site_fract_x
_atom_site_fract_y
_atom_site_fract_z
Si Si1 0.468035 0.117941 0.612336
Si Si2 0.312755 0.763823 0.347569
Si Si3 0.769899 0.563736 0.467084
Si Si4 0.197691 0.177777 0.483762
Si Si5 0.328474 0.934158 0.235448
Si Si6 0.018702 0.743607 0.329884
Si Si7 0.254952 0.178523 0.097511
Si Si8 0.418672 0.252001 0.059318
O O1 0.500000 0.132573 0.500000
O O2 0.373345 0.075799 0.573818
O O3 0.556889 0.085579 0.714338
O O4 0.441311 0.177771 0.666447
O O5 0.290153 0.811071 0.435966
O O6 0.273578 0.701976 0.380480
O O7 0.430896 0.759667 0.385148
O O8 0.260286 0.781344 0.211173
O O9 0.733224 0.500000 0.485763
O O10 0.685613 0.608380 0.478363
O O11 0.780954 0.568691 0.338472
O O12 0.100472 0.210451 0.400716
O O13 0.267542 0.889532 0.130772
O O14 0.320974 0.000000 0.184893
O O15 0.977177 0.767814 0.195942
O O16 0.342318 0.198380 0.048061
O O17 0.145979 0.190970 0.001444
O O18 0.500000 0.234760 0.000000
#
# Coordination Sequence:
#
# PCOD8078310 Si02
#       8
#     8   8   8   8   8   8   8   8
#     4  10  16  29  48  75 107 131 163 202 254 316
#     4  10  18  31  48  78 104 131 166 209 258 312
#     4  10  20  30  44  72 108 142 173 205 245 308
#     4  11  19  29  51  76 105 138 165 209 260 306
#     4  10  18  31  51  73 104 142 170 205 254 309
#     4  11  20  31  51  78 105 135 168 216 263 313
#     4  10  19  36  51  75 107 136 174 215 261 314
#     4  10  21  33  52  76 102 134 171 223 270 301
#
# _framework density 17.315176000000001
#
# number of rings (size 3 to 8) (size 9 to 14) (size 15 to 20)
#    0.000    1.750    3.750    4.500    0.000    1.500 
#    0.000    0.000    0.000    3.000    0.000    7.000 
#    0.000    0.000    0.000    0.000    0.000    0.000 
#
# Total GULP energy -396587.240599 kJ/mol
# GULP energy per Si atom -12393.351269 kJ/mol
# Density = 1.727577 g / cm^3
# Si number density = 17.315176 Si / 1000 Ang^3
#
#
#
# Elastic Constant Matrix: (Units=GPa)
#
#
# Indices 1 2 3 4 5 6 
#
# 1 71.5766 38.6127 29.0470 0.0000 -7.9685 0.0000
# 2 38.6127 164.1770 47.3576 0.0000 9.2926 0.0000
# 3 29.0470 47.3576 68.3487 0.0000 6.0232 0.0000
# 4 0.0000 0.0000 0.0000 23.6739 0.0000 0.8873
# 5 -7.9685 9.2926 6.0232 0.0000 20.3601 0.0000
# 6 0.0000 0.0000 0.0000 0.8873 0.0000 24.9759
#
#
#
# Elastic Compliance Matrix: (Units=1/GPa)
#
#
# Indices 1 2 3 4 5 6 
#
# 1 0.019926 -0.003249 -0.007223 0.000000 0.011419 0.000000
# 2 -0.003249 0.008220 -0.003975 0.000000 -0.003847 0.000000
# 3 -0.007223 -0.003975 0.021094 0.000000 -0.007253 0.000000
# 4 0.000000 0.000000 0.000000 0.042297 0.000000 -0.001503
# 5 0.011419 -0.003847 -0.007253 0.000000 0.057486 0.000000
# 6 0.000000 0.000000 0.000000 -0.001503 0.000000 0.040092
#
#
# Mechanical properties :
#
#
# Convention : Reuss Voigt Hill
#
# Bulk Modulus (GPa) = 49.15319 59.34853 54.25086
# Shear Modulus (GPa) = 22.24271 26.40765 24.32518
#
# Velocity S-wave (km/s) = 3.58799 3.90951 3.75220
# Velocity P-wave (km/s) = 6.75380 7.39790 7.08318
#
# Compressibility (1/GPa) = 0.02034456
#
# Stress axis : x y z
#
# Youngs Moduli (GPa) = 50.18465 121.66010 47.40618
#
# Poissons Ratio (x) = 0.39530 0.34243
# Poissons Ratio (y) = 0.16306 0.18846
# Poissons Ratio (z) = 0.36250 0.48364
#
# Static dielectric constant tensor:
#      x y z
#    x 3.221760 0.000000 0.008610 
#    y 0.000000 3.288040 0.000000 
#    z 0.008610 0.000000 3.195980 
# 
# 
# High freq. dielectric constant tensor:
#      x y z
#    x 1.659290 0.000000 0.009850 
#    y 0.000000 1.651150 0.000000 
#    z 0.009850 0.000000 1.652360 
# 
# From -- ./inp_files/148650.got.cif
#   From: 2010.06.25/outbox.cif.g09.slc.cpg/sg12_75_cif.got.tgz:148650.got - 2010.06.28 00:19:55.
