data_PCOD8078504
_publ_section_title
;
Structure prediction by ZEFSAII (Michael W. Deem and Ramdas Pophale) SiO2 
 PCOD8078504
Probable space group: C 2/M
;
_chemical_formula_sum "Si O2"
_cell_formula_units_Z 64
_cell_length_a 24.428948
_cell_length_b 8.969966
_cell_length_c 20.584146
_cell_angle_alpha 90.000000
_cell_angle_beta 120.521403
_cell_angle_gamma 90.000000
_cell_volume 3885.556258
_symmetry_space_group_name_H-M "C 2/M"
_symmetry_group_IT_number 12
_symmetry_cell_setting 'monoclinic'
loop_
_space_group_symop_operation_xyz
x,y,z
-x,y,-z
-x,-y,-z
x,-y,z
1/2+x,1/2+y,z
1/2-x,1/2+y,-z
1/2-x,1/2-y,-z
1/2+x,1/2-y,z
loop_
_atom_site_type_symbol
_atom_site_label
_atom_site_fract_x
_atom_site_fract_y
_atom_site_fract_z
Si Si1 0.355809 0.825688 0.404017
Si Si2 0.966553 0.826379 0.832721
Si Si3 0.903927 0.176623 0.562044
Si Si4 0.948402 0.665384 0.026239
Si Si5 0.034205 0.836082 0.589198
Si Si6 0.870168 0.328331 0.865789
Si Si7 0.386794 0.172483 0.683688
Si Si8 0.731109 0.831817 0.292242
O O1 0.366651 0.741355 0.477975
O O2 0.407147 0.777993 0.379972
O O3 0.286370 0.786802 0.335553
O O4 0.361633 0.000000 0.419765
O O5 0.912901 0.788620 0.852734
O O6 0.949323 0.742311 0.755466
O O7 0.034730 0.775145 0.903907
O O8 0.969256 0.000000 0.819442
O O9 0.873382 0.245869 0.607814
O O10 0.979322 0.218592 0.605843
O O11 0.894224 0.000000 0.555501
O O12 0.946762 0.500000 0.055081
O O13 0.880581 0.702394 0.949529
O O14 0.000000 0.676941 0.000000
O O15 0.000000 0.848638 0.500000
O O16 0.060101 0.000000 0.624870
O O17 0.891926 0.500000 0.862557
O O18 0.797496 0.308607 0.798026
O O19 0.324834 0.198155 0.690109
O O20 0.400120 0.000000 0.678742
O O21 0.757619 0.000000 0.316266
#
# Coordination Sequence:
#
# PCOD8078504 Si02
#       8
#     8   8   8   8   8   8   8   8
#     4  11  21  31  47  69  90 115 147 183 221 260
#     4  10  17  24  37  58  84 113 144 178 216 258
#     4  10  20  34  51  68  87 113 145 183 225 265
#     4   8  13  23  38  55  77 107 144 181 215 254
#     4   8  16  32  51  68  86 109 138 177 225 267
#     4   8  15  27  41  56  78 112 149 182 217 256
#     4  10  20  33  47  63  87 120 153 184 219 260
#     4   9  18  32  46  61  87 122 154 183 218 260
#
# _framework density 16.471257999999999
#
# number of rings (size 3 to 8) (size 9 to 14) (size 15 to 20)
#    0.000    2.750    0.000    5.250    0.000    8.000 
#    0.000    0.000    0.000    0.000    0.000    0.000 
#    0.000    1.000    0.000    3.000    0.000    5.375 
#
# Total GULP energy -396525.561742 kJ/mol
# GULP energy per Si atom -12391.423804 kJ/mol
# Density = 1.643377 g / cm^3
# Si number density = 16.471258 Si / 1000 Ang^3
#
#
#
# Elastic Constant Matrix: (Units=GPa)
#
#
# Indices 1 2 3 4 5 6 
#
# 1 38.1190 26.3519 26.4061 0.0000 12.8326 0.0000
# 2 26.3519 100.6266 40.4509 0.0000 13.9575 0.0000
# 3 26.4061 40.4509 85.4432 0.0000 25.5086 0.0000
# 4 0.0000 0.0000 0.0000 26.4347 0.0000 1.1146
# 5 12.8326 13.9575 25.5086 0.0000 9.8841 0.0000
# 6 0.0000 0.0000 0.0000 1.1146 0.0000 16.2704
#
#
#
# Elastic Compliance Matrix: (Units=1/GPa)
#
#
# Indices 1 2 3 4 5 6 
#
# 1 0.055641 -0.006786 0.020576 0.000000 -0.115758 0.000000
# 2 -0.006786 0.013341 -0.005336 0.000000 0.003743 0.000000
# 3 0.020576 -0.005336 0.059239 0.000000 -0.172061 0.000000
# 4 0.000000 0.000000 0.000000 0.037939 0.000000 -0.002599
# 5 -0.115758 0.003743 -0.172061 0.000000 0.690229 0.000000
# 6 0.000000 0.000000 0.000000 -0.002599 0.000000 0.061639
#
#
# Mechanical properties :
#
#
# Convention : Reuss Voigt Hill
#
# Bulk Modulus (GPa) = 6.89047 45.62294 26.25671
# Shear Modulus (GPa) = 5.26596 19.24983 12.25789
#
# Velocity S-wave (km/s) = 1.78997 3.42232 2.73096
# Velocity P-wave (km/s) = 2.90937 6.58597 5.09114
#
# Compressibility (1/GPa) = 0.14512788
#
# Stress axis : x y z
#
# Youngs Moduli (GPa) = 17.97245 74.95842 16.88084
#
# Poissons Ratio (x) = 0.50868 -0.34734
# Poissons Ratio (y) = 0.12196 0.09007
# Poissons Ratio (z) = -0.36980 0.39997
#
# Static dielectric constant tensor:
#      x y z
#    x 2.861910 0.000000 0.121910 
#    y 0.000000 3.072920 0.000000 
#    z 0.121910 0.000000 3.400100 
# 
# 
# High freq. dielectric constant tensor:
#      x y z
#    x 1.574300 0.000000 0.015390 
#    y 0.000000 1.638150 0.000000 
#    z 0.015390 0.000000 1.635590 
# 
# From -- ./inp_files/323750.got.cif
#   From: 2010.06.25/outbox.cif.g09.slc.cpg/sg12_162_cif.got.tgz:323750.got - 2010.06.28 00:19:55.
