data_PCOD8078373
_publ_section_title
;
Structure prediction by ZEFSAII (Michael W. Deem and Ramdas Pophale) SiO2 
 PCOD8078373
Probable space group: C 2/M
;
_chemical_formula_sum "Si O2"
_cell_formula_units_Z 44
_cell_length_a 25.023185
_cell_length_b 9.338520
_cell_length_c 28.830960
_cell_angle_alpha 90.000000
_cell_angle_beta 160.202111
_cell_angle_gamma 90.000000
_cell_volume 2281.913160
_symmetry_space_group_name_H-M "C 2/M"
_symmetry_group_IT_number 12
_symmetry_cell_setting 'monoclinic'
loop_
_space_group_symop_operation_xyz
x,y,z
-x,y,-z
-x,-y,-z
x,-y,z
1/2+x,1/2+y,z
1/2-x,1/2+y,-z
1/2-x,1/2-y,-z
1/2+x,1/2-y,z
loop_
_atom_site_type_symbol
_atom_site_label
_atom_site_fract_x
_atom_site_fract_y
_atom_site_fract_z
Si Si1 0.500000 0.249026 0.000000
Si Si2 0.521442 0.333147 0.623853
Si Si3 0.814645 0.668617 0.684576
Si Si4 0.262160 0.658462 0.278298
Si Si5 0.752183 0.158900 0.868843
Si Si6 0.372681 0.329245 0.067657
O O1 0.397690 0.150628 0.882329
O O2 0.384220 0.345613 0.936502
O O3 0.564966 0.500000 0.662871
O O4 0.334147 0.307659 0.471107
O O5 0.598000 0.270388 0.638327
O O6 0.602301 0.257565 0.733884
O O7 0.861317 0.500000 0.725189
O O8 0.768814 0.734655 0.697750
O O9 0.957051 0.762602 0.780939
O O10 0.317793 0.500000 0.337130
O O11 0.684698 0.000000 0.820292
O O12 0.829800 0.212352 0.979938
O O13 0.373814 0.500000 0.077137
O O14 0.250000 0.250000 0.000000
#
# Coordination Sequence:
#
# PCOD8078373 Si02
#       6
#     4   8   8   8   8   8
#     4  10  16  30  52  82 117 150 183 222 287 330
#     4   9  19  33  54  84 118 152 188 224 274 337
#     4  10  19  35  57  83 115 151 187 233 281 328
#     4   9  16  27  49  82 118 152 187 224 269 331
#     4  10  21  36  56  82 116 149 185 230 283 337
#     4  11  24  42  61  84 109 146 194 240 282 331
#
# _framework density 19.282067000000001
#
# number of rings (size 3 to 8) (size 9 to 14) (size 15 to 20)
#    0.000    2.182    1.818    1.636    0.000    5.091 
#    0.000    0.909    0.000    3.273    0.000    0.000 
#    0.000    0.000    0.000    0.000    0.000    0.000 
#
# Total GULP energy -272686.287142 kJ/mol
# GULP energy per Si atom -12394.831234 kJ/mol
# Density = 1.923818 g / cm^3
# Si number density = 19.282067 Si / 1000 Ang^3
#
#
#
# Elastic Constant Matrix: (Units=GPa)
#
#
# Indices 1 2 3 4 5 6 
#
# 1 62.6673 32.1313 42.6929 -0.0025 3.2278 0.0013
# 2 32.1313 78.0365 53.9461 0.0443 4.3263 0.0036
# 3 42.6929 53.9461 141.7589 0.1144 5.4204 0.0050
# 4 -0.0025 0.0443 0.1144 31.9845 -0.0114 -1.2376
# 5 3.2278 4.3263 5.4204 -0.0114 23.3856 -0.0042
# 6 0.0013 0.0036 0.0050 -1.2376 -0.0042 24.0353
#
#
#
# Elastic Compliance Matrix: (Units=1/GPa)
#
#
# Indices 1 2 3 4 5 6 
#
# 1 0.022036 -0.006050 -0.004299 0.000025 -0.000926 0.000002
# 2 -0.006050 0.019117 -0.005398 -0.000008 -0.001451 -0.000002
# 3 -0.004299 -0.005398 0.010434 -0.000031 -0.000827 -0.000003
# 4 0.000025 -0.000008 -0.000031 0.031328 0.000021 0.001613
# 5 -0.000926 -0.001451 -0.000827 0.000021 0.043349 0.000009
# 6 0.000002 -0.000002 -0.000003 0.001613 0.000009 0.041689
#
#
# Mechanical properties :
#
#
# Convention : Reuss Voigt Hill
#
# Bulk Modulus (GPa) = 49.76405 60.00038 54.88221
# Shear Modulus (GPa) = 24.25494 26.12722 25.19108
#
# Velocity S-wave (km/s) = 3.55054 3.68503 3.61841
# Velocity P-wave (km/s) = 6.53245 7.02073 6.78099
#
# Compressibility (1/GPa) = 0.02009483
#
# Stress axis : x y z
#
# Youngs Moduli (GPa) = 45.38122 52.30849 95.83627
#
# Poissons Ratio (x) = 0.31648 0.41196
# Poissons Ratio (y) = 0.27456 0.51728
# Poissons Ratio (z) = 0.19507 0.28234
#
# Static dielectric constant tensor:
#      x y z
#    x 3.416170 -0.000010 -0.042880 
#    y -0.000010 3.226060 -0.000050 
#    z -0.042880 -0.000050 3.545760 
# 
# 
# High freq. dielectric constant tensor:
#      x y z
#    x 1.731460 0.000000 -0.005770 
#    y 0.000000 1.724080 0.000000 
#    z -0.005770 0.000000 1.757580 
# 
# From -- ./inp_files/382594.got.cif
#   From: 2010.06.25/outbox.cif.g09.slc.cpg/sg12_192_cif.got.tgz:382594.got - 2010.06.28 00:19:55.
