data_PCOD8078941
_publ_section_title
;
Structure prediction by ZEFSAII (Michael W. Deem and Ramdas Pophale) SiO2 
 PCOD8078941
Probable space group: C 2/M
;
_chemical_formula_sum "Si O2"
_cell_formula_units_Z 64
_cell_length_a 22.332861
_cell_length_b 12.900500
_cell_length_c 11.862412
_cell_angle_alpha 90.000000
_cell_angle_beta 93.217641
_cell_angle_gamma 90.000000
_cell_volume 3412.233301
_symmetry_space_group_name_H-M "C 2/M"
_symmetry_group_IT_number 12
_symmetry_cell_setting 'monoclinic'
loop_
_space_group_symop_operation_xyz
x,y,z
-x,y,-z
-x,-y,-z
x,-y,z
1/2+x,1/2+y,z
1/2-x,1/2+y,-z
1/2-x,1/2-y,-z
1/2+x,1/2-y,z
loop_
_atom_site_type_symbol
_atom_site_label
_atom_site_fract_x
_atom_site_fract_y
_atom_site_fract_z
Si Si1 0.843668 0.886019 0.114681
Si Si2 0.137833 0.121871 0.472384
Si Si3 0.750779 0.380938 0.346868
Si Si4 0.986796 0.620812 0.366599
Si Si5 0.364987 0.755058 0.320362
Si Si6 0.665517 0.379554 0.138979
Si Si7 0.017622 0.887726 0.886439
Si Si8 0.065456 0.220045 0.273944
O O1 0.836294 0.792285 0.202421
O O2 0.912971 0.903897 0.108885
O O3 0.815904 0.000000 0.147434
O O4 0.818293 0.852544 0.988889
O O5 0.201945 0.161782 0.431467
O O6 0.124982 0.157546 0.597235
O O7 0.084744 0.165067 0.390154
O O8 0.135341 0.000000 0.466451
O O9 0.763709 0.500000 0.372940
O O10 0.813849 0.325426 0.370488
O O11 0.725577 0.363546 0.217822
O O12 0.979323 0.500000 0.338224
O O13 0.925967 0.678311 0.317326
O O14 0.000000 0.639755 0.500000
O O15 0.045527 0.662117 0.303100
O O16 0.643644 0.500000 0.148754
O O17 0.614792 0.299121 0.180610
O O18 0.997308 0.827925 0.773376
O O19 0.984991 0.000000 0.884493
O O20 0.000000 0.827358 0.000000
#
# Coordination Sequence:
#
# PCOD8078941 Si02
#       8
#     8   8   8   8   8   8   8   8
#     4  10  20  31  50  82 118 144 169 216 274 326
#     4  10  21  36  55  84 111 133 170 227 279 328
#     4   9  20  37  58  77 100 139 190 230 263 309
#     4  11  24  40  53  74 109 146 187 222 257 315
#     4  12  21  36  55  79 109 147 182 217 268 321
#     4   9  18  35  58  85 111 139 177 222 272 325
#     4  10  17  27  49  82 113 142 172 205 258 330
#     4  11  18  34  57  80 107 143 176 218 266 318
#
# _framework density 18.756045
#
# number of rings (size 3 to 8) (size 9 to 14) (size 15 to 20)
#    0.000    1.750    3.750    3.000    0.000    0.500 
#    0.000    0.625    0.000    7.125    0.000    0.000 
#    0.000    0.000    0.000    0.000    0.000    0.000 
#
# Total GULP energy -396451.505689 kJ/mol
# GULP energy per Si atom -12389.109553 kJ/mol
# Density = 1.871336 g / cm^3
# Si number density = 18.756045 Si / 1000 Ang^3
#
#
#
# Elastic Constant Matrix: (Units=GPa)
#
#
# Indices 1 2 3 4 5 6 
#
# 1 53.7799 29.8232 8.1129 0.0000 -2.5264 0.0000
# 2 29.8232 79.6323 30.8033 0.0000 -13.0982 0.0000
# 3 8.1129 30.8033 77.0117 0.0000 -7.7709 0.0000
# 4 0.0000 0.0000 0.0000 23.8909 0.0000 -4.4987
# 5 -2.5264 -13.0982 -7.7709 0.0000 16.5248 0.0000
# 6 0.0000 0.0000 0.0000 -4.4987 0.0000 24.7142
#
#
#
# Elastic Compliance Matrix: (Units=1/GPa)
#
#
# Indices 1 2 3 4 5 6 
#
# 1 0.023764 -0.009937 0.001095 0.000000 -0.003728 0.000000
# 2 -0.009937 0.020556 -0.005968 0.000000 0.011968 0.000000
# 3 0.001095 -0.005968 0.015533 0.000000 0.002742 0.000000
# 4 0.000000 0.000000 0.000000 0.043343 0.000000 0.007890
# 5 -0.003728 0.011968 0.002742 0.000000 0.070721 0.000000
# 6 0.000000 0.000000 0.000000 0.007890 0.000000 0.041899
#
#
# Mechanical properties :
#
#
# Convention : Reuss Voigt Hill
#
# Bulk Modulus (GPa) = 33.07461 38.65586 35.86523
# Shear Modulus (GPa) = 19.56845 22.47161 21.02003
#
# Velocity S-wave (km/s) = 3.23354 3.46511 3.35133
# Velocity P-wave (km/s) = 5.62258 6.05507 5.84283
#
# Compressibility (1/GPa) = 0.03023468
#
# Stress axis : x y z
#
# Youngs Moduli (GPa) = 42.07975 48.64735 64.37782
#
# Poissons Ratio (x) = 0.48340 -0.07048
# Poissons Ratio (y) = 0.41814 0.38418
# Poissons Ratio (z) = -0.04607 0.29031
#
# Static dielectric constant tensor:
#      x y z
#    x 3.234420 0.000000 0.393140 
#    y 0.000000 3.411550 0.000000 
#    z 0.393140 0.000000 1.899410 
# 
# 
# High freq. dielectric constant tensor:
#      x y z
#    x 1.717110 0.000000 0.013230 
#    y 0.000000 1.707770 0.000000 
#    z 0.013230 0.000000 1.732580 
# 
# From -- ./inp_files/174635.got.cif
#   From: 2010.06.25/outbox.cif.g09.slc.cpg/sg12_88_cif.got.tgz:174635.got - 2010.06.28 00:19:55.
