data_PCOD8078950
_publ_section_title
;
Structure prediction by ZEFSAII (Michael W. Deem and Ramdas Pophale) SiO2 
 PCOD8078950
Probable space group: C 2/M
;
_chemical_formula_sum "Si O2"
_cell_formula_units_Z 64
_cell_length_a 22.389386
_cell_length_b 23.208973
_cell_length_c 19.743090
_cell_angle_alpha 90.000000
_cell_angle_beta 24.486771
_cell_angle_gamma 90.000000
_cell_volume 4252.262753
_symmetry_space_group_name_H-M "C 2/M"
_symmetry_group_IT_number 12
_symmetry_cell_setting 'monoclinic'
loop_
_space_group_symop_operation_xyz
x,y,z
-x,y,-z
-x,-y,-z
x,-y,z
1/2+x,1/2+y,z
1/2-x,1/2+y,-z
1/2-x,1/2-y,-z
1/2+x,1/2-y,z
loop_
_atom_site_type_symbol
_atom_site_label
_atom_site_fract_x
_atom_site_fract_y
_atom_site_fract_z
Si Si1 0.205984 0.275680 0.150107
Si Si2 0.839377 0.747960 0.143506
Si Si3 0.569201 0.734055 0.501039
Si Si4 0.047722 0.566470 0.111252
Si Si5 0.015753 0.120094 0.352960
Si Si6 0.740101 0.935805 0.656612
Si Si7 0.240440 0.657728 0.983283
Si Si8 0.225028 0.617884 0.815273
O O1 0.299000 0.288894 0.121523
O O2 0.228086 0.327865 0.075087
O O3 0.036786 0.275628 0.346638
O O4 0.261215 0.215611 0.060383
O O5 0.729490 0.759145 0.320486
O O6 0.824903 0.683829 0.128385
O O7 0.000000 0.762963 0.000000
O O8 0.500000 0.718761 0.500000
O O9 0.582026 0.676186 0.531660
O O10 0.077620 0.500000 0.103240
O O11 0.112563 0.613210 0.096474
O O12 0.876949 0.579069 0.280592
O O13 0.112674 0.576615 0.969325
O O14 0.120362 0.108787 0.308856
O O15 0.901235 0.069084 0.459392
O O16 0.108291 0.126114 0.188611
O O17 0.729380 0.894885 0.732085
O O18 0.713379 0.000000 0.710192
#
# Coordination Sequence:
#
# PCOD8078950 Si02
#       8
#     8   8   8   8   8   8   8   8
#     4   9  17  31  48  65  85 117 154 181 227 268
#     4  11  18  26  46  70  93 116 144 184 230 265
#     4   9  14  27  42  61  85 110 140 178 218 265
#     4  10  20  32  43  61  87 119 158 195 225 255
#     4  10  17  28  41  59  82 117 153 186 220 253
#     4  11  21  28  40  62  89 120 158 197 223 247
#     4   9  18  32  48  61  83 121 155 190 217 266
#     4  11  18  28  42  60  88 126 157 188 218 254
#
# _framework density 15.05081
#
# number of rings (size 3 to 8) (size 9 to 14) (size 15 to 20)
#    0.000    2.000    6.250    1.875    0.000    4.000 
#    0.000    1.250    0.000    4.500    0.000    0.000 
#    0.000    5.000    0.000    0.000    0.000    3.125 
#
# Total GULP energy -396497.575109 kJ/mol
# GULP energy per Si atom -12390.549222 kJ/mol
# Density = 1.501655 g / cm^3
# Si number density = 15.050810 Si / 1000 Ang^3
#
#
#
# Elastic Constant Matrix: (Units=GPa)
#
#
# Indices 1 2 3 4 5 6 
#
# 1 73.2482 37.7268 57.8030 -0.0007 -5.6993 -0.0048
# 2 37.7268 45.9987 25.5583 0.0080 0.0371 -0.0068
# 3 57.8030 25.5583 85.2672 0.0107 -11.3742 -0.0059
# 4 -0.0007 0.0080 0.0107 14.1457 0.0017 2.9433
# 5 -5.6993 0.0371 -11.3742 0.0017 23.4901 0.0027
# 6 -0.0048 -0.0068 -0.0059 2.9433 0.0027 17.1155
#
#
#
# Elastic Compliance Matrix: (Units=1/GPa)
#
#
# Indices 1 2 3 4 5 6 
#
# 1 0.043092 -0.022899 -0.022396 0.000034 -0.000353 -0.000010
# 2 -0.022899 0.038625 0.003417 -0.000028 -0.003962 0.000016
# 3 -0.022396 0.003417 0.026898 -0.000026 0.007585 0.000008
# 4 0.000034 -0.000028 -0.000026 0.073316 -0.000008 -0.012608
# 5 -0.000353 -0.003962 0.007585 -0.000008 0.046164 -0.000005
# 6 -0.000010 0.000016 0.000008 -0.012608 -0.000005 0.060595
#
#
# Mechanical properties :
#
#
# Convention : Reuss Voigt Hill
#
# Bulk Modulus (GPa) = 40.22530 49.63224 44.92877
# Shear Modulus (GPa) = 13.13258 16.51200 14.82229
#
# Velocity S-wave (km/s) = 2.95710 3.31582 3.14158
# Velocity P-wave (km/s) = 6.20029 6.90707 6.56320
#
# Compressibility (1/GPa) = 0.02485998
#
# Stress axis : x y z
#
# Youngs Moduli (GPa) = 23.20600 25.88971 37.17815
#
# Poissons Ratio (x) = 0.59285 0.83263
# Poissons Ratio (y) = 0.53139 -0.12704
# Poissons Ratio (z) = 0.51971 -0.08847
#
# Static dielectric constant tensor:
#      x y z
#    x 2.727260 -0.000020 -0.112190 
#    y -0.000020 2.639750 0.000040 
#    z -0.112190 0.000040 3.201600 
# 
# 
# High freq. dielectric constant tensor:
#      x y z
#    x 1.545530 0.000000 -0.014420 
#    y 0.000000 1.534770 0.000000 
#    z -0.014420 0.000000 1.584230 
# 
# From -- ./inp_files/90419.got.cif
#   From: 2010.06.25/outbox.cif.g09.slc.cpg/sg12_46_cif.got.tgz:90419.got - 2010.06.28 00:19:55.
