data_PCOD8078377
_publ_section_title
;
Structure prediction by ZEFSAII (Michael W. Deem and Ramdas Pophale) SiO2 
 PCOD8078377
Probable space group: C 2/M
;
_chemical_formula_sum "Si O2"
_cell_formula_units_Z 40
_cell_length_a 13.835874
_cell_length_b 23.725265
_cell_length_c 9.664570
_cell_angle_alpha 90.000000
_cell_angle_beta 133.226202
_cell_angle_gamma 90.000000
_cell_volume 2311.651992
_symmetry_space_group_name_H-M "C 2/M"
_symmetry_group_IT_number 12
_symmetry_cell_setting 'monoclinic'
loop_
_space_group_symop_operation_xyz
x,y,z
-x,y,-z
-x,-y,-z
x,-y,z
1/2+x,1/2+y,z
1/2-x,1/2+y,-z
1/2-x,1/2-y,-z
1/2+x,1/2-y,z
loop_
_atom_site_type_symbol
_atom_site_label
_atom_site_fract_x
_atom_site_fract_y
_atom_site_fract_z
Si Si1 0.972001 0.000000 0.635913
Si Si2 0.129864 0.767367 0.476870
Si Si3 0.141366 0.000000 0.050648
Si Si4 0.198931 0.880765 0.134315
Si Si5 0.149015 0.723587 0.794027
Si Si6 0.572436 0.619349 0.294559
O O1 0.895444 0.942405 0.607709
O O2 0.000000 0.000000 0.500000
O O3 0.109618 0.000000 0.855655
O O4 0.250000 0.750000 0.500000
O O5 0.169665 0.757713 0.673353
O O6 0.094920 0.833543 0.432788
O O7 0.002765 0.729721 0.305485
O O8 0.234195 0.053042 0.176560
O O9 0.000000 0.000000 0.000000
O O10 0.319500 0.842695 0.197492
O O11 0.167393 0.863437 0.260550
O O12 0.076237 0.876010 0.908767
O O13 0.250000 0.750000 0.000000
#
# Coordination Sequence:
#
# PCOD8078377 Si02
#       6
#     4   8   4   8   8   8
#     4  10  20  28  50  83 112 140 183 241 289 321
#     4  11  23  36  55  81 114 152 189 231 283 344
#     4  10  16  30  54  82 103 149 191 223 288 343
#     4  10  17  33  56  78 111 146 189 231 280 343
#     4  11  23  35  55  82 113 149 188 232 289 331
#     4  10  18  33  53  78 113 146 182 232 287 337
#
# _framework density 17.303642
#
# number of rings (size 3 to 8) (size 9 to 14) (size 15 to 20)
#    0.000    1.600    8.000    0.000    2.800    0.800 
#    0.000    0.000    0.000    3.600    0.000    0.000 
#    0.000    6.800    0.000    0.000    0.000    0.000 
#
# Total GULP energy -247832.153231 kJ/mol
# GULP energy per Si atom -12391.607662 kJ/mol
# Density = 1.726426 g / cm^3
# Si number density = 17.303642 Si / 1000 Ang^3
#
#
#
# Elastic Constant Matrix: (Units=GPa)
#
#
# Indices 1 2 3 4 5 6 
#
# 1 98.7824 50.1493 43.8383 0.0000 8.9596 0.0000
# 2 50.1493 168.7831 39.1925 0.0000 6.7284 0.0000
# 3 43.8383 39.1925 93.1958 0.0000 -10.4912 0.0000
# 4 0.0000 0.0000 0.0000 30.4103 0.0000 -1.7404
# 5 8.9596 6.7284 -10.4912 0.0000 23.3242 0.0000
# 6 0.0000 0.0000 0.0000 -1.7404 0.0000 29.2283
#
#
#
# Elastic Compliance Matrix: (Units=1/GPa)
#
#
# Indices 1 2 3 4 5 6 
#
# 1 0.015320 -0.002582 -0.007056 0.000000 -0.008314 0.000000
# 2 -0.002582 0.007252 -0.002064 0.000000 -0.002028 0.000000
# 3 -0.007056 -0.002064 0.016105 0.000000 0.010550 0.000000
# 4 0.000000 0.000000 0.000000 0.032996 0.000000 0.001965
# 5 -0.008314 -0.002028 0.010550 0.000000 0.051398 0.000000
# 6 0.000000 0.000000 0.000000 0.001965 0.000000 0.034330
#
#
# Mechanical properties :
#
#
# Convention : Reuss Voigt Hill
#
# Bulk Modulus (GPa) = 65.47609 69.68016 67.57813
# Shear Modulus (GPa) = 26.89690 31.76464 29.33077
#
# Velocity S-wave (km/s) = 3.94687 4.28918 4.12158
# Velocity P-wave (km/s) = 7.66107 8.05518 7.86060
#
# Compressibility (1/GPa) = 0.01527275
#
# Stress axis : x y z
#
# Youngs Moduli (GPa) = 65.27603 137.89434 62.09358
#
# Poissons Ratio (x) = 0.35602 0.43815
# Poissons Ratio (y) = 0.16853 0.12814
# Poissons Ratio (z) = 0.46061 0.28456
#
# Static dielectric constant tensor:
#      x y z
#    x 3.193640 0.000000 -0.180230 
#    y 0.000000 3.776430 0.000000 
#    z -0.180230 0.000000 3.155390 
# 
# 
# High freq. dielectric constant tensor:
#      x y z
#    x 1.641260 0.000000 -0.026750 
#    y 0.000000 1.685790 0.000000 
#    z -0.026750 0.000000 1.653780 
# 
# From -- ./inp_files/66666.got.cif
#   From: 2010.06.25/outbox.cif.g09.slc.cpg/sg12_34_cif.got.tgz:66666.got - 2010.06.28 00:19:55.
