data_PCOD8078829
_publ_section_title
;
Structure prediction by ZEFSAII (Michael W. Deem and Ramdas Pophale) SiO2 
 PCOD8078829
Probable space group: C 2/M
;
_chemical_formula_sum "Si O2"
_cell_formula_units_Z 48
_cell_length_a 30.198789
_cell_length_b 9.053834
_cell_length_c 23.551907
_cell_angle_alpha 90.000000
_cell_angle_beta 152.693102
_cell_angle_gamma 90.000000
_cell_volume 2954.135395
_symmetry_space_group_name_H-M "C 2/M"
_symmetry_group_IT_number 12
_symmetry_cell_setting 'monoclinic'
loop_
_space_group_symop_operation_xyz
x,y,z
-x,y,-z
-x,-y,-z
x,-y,z
1/2+x,1/2+y,z
1/2-x,1/2+y,-z
1/2-x,1/2-y,-z
1/2+x,1/2-y,z
loop_
_atom_site_type_symbol
_atom_site_label
_atom_site_fract_x
_atom_site_fract_y
_atom_site_fract_z
Si Si1 0.701407 0.673465 0.681963
Si Si2 0.378050 0.328899 0.598789
Si Si3 0.845889 0.328279 0.674494
Si Si4 0.053795 0.674697 0.429964
Si Si5 0.908437 0.663148 0.354825
Si Si6 0.597210 0.825404 0.137543
O O1 0.683842 0.500000 0.654870
O O2 0.640018 0.755002 0.564261
O O3 0.670694 0.723529 0.710553
O O4 0.812920 0.717215 0.800151
O O5 0.405683 0.500000 0.630279
O O6 0.268422 0.301420 0.454881
O O7 0.396451 0.263842 0.682218
O O8 0.447559 0.243814 0.634227
O O9 0.869323 0.500000 0.691653
O O10 0.887702 0.266042 0.781336
O O11 0.071238 0.500000 0.447119
O O12 0.949533 0.711231 0.339935
O O13 0.861401 0.500000 0.298299
O O14 0.000000 0.659303 0.500000
O O15 0.587949 0.000000 0.130880
O O16 0.500000 0.755674 0.000000
#
# Coordination Sequence:
#
# PCOD8078829 Si02
#       6
#     8   8   8   8   8   8
#     4  10  17  27  43  65  89 116 151 187 222 257
#     4  10  18  28  44  67  91 116 148 184 223 266
#     4   9  17  30  44  63  89 119 151 180 220 267
#     4  10  18  28  43  63  90 122 149 176 221 274
#     4   8  16  28  40  59  87 119 148 175 219 274
#     4   9  17  30  47  66  90 120 154 187 216 257
#
# _framework density 16.248408000000001
#
# number of rings (size 3 to 8) (size 9 to 14) (size 15 to 20)
#    0.000    2.667    1.667    2.500    0.000    4.333 
#    0.000    0.000    0.000    4.500    0.000    1.167 
#    0.000    0.000    0.000    0.000    0.000    0.000 
#
# Total GULP energy -297508.620315 kJ/mol
# GULP energy per Si atom -12396.192513 kJ/mol
# Density = 1.621143 g / cm^3
# Si number density = 16.248408 Si / 1000 Ang^3
#
#
#
# Elastic Constant Matrix: (Units=GPa)
#
#
# Indices 1 2 3 4 5 6 
#
# 1 163.5561 67.2920 48.0684 0.0000 -7.6821 0.0000
# 2 67.2920 78.5690 25.0889 0.0000 -1.1196 0.0000
# 3 48.0684 25.0889 65.7470 0.0000 -3.8703 0.0000
# 4 0.0000 0.0000 0.0000 8.2844 0.0000 -4.8761
# 5 -7.6821 -1.1196 -3.8703 0.0000 17.6627 0.0000
# 6 0.0000 0.0000 0.0000 -4.8761 0.0000 30.8189
#
#
#
# Elastic Compliance Matrix: (Units=1/GPa)
#
#
# Indices 1 2 3 4 5 6 
#
# 1 0.010847 -0.007712 -0.004801 0.000000 0.003177 0.000000
# 2 -0.007712 0.019978 -0.002136 0.000000 -0.002556 0.000000
# 3 -0.004801 -0.002136 0.019657 0.000000 0.002084 0.000000
# 4 0.000000 0.000000 0.000000 0.133104 0.000000 0.021060
# 5 0.003177 -0.002556 0.002084 0.000000 0.058293 0.000000
# 6 0.000000 0.000000 0.000000 0.021060 0.000000 0.035780
#
#
# Mechanical properties :
#
#
# Convention : Reuss Voigt Hill
#
# Bulk Modulus (GPa) = 47.20097 65.41895 56.30996
# Shear Modulus (GPa) = 15.92262 22.51472 19.21867
#
# Velocity S-wave (km/s) = 3.13381 3.72648 3.44292
# Velocity P-wave (km/s) = 6.49669 7.67233 7.10886
#
# Compressibility (1/GPa) = 0.02118600
#
# Stress axis : x y z
#
# Youngs Moduli (GPa) = 92.18981 50.05404 50.87180
#
# Poissons Ratio (x) = 0.38602 0.24421
# Poissons Ratio (y) = 0.71098 0.10865
# Poissons Ratio (z) = 0.44256 0.10690
#
# Static dielectric constant tensor:
#      x y z
#    x 3.518230 0.000000 -0.042720 
#    y 0.000000 3.037440 0.000000 
#    z -0.042720 0.000000 2.762790 
# 
# 
# High freq. dielectric constant tensor:
#      x y z
#    x 1.643160 0.000000 -0.007120 
#    y 0.000000 1.620900 0.000000 
#    z -0.007120 0.000000 1.561850 
# 
# From -- ./inp_files/329122.got.cif
#   From: 2010.06.25/outbox.cif.g09.slc.cpg/sg12_165_cif.got.tgz:329122.got - 2010.06.28 00:19:55.
