data_PCOD8078490
_publ_section_title
;
Structure prediction by ZEFSAII (Michael W. Deem and Ramdas Pophale) SiO2 
 PCOD8078490
Probable space group: C 2/M
;
_chemical_formula_sum "Si O2"
_cell_formula_units_Z 64
_cell_length_a 25.218777
_cell_length_b 8.960126
_cell_length_c 22.888100
_cell_angle_alpha 90.000000
_cell_angle_beta 50.793590
_cell_angle_gamma 90.000000
_cell_volume 4007.549021
_symmetry_space_group_name_H-M "C 2/M"
_symmetry_group_IT_number 12
_symmetry_cell_setting 'monoclinic'
loop_
_space_group_symop_operation_xyz
x,y,z
-x,y,-z
-x,-y,-z
x,-y,z
1/2+x,1/2+y,z
1/2-x,1/2+y,-z
1/2-x,1/2-y,-z
1/2+x,1/2-y,z
loop_
_atom_site_type_symbol
_atom_site_label
_atom_site_fract_x
_atom_site_fract_y
_atom_site_fract_z
Si Si1 0.154266 0.674289 0.926815
Si Si2 0.490455 0.172807 0.635711
Si Si3 0.635400 0.325950 0.333372
Si Si4 0.942273 0.168002 0.089060
Si Si5 0.040709 0.325093 0.101579
Si Si6 0.075407 0.665954 0.475288
Si Si7 0.574258 0.827572 0.204553
Si Si8 0.205960 0.677407 0.183513
O O1 0.167366 0.500000 0.909105
O O2 0.122339 0.738492 0.889166
O O3 0.224878 0.757288 0.891719
O O4 0.105355 0.708018 0.015504
O O5 0.435965 0.286408 0.647102
O O6 0.563812 0.204143 0.552890
O O7 0.490136 0.197848 0.706075
O O8 0.467719 0.000000 0.638577
O O9 0.650728 0.500000 0.320526
O O10 0.629490 0.274878 0.405656
O O11 0.695538 0.240805 0.256542
O O12 0.972555 0.243811 0.126040
O O13 0.918495 0.000000 0.119995
O O14 0.000000 0.169376 0.000000
O O15 0.024055 0.500000 0.115330
O O16 0.057437 0.254295 0.153680
O O17 0.105253 0.500000 0.447517
O O18 0.000000 0.677676 0.500000
O O19 0.643902 0.764977 0.185296
O O20 0.586788 0.000000 0.183139
O O21 0.209450 0.500000 0.184020
#
# Coordination Sequence:
#
# PCOD8078490 Si02
#       8
#     8   8   8   8   8   8   8   8
#     4  10  19  30  45  65  86 109 140 179 220 255
#     4   8  14  25  39  54  77 110 143 171 202 246
#     4  10  17  24  36  55  79 106 138 176 213 247
#     4   9  17  30  47  65  83 105 137 176 217 258
#     4   9  17  30  47  65  86 111 140 177 217 253
#     4   8  13  22  36  53  74 104 140 172 203 243
#     4   8  15  28  44  61  84 117 149 173 205 250
#     4  10  19  31  44  58  83 118 149 175 207 253
#
# _framework density 15.969861
#
# number of rings (size 3 to 8) (size 9 to 14) (size 15 to 20)
#    0.000    3.000    0.000    3.750    0.000    4.750 
#    0.000    3.125    0.000    0.000    0.000    0.000 
#    0.000    1.000    0.000    2.750    0.000    5.500 
#
# Total GULP energy -396487.691168 kJ/mol
# GULP energy per Si atom -12390.240349 kJ/mol
# Density = 1.593351 g / cm^3
# Si number density = 15.969861 Si / 1000 Ang^3
#
#
#
# Elastic Constant Matrix: (Units=GPa)
#
#
# Indices 1 2 3 4 5 6 
#
# 1 69.9927 25.3992 44.4865 -0.0013 19.5739 0.0026
# 2 25.3992 76.7831 34.3376 -0.0019 9.3458 0.0209
# 3 44.4865 34.3376 85.5064 0.0008 24.4651 -0.0035
# 4 -0.0013 -0.0019 0.0008 19.9304 -0.0007 -4.5092
# 5 19.5739 9.3458 24.4651 -0.0007 10.7884 -0.0001
# 6 0.0026 0.0209 -0.0035 -4.5092 -0.0001 16.9911
#
#
#
# Elastic Compliance Matrix: (Units=1/GPa)
#
#
# Indices 1 2 3 4 5 6 
#
# 1 0.029978 -0.004001 0.001653 0.000000 -0.054675 0.000000
# 2 -0.004001 0.016424 -0.007176 -0.000003 0.009306 -0.000022
# 3 0.001653 -0.007176 0.036440 -0.000001 -0.079419 0.000015
# 4 0.000000 -0.000003 -0.000001 0.053380 0.000010 0.014166
# 5 -0.054675 0.009306 -0.079419 0.000010 0.363932 -0.000015
# 6 0.000000 -0.000022 0.000015 0.014166 -0.000015 0.062614
#
#
# Mechanical properties :
#
#
# Convention : Reuss Voigt Hill
#
# Bulk Modulus (GPa) = 15.67542 48.96988 32.32265
# Shear Modulus (GPa) = 8.29077 18.07925 13.18501
#
# Velocity S-wave (km/s) = 2.28096 3.36830 2.87647
# Velocity P-wave (km/s) = 4.09560 6.77184 5.59606
#
# Compressibility (1/GPa) = 0.06379415
#
# Stress axis : x y z
#
# Youngs Moduli (GPa) = 33.35726 60.88697 27.44230
#
# Poissons Ratio (x) = 0.24362 -0.04537
# Poissons Ratio (y) = 0.13347 0.19694
# Poissons Ratio (z) = -0.05515 0.43695
#
# Static dielectric constant tensor:
#      x y z
#    x 2.789040 -0.000010 0.237590 
#    y -0.000010 2.956300 0.000000 
#    z 0.237590 0.000000 3.383710 
# 
# 
# High freq. dielectric constant tensor:
#      x y z
#    x 1.558510 0.000000 0.014380 
#    y 0.000000 1.608950 0.000000 
#    z 0.014380 0.000000 1.614780 
# 
# From -- ./inp_files/350909.got.cif
#   From: 2010.06.25/outbox.cif.g09.slc.cpg/sg12_176_cif.got.tgz:350909.got - 2010.06.28 00:19:55.
