data_PCOD8078482
_publ_section_title
;
Structure prediction by ZEFSAII (Michael W. Deem and Ramdas Pophale) SiO2 
 PCOD8078482
Probable space group: C 2/M
;
_chemical_formula_sum "Si O2"
_cell_formula_units_Z 64
_cell_length_a 18.668887
_cell_length_b 21.865770
_cell_length_c 23.034077
_cell_angle_alpha 90.000000
_cell_angle_beta 151.956634
_cell_angle_gamma 90.000000
_cell_volume 4420.597308
_symmetry_space_group_name_H-M "C 2/M"
_symmetry_group_IT_number 12
_symmetry_cell_setting 'monoclinic'
loop_
_space_group_symop_operation_xyz
x,y,z
-x,y,-z
-x,-y,-z
x,-y,z
1/2+x,1/2+y,z
1/2-x,1/2+y,-z
1/2-x,1/2-y,-z
1/2+x,1/2-y,z
loop_
_atom_site_type_symbol
_atom_site_label
_atom_site_fract_x
_atom_site_fract_y
_atom_site_fract_z
Si Si1 0.285051 0.389052 0.860078
Si Si2 0.615874 0.233098 0.530836
Si Si3 0.103372 0.242703 0.025391
Si Si4 0.317984 0.312253 0.520752
Si Si5 0.966171 0.068557 0.881515
Si Si6 0.443544 0.688104 0.801268
Si Si7 0.522504 0.838856 0.351946
Si Si8 0.582352 0.281393 0.781094
O O1 0.333401 0.318286 0.898264
O O2 0.334515 0.415516 0.833533
O O3 0.100829 0.393817 0.734137
O O4 0.367095 0.427265 0.969414
O O5 0.500000 0.245344 0.500000
O O6 0.654358 0.298843 0.527757
O O7 0.769092 0.203593 0.664403
O O8 0.539013 0.188207 0.428724
O O9 0.238723 0.289353 0.104967
O O10 0.000000 0.276425 0.000000
O O11 0.001404 0.226829 0.897074
O O12 0.250000 0.250000 0.500000
O O13 0.186397 0.362256 0.442398
O O14 0.478580 0.327097 0.667231
O O15 0.955150 0.115350 0.820286
O O16 0.942400 0.000000 0.840756
O O17 0.554752 0.704150 0.828223
O O18 0.460409 0.788663 0.262245
#
# Coordination Sequence:
#
# PCOD8078482 Si02
#       8
#     8   8   8   8   8   8   8   8
#     4   9  15  28  43  55  75 104 141 174 215 238
#     4  10  17  23  39  61  81 111 143 167 202 247
#     4  10  18  25  38  61  83 109 137 174 200 247
#     4   8  14  27  37  54  80 102 137 170 194 246
#     4  10  19  29  42  58  79 107 150 187 209 236
#     4  11  17  28  40  57  80 115 145 172 212 247
#     4   9  15  27  41  58  79 103 138 177 199 255
#     4   9  16  27  39  57  83 109 139 167 203 255
#
# _framework density 14.477682
#
# number of rings (size 3 to 8) (size 9 to 14) (size 15 to 20)
#    0.000    2.750    6.250    1.875    3.500    0.000 
#    0.000    0.000    0.000    4.125    0.000    0.000 
#    0.000    0.500    0.000    0.000    0.000   14.500 
#
# Total GULP energy -396464.264421 kJ/mol
# GULP energy per Si atom -12389.508263 kJ/mol
# Density = 1.444473 g / cm^3
# Si number density = 14.477682 Si / 1000 Ang^3
#
#
#
# Elastic Constant Matrix: (Units=GPa)
#
#
# Indices 1 2 3 4 5 6 
#
# 1 129.1296 33.0640 53.4980 -0.0128 7.0695 0.0013
# 2 33.0640 29.2085 30.6067 -0.0169 4.2540 -0.0074
# 3 53.4980 30.6067 82.3312 -0.0587 6.2454 -0.0158
# 4 -0.0128 -0.0169 -0.0587 8.7101 -0.0256 0.6036
# 5 7.0695 4.2540 6.2454 -0.0256 27.3300 -0.0035
# 6 0.0013 -0.0074 -0.0158 0.6036 -0.0035 9.0969
#
#
#
# Elastic Compliance Matrix: (Units=1/GPa)
#
#
# Indices 1 2 3 4 5 6 
#
# 1 0.011829 -0.008665 -0.004412 -0.000030 -0.000703 -0.000015
# 2 -0.008665 0.062872 -0.017473 -0.000021 -0.003552 0.000022
# 3 -0.004412 -0.017473 0.021590 0.000101 -0.001073 0.000017
# 4 -0.000030 -0.000021 0.000101 0.115341 0.000095 -0.007654
# 5 -0.000703 -0.003552 -0.001073 0.000095 0.037570 0.000004
# 6 -0.000015 0.000022 0.000017 -0.007654 0.000004 0.110436
#
#
# Mechanical properties :
#
#
# Convention : Reuss Voigt Hill
#
# Bulk Modulus (GPa) = 28.41599 52.77852 40.59726
# Shear Modulus (GPa) = 11.56155 17.26077 14.41116
#
# Velocity S-wave (km/s) = 2.82898 3.45662 3.15843
# Velocity P-wave (km/s) = 5.50825 7.24329 6.43452
#
# Compressibility (1/GPa) = 0.03519146
#
# Stress axis : x y z
#
# Youngs Moduli (GPa) = 84.53633 15.90525 46.31802
#
# Poissons Ratio (x) = 0.13782 0.20435
# Poissons Ratio (y) = 0.73253 0.80931
# Poissons Ratio (z) = 0.37297 0.27791
#
# Static dielectric constant tensor:
#      x y z
#    x 3.159950 0.000020 0.342680 
#    y 0.000020 2.362550 0.000010 
#    z 0.342680 0.000010 3.285520 
# 
# 
# High freq. dielectric constant tensor:
#      x y z
#    x 1.557780 0.000000 0.007270 
#    y 0.000000 1.473300 0.000000 
#    z 0.007270 0.000000 1.569650 
# 
# From -- ./inp_files/318168.got.cif
#   From: 2010.06.25/outbox.cif.g09.slc.cpg/sg12_160_cif.got.tgz:318168.got - 2010.06.28 00:19:55.
