data_PCOD8078575
_publ_section_title
;
Structure prediction by ZEFSAII (Michael W. Deem and Ramdas Pophale) SiO2 
 PCOD8078575
Probable space group: C 2/M
;
_chemical_formula_sum "Si O2"
_cell_formula_units_Z 56
_cell_length_a 28.534965
_cell_length_b 9.127660
_cell_length_c 17.527951
_cell_angle_alpha 90.000000
_cell_angle_beta 128.769332
_cell_angle_gamma 90.000000
_cell_volume 3559.431029
_symmetry_space_group_name_H-M "C 2/M"
_symmetry_group_IT_number 12
_symmetry_cell_setting 'monoclinic'
loop_
_space_group_symop_operation_xyz
x,y,z
-x,y,-z
-x,-y,-z
x,-y,z
1/2+x,1/2+y,z
1/2-x,1/2+y,-z
1/2-x,1/2-y,-z
1/2+x,1/2-y,z
loop_
_atom_site_type_symbol
_atom_site_label
_atom_site_fract_x
_atom_site_fract_y
_atom_site_fract_z
Si Si1 0.026342 0.331001 0.193241
Si Si2 0.533627 0.832988 0.371533
Si Si3 0.067580 0.162260 0.099495
Si Si4 0.186585 0.172630 0.930145
Si Si5 0.102129 0.328119 0.725079
Si Si6 0.569074 0.334731 0.547018
Si Si7 0.405440 0.670593 0.034369
O O1 0.016620 0.500000 0.164967
O O2 0.054395 0.306566 0.305712
O O3 0.073052 0.267057 0.178469
O O4 0.961392 0.257396 0.125410
O O5 0.463140 0.795238 0.306351
O O6 0.574344 0.731222 0.467210
O O7 0.544037 0.000000 0.407865
O O8 0.086790 0.000000 0.145553
O O9 0.107819 0.214880 0.067947
O O10 0.000000 0.163699 0.000000
O O11 0.150478 0.242041 0.823788
O O12 0.153146 0.205174 0.975857
O O13 0.194039 0.000000 0.923480
O O14 0.250000 0.250000 0.000000
O O15 0.117329 0.500000 0.739838
O O16 0.106682 0.265084 0.643855
O O17 0.500000 0.331249 0.500000
O O18 0.594471 0.500000 0.573195
O O19 0.423308 0.500000 0.055910
#
# Coordination Sequence:
#
# PCOD8078575 Si02
#       7
#     8   8   8   8   8   8   8
#     4  10  17  25  40  64  89 114 145 178 213 255
#     4   9  17  27  40  61  89 118 145 175 214 259
#     4   8  15  27  40  57  81 112 145 174 211 259
#     4  11  22  34  48  65  85 113 152 192 226 261
#     4  10  18  31  46  60  84 116 146 181 223 261
#     4   9  17  27  41  62  84 111 147 180 212 257
#     4   9  18  31  44  57  81 115 147 180 219 261
#
# _framework density 15.732851
#
# number of rings (size 3 to 8) (size 9 to 14) (size 15 to 20)
#    0.000    2.571    1.429    2.571    0.000    6.571 
#    0.000    0.000    0.000    0.000    0.000    0.000 
#    0.000    1.143    0.000    3.429    0.000    5.286 
#
# Total GULP energy -347098.127901 kJ/mol
# GULP energy per Si atom -12396.361711 kJ/mol
# Density = 1.569704 g / cm^3
# Si number density = 15.732851 Si / 1000 Ang^3
#
#
#
# Elastic Constant Matrix: (Units=GPa)
#
#
# Indices 1 2 3 4 5 6 
#
# 1 80.7375 49.2826 52.0504 0.0000 -21.6500 0.0000
# 2 49.2826 99.9374 53.5064 0.0000 -16.0272 0.0000
# 3 52.0504 53.5064 80.8751 0.0000 -22.1224 0.0000
# 4 0.0000 0.0000 0.0000 28.4628 0.0000 -7.3944
# 5 -21.6500 -16.0272 -22.1224 0.0000 22.6976 0.0000
# 6 0.0000 0.0000 0.0000 -7.3944 0.0000 21.4329
#
#
#
# Elastic Compliance Matrix: (Units=1/GPa)
#
#
# Indices 1 2 3 4 5 6 
#
# 1 0.024512 -0.005413 -0.009333 0.000000 0.010462 0.000000
# 2 -0.005413 0.016718 -0.007854 0.000000 -0.001013 0.000000
# 3 -0.009333 -0.007854 0.026746 0.000000 0.011620 0.000000
# 4 0.000000 0.000000 0.000000 0.038593 0.000000 0.013314
# 5 0.010462 -0.001013 0.011620 0.000000 0.064647 0.000000
# 6 0.000000 0.000000 0.000000 0.013314 0.000000 0.051251
#
#
# Mechanical properties :
#
#
# Convention : Reuss Voigt Hill
#
# Bulk Modulus (GPa) = 43.90446 63.46986 53.68716
# Shear Modulus (GPa) = 18.16475 21.63271 19.89873
#
# Velocity S-wave (km/s) = 3.40159 3.71213 3.56024
# Velocity P-wave (km/s) = 6.58745 7.66831 7.14834
#
# Compressibility (1/GPa) = 0.02277673
#
# Stress axis : x y z
#
# Youngs Moduli (GPa) = 40.79594 59.81498 37.38908
#
# Poissons Ratio (x) = 0.32380 0.34894
# Poissons Ratio (y) = 0.22084 0.29365
# Poissons Ratio (z) = 0.38073 0.46978
#
# Static dielectric constant tensor:
#      x y z
#    x 3.108360 0.000000 -0.417920 
#    y 0.000000 3.134630 0.000000 
#    z -0.417920 0.000000 2.829170 
# 
# 
# High freq. dielectric constant tensor:
#      x y z
#    x 1.575540 0.000000 -0.044510 
#    y 0.000000 1.617600 0.000000 
#    z -0.044510 0.000000 1.574360 
# 
# From -- ./inp_files/291487.got.cif
#   From: 2010.06.25/outbox.cif.g09.slc.cpg/sg12_146_cif.got.tgz:291487.got - 2010.06.28 00:19:55.
