data_PCOD8078263
_publ_section_title
;
Structure prediction by ZEFSAII (Michael W. Deem and Ramdas Pophale) SiO2 
 PCOD8078263
Probable space group: C 2/M
;
_chemical_formula_sum "Si O2"
_cell_formula_units_Z 64
_cell_length_a 25.241552
_cell_length_b 17.898715
_cell_length_c 24.620639
_cell_angle_alpha 90.000000
_cell_angle_beta 160.325501
_cell_angle_gamma 90.000000
_cell_volume 3744.981207
_symmetry_space_group_name_H-M "C 2/M"
_symmetry_group_IT_number 12
_symmetry_cell_setting 'monoclinic'
loop_
_space_group_symop_operation_xyz
x,y,z
-x,y,-z
-x,-y,-z
x,-y,z
1/2+x,1/2+y,z
1/2-x,1/2+y,-z
1/2-x,1/2-y,-z
1/2+x,1/2-y,z
loop_
_atom_site_type_symbol
_atom_site_label
_atom_site_fract_x
_atom_site_fract_y
_atom_site_fract_z
Si Si1 0.083643 0.276132 0.361596
Si Si2 0.811051 0.585203 0.891279
Si Si3 0.192216 0.582455 0.429867
Si Si4 0.624257 0.850912 0.246845
Si Si5 0.855624 0.818068 0.190901
Si Si6 0.329198 0.586045 0.356425
Si Si7 0.440534 0.273537 0.117851
Si Si8 0.547675 0.585166 0.810596
O O1 0.250000 0.250000 0.500000
O O2 0.098966 0.365441 0.383748
O O3 0.023940 0.227384 0.355616
O O4 0.950132 0.257977 0.188382
O O5 0.781675 0.500000 0.879558
O O6 0.666474 0.632950 0.776647
O O7 0.800805 0.594665 0.816556
O O8 0.977846 0.610663 0.075346
O O9 0.125640 0.500000 0.374858
O O10 0.156291 0.608077 0.334305
O O11 0.377083 0.586478 0.618516
O O12 0.775859 0.860382 0.354490
O O13 0.582421 0.763425 0.218688
O O14 0.837492 0.875976 0.122646
O O15 0.724967 0.752885 0.065246
O O16 0.500000 0.611416 0.500000
O O17 0.335671 0.500000 0.383056
O O18 0.453006 0.364392 0.134414
O O19 0.600057 0.500000 0.874704
#
# Coordination Sequence:
#
# PCOD8078263 Si02
#       8
#     8   8   8   8   8   8   8   8
#     4  10  16  28  43  60  87 119 150 186 229 260
#     4  10  20  33  48  67  92 124 160 192 230 269
#     4  10  19  28  45  69  90 120 162 193 223 271
#     4  10  20  33  50  64  92 126 158 190 232 275
#     4  10  19  31  45  66  92 124 158 188 225 273
#     4  10  21  33  47  69  95 120 152 195 232 267
#     4   9  19  32  45  66  90 121 158 190 228 276
#     4  10  18  29  46  68  94 121 155 195 231 266
#
# _framework density 17.089538999999998
#
# number of rings (size 3 to 8) (size 9 to 14) (size 15 to 20)
#    0.000    2.125    2.500    3.375    1.750    1.000 
#    0.000    5.000    0.000    0.000    0.000    0.000 
#    0.000    9.500    0.000    0.000    0.000    0.500 
#
# Total GULP energy -396436.221802 kJ/mol
# GULP energy per Si atom -12388.631931 kJ/mol
# Density = 1.705064 g / cm^3
# Si number density = 17.089539 Si / 1000 Ang^3
#
#
#
# Elastic Constant Matrix: (Units=GPa)
#
#
# Indices 1 2 3 4 5 6 
#
# 1 58.8523 44.7222 3.4384 -0.0004 16.5599 0.0012
# 2 44.7222 138.8152 16.5216 0.0145 10.1225 0.0013
# 3 3.4384 16.5216 36.6617 0.0279 6.1212 0.0044
# 4 -0.0004 0.0145 0.0279 22.7428 0.0043 2.1083
# 5 16.5599 10.1225 6.1212 0.0043 26.6593 -0.0017
# 6 0.0012 0.0013 0.0044 2.1083 -0.0017 21.5875
#
#
#
# Elastic Compliance Matrix: (Units=1/GPa)
#
#
# Indices 1 2 3 4 5 6 
#
# 1 0.026993 -0.008057 0.003523 0.000004 -0.014517 -0.000003
# 2 -0.008057 0.010142 -0.004167 -0.000002 0.002111 0.000001
# 3 0.003523 -0.004167 0.030078 -0.000032 -0.007512 -0.000003
# 4 0.000004 -0.000002 -0.000032 0.044372 -0.000002 -0.004333
# 5 -0.014517 0.002111 -0.007512 -0.000002 0.047451 0.000006
# 6 -0.000003 0.000001 -0.000003 -0.004333 0.000006 0.046746
#
#
# Mechanical properties :
#
#
# Convention : Reuss Voigt Hill
#
# Bulk Modulus (GPa) = 20.07590 40.41040 30.24315
# Shear Modulus (GPa) = 20.85170 25.50772 23.17971
#
# Velocity S-wave (km/s) = 3.49685 3.86760 3.68689
# Velocity P-wave (km/s) = 5.29876 6.60621 5.98828
#
# Compressibility (1/GPa) = 0.04981096
#
# Stress axis : x y z
#
# Youngs Moduli (GPa) = 37.04610 98.60324 33.24659
#
# Poissons Ratio (x) = 0.79447 -0.11713
# Poissons Ratio (y) = 0.29849 0.13854
# Poissons Ratio (z) = -0.13052 0.41089
#
# Static dielectric constant tensor:
#      x y z
#    x 3.120260 0.000020 0.066220 
#    y 0.000020 3.700770 -0.000030 
#    z 0.066220 -0.000030 3.237990 
# 
# 
# High freq. dielectric constant tensor:
#      x y z
#    x 1.615770 0.000000 0.013760 
#    y 0.000000 1.652210 0.000000 
#    z 0.013760 0.000000 1.667270 
# 
# From -- ./inp_files/369732.got.cif
#   From: 2010.06.25/outbox.cif.g09.slc.cpg/sg12_185_cif.got.tgz:369732.got - 2010.06.28 00:19:55.
