data_PCOD8078874
_publ_section_title
;
Structure prediction by ZEFSAII (Michael W. Deem and Ramdas Pophale) SiO2 
 PCOD8078874
Probable space group: C 2/M
;
_chemical_formula_sum "Si O2"
_cell_formula_units_Z 64
_cell_length_a 31.594805
_cell_length_b 8.921831
_cell_length_c 14.737618
_cell_angle_alpha 90.000000
_cell_angle_beta 117.315884
_cell_angle_gamma 90.000000
_cell_volume 3691.046655
_symmetry_space_group_name_H-M "C 2/M"
_symmetry_group_IT_number 12
_symmetry_cell_setting 'monoclinic'
loop_
_space_group_symop_operation_xyz
x,y,z
-x,y,-z
-x,-y,-z
x,-y,z
1/2+x,1/2+y,z
1/2-x,1/2+y,-z
1/2-x,1/2-y,-z
1/2+x,1/2-y,z
loop_
_atom_site_type_symbol
_atom_site_label
_atom_site_fract_x
_atom_site_fract_y
_atom_site_fract_z
Si Si1 0.281638 0.823681 0.677713
Si Si2 0.554309 0.322505 0.948465
Si Si3 0.825182 0.822878 0.420893
Si Si4 0.947098 0.177467 0.848423
Si Si5 0.135159 0.321955 0.912328
Si Si6 0.826997 0.178261 0.221665
Si Si7 0.280240 0.823599 0.880750
Si Si8 0.637300 0.322299 0.356353
O O1 0.227909 0.765501 0.607915
O O2 0.296058 0.780864 0.794701
O O3 0.315010 0.733914 0.643336
O O4 0.287288 0.000000 0.665366
O O5 0.560993 0.500000 0.942966
O O6 0.500172 0.271217 0.873819
O O7 0.587105 0.235621 0.910578
O O8 0.566708 0.270816 0.063388
O O9 0.842164 0.767833 0.338181
O O10 0.861457 0.771417 0.536305
O O11 0.821265 0.000000 0.411328
O O12 0.909390 0.245889 0.739174
O O13 0.945750 0.000000 0.845430
O O14 0.134560 0.500000 0.910727
O O15 0.137501 0.259398 0.812640
O O16 0.180821 0.256080 0.011973
O O17 0.772918 0.235646 0.149677
O O18 0.831430 0.000000 0.214994
O O19 0.278783 0.000000 0.889203
O O20 0.636607 0.500000 0.348672
#
# Coordination Sequence:
#
# PCOD8078874 Si02
#       8
#     8   8   8   8   8   8   8   8
#     4   9  16  28  43  63  92 124 147 169 208 265
#     4   9  17  32  49  66  89 119 145 171 215 271
#     4   8  16  29  45  63  88 119 151 181 213 251
#     4   8  16  30  49  69  90 113 144 181 215 253
#     4  11  20  29  44  69  92 112 143 187 223 252
#     4   9  17  32  48  61  83 122 156 177 209 259
#     4   8  16  29  44  62  90 121 148 175 211 257
#     4  10  17  27  45  69  90 112 145 187 220 248
#
# _framework density 17.339255999999999
#
# number of rings (size 3 to 8) (size 9 to 14) (size 15 to 20)
#    0.000    3.000    0.000    4.125    0.000    0.000 
#    0.000    6.250    0.000    0.750    0.000    5.250 
#    0.000    0.000    0.000    0.000    0.000    0.000 
#
# Total GULP energy -396599.567764 kJ/mol
# GULP energy per Si atom -12393.736493 kJ/mol
# Density = 1.729979 g / cm^3
# Si number density = 17.339256 Si / 1000 Ang^3
#
#
#
# Elastic Constant Matrix: (Units=GPa)
#
#
# Indices 1 2 3 4 5 6 
#
# 1 120.8110 27.4520 75.6598 0.0000 -15.9600 0.0000
# 2 27.4520 25.4312 26.1035 0.0000 -4.3647 0.0000
# 3 75.6598 26.1035 148.3295 0.0000 -4.8523 0.0000
# 4 0.0000 0.0000 0.0000 13.0717 0.0000 -1.4277
# 5 -15.9600 -4.3647 -4.8523 0.0000 22.7656 0.0000
# 6 0.0000 0.0000 0.0000 -1.4277 0.0000 24.2740
#
#
#
# Elastic Compliance Matrix: (Units=1/GPa)
#
#
# Indices 1 2 3 4 5 6 
#
# 1 0.014919 -0.008854 -0.005806 0.000000 0.007524 0.000000
# 2 -0.008854 0.054535 -0.004977 0.000000 0.003188 0.000000
# 3 -0.005806 -0.004977 0.010488 0.000000 -0.002789 0.000000
# 4 0.000000 0.000000 0.000000 0.076996 0.000000 0.004529
# 5 0.007524 0.003188 -0.002789 0.000000 0.049218 0.000000
# 6 0.000000 0.000000 0.000000 0.004529 0.000000 0.041463
#
#
# Mechanical properties :
#
#
# Convention : Reuss Voigt Hill
#
# Bulk Modulus (GPa) = 24.58889 61.44469 43.01679
# Shear Modulus (GPa) = 16.64188 23.04602 19.84395
#
# Velocity S-wave (km/s) = 3.10139 3.64967 3.38665
# Velocity P-wave (km/s) = 5.19968 7.29889 6.33682
#
# Compressibility (1/GPa) = 0.04066878
#
# Stress axis : x y z
#
# Youngs Moduli (GPa) = 67.02754 18.33693 95.35012
#
# Poissons Ratio (x) = 0.16236 0.55357
# Poissons Ratio (y) = 0.59347 0.47452
# Poissons Ratio (z) = 0.38914 0.09126
#
# Static dielectric constant tensor:
#      x y z
#    x 3.147130 0.000000 0.073540 
#    y 0.000000 2.804140 0.000000 
#    z 0.073540 0.000000 3.819960 
# 
# 
# High freq. dielectric constant tensor:
#      x y z
#    x 1.655590 0.000000 -0.008940 
#    y 0.000000 1.632160 0.000000 
#    z -0.008940 0.000000 1.672890 
# 
# From -- ./inp_files/249147.got.cif
#   From: 2010.06.25/outbox.cif.g09.slc.cpg/sg12_125_cif.got.tgz:249147.got - 2010.06.28 00:19:55.
