data_PCOD8078640
_publ_section_title
;
Structure prediction by ZEFSAII (Michael W. Deem and Ramdas Pophale) SiO2 
 PCOD8078640
Probable space group: C 2/M
;
_chemical_formula_sum "Si O2"
_cell_formula_units_Z 64
_cell_length_a 28.253432
_cell_length_b 8.965853
_cell_length_c 16.359444
_cell_angle_alpha 90.000000
_cell_angle_beta 98.037418
_cell_angle_gamma 90.000000
_cell_volume 4103.403115
_symmetry_space_group_name_H-M "C 2/M"
_symmetry_group_IT_number 12
_symmetry_cell_setting 'monoclinic'
loop_
_space_group_symop_operation_xyz
x,y,z
-x,y,-z
-x,-y,-z
x,-y,z
1/2+x,1/2+y,z
1/2-x,1/2+y,-z
1/2-x,1/2-y,-z
1/2+x,1/2-y,z
loop_
_atom_site_type_symbol
_atom_site_label
_atom_site_fract_x
_atom_site_fract_y
_atom_site_fract_z
Si Si1 0.773815 0.672877 0.259824
Si Si2 0.558410 0.674673 0.674868
Si Si3 0.212535 0.676058 0.550768
Si Si4 0.129549 0.675471 0.807517
Si Si5 0.973208 0.668436 0.579147
Si Si6 0.111226 0.174815 0.519156
Si Si7 0.322839 0.668522 0.038830
Si Si8 0.276222 0.832237 0.889013
O O1 0.764420 0.500000 0.241047
O O2 0.770854 0.715542 0.353739
O O3 0.825993 0.717991 0.239632
O O4 0.732381 0.761999 0.202360
O O5 0.551163 0.500000 0.685787
O O6 0.582962 0.744752 0.760319
O O7 0.506494 0.749936 0.653520
O O8 0.591009 0.709472 0.604105
O O9 0.210293 0.500000 0.536297
O O10 0.250000 0.750000 0.500000
O O11 0.161090 0.743402 0.519909
O O12 0.120663 0.500000 0.809034
O O13 0.138501 0.736681 0.900913
O O14 0.962249 0.500000 0.605502
O O15 0.924155 0.760119 0.558325
O O16 0.000000 0.667800 0.500000
O O17 0.117679 0.000000 0.505687
O O18 0.341434 0.500000 0.033452
O O19 0.272723 0.672789 0.072999
O O20 0.316636 0.740484 0.947663
O O21 0.294800 0.000000 0.882467
#
# Coordination Sequence:
#
# PCOD8078640 Si02
#       8
#     8   8   8   8   8   8   8   8
#     4   9  18  30  43  57  77 106 139 176 217 257
#     4  10  18  27  41  62  86 111 142 176 212 254
#     4  11  22  35  48  64  84 110 145 185 227 264
#     4  10  17  26  40  58  82 111 143 175 210 250
#     4   9  17  28  43  61  82 108 139 173 211 254
#     4  10  19  31  46  62  82 108 140 179 219 259
#     4   9  16  25  36  54  79 106 136 169 206 245
#     4   9  16  25  39  56  75 101 136 172 206 247
#
# _framework density 15.59681
#
# number of rings (size 3 to 8) (size 9 to 14) (size 15 to 20)
#    0.000    2.375    1.250    2.625    0.000    7.000 
#    0.000    0.000    0.000    0.000    0.000    0.000 
#    0.000    0.000    0.000    1.125    0.000   20.750 
#
# Total GULP energy -396822.570878 kJ/mol
# GULP energy per Si atom -12400.705340 kJ/mol
# Density = 1.556131 g / cm^3
# Si number density = 15.596810 Si / 1000 Ang^3
#
#
#
# Elastic Constant Matrix: (Units=GPa)
#
#
# Indices 1 2 3 4 5 6 
#
# 1 61.6080 45.9601 50.8767 0.0000 20.4011 0.0000
# 2 45.9601 105.5490 56.5478 0.0000 21.5047 0.0000
# 3 50.8767 56.5478 95.8989 0.0000 32.1487 0.0000
# 4 0.0000 0.0000 0.0000 28.5292 0.0000 9.9885
# 5 20.4011 21.5047 32.1487 0.0000 25.6455 0.0000
# 6 0.0000 0.0000 0.0000 9.9885 0.0000 24.0489
#
#
#
# Elastic Compliance Matrix: (Units=1/GPa)
#
#
# Indices 1 2 3 4 5 6 
#
# 1 0.032717 -0.007014 -0.011156 0.000000 -0.006160 0.000000
# 2 -0.007014 0.015438 -0.005024 0.000000 -0.001067 0.000000
# 3 -0.011156 -0.005024 0.025737 0.000000 -0.019176 0.000000
# 4 0.000000 0.000000 0.000000 0.041016 0.000000 -0.017036
# 5 -0.006160 -0.001067 -0.019176 0.000000 0.068827 0.000000
# 6 0.000000 0.000000 0.000000 -0.017036 0.000000 0.048658
#
#
# Mechanical properties :
#
#
# Convention : Reuss Voigt Hill
#
# Bulk Modulus (GPa) = 36.35982 63.31388 49.83685
# Shear Modulus (GPa) = 17.36419 22.95615 20.16017
#
# Velocity S-wave (km/s) = 3.34026 3.84063 3.59915
# Velocity P-wave (km/s) = 6.18380 7.76849 7.02100
#
# Compressibility (1/GPa) = 0.02750289
#
# Stress axis : x y z
#
# Youngs Moduli (GPa) = 30.56507 64.77698 38.85437
#
# Poissons Ratio (x) = 0.45437 0.43347
# Poissons Ratio (y) = 0.21440 0.19520
# Poissons Ratio (z) = 0.34099 0.32543
#
# Static dielectric constant tensor:
#      x y z
#    x 2.613600 0.000000 0.364190 
#    y 0.000000 3.152070 0.000000 
#    z 0.364190 0.000000 2.909580 
# 
# 
# High freq. dielectric constant tensor:
#      x y z
#    x 1.547030 0.000000 0.045040 
#    y 0.000000 1.619490 0.000000 
#    z 0.045040 0.000000 1.582200 
# 
# From -- ./inp_files/248492.got.cif
#   From: 2010.06.25/outbox.cif.g09.slc.cpg/sg12_125_cif.got.tgz:248492.got - 2010.06.28 00:19:55.
