data_PCOD8078367
_publ_section_title
;
Structure prediction by ZEFSAII (Michael W. Deem and Ramdas Pophale) SiO2 
 PCOD8078367
Probable space group: C 2/M
;
_chemical_formula_sum "Si O2"
_cell_formula_units_Z 48
_cell_length_a 5.309136
_cell_length_b 21.660607
_cell_length_c 20.789418
_cell_angle_alpha 90.000000
_cell_angle_beta 89.851883
_cell_angle_gamma 90.000000
_cell_volume 2390.756546
_symmetry_space_group_name_H-M "C 2/M"
_symmetry_group_IT_number 12
_symmetry_cell_setting 'monoclinic'
loop_
_space_group_symop_operation_xyz
x,y,z
-x,y,-z
-x,-y,-z
x,-y,z
1/2+x,1/2+y,z
1/2-x,1/2+y,-z
1/2-x,1/2-y,-z
1/2+x,1/2-y,z
loop_
_atom_site_type_symbol
_atom_site_label
_atom_site_fract_x
_atom_site_fract_y
_atom_site_fract_z
Si Si1 0.752014 0.428521 0.339540
Si Si2 0.750239 0.319253 0.972720
Si Si3 0.249568 0.402347 0.519248
Si Si4 0.252782 0.628543 0.295194
Si Si5 0.761043 0.210162 0.419864
Si Si6 0.264981 0.210588 0.826879
O O1 0.754941 0.500000 0.359402
O O2 0.750523 0.387361 0.404874
O O3 0.500525 0.413997 0.300065
O O4 0.001420 0.412833 0.299342
O O5 0.748425 0.321129 0.896138
O O6 0.500000 0.353331 0.000000
O O7 0.750000 0.250000 0.000000
O O8 0.000000 0.353322 0.000000
O O9 0.500000 0.440859 0.500000
O O10 0.247927 0.340624 0.475998
O O11 0.000000 0.441063 0.500000
O O12 0.251966 0.681226 0.348968
O O13 0.259921 0.657338 0.225029
O O14 0.522705 0.254317 0.428427
O O15 0.535291 0.242336 0.817787
#
# Coordination Sequence:
#
# PCOD8078367 Si02
#       6
#     8   8   8   8   8   8
#     4  12  26  48  66  80 110 147 196 277 324 342
#     4  10  16  30  51  82 126 171 202 217 258 321
#     4  12  23  43  61  89 107 142 206 244 298 378
#     4  12  25  44  57  92 116 150 214 233 288 380
#     4  12  24  40  58  82 123 158 180 231 288 350
#     4  12  21  35  58  89 131 176 189 231 273 338
#
# _framework density 20.077325999999999
#
# number of rings (size 3 to 8) (size 9 to 14) (size 15 to 20)
#    0.000    0.333    6.667    4.500    0.000    2.667 
#    0.000    0.000    0.000    0.000    0.000    0.000 
#    0.000   13.333    0.000    0.000    0.000    0.000 
#
# Total GULP energy -297515.683529 kJ/mol
# GULP energy per Si atom -12396.486814 kJ/mol
# Density = 2.003163 g / cm^3
# Si number density = 20.077326 Si / 1000 Ang^3
#
#
#
# Elastic Constant Matrix: (Units=GPa)
#
#
# Indices 1 2 3 4 5 6 
#
# 1 194.0902 22.4129 48.3136 0.0000 -13.2422 0.0000
# 2 22.4129 58.7963 45.5858 0.0000 3.6088 0.0000
# 3 48.3136 45.5858 158.6353 0.0000 11.0712 0.0000
# 4 0.0000 0.0000 0.0000 4.5616 0.0000 2.2753
# 5 -13.2422 3.6088 11.0712 0.0000 30.3097 0.0000
# 6 0.0000 0.0000 0.0000 2.2753 0.0000 -9.9714
#
#
#
# Elastic Compliance Matrix: (Units=1/GPa)
#
#
# Indices 1 2 3 4 5 6 
#
# 1 0.005940 -0.001140 -0.001716 0.000000 0.003358 0.000000
# 2 -0.001140 0.022105 -0.005938 0.000000 -0.000961 0.000000
# 3 -0.001716 -0.005938 0.008759 0.000000 -0.003242 0.000000
# 4 0.000000 0.000000 0.000000 0.196819 0.000000 0.044911
# 5 0.003358 -0.000961 -0.003242 0.000000 0.035758 0.000000
# 6 0.000000 0.000000 0.000000 0.044911 0.000000 -0.090038
#
#
# Mechanical properties :
#
#
# Convention : Reuss Voigt Hill
#
# Bulk Modulus (GPa) = 52.03839 71.57181 61.80510
# Shear Modulus (GPa) = 24.58978 24.66061 24.62520
#
# Velocity S-wave (km/s) = 3.50344 3.50849 3.50597
# Velocity P-wave (km/s) = 6.50698 7.22067 6.87309
#
# Compressibility (1/GPa) = 0.01921658
#
# Stress axis : x y z
#
# Youngs Moduli (GPa) = 168.34753 45.23811 114.16931
#
# Poissons Ratio (x) = 0.05158 0.19589
# Poissons Ratio (y) = 0.19194 0.67793
# Poissons Ratio (z) = 0.28885 0.26862
#
# Static dielectric constant tensor:
#      x y z
#    x 7.491450 0.000000 -0.511180 
#    y 0.000000 3.162200 0.000000 
#    z -0.511180 0.000000 3.728180 
# 
# 
# High freq. dielectric constant tensor:
#      x y z
#    x 1.833630 0.000000 -0.008390 
#    y 0.000000 1.731040 0.000000 
#    z -0.008390 0.000000 1.778420 
# 
# From -- ./inp_files/297922.got.cif
#   From: 2010.06.25/outbox.cif.g09.slc.cpg/sg12_149_cif.got.tgz:297922.got - 2010.06.28 00:19:55.
