data_PCOD8078613
_publ_section_title
;
Structure prediction by ZEFSAII (Michael W. Deem and Ramdas Pophale) SiO2 
 PCOD8078613
Probable space group: C 2/M
;
_chemical_formula_sum "Si O2"
_cell_formula_units_Z 64
_cell_length_a 29.562096
_cell_length_b 9.132330
_cell_length_c 26.361499
_cell_angle_alpha 90.000000
_cell_angle_beta 147.728867
_cell_angle_gamma 90.000000
_cell_volume 3799.866434
_symmetry_space_group_name_H-M "C 2/M"
_symmetry_group_IT_number 12
_symmetry_cell_setting 'monoclinic'
loop_
_space_group_symop_operation_xyz
x,y,z
-x,y,-z
-x,-y,-z
x,-y,z
1/2+x,1/2+y,z
1/2-x,1/2+y,-z
1/2-x,1/2-y,-z
1/2+x,1/2-y,z
loop_
_atom_site_type_symbol
_atom_site_label
_atom_site_fract_x
_atom_site_fract_y
_atom_site_fract_z
Si Si1 0.965415 0.174219 0.853744
Si Si2 0.559691 0.673381 0.847890
Si Si3 0.273598 0.331096 0.938128
Si Si4 0.599292 0.326161 0.776968
Si Si5 0.132566 0.826667 0.604925
Si Si6 0.533555 0.673491 0.608614
Si Si7 0.807103 0.826010 0.765604
Si Si8 0.875223 0.831148 0.935618
O O1 0.871778 0.221957 0.782171
O O2 0.985901 0.232877 0.815901
O O3 0.973882 0.000000 0.862551
O O4 0.036598 0.238127 0.960097
O O5 0.559947 0.500000 0.851826
O O6 0.545750 0.723488 0.776261
O O7 0.651419 0.726977 0.954431
O O8 0.251116 0.500000 0.927680
O O9 0.193510 0.231496 0.873006
O O10 0.300801 0.309435 0.905657
O O11 0.603976 0.500000 0.777771
O O12 0.555553 0.260210 0.684872
O O13 0.103744 0.775932 0.634004
O O14 0.217602 0.746581 0.668684
O O15 0.059912 0.775036 0.496631
O O16 0.146566 0.000000 0.616038
O O17 0.534272 0.500000 0.610918
O O18 0.844720 0.760329 0.853800
O O19 0.794854 0.000000 0.756399
O O20 0.892775 0.000000 0.941083
#
# Coordination Sequence:
#
# PCOD8078613 Si02
#       8
#     8   8   8   8   8   8   8   8
#     4   8  14  25  40  59  84 111 136 163 195 230
#     4   8  15  26  40  59  83 110 137 165 194 229
#     4   9  16  26  39  59  88 113 130 155 200 245
#     4  10  17  26  43  63  79 101 140 175 194 227
#     4   9  17  31  46  59  81 108 131 161 206 249
#     4   8  16  30  46  61  78 106 138 163 194 244
#     4  10  17  25  43  67  83 101 136 172 197 229
#     4   8  14  24  39  60  85 111 136 160 189 234
#
# _framework density 16.842696
#
# number of rings (size 3 to 8) (size 9 to 14) (size 15 to 20)
#    0.000    3.250    0.000    3.750    0.000    1.500 
#    0.000    1.875    0.000    6.000    0.000    0.000 
#    0.000    0.000    0.000    0.000    0.000    0.000 
#
# Total GULP energy -396506.417779 kJ/mol
# GULP energy per Si atom -12390.825556 kJ/mol
# Density = 1.680436 g / cm^3
# Si number density = 16.842696 Si / 1000 Ang^3
#
#
#
# Elastic Constant Matrix: (Units=GPa)
#
#
# Indices 1 2 3 4 5 6 
#
# 1 138.2820 20.2700 79.8715 0.0000 -3.2436 0.0000
# 2 20.2700 14.4008 16.5585 0.0000 3.0899 0.0000
# 3 79.8715 16.5585 94.3730 0.0000 6.7865 0.0000
# 4 0.0000 0.0000 0.0000 20.0649 0.0000 5.7207
# 5 -3.2436 3.0899 6.7865 0.0000 29.9980 0.0000
# 6 0.0000 0.0000 0.0000 5.7207 0.0000 13.2717
#
#
#
# Elastic Compliance Matrix: (Units=1/GPa)
#
#
# Indices 1 2 3 4 5 6 
#
# 1 0.015664 -0.009413 -0.011992 0.000000 0.005376 0.000000
# 2 -0.009413 0.093581 -0.007814 0.000000 -0.008889 0.000000
# 3 -0.011992 -0.007814 0.022519 0.000000 -0.005586 0.000000
# 4 0.000000 0.000000 0.000000 0.056821 0.000000 -0.024492
# 5 0.005376 -0.008889 -0.005586 0.000000 0.036096 0.000000
# 6 0.000000 0.000000 0.000000 -0.024492 0.000000 0.085905
#
#
# Mechanical properties :
#
#
# Convention : Reuss Voigt Hill
#
# Bulk Modulus (GPa) = 13.63770 53.38398 33.51084
# Shear Modulus (GPa) = 12.70754 21.35731 17.03242
#
# Velocity S-wave (km/s) = 2.74977 3.56483 3.18349
# Velocity P-wave (km/s) = 4.26571 6.97914 5.78380
#
# Compressibility (1/GPa) = 0.07332615
#
# Stress axis : x y z
#
# Youngs Moduli (GPa) = 63.83970 10.68588 44.40790
#
# Poissons Ratio (x) = 0.10058 0.53255
# Poissons Ratio (y) = 0.60091 0.34700
# Poissons Ratio (z) = 0.76559 0.08350
#
# Static dielectric constant tensor:
#      x y z
#    x 3.650300 0.000000 -0.200960 
#    y 0.000000 2.626720 0.000000 
#    z -0.200960 0.000000 3.183000 
# 
# 
# High freq. dielectric constant tensor:
#      x y z
#    x 1.658560 0.000000 -0.001770 
#    y 0.000000 1.594250 0.000000 
#    z -0.001770 0.000000 1.632200 
# 
# From -- ./inp_files/369221.got.cif
#   From: 2010.06.25/outbox.cif.g09.slc.cpg/sg12_185_cif.got.tgz:369221.got - 2010.06.28 00:19:55.
