data_PCOD8078309
_publ_section_title
;
Structure prediction by ZEFSAII (Michael W. Deem and Ramdas Pophale) SiO2 
 PCOD8078309
Probable space group: C 2/M
;
_chemical_formula_sum "Si O2"
_cell_formula_units_Z 48
_cell_length_a 17.385081
_cell_length_b 13.809555
_cell_length_c 11.162983
_cell_angle_alpha 90.000000
_cell_angle_beta 72.144364
_cell_angle_gamma 90.000000
_cell_volume 2550.921034
_symmetry_space_group_name_H-M "C 2/M"
_symmetry_group_IT_number 12
_symmetry_cell_setting 'monoclinic'
loop_
_space_group_symop_operation_xyz
x,y,z
-x,y,-z
-x,-y,-z
x,-y,z
1/2+x,1/2+y,z
1/2-x,1/2+y,-z
1/2-x,1/2-y,-z
1/2+x,1/2-y,z
loop_
_atom_site_type_symbol
_atom_site_label
_atom_site_fract_x
_atom_site_fract_y
_atom_site_fract_z
Si Si1 0.115567 0.608626 0.177439
Si Si2 0.291940 0.888678 0.522521
Si Si3 0.916985 0.264077 0.597016
Si Si4 0.294680 0.394502 0.200227
Si Si5 0.783457 0.887267 0.692340
Si Si6 0.684352 0.212962 0.939095
O O1 0.080524 0.500000 0.182768
O O2 0.062332 0.668911 0.297562
O O3 0.206698 0.606735 0.182206
O O4 0.113142 0.659771 0.047264
O O5 0.368726 0.824432 0.520160
O O6 0.218575 0.875454 0.652388
O O7 0.259270 0.854528 0.410043
O O8 0.320717 0.000000 0.506064
O O9 0.866392 0.171821 0.667042
O O10 0.000000 0.226749 0.500000
O O11 0.335812 0.500000 0.158620
O O12 0.348449 0.307749 0.118099
O O13 0.723654 0.864088 0.829899
O O14 0.805261 0.000000 0.682328
O O15 0.750000 0.250000 0.000000
#
# Coordination Sequence:
#
# PCOD8078309 Si02
#       6
#     8   8   8   8   8   8
#     4   9  17  30  46  71 101 128 168 215 256 302
#     4   9  18  33  53  79 104 131 171 219 265 303
#     4  11  21  34  53  76 106 143 174 208 256 314
#     4   8  14  25  45  71  99 124 157 209 257 298
#     4  11  21  33  53  79 108 136 169 218 266 306
#     4  10  16  29  48  75 103 132 168 216 265 300
#
# _framework density 18.816734
#
# number of rings (size 3 to 8) (size 9 to 14) (size 15 to 20)
#    0.000    2.333    5.000    2.500    0.000    2.333 
#    0.000    0.000    0.000    1.000    0.000    3.500 
#    0.000    5.333    0.000    0.000    0.000    0.000 
#
# Total GULP energy -297477.772452 kJ/mol
# GULP energy per Si atom -12394.907185 kJ/mol
# Density = 1.877391 g / cm^3
# Si number density = 18.816734 Si / 1000 Ang^3
#
#
#
# Elastic Constant Matrix: (Units=GPa)
#
#
# Indices 1 2 3 4 5 6 
#
# 1 18.9565 19.7472 23.4923 0.0000 -1.3593 0.0000
# 2 19.7472 109.2759 47.5548 0.0000 -2.3546 0.0000
# 3 23.4923 47.5548 122.4812 0.0000 6.6004 0.0000
# 4 0.0000 0.0000 0.0000 35.9066 0.0000 7.5495
# 5 -1.3593 -2.3546 6.6004 0.0000 21.2661 0.0000
# 6 0.0000 0.0000 0.0000 7.5495 0.0000 10.1153
#
#
#
# Elastic Compliance Matrix: (Units=1/GPa)
#
#
# Indices 1 2 3 4 5 6 
#
# 1 0.076901 -0.008585 -0.011828 0.000000 0.007636 0.000000
# 2 -0.008585 0.012112 -0.003151 0.000000 0.001771 0.000000
# 3 -0.011828 -0.003151 0.011916 0.000000 -0.004803 0.000000
# 4 0.000000 0.000000 0.000000 0.033034 0.000000 -0.024655
# 5 0.007636 0.001771 -0.004803 0.000000 0.049198 0.000000
# 6 0.000000 0.000000 0.000000 -0.024655 0.000000 0.117262
#
#
# Mechanical properties :
#
#
# Convention : Reuss Voigt Hill
#
# Bulk Modulus (GPa) = 18.58737 48.03358 33.31048
# Shear Modulus (GPa) = 13.68045 24.11887 18.89966
#
# Velocity S-wave (km/s) = 2.69929 3.58408 3.17268
# Velocity P-wave (km/s) = 4.42882 6.53528 5.58231
#
# Compressibility (1/GPa) = 0.05379996
#
# Stress axis : x y z
#
# Youngs Moduli (GPa) = 13.00367 82.56175 83.92317
#
# Poissons Ratio (x) = 0.70878 0.99266
# Poissons Ratio (y) = 0.11164 0.26448
# Poissons Ratio (z) = 0.15381 0.26019
#
# Static dielectric constant tensor:
#      x y z
#    x 2.716580 0.000000 0.296540 
#    y 0.000000 4.038780 0.000000 
#    z 0.296540 0.000000 3.911200 
# 
# 
# High freq. dielectric constant tensor:
#      x y z
#    x 1.644020 0.000000 0.025440 
#    y 0.000000 1.753300 0.000000 
#    z 0.025440 0.000000 1.743190 
# 
# From -- ./inp_files/166149.got.cif
#   From: 2010.06.25/outbox.cif.g09.slc.cpg/sg12_84_cif.got.tgz:166149.got - 2010.06.28 00:19:55.
