data_PCOD8078628
_publ_section_title
;
Structure prediction by ZEFSAII (Michael W. Deem and Ramdas Pophale) SiO2 
 PCOD8078628
Probable space group: C 2/M
;
_chemical_formula_sum "Si O2"
_cell_formula_units_Z 64
_cell_length_a 24.525069
_cell_length_b 9.094703
_cell_length_c 27.560345
_cell_angle_alpha 90.000000
_cell_angle_beta 138.268517
_cell_angle_gamma 90.000000
_cell_volume 4091.882545
_symmetry_space_group_name_H-M "C 2/M"
_symmetry_group_IT_number 12
_symmetry_cell_setting 'monoclinic'
loop_
_space_group_symop_operation_xyz
x,y,z
-x,y,-z
-x,-y,-z
x,-y,z
1/2+x,1/2+y,z
1/2-x,1/2+y,-z
1/2-x,1/2-y,-z
1/2+x,1/2-y,z
loop_
_atom_site_type_symbol
_atom_site_label
_atom_site_fract_x
_atom_site_fract_y
_atom_site_fract_z
Si Si1 0.169149 0.165734 0.159075
Si Si2 0.493272 0.333770 0.884811
Si Si3 0.160487 0.169372 0.385164
Si Si4 0.903029 0.670821 0.745007
Si Si5 0.081468 0.666202 0.022118
Si Si6 0.413571 0.673166 0.458871
Si Si7 0.243584 0.171181 0.702521
Si Si8 0.670528 0.331086 0.500600
O O1 0.086945 0.167724 0.135586
O O2 0.154765 0.253952 0.099656
O O3 0.241332 0.241944 0.237584
O O4 0.195323 0.000000 0.163656
O O5 0.520860 0.500000 0.891728
O O6 0.475351 0.249302 0.822881
O O7 0.566219 0.251431 0.961606
O O8 0.099418 0.260882 0.310442
O O9 0.252787 0.225617 0.441198
O O10 0.130850 0.189819 0.421100
O O11 0.158326 0.000000 0.367681
O O12 0.924353 0.500000 0.755886
O O13 0.815568 0.699747 0.711815
O O14 0.108427 0.500000 0.028318
O O15 0.000000 0.667111 0.000000
O O16 0.500000 0.745026 0.500000
O O17 0.417065 0.500000 0.453552
O O18 0.339857 0.733660 0.376431
O O19 0.397452 0.711550 0.504589
O O20 0.238355 0.000000 0.712128
O O21 0.700338 0.500000 0.527826
#
# Coordination Sequence:
#
# PCOD8078628 Si02
#       8
#     8   8   8   8   8   8   8   8
#     4   9  16  24  35  50  70  98 130 166 201 234
#     4   9  16  24  34  51  75 101 132 164 198 238
#     4  10  18  26  41  60  81 105 132 168 208 246
#     4  10  17  26  39  55  78 105 135 169 203 239
#     4   9  15  23  34  49  70  99 133 164 196 233
#     4   9  16  28  46  63  79 103 136 174 212 249
#     4   9  16  26  39  55  74  98 131 169 203 242
#     4   9  17  30  43  60  80 102 133 169 207 250
#
# _framework density 15.640722999999999
#
# number of rings (size 3 to 8) (size 9 to 14) (size 15 to 20)
#    0.000    2.750    1.250    1.875    0.000    5.500 
#    0.000    0.000    0.000    1.500    0.000    0.000 
#    0.000    0.000    0.000    1.125    0.000   11.375 
#
# Total GULP energy -396731.353166 kJ/mol
# GULP energy per Si atom -12397.854786 kJ/mol
# Density = 1.560512 g / cm^3
# Si number density = 15.640723 Si / 1000 Ang^3
#
#
#
# Elastic Constant Matrix: (Units=GPa)
#
#
# Indices 1 2 3 4 5 6 
#
# 1 49.0986 22.5086 37.7774 0.0000 -7.6904 0.0000
# 2 22.5086 108.2488 66.9036 0.0000 -16.0766 0.0000
# 3 37.7774 66.9036 139.2594 0.0000 -25.5615 0.0000
# 4 0.0000 0.0000 0.0000 31.6220 0.0000 -7.0722
# 5 -7.6904 -16.0766 -25.5615 0.0000 15.8172 0.0000
# 6 0.0000 0.0000 0.0000 -7.0722 0.0000 8.3747
#
#
#
# Elastic Compliance Matrix: (Units=1/GPa)
#
#
# Indices 1 2 3 4 5 6 
#
# 1 0.025924 -0.001421 -0.006115 0.000000 0.001277 0.000000
# 2 -0.001421 0.013445 -0.005249 0.000000 0.004491 0.000000
# 3 -0.006115 -0.005249 0.013985 0.000000 0.014292 0.000000
# 4 0.000000 0.000000 0.000000 0.038987 0.000000 0.032923
# 5 0.001277 0.004491 0.014292 0.000000 0.091504 0.000000
# 6 0.000000 0.000000 0.000000 0.032923 0.000000 0.147209
#
#
# Mechanical properties :
#
#
# Convention : Reuss Voigt Hill
#
# Bulk Modulus (GPa) = 35.99434 61.22066 48.60750
# Shear Modulus (GPa) = 13.66542 22.45727 18.06135
#
# Velocity S-wave (km/s) = 2.95906 3.79333 3.40187
# Velocity P-wave (km/s) = 5.89389 7.64282 6.82461
#
# Compressibility (1/GPa) = 0.02778214
#
# Stress axis : x y z
#
# Youngs Moduli (GPa) = 38.57429 74.37775 71.50527
#
# Poissons Ratio (x) = 0.10571 0.43727
# Poissons Ratio (y) = 0.05482 0.37535
# Poissons Ratio (z) = 0.23589 0.39043
#
# Static dielectric constant tensor:
#      x y z
#    x 2.532740 0.000000 -0.204990 
#    y 0.000000 3.049040 0.000000 
#    z -0.204990 0.000000 3.176590 
# 
# 
# High freq. dielectric constant tensor:
#      x y z
#    x 1.522470 0.000000 -0.028290 
#    y 0.000000 1.604660 0.000000 
#    z -0.028290 0.000000 1.610290 
# 
# From -- ./inp_files/367055.got.cif
#   From: 2010.06.25/outbox.cif.g09.slc.cpg/sg12_184_cif.got.tgz:367055.got - 2010.06.28 00:19:55.
