data_PCOD8078974
_publ_section_title
;
Structure prediction by ZEFSAII (Michael W. Deem and Ramdas Pophale) SiO2 
 PCOD8078974
Probable space group: C 2/M
;
_chemical_formula_sum "Si O2"
_cell_formula_units_Z 64
_cell_length_a 24.430751
_cell_length_b 16.148025
_cell_length_c 9.820113
_cell_angle_alpha 90.000000
_cell_angle_beta 74.179193
_cell_angle_gamma 90.000000
_cell_volume 3727.361629
_symmetry_space_group_name_H-M "C 2/M"
_symmetry_group_IT_number 12
_symmetry_cell_setting 'monoclinic'
loop_
_space_group_symop_operation_xyz
x,y,z
-x,y,-z
-x,-y,-z
x,-y,z
1/2+x,1/2+y,z
1/2-x,1/2+y,-z
1/2-x,1/2-y,-z
1/2+x,1/2-y,z
loop_
_atom_site_type_symbol
_atom_site_label
_atom_site_fract_x
_atom_site_fract_y
_atom_site_fract_z
Si Si1 0.862292 0.596907 0.852016
Si Si2 0.143564 0.265658 0.366677
Si Si3 0.224471 0.204523 0.711004
Si Si4 0.268577 0.406563 0.047099
Si Si5 0.563931 0.903010 0.934324
Si Si6 0.668508 0.593166 0.271061
Si Si7 0.860050 0.669888 0.341390
Si Si8 0.749275 0.588233 0.461511
O O1 0.871996 0.500000 0.800550
O O2 0.878653 0.661368 0.719558
O O3 0.797309 0.612218 0.940278
O O4 0.899975 0.619909 0.956851
O O5 0.211880 0.261987 0.317320
O O6 0.125785 0.170279 0.337434
O O7 0.119017 0.284490 0.534361
O O8 0.207002 0.148555 0.848804
O O9 0.178203 0.275605 0.734290
O O10 0.219245 0.157416 0.571522
O O11 0.275350 0.500000 0.091308
O O12 0.307696 0.386525 0.893205
O O13 0.586176 0.859671 0.781633
O O14 0.565807 0.000000 0.904961
O O15 0.500000 0.871180 0.000000
O O16 0.639570 0.500000 0.295850
O O17 0.723691 0.592009 0.328938
O O18 0.817936 0.595546 0.412973
O O19 0.736472 0.500000 0.539407
#
# Coordination Sequence:
#
# PCOD8078974 Si02
#       8
#     8   8   8   8   8   8   8   8
#     4   9  19  33  51  73  99 135 171 206 255 301
#     4  10  19  31  47  73 108 133 167 204 244 300
#     4  10  18  28  42  69 103 132 170 199 243 290
#     4   9  18  28  42  67 102 139 172 196 235 295
#     4  10  22  39  55  72  95 126 171 222 261 297
#     4  10  18  28  41  65 102 139 168 196 229 282
#     4  11  19  31  47  73  96 135 173 202 250 298
#     4  10  17  28  44  64 100 138 168 197 233 294
#
# _framework density 17.170321999999999
#
# number of rings (size 3 to 8) (size 9 to 14) (size 15 to 20)
#    0.000    2.125    2.500    2.250    1.750    6.500 
#    0.000    0.625    0.000    2.250    0.000    0.000 
#    0.000    9.000    0.000    0.000    0.000    0.000 
#
# Total GULP energy -396538.407186 kJ/mol
# GULP energy per Si atom -12391.825225 kJ/mol
# Density = 1.713124 g / cm^3
# Si number density = 17.170322 Si / 1000 Ang^3
#
#
#
# Elastic Constant Matrix: (Units=GPa)
#
#
# Indices 1 2 3 4 5 6 
#
# 1 35.1912 18.7699 29.6997 0.0000 -4.8590 0.0000
# 2 18.7699 101.6764 47.0370 0.0000 2.4107 0.0000
# 3 29.6997 47.0370 106.4965 0.0000 3.4067 0.0000
# 4 0.0000 0.0000 0.0000 33.9817 0.0000 0.5681
# 5 -4.8590 2.4107 3.4067 0.0000 17.4880 0.0000
# 6 0.0000 0.0000 0.0000 0.5681 0.0000 16.4270
#
#
#
# Elastic Compliance Matrix: (Units=1/GPa)
#
#
# Indices 1 2 3 4 5 6 
#
# 1 0.040769 -0.003003 -0.010484 0.000000 0.013784 0.000000
# 2 -0.003003 0.012589 -0.004670 0.000000 -0.001660 0.000000
# 3 -0.010484 -0.004670 0.014540 0.000000 -0.005102 0.000000
# 4 0.000000 0.000000 0.000000 0.029445 0.000000 -0.001018
# 5 0.013784 -0.001660 -0.005102 0.000000 0.062234 0.000000
# 6 0.000000 0.000000 0.000000 -0.001018 0.000000 0.060910
#
#
# Mechanical properties :
#
#
# Convention : Reuss Voigt Hill
#
# Bulk Modulus (GPa) = 31.66152 48.26414 39.96283
# Shear Modulus (GPa) = 18.70351 23.43653 21.07002
#
# Velocity S-wave (km/s) = 3.30402 3.69852 3.50683
# Velocity P-wave (km/s) = 5.74762 6.81240 6.30254
#
# Compressibility (1/GPa) = 0.03158409
#
# Stress axis : x y z
#
# Youngs Moduli (GPa) = 24.52827 79.43364 68.77766
#
# Poissons Ratio (x) = 0.23852 0.72109
# Poissons Ratio (y) = 0.07365 0.32118
# Poissons Ratio (z) = 0.25716 0.37094
#
# Static dielectric constant tensor:
#      x y z
#    x 2.717900 0.000000 0.177380 
#    y 0.000000 3.638130 0.000000 
#    z 0.177380 0.000000 3.251290 
# 
# 
# High freq. dielectric constant tensor:
#      x y z
#    x 1.590090 0.000000 0.022140 
#    y 0.000000 1.680090 0.000000 
#    z 0.022140 0.000000 1.671480 
# 
# From -- ./inp_files/97720.got.cif
#   From: 2010.06.25/outbox.cif.g09.slc.cpg/sg12_49_cif.got.tgz:97720.got - 2010.06.28 00:19:55.
