data_PCOD8078356
_publ_section_title
;
Structure prediction by ZEFSAII (Michael W. Deem and Ramdas Pophale) SiO2 
 PCOD8078356
Probable space group: C 2/M
;
_chemical_formula_sum "Si O2"
_cell_formula_units_Z 48
_cell_length_a 20.746879
_cell_length_b 16.905127
_cell_length_c 7.902199
_cell_angle_alpha 90.000000
_cell_angle_beta 88.435217
_cell_angle_gamma 90.000000
_cell_volume 2770.493850
_symmetry_space_group_name_H-M "C 2/M"
_symmetry_group_IT_number 12
_symmetry_cell_setting 'monoclinic'
loop_
_space_group_symop_operation_xyz
x,y,z
-x,y,-z
-x,-y,-z
x,-y,z
1/2+x,1/2+y,z
1/2-x,1/2+y,-z
1/2-x,1/2-y,-z
1/2+x,1/2-y,z
loop_
_atom_site_type_symbol
_atom_site_label
_atom_site_fract_x
_atom_site_fract_y
_atom_site_fract_z
Si Si1 0.767728 0.330650 0.178605
Si Si2 0.368065 0.592708 0.792724
Si Si3 0.184549 0.302491 0.496000
Si Si4 0.881955 0.911159 0.172574
Si Si5 0.744652 0.148138 0.178674
Si Si6 0.927492 0.179896 0.489045
O O1 0.695633 0.355848 0.234316
O O2 0.816026 0.353918 0.329699
O O3 0.773312 0.236219 0.158258
O O4 0.788145 0.373074 0.000854
O O5 0.351457 0.500000 0.785077
O O6 0.416763 0.614989 0.638010
O O7 0.397359 0.613807 0.976435
O O8 0.250000 0.250000 0.500000
O O9 0.191818 0.359494 0.331722
O O10 0.119692 0.253472 0.480703
O O11 0.804930 0.908851 0.210503
O O12 0.918475 0.855649 0.302397
O O13 0.906134 0.000000 0.203057
O O14 0.000000 0.211695 0.500000
#
# Coordination Sequence:
#
# PCOD8078356 Si02
#       6
#     8   8   8   8   8   8
#     4   9  15  27  50  69  83 113 154 194 234 269
#     4  10  20  33  48  69  96 126 160 193 225 270
#     4  10  16  30  50  67  83 115 156 196 232 268
#     4  10  20  33  48  69  96 126 160 193 225 270
#     4   9  15  27  50  69  83 113 154 194 234 269
#     4  12  23  33  46  68  96 129 166 194 221 267
#
# _framework density 17.325430999999998
#
# number of rings (size 3 to 8) (size 9 to 14) (size 15 to 20)
#    0.000    2.000    6.667    0.500    0.000    2.000 
#    0.000    1.667    0.000    0.000    0.000    0.000 
#    0.000    2.667    0.000    8.333    0.000    0.000 
#
# Total GULP energy -297367.573545 kJ/mol
# GULP energy per Si atom -12390.315564 kJ/mol
# Density = 1.728600 g / cm^3
# Si number density = 17.325431 Si / 1000 Ang^3
#
#
#
# Elastic Constant Matrix: (Units=GPa)
#
#
# Indices 1 2 3 4 5 6 
#
# 1 74.6258 18.7914 42.9458 0.0000 7.0579 0.0000
# 2 18.7914 10.4570 11.7806 0.0000 2.6413 0.0000
# 3 42.9458 11.7806 155.0097 0.0000 11.9311 0.0000
# 4 0.0000 0.0000 0.0000 18.9140 0.0000 -0.8514
# 5 7.0579 2.6413 11.9311 0.0000 16.0429 0.0000
# 6 0.0000 0.0000 0.0000 -0.8514 0.0000 11.2600
#
#
#
# Elastic Compliance Matrix: (Units=1/GPa)
#
#
# Indices 1 2 3 4 5 6 
#
# 1 0.026700 -0.043054 -0.003996 0.000000 -0.001687 0.000000
# 2 -0.043054 0.176230 -0.000732 0.000000 -0.009529 0.000000
# 3 -0.003996 -0.000732 0.007923 0.000000 -0.004014 0.000000
# 4 0.000000 0.000000 0.000000 0.053051 0.000000 0.004011
# 5 -0.001687 -0.009529 -0.004014 0.000000 0.067629 0.000000
# 6 0.000000 0.000000 0.000000 0.004011 0.000000 0.089114
#
#
# Mechanical properties :
#
#
# Convention : Reuss Voigt Hill
#
# Bulk Modulus (GPa) = 8.67371 43.01424 25.84398
# Shear Modulus (GPa) = 9.01486 20.34836 14.68161
#
# Velocity S-wave (km/s) = 2.28354 3.43079 2.91418
# Velocity P-wave (km/s) = 3.45976 6.36984 5.12566
#
# Compressibility (1/GPa) = 0.11529087
#
# Stress axis : x y z
#
# Youngs Moduli (GPa) = 37.45256 5.67440 126.21913
#
# Poissons Ratio (x) = 0.24431 0.50431
# Poissons Ratio (y) = 1.61248 0.09235
# Poissons Ratio (z) = 0.14964 0.00415
#
# Static dielectric constant tensor:
#      x y z
#    x 2.826530 0.000000 0.086590 
#    y 0.000000 2.856670 0.000000 
#    z 0.086590 0.000000 4.619010 
# 
# 
# High freq. dielectric constant tensor:
#      x y z
#    x 1.615590 0.000000 0.004220 
#    y 0.000000 1.622900 0.000000 
#    z 0.004220 0.000000 1.712030 
# 
# From -- ./inp_files/74567.got.cif
#   From: 2010.06.25/outbox.cif.g09.slc.cpg/sg12_38_cif.got.tgz:74567.got - 2010.06.28 00:19:55.
