data_PCOD8078184
_publ_section_title
;
Structure prediction by ZEFSAII (Michael W. Deem and Ramdas Pophale) SiO2 
 PCOD8078184
Probable space group: C 2/M
;
_chemical_formula_sum "Si O2"
_cell_formula_units_Z 64
_cell_length_a 19.728449
_cell_length_b 22.137976
_cell_length_c 8.985413
_cell_angle_alpha 90.000000
_cell_angle_beta 79.172022
_cell_angle_gamma 90.000000
_cell_volume 3854.489780
_symmetry_space_group_name_H-M "C 2/M"
_symmetry_group_IT_number 12
_symmetry_cell_setting 'monoclinic'
loop_
_space_group_symop_operation_xyz
x,y,z
-x,y,-z
-x,-y,-z
x,-y,z
1/2+x,1/2+y,z
1/2-x,1/2+y,-z
1/2-x,1/2-y,-z
1/2+x,1/2-y,z
loop_
_atom_site_type_symbol
_atom_site_label
_atom_site_fract_x
_atom_site_fract_y
_atom_site_fract_z
Si Si1 0.580361 0.806692 0.940407
Si Si2 0.183657 0.257221 0.127168
Si Si3 0.229441 0.567670 0.551552
Si Si4 0.099451 0.567508 0.821761
Si Si5 0.148829 0.273065 0.615721
Si Si6 0.844084 0.641197 0.647395
Si Si7 0.299762 0.319850 0.615741
Si Si8 0.030735 0.568110 0.327106
O O1 0.607107 0.877109 0.934413
O O2 0.596312 0.775222 0.774976
O O3 0.500000 0.802310 0.000000
O O4 0.616872 0.768793 0.054607
O O5 0.198520 0.313461 0.230820
O O6 0.169936 0.197211 0.233756
O O7 0.250000 0.250000 0.000000
O O8 0.258341 0.500000 0.527243
O O9 0.160676 0.570136 0.678667
O O10 0.209008 0.591350 0.395530
O O11 0.290722 0.608108 0.598129
O O12 0.098521 0.500000 0.897218
O O13 0.026428 0.580450 0.773330
O O14 0.123375 0.321803 0.504458
O O15 0.224465 0.289780 0.642347
O O16 0.151944 0.206951 0.536325
O O17 0.904244 0.611900 0.722685
O O18 0.058320 0.500000 0.306276
O O19 0.000000 0.581235 0.500000
#
# Coordination Sequence:
#
# PCOD8078184 Si02
#       8
#     8   8   8   8   8   8   8   8
#     4  12  22  34  48  74 104 137 178 214 248 295
#     4  11  21  33  51  71  98 135 174 206 258 301
#     4  10  17  29  52  76  97 123 169 218 250 286
#     4  10  19  31  44  63 100 146 180 205 238 282
#     4   9  17  32  52  68  93 130 173 208 256 293
#     4  10  18  29  47  70  92 128 176 214 237 279
#     4   9  17  33  54  72  90 130 170 208 253 308
#     4  10  16  25  42  65  96 135 175 209 235 265
#
# _framework density 16.604012000000001
#
# number of rings (size 3 to 8) (size 9 to 14) (size 15 to 20)
#    0.000    1.875    5.000    1.875    0.000    0.250 
#    0.000    3.125    0.000    1.500    0.000    0.000 
#    0.000    3.000    0.000    0.000    0.000    0.000 
#
# Total GULP energy -396639.182914 kJ/mol
# GULP energy per Si atom -12394.974466 kJ/mol
# Density = 1.656622 g / cm^3
# Si number density = 16.604012 Si / 1000 Ang^3
#
#
#
# Elastic Constant Matrix: (Units=GPa)
#
#
# Indices 1 2 3 4 5 6 
#
# 1 44.4073 41.7622 26.2438 0.0000 -1.2267 0.0000
# 2 41.7622 122.4382 44.0393 0.0000 -0.1112 0.0000
# 3 26.2438 44.0393 85.0577 0.0000 -2.3739 0.0000
# 4 0.0000 0.0000 0.0000 22.0652 0.0000 3.5820
# 5 -1.2267 -0.1112 -2.3739 0.0000 16.7103 0.0000
# 6 0.0000 0.0000 0.0000 3.5820 0.0000 29.0088
#
#
#
# Elastic Compliance Matrix: (Units=1/GPa)
#
#
# Indices 1 2 3 4 5 6 
#
# 1 0.035331 -0.010010 -0.005670 0.000000 0.001721 0.000000
# 2 -0.010010 0.012880 -0.003613 0.000000 -0.001162 0.000000
# 3 -0.005670 -0.003613 0.015426 0.000000 0.001751 0.000000
# 4 0.000000 0.000000 0.000000 0.046247 0.000000 -0.005711
# 5 0.001721 -0.001162 0.001751 0.000000 0.060211 0.000000
# 6 0.000000 0.000000 0.000000 -0.005711 0.000000 0.035177
#
#
# Mechanical properties :
#
#
# Convention : Reuss Voigt Hill
#
# Bulk Modulus (GPa) = 39.91883 52.88821 46.40352
# Shear Modulus (GPa) = 19.82486 22.88071 21.35278
#
# Velocity S-wave (km/s) = 3.45915 3.71620 3.58998
# Velocity P-wave (km/s) = 6.32836 7.09474 6.72248
#
# Compressibility (1/GPa) = 0.02505084
#
# Stress axis : x y z
#
# Youngs Moduli (GPa) = 28.30368 77.63958 64.82710
#
# Poissons Ratio (x) = 0.77716 0.36759
# Poissons Ratio (y) = 0.28332 0.23420
# Poissons Ratio (z) = 0.16049 0.28049
#
# Static dielectric constant tensor:
#      x y z
#    x 2.818200 0.000000 -0.038080 
#    y 0.000000 3.396590 0.000000 
#    z -0.038080 0.000000 2.943560 
# 
# 
# High freq. dielectric constant tensor:
#      x y z
#    x 1.598980 0.000000 0.009060 
#    y 0.000000 1.629930 0.000000 
#    z 0.009060 0.000000 1.644260 
# 
# From -- ./inp_files/90129.got.cif
#   From: 2010.06.25/outbox.cif.g09.slc.cpg/sg12_46_cif.got.tgz:90129.got - 2010.06.28 00:19:55.
