data_PCOD8078855
_publ_section_title
;
Structure prediction by ZEFSAII (Michael W. Deem and Ramdas Pophale) SiO2 
 PCOD8078855
Probable space group: C 2/M
;
_chemical_formula_sum "Si O2"
_cell_formula_units_Z 56
_cell_length_a 16.864329
_cell_length_b 21.826503
_cell_length_c 11.949097
_cell_angle_alpha 90.000000
_cell_angle_beta 133.190128
_cell_angle_gamma 90.000000
_cell_volume 3206.767007
_symmetry_space_group_name_H-M "C 2/M"
_symmetry_group_IT_number 12
_symmetry_cell_setting 'monoclinic'
loop_
_space_group_symop_operation_xyz
x,y,z
-x,y,-z
-x,-y,-z
x,-y,z
1/2+x,1/2+y,z
1/2-x,1/2+y,-z
1/2-x,1/2-y,-z
1/2+x,1/2-y,z
loop_
_atom_site_type_symbol
_atom_site_label
_atom_site_fract_x
_atom_site_fract_y
_atom_site_fract_z
Si Si1 0.873944 0.699155 0.849754
Si Si2 0.883114 0.674669 0.605168
Si Si3 0.005759 0.432712 0.629786
Si Si4 0.749586 0.178927 0.735815
Si Si5 0.244207 0.159255 0.917541
Si Si6 0.601333 0.768813 0.768053
Si Si7 0.743441 0.568687 0.101495
O O1 0.843664 0.685197 0.692661
O O2 0.841083 0.769525 0.846909
O O3 0.800343 0.651001 0.850052
O O4 0.000000 0.689909 0.000000
O O5 0.777667 0.675146 0.422404
O O6 0.939763 0.608453 0.652697
O O7 0.971666 0.726502 0.657658
O O8 0.950962 0.500000 0.575704
O O9 0.128351 0.436900 0.786929
O O10 0.000000 0.403868 0.500000
O O11 0.637468 0.198043 0.688444
O O12 0.790499 0.113666 0.827796
O O13 0.132622 0.197472 0.797965
O O14 0.336068 0.197015 0.072209
O O15 0.208415 0.097332 0.947420
O O16 0.693154 0.500000 0.069474
#
# Coordination Sequence:
#
# PCOD8078855 Si02
#       7
#     8   8   8   8   8   8   8
#     4  11  21  32  47  67 102 137 155 190 250 294
#     4  12  18  30  47  74 100 131 158 197 240 297
#     4  10  17  27  44  69  96 124 155 191 234 282
#     4  10  20  31  47  74  99 122 163 208 240 287
#     4   9  17  31  44  70  92 125 165 196 230 292
#     4   9  16  28  50  65  92 124 161 201 238 268
#     4  10  18  30  52  71  93 125 164 206 239 277
#
# _framework density 17.463070999999999
#
# number of rings (size 3 to 8) (size 9 to 14) (size 15 to 20)
#    0.000    1.857    5.714    1.714    0.000    0.000 
#    0.000    0.714    0.000    3.000    0.000    0.000 
#    0.000    9.143    0.000    0.000    0.000    0.000 
#
# Total GULP energy -347012.212762 kJ/mol
# GULP energy per Si atom -12393.293313 kJ/mol
# Density = 1.742332 g / cm^3
# Si number density = 17.463071 Si / 1000 Ang^3
#
#
#
# Elastic Constant Matrix: (Units=GPa)
#
#
# Indices 1 2 3 4 5 6 
#
# 1 62.5571 27.1134 30.1303 0.0000 -24.3842 0.0000
# 2 27.1134 105.2579 33.6213 0.0000 -12.9082 0.0000
# 3 30.1303 33.6213 59.7246 0.0000 -23.5412 0.0000
# 4 0.0000 0.0000 0.0000 14.5982 0.0000 0.0893
# 5 -24.3842 -12.9082 -23.5412 0.0000 29.7939 0.0000
# 6 0.0000 0.0000 0.0000 0.0893 0.0000 17.2375
#
#
#
# Elastic Compliance Matrix: (Units=1/GPa)
#
#
# Indices 1 2 3 4 5 6 
#
# 1 0.025983 -0.003119 -0.005087 0.000000 0.015894 0.000000
# 2 -0.003119 0.011958 -0.005987 0.000000 -0.002102 0.000000
# 3 -0.005087 -0.005987 0.029071 0.000000 0.016212 0.000000
# 4 0.000000 0.000000 0.000000 0.068504 0.000000 -0.000355
# 5 0.015894 -0.002102 0.016212 0.000000 0.058471 0.000000
# 6 0.000000 0.000000 0.000000 -0.000355 0.000000 0.058015
#
#
# Mechanical properties :
#
#
# Convention : Reuss Voigt Hill
#
# Bulk Modulus (GPa) = 25.88975 45.47438 35.68207
# Shear Modulus (GPa) = 17.04954 21.43757 19.24355
#
# Velocity S-wave (km/s) = 3.12800 3.50751 3.32318
# Velocity P-wave (km/s) = 5.28237 6.51923 5.93312
#
# Compressibility (1/GPa) = 0.03862533
#
# Stress axis : x y z
#
# Youngs Moduli (GPa) = 38.48697 83.62309 34.39899
#
# Poissons Ratio (x) = 0.26080 0.17500
# Poissons Ratio (y) = 0.12003 0.20595
# Poissons Ratio (z) = 0.19580 0.50066
#
# Static dielectric constant tensor:
#      x y z
#    x 3.122190 0.000000 -0.289740 
#    y 0.000000 3.555140 0.000000 
#    z -0.289740 0.000000 3.253590 
# 
# 
# High freq. dielectric constant tensor:
#      x y z
#    x 1.646130 0.000000 -0.020990 
#    y 0.000000 1.657030 0.000000 
#    z -0.020990 0.000000 1.664970 
# 
# From -- ./inp_files/159297.got.cif
#   From: 2010.06.25/outbox.cif.g09.slc.cpg/sg12_80_cif.got.tgz:159297.got - 2010.06.28 00:19:55.
