data_PCOD8078199
_publ_section_title
;
Structure prediction by ZEFSAII (Michael W. Deem and Ramdas Pophale) SiO2 
 PCOD8078199
Probable space group: C 2/M
;
_chemical_formula_sum "Si O2"
_cell_formula_units_Z 40
_cell_length_a 25.262113
_cell_length_b 14.428047
_cell_length_c 13.385728
_cell_angle_alpha 90.000000
_cell_angle_beta 156.717028
_cell_angle_gamma 90.000000
_cell_volume 1928.483150
_symmetry_space_group_name_H-M "C 2/M"
_symmetry_group_IT_number 12
_symmetry_cell_setting 'monoclinic'
loop_
_space_group_symop_operation_xyz
x,y,z
-x,y,-z
-x,-y,-z
x,-y,z
1/2+x,1/2+y,z
1/2-x,1/2+y,-z
1/2-x,1/2-y,-z
1/2+x,1/2-y,z
loop_
_atom_site_type_symbol
_atom_site_label
_atom_site_fract_x
_atom_site_fract_y
_atom_site_fract_z
Si Si1 0.312103 0.209006 0.353702
Si Si2 0.703087 0.606074 0.978529
Si Si3 0.571380 0.602829 0.423378
Si Si4 0.049956 0.602843 0.700646
Si Si5 0.085331 0.894069 0.055020
O O1 0.250129 0.179097 0.141893
O O2 0.313328 0.320600 0.364451
O O3 0.467103 0.172607 0.628225
O O4 0.221062 0.166738 0.284079
O O5 0.734339 0.500000 0.069429
O O6 0.788794 0.625809 0.025270
O O7 0.542808 0.616434 0.687791
O O8 0.635700 0.500000 0.544660
O O9 0.501654 0.614736 0.195508
O O10 0.027409 0.500000 0.704719
O O11 0.000000 0.609579 0.500000
O O12 0.128324 0.000000 0.148677
O O13 0.000000 0.855509 0.000000
#
# Coordination Sequence:
#
# PCOD8078199 Si02
#       5
#     8   8   8   8   8
#     4  10  16  25  47  68  87 113 147 180 213 255
#     4   8  15  29  46  66  92 117 144 179 216 254
#     4   9  18  30  44  64  89 118 147 175 213 258
#     4   8  13  23  42  67  91 113 141 180 218 250
#     4   9  18  33  50  67  87 109 139 182 225 263
#
# _framework density 20.741690999999999
#
# number of rings (size 3 to 8) (size 9 to 14) (size 15 to 20)
#    0.000    3.200    0.000    4.200    0.000    1.600 
#    0.000    0.000    0.000   20.400    0.000    0.000 
#    0.000    0.000    0.000    0.000    0.000    0.000 
#
# Total GULP energy -247782.946899 kJ/mol
# GULP energy per Si atom -12389.147345 kJ/mol
# Density = 2.069448 g / cm^3
# Si number density = 20.741691 Si / 1000 Ang^3
#
#
#
# Elastic Constant Matrix: (Units=GPa)
#
#
# Indices 1 2 3 4 5 6 
#
# 1 104.5262 54.7565 26.2639 0.0000 41.5682 0.0000
# 2 54.7565 155.5687 46.6968 0.0000 27.2741 0.0000
# 3 26.2639 46.6968 24.4358 0.0000 19.5260 0.0000
# 4 0.0000 0.0000 0.0000 33.8957 0.0000 10.0240
# 5 41.5682 27.2741 19.5260 0.0000 30.1668 0.0000
# 6 0.0000 0.0000 0.0000 10.0240 0.0000 17.5331
#
#
#
# Elastic Compliance Matrix: (Units=1/GPa)
#
#
# Indices 1 2 3 4 5 6 
#
# 1 0.024218 -0.007645 0.020139 0.000000 -0.039494 0.000000
# 2 -0.007645 0.019246 -0.047796 0.000000 0.024071 0.000000
# 3 0.020139 -0.047796 0.203529 0.000000 -0.116276 0.000000
# 4 0.000000 0.000000 0.000000 0.035505 0.000000 -0.020299
# 5 -0.039494 0.024071 -0.116276 0.000000 0.141069 0.000000
# 6 0.000000 0.000000 0.000000 -0.020299 0.000000 0.068640
#
#
# Mechanical properties :
#
#
# Convention : Reuss Voigt Hill
#
# Bulk Modulus (GPa) = 5.66931 59.99612 32.83271
# Shear Modulus (GPa) = 8.04366 26.77334 17.40850
#
# Velocity S-wave (km/s) = 1.97140 3.59667 2.90021
# Velocity P-wave (km/s) = 2.81445 6.79972 5.20372
#
# Compressibility (1/GPa) = 0.17638833
#
# Stress axis : x y z
#
# Youngs Moduli (GPa) = 41.29179 51.95982 4.91331
#
# Poissons Ratio (x) = 0.39724 -0.09895
# Poissons Ratio (y) = 0.31568 0.23484
# Poissons Ratio (z) = -0.83158 2.48347
#
# Static dielectric constant tensor:
#      x y z
#    x 3.852390 0.000000 0.682190 
#    y 0.000000 3.791750 0.000000 
#    z 0.682190 0.000000 3.567870 
# 
# 
# High freq. dielectric constant tensor:
#      x y z
#    x 1.779040 0.000000 0.039160 
#    y 0.000000 1.817840 0.000000 
#    z 0.039160 0.000000 1.774760 
# 
# From -- ./inp_files/129818.got.cif
#   From: 2010.06.25/outbox.cif.g09.slc.cpg/sg12_65_cif.got.tgz:129818.got - 2010.06.28 00:19:55.
