data_PCOD8078417
_publ_section_title
;
Structure prediction by ZEFSAII (Michael W. Deem and Ramdas Pophale) SiO2 
 PCOD8078417
Probable space group: C 2/M
;
_chemical_formula_sum "Si O2"
_cell_formula_units_Z 48
_cell_length_a 15.773772
_cell_length_b 16.723264
_cell_length_c 18.885962
_cell_angle_alpha 90.000000
_cell_angle_beta 150.302255
_cell_angle_gamma 90.000000
_cell_volume 2468.159261
_symmetry_space_group_name_H-M "C 2/M"
_symmetry_group_IT_number 12
_symmetry_cell_setting 'monoclinic'
loop_
_space_group_symop_operation_xyz
x,y,z
-x,y,-z
-x,-y,-z
x,-y,z
1/2+x,1/2+y,z
1/2-x,1/2+y,-z
1/2-x,1/2-y,-z
1/2+x,1/2-y,z
loop_
_atom_site_type_symbol
_atom_site_label
_atom_site_fract_x
_atom_site_fract_y
_atom_site_fract_z
Si Si1 0.035851 0.355579 0.200907
Si Si2 0.518466 0.500000 0.597441
Si Si3 0.603992 0.819391 0.645207
Si Si4 0.490184 0.281264 0.914933
Si Si5 0.410806 0.666107 0.511013
Si Si6 0.605229 0.000000 0.146587
Si Si7 0.215612 0.592083 0.859913
O O1 0.940534 0.282793 0.091576
O O2 0.208048 0.320164 0.360784
O O3 0.082495 0.422364 0.177809
O O4 0.912687 0.392285 0.169442
O O5 0.500000 0.500000 0.500000
O O6 0.436348 0.581432 0.570935
O O7 0.713295 0.500000 0.759186
O O8 0.500000 0.848848 0.500000
O O9 0.792983 0.799346 0.753787
O O10 0.507832 0.743656 0.613983
O O11 0.619899 0.886637 0.717007
O O12 0.500000 0.242044 0.000000
O O13 0.608825 0.359776 0.000497
O O14 0.500000 0.657079 0.500000
O O15 0.500000 0.000000 0.000000
O O16 0.268278 0.500000 0.896153
#
# Coordination Sequence:
#
# PCOD8078417 Si02
#       7
#     8   4   8   8   8   4   8
#     4  12  20  39  62  91 128 160 198 252 306 366
#     4  10  16  32  56  90 118 168 195 233 297 362
#     4  10  20  41  66  92 114 155 216 261 292 358
#     4  10  21  39  65  90 119 165 209 246 301 363
#     4  10  17  32  63  89 121 157 204 241 302 360
#     4  12  22  32  60  94 128 164 200 241 291 373
#     4  11  26  41  62  89 125 165 202 249 321 360
#
# _framework density 19.447690999999999
#
# number of rings (size 3 to 8) (size 9 to 14) (size 15 to 20)
#    0.000    1.333    7.500    1.000    0.000    5.333 
#    0.000    0.000    0.000    0.000    0.000    0.000 
#    0.000    0.000    0.000    0.000    0.000    0.000 
#
# Total GULP energy -297395.193696 kJ/mol
# GULP energy per Si atom -12391.466404 kJ/mol
# Density = 1.940343 g / cm^3
# Si number density = 19.447691 Si / 1000 Ang^3
#
#
#
# Elastic Constant Matrix: (Units=GPa)
#
#
# Indices 1 2 3 4 5 6 
#
# 1 47.3320 30.7400 25.9906 -0.0079 -1.2245 -0.0195
# 2 30.7400 146.1351 48.9538 0.0226 -1.4722 -0.0827
# 3 25.9906 48.9538 131.2971 0.0502 5.2502 -0.2491
# 4 -0.0079 0.0226 0.0502 26.9007 0.0276 20.9259
# 5 -1.2245 -1.4722 5.2502 0.0276 21.6074 -0.0829
# 6 -0.0195 -0.0827 -0.2491 20.9259 -0.0829 -82.8093
#
#
#
# Elastic Compliance Matrix: (Units=1/GPa)
#
#
# Indices 1 2 3 4 5 6 
#
# 1 0.025916 -0.004210 -0.003643 0.000009 0.002067 0.000009
# 2 -0.004210 0.008537 -0.002387 -0.000003 0.000923 -0.000002
# 3 -0.003643 -0.002387 0.009333 0.000003 -0.002637 -0.000021
# 4 0.000009 -0.000003 0.000003 0.031067 -0.000010 0.007851
# 5 0.002067 0.000923 -0.002637 -0.000010 0.047101 -0.000043
# 6 0.000009 -0.000002 -0.000021 0.007851 -0.000043 -0.010092
#
#
# Mechanical properties :
#
#
# Convention : Reuss Voigt Hill
#
# Bulk Modulus (GPa) = 42.90726 59.57035 51.23881
# Shear Modulus (GPa) = 35.68626 7.74506 21.71566
#
# Velocity S-wave (km/s) = 4.28832 1.99779 3.34521
# Velocity P-wave (km/s) = 6.82865 6.00159 6.42843
#
# Compressibility (1/GPa) = 0.02330608
#
# Stress axis : x y z
#
# Youngs Moduli (GPa) = 38.58679 117.13140 107.15020
#
# Poissons Ratio (x) = 0.49315 0.39034
# Poissons Ratio (y) = 0.16246 0.25573
# Poissons Ratio (z) = 0.14057 0.27955
#
# Static dielectric constant tensor:
#      x y z
#    x 3.367930 0.000010 0.073540 
#    y 0.000010 4.113040 -0.000010 
#    z 0.073540 -0.000010 3.668760 
# 
# 
# High freq. dielectric constant tensor:
#      x y z
#    x 1.725610 0.000000 0.013710 
#    y 0.000000 1.762870 0.000000 
#    z 0.013710 0.000000 1.764140 
# 
# From -- ./inp_files/271803.got.cif
#   From: 2010.06.25/outbox.cif.g09.slc.cpg/sg12_136_cif.got.tgz:271803.got - 2010.06.28 00:19:55.
