data_PCOD8078236
_publ_section_title
;
Structure prediction by ZEFSAII (Michael W. Deem and Ramdas Pophale) SiO2 
 PCOD8078236
Probable space group: C 2/M
;
_chemical_formula_sum "Si O2"
_cell_formula_units_Z 64
_cell_length_a 21.817131
_cell_length_b 22.752893
_cell_length_c 18.988547
_cell_angle_alpha 90.000000
_cell_angle_beta 153.993131
_cell_angle_gamma 90.000000
_cell_volume 4133.088401
_symmetry_space_group_name_H-M "C 2/M"
_symmetry_group_IT_number 12
_symmetry_cell_setting 'monoclinic'
loop_
_space_group_symop_operation_xyz
x,y,z
-x,y,-z
-x,-y,-z
x,-y,z
1/2+x,1/2+y,z
1/2-x,1/2+y,-z
1/2-x,1/2-y,-z
1/2+x,1/2-y,z
loop_
_atom_site_type_symbol
_atom_site_label
_atom_site_fract_x
_atom_site_fract_y
_atom_site_fract_z
Si Si1 0.870146 0.433006 0.501935
Si Si2 0.080720 0.720723 0.892269
Si Si3 0.409488 0.740146 0.842025
Si Si4 0.838934 0.336639 0.578305
Si Si5 0.596998 0.854433 0.664945
Si Si6 0.375979 0.261529 0.216674
Si Si7 0.333083 0.283051 0.484900
Si Si8 0.842784 0.112187 0.823750
O O1 0.901109 0.500000 0.553824
O O2 0.825954 0.398875 0.527015
O O3 0.740276 0.431137 0.313718
O O4 0.011553 0.405882 0.615566
O O5 0.106590 0.759046 0.849613
O O6 0.999329 0.761801 0.863502
O O7 0.984924 0.664713 0.773491
O O8 0.231364 0.703450 0.081959
O O9 0.275378 0.782546 0.692222
O O10 0.356753 0.675077 0.801760
O O11 0.500000 0.765786 0.000000
O O12 0.710820 0.329425 0.500478
O O13 0.837242 0.283458 0.520492
O O14 0.500000 0.831538 0.500000
O O15 0.628919 0.802260 0.752052
O O16 0.747484 0.879859 0.795381
O O17 0.511650 0.297899 0.384128
O O18 0.000000 0.087125 0.000000
#
# Coordination Sequence:
#
# PCOD8078236 Si02
#       8
#     8   8   8   8   8   8   8   8
#     4  11  21  34  48  61  85 123 168 200 225 261
#     4   9  18  26  44  65  92 110 141 184 229 284
#     4  10  17  28  42  66  91 122 146 178 227 277
#     4   9  16  31  44  65  86 113 148 186 233 276
#     4  10  19  32  47  65  91 123 158 192 221 268
#     4  10  16  27  43  70  86 111 144 184 232 274
#     4   9  15  26  48  63  89 111 140 184 226 286
#     4  10  20  31  46  64  89 120 161 200 231 257
#
# _framework density 15.484788
#
# number of rings (size 3 to 8) (size 9 to 14) (size 15 to 20)
#    0.000    2.250    3.750    3.000    0.000    2.500 
#    0.000    0.000    0.000    0.000    0.000    0.000 
#    0.000    8.000    0.000    0.000    0.000   26.750 
#
# Total GULP energy -396469.206154 kJ/mol
# GULP energy per Si atom -12389.662692 kJ/mol
# Density = 1.544954 g / cm^3
# Si number density = 15.484788 Si / 1000 Ang^3
#
#
#
# Elastic Constant Matrix: (Units=GPa)
#
#
# Indices 1 2 3 4 5 6 
#
# 1 53.0486 40.9065 36.2032 0.0000 8.4788 0.0000
# 2 40.9065 57.4746 28.0353 0.0000 -1.7789 0.0000
# 3 36.2032 28.0353 110.9072 0.0000 20.5157 0.0000
# 4 0.0000 0.0000 0.0000 11.4410 0.0000 -0.9236
# 5 8.4788 -1.7789 20.5157 0.0000 31.6428 0.0000
# 6 0.0000 0.0000 0.0000 -0.9236 0.0000 13.4923
#
#
#
# Elastic Compliance Matrix: (Units=1/GPa)
#
#
# Indices 1 2 3 4 5 6 
#
# 1 0.050500 -0.033428 -0.005890 0.000000 -0.011592 0.000000
# 2 -0.033428 0.042684 -0.002248 0.000000 0.012815 0.000000
# 3 -0.005890 -0.002248 0.012771 0.000000 -0.006828 0.000000
# 4 0.000000 0.000000 0.000000 0.087890 0.000000 0.006016
# 5 -0.011592 0.012815 -0.006828 0.000000 0.039856 0.000000
# 6 0.000000 0.000000 0.000000 0.006016 0.000000 0.074528
#
#
# Mechanical properties :
#
#
# Convention : Reuss Voigt Hill
#
# Bulk Modulus (GPa) = 43.81854 47.96895 45.89375
# Shear Modulus (GPa) = 12.53226 19.06760 15.79993
#
# Velocity S-wave (km/s) = 2.84795 3.51290 3.19776
# Velocity P-wave (km/s) = 6.25889 6.89198 6.58305
#
# Compressibility (1/GPa) = 0.02282139
#
# Stress axis : x y z
#
# Youngs Moduli (GPa) = 19.80193 23.42790 78.30412
#
# Poissons Ratio (x) = 0.78315 0.46124
# Poissons Ratio (y) = 0.66194 0.17605
# Poissons Ratio (z) = 0.11664 0.05267
#
# Static dielectric constant tensor:
#      x y z
#    x 3.108090 0.000000 0.243550 
#    y 0.000000 2.386110 0.000000 
#    z 0.243550 0.000000 3.691010 
# 
# 
# High freq. dielectric constant tensor:
#      x y z
#    x 1.597270 0.000000 0.014640 
#    y 0.000000 1.514950 0.000000 
#    z 0.014640 0.000000 1.616590 
# 
# From -- ./inp_files/286220.got.cif
#   From: 2010.06.25/outbox.cif.g09.slc.cpg/sg12_144_cif.got.tgz:286220.got - 2010.06.28 00:19:55.
