data_PCOD8078144
_publ_section_title
;
Structure prediction by ZEFSAII (Michael W. Deem and Ramdas Pophale) SiO2 
 PCOD8078144
Probable space group: C 2/M
;
_chemical_formula_sum "Si O2"
_cell_formula_units_Z 64
_cell_length_a 27.623134
_cell_length_b 12.460688
_cell_length_c 12.333069
_cell_angle_alpha 90.000000
_cell_angle_beta 107.207393
_cell_angle_gamma 90.000000
_cell_volume 4055.073436
_symmetry_space_group_name_H-M "C 2/M"
_symmetry_group_IT_number 12
_symmetry_cell_setting 'monoclinic'
loop_
_space_group_symop_operation_xyz
x,y,z
-x,y,-z
-x,-y,-z
x,-y,z
1/2+x,1/2+y,z
1/2-x,1/2+y,-z
1/2-x,1/2-y,-z
1/2+x,1/2-y,z
loop_
_atom_site_type_symbol
_atom_site_label
_atom_site_fract_x
_atom_site_fract_y
_atom_site_fract_z
Si Si1 0.260057 0.747800 0.186245
Si Si2 0.123978 0.690906 0.948314
Si Si3 0.556544 0.872955 0.520702
Si Si4 0.302973 0.624376 0.020510
Si Si5 0.147152 0.622086 0.729348
Si Si6 0.984744 0.379546 0.113234
Si Si7 0.418214 0.872534 0.699575
Si Si8 0.330702 0.123237 0.797331
O O1 0.235529 0.843619 0.100138
O O2 0.307170 0.801034 0.282155
O O3 0.219800 0.696140 0.242788
O O4 0.277991 0.651862 0.119487
O O5 0.145001 0.627768 0.857900
O O6 0.063485 0.696637 0.904033
O O7 0.144330 0.812301 0.960378
O O8 0.143328 0.628863 0.067376
O O9 0.500000 0.823478 0.500000
O O10 0.594213 0.836584 0.642015
O O11 0.581608 0.833120 0.424524
O O12 0.551179 0.000000 0.514323
O O13 0.315659 0.500000 0.022494
O O14 0.157736 0.500000 0.699420
O O15 0.971094 0.500000 0.146061
O O16 0.030478 0.327864 0.211697
O O17 0.000000 0.385530 0.000000
O O18 0.368883 0.829860 0.731081
O O19 0.418983 0.000000 0.712153
O O20 0.316622 0.000000 0.763592
#
# Coordination Sequence:
#
# PCOD8078144 Si02
#       8
#     8   8   8   8   8   8   8   8
#     4   9  18  27  42  64  83 113 149 178 213 255
#     4  10  18  26  42  67  89 115 145 174 216 262
#     4   9  17  29  43  60  86 117 141 167 207 258
#     4   9  17  29  42  60  89 118 144 177 218 259
#     4  10  18  28  43  62  88 115 145 177 206 254
#     4  10  16  24  40  65  93 114 135 172 216 258
#     4   9  17  27  41  62  88 118 144 169 215 262
#     4  10  17  27  42  63  91 115 140 177 220 257
#
# _framework density 15.782698
#
# number of rings (size 3 to 8) (size 9 to 14) (size 15 to 20)
#    0.000    2.500    1.250    3.375    0.000    2.000 
#    0.000    0.625    0.000    0.375    0.000    0.000 
#    0.000   50.500    0.000    0.000    0.000    0.000 
#
# Total GULP energy -396712.598476 kJ/mol
# GULP energy per Si atom -12397.268702 kJ/mol
# Density = 1.574678 g / cm^3
# Si number density = 15.782698 Si / 1000 Ang^3
#
#
#
# Elastic Constant Matrix: (Units=GPa)
#
#
# Indices 1 2 3 4 5 6 
#
# 1 136.8745 39.2992 37.0512 0.0000 5.9004 0.0000
# 2 39.2992 63.8891 14.0136 0.0000 7.3300 0.0000
# 3 37.0512 14.0136 68.8471 0.0000 0.6071 0.0000
# 4 0.0000 0.0000 0.0000 11.3862 0.0000 0.2303
# 5 5.9004 7.3300 0.6071 0.0000 26.2276 0.0000
# 6 0.0000 0.0000 0.0000 0.2303 0.0000 29.2725
#
#
#
# Elastic Compliance Matrix: (Units=1/GPa)
#
#
# Indices 1 2 3 4 5 6 
#
# 1 0.009972 -0.005104 -0.004321 0.000000 -0.000717 0.000000
# 2 -0.005104 0.019545 -0.001194 0.000000 -0.004287 0.000000
# 3 -0.004321 -0.001194 0.017086 0.000000 0.000910 0.000000
# 4 0.000000 0.000000 0.000000 0.087840 0.000000 -0.000691
# 5 -0.000717 -0.004287 0.000910 0.000000 0.039466 0.000000
# 6 0.000000 0.000000 0.000000 -0.000691 0.000000 0.034167
#
#
# Mechanical properties :
#
#
# Convention : Reuss Voigt Hill
#
# Bulk Modulus (GPa) = 39.42498 50.03762 44.73130
# Shear Modulus (GPa) = 21.02881 25.32704 23.17792
#
# Velocity S-wave (km/s) = 3.65416 4.01026 3.83634
# Velocity P-wave (km/s) = 6.54507 7.29492 6.93014
#
# Compressibility (1/GPa) = 0.02536463
#
# Stress axis : x y z
#
# Youngs Moduli (GPa) = 100.28001 51.16328 58.52897
#
# Poissons Ratio (x) = 0.26113 0.25293
# Poissons Ratio (y) = 0.51182 0.06987
# Poissons Ratio (z) = 0.43335 0.06108
#
# Static dielectric constant tensor:
#      x y z
#    x 3.298210 0.000000 0.054300 
#    y 0.000000 2.590570 0.000000 
#    z 0.054300 0.000000 2.939050 
# 
# 
# High freq. dielectric constant tensor:
#      x y z
#    x 1.620260 0.000000 0.003120 
#    y 0.000000 1.551190 0.000000 
#    z 0.003120 0.000000 1.590840 
# 
# From -- ./inp_files/188383.got.cif
#   From: 2010.06.25/outbox.cif.g09.slc.cpg/sg12_95_cif.got.tgz:188383.got - 2010.06.28 00:19:55.
