data_PCOD8078071
_publ_section_title
;
Structure prediction by ZEFSAII (Michael W. Deem and Ramdas Pophale) SiO2 
 PCOD8078071
Probable space group: C 2/M
;
_chemical_formula_sum "Si O2"
_cell_formula_units_Z 56
_cell_length_a 13.915574
_cell_length_b 27.833568
_cell_length_c 13.124457
_cell_angle_alpha 90.000000
_cell_angle_beta 46.967176
_cell_angle_gamma 90.000000
_cell_volume 3715.751580
_symmetry_space_group_name_H-M "C 2/M"
_symmetry_group_IT_number 12
_symmetry_cell_setting 'monoclinic'
loop_
_space_group_symop_operation_xyz
x,y,z
-x,y,-z
-x,-y,-z
x,-y,z
1/2+x,1/2+y,z
1/2-x,1/2+y,-z
1/2-x,1/2-y,-z
1/2+x,1/2-y,z
loop_
_atom_site_type_symbol
_atom_site_label
_atom_site_fract_x
_atom_site_fract_y
_atom_site_fract_z
Si Si1 0.604970 0.447111 0.068682
Si Si2 0.366608 0.727707 0.715884
Si Si3 0.933595 0.149940 0.813680
Si Si4 0.693405 0.552514 0.786760
Si Si5 0.716917 0.351365 0.688404
Si Si6 0.144311 0.736216 0.493596
Si Si7 0.862835 0.792256 0.062234
O O1 0.627495 0.500000 0.103012
O O2 0.626706 0.403986 0.134058
O O3 0.458333 0.442918 0.133110
O O4 0.703976 0.441077 0.901392
O O5 0.388757 0.673150 0.738625
O O6 0.337619 0.727896 0.615944
O O7 0.497916 0.759231 0.644127
O O8 0.246715 0.751028 0.864377
O O9 0.092133 0.149351 0.702758
O O10 0.875229 0.183676 0.943709
O O11 0.749344 0.500000 0.714735
O O12 0.770413 0.594303 0.669041
O O13 0.832921 0.318831 0.558170
O O14 0.673539 0.333245 0.830663
O O15 0.250000 0.750000 0.500000
O O16 0.000000 0.768377 0.000000
#
# Coordination Sequence:
#
# PCOD8078071 Si02
#       7
#     8   8   8   8   8   8   8
#     4   8  13  20  35  60  90 113 133 167 214 267
#     4  10  20  29  44  62  82 119 148 180 214 252
#     4  10  15  25  41  63  89 110 139 171 220 262
#     4   8  12  20  35  60  87 112 140 167 210 265
#     4   9  15  25  42  60  85 119 140 173 214 251
#     4  10  19  33  43  58  83 116 159 182 205 252
#     4   9  17  27  41  63  89 115 138 172 222 264
#
# _framework density 15.070976
#
# number of rings (size 3 to 8) (size 9 to 14) (size 15 to 20)
#    0.000    2.857    2.857    1.286    0.000    0.000 
#    0.000    0.000    0.000    0.000    0.000   12.000 
#    0.000    0.571    0.000    0.000    0.000    0.000 
#
# Total GULP energy -346949.231354 kJ/mol
# GULP energy per Si atom -12391.043977 kJ/mol
# Density = 1.503667 g / cm^3
# Si number density = 15.070976 Si / 1000 Ang^3
#
#
#
# Elastic Constant Matrix: (Units=GPa)
#
#
# Indices 1 2 3 4 5 6 
#
# 1 65.3828 41.7231 19.5961 0.0000 3.3115 0.0000
# 2 41.7231 137.5965 37.6198 0.0000 5.1037 0.0000
# 3 19.5961 37.6198 49.2951 0.0000 -7.0866 0.0000
# 4 0.0000 0.0000 0.0000 18.4959 0.0000 5.5769
# 5 3.3115 5.1037 -7.0866 0.0000 15.1638 0.0000
# 6 0.0000 0.0000 0.0000 5.5769 0.0000 19.0185
#
#
#
# Elastic Compliance Matrix: (Units=1/GPa)
#
#
# Indices 1 2 3 4 5 6 
#
# 1 0.019978 -0.004391 -0.005366 0.000000 -0.005393 0.000000
# 2 -0.004391 0.010859 -0.007428 0.000000 -0.006167 0.000000
# 3 -0.005366 -0.007428 0.030677 0.000000 0.018008 0.000000
# 4 0.000000 0.000000 0.000000 0.059310 0.000000 -0.017392
# 5 -0.005393 -0.006167 0.018008 0.000000 0.077616 0.000000
# 6 0.000000 0.000000 0.000000 -0.017392 0.000000 0.057680
#
#
# Mechanical properties :
#
#
# Convention : Reuss Voigt Hill
#
# Bulk Modulus (GPa) = 36.84132 50.01696 43.42914
# Shear Modulus (GPa) = 16.69244 20.75799 18.72521
#
# Velocity S-wave (km/s) = 3.33166 3.71529 3.52869
# Velocity P-wave (km/s) = 6.26883 7.18778 6.74397
#
# Compressibility (1/GPa) = 0.02714344
#
# Stress axis : x y z
#
# Youngs Moduli (GPa) = 50.05548 92.09283 32.59795
#
# Poissons Ratio (x) = 0.40435 0.17493
# Poissons Ratio (y) = 0.21978 0.24214
# Poissons Ratio (z) = 0.26861 0.68407
#
# Static dielectric constant tensor:
#      x y z
#    x 2.678520 0.000000 0.008940 
#    y 0.000000 3.139120 0.000000 
#    z 0.008940 0.000000 2.782440 
# 
# 
# High freq. dielectric constant tensor:
#      x y z
#    x 1.541660 0.000000 0.003780 
#    y 0.000000 1.572380 0.000000 
#    z 0.003780 0.000000 1.553590 
# 
# From -- ./inp_files/148399.got.cif
#   From: 2010.06.25/outbox.cif.g09.slc.cpg/sg12_75_cif.got.tgz:148399.got - 2010.06.28 00:19:55.
