data_PCOD8078286
_publ_section_title
;
Structure prediction by ZEFSAII (Michael W. Deem and Ramdas Pophale) SiO2 
 PCOD8078286
Probable space group: C 2/M
;
_chemical_formula_sum "Si O2"
_cell_formula_units_Z 48
_cell_length_a 25.755001
_cell_length_b 11.465568
_cell_length_c 18.120529
_cell_angle_alpha 90.000000
_cell_angle_beta 34.181506
_cell_angle_gamma 90.000000
_cell_volume 3006.231468
_symmetry_space_group_name_H-M "C 2/M"
_symmetry_group_IT_number 12
_symmetry_cell_setting 'monoclinic'
loop_
_space_group_symop_operation_xyz
x,y,z
-x,y,-z
-x,-y,-z
x,-y,z
1/2+x,1/2+y,z
1/2-x,1/2+y,-z
1/2-x,1/2-y,-z
1/2+x,1/2-y,z
loop_
_atom_site_type_symbol
_atom_site_label
_atom_site_fract_x
_atom_site_fract_y
_atom_site_fract_z
Si Si1 0.850475 0.500000 0.156333
Si Si2 0.466587 0.633305 0.363897
Si Si3 0.233952 0.134214 0.616911
Si Si4 0.295756 0.699581 0.662532
Si Si5 0.409408 0.629122 0.654241
Si Si6 0.603199 0.789603 0.678257
Si Si7 0.018283 0.500000 0.858960
O O1 0.791284 0.616530 0.227865
O O2 0.912121 0.500000 0.155735
O O3 0.912567 0.500000 0.009819
O O4 0.481875 0.500000 0.322433
O O5 0.371028 0.639606 0.521253
O O6 0.555598 0.676976 0.307446
O O7 0.461385 0.710599 0.297286
O O8 0.264636 0.178511 0.662311
O O9 0.317162 0.145196 0.461109
O O10 0.147479 0.209861 0.690254
O O11 0.204120 0.000000 0.658820
O O12 0.338970 0.716612 0.694391
O O13 0.500000 0.612987 0.500000
O O14 0.362946 0.500000 0.716331
O O15 0.534760 0.884495 0.792022
#
# Coordination Sequence:
#
# PCOD8078286 Si02
#       7
#     4   8   8   8   8   8   4
#     4  11  20  32  51  70  92 126 162 195 222 266
#     4   9  16  26  48  77 100 119 145 200 247 276
#     4  10  19  28  47  71  96 125 147 192 244 286
#     4  10  16  28  49  72  98 120 157 193 236 278
#     4   8  13  23  43  72  99 117 147 195 239 274
#     4  10  19  30  46  66 100 125 155 186 235 288
#     4  11  22  34  46  68  99 126 162 190 220 278
#
# _framework density 15.966834
#
# number of rings (size 3 to 8) (size 9 to 14) (size 15 to 20)
#    0.000    2.333    4.167    1.500    0.000    0.000 
#    0.000    0.000    1.833    6.500    0.000    0.000 
#    0.000    0.000    0.000    0.000    0.000    0.000 
#
# Total GULP energy -297443.066073 kJ/mol
# GULP energy per Si atom -12393.461086 kJ/mol
# Density = 1.593049 g / cm^3
# Si number density = 15.966834 Si / 1000 Ang^3
#
#
#
# Elastic Constant Matrix: (Units=GPa)
#
#
# Indices 1 2 3 4 5 6 
#
# 1 128.5170 57.5150 27.1377 0.0000 -6.7099 0.0000
# 2 57.5150 103.5281 33.1698 0.0001 1.0056 0.0000
# 3 27.1377 33.1698 56.3354 0.0000 2.7987 0.0000
# 4 0.0000 0.0001 0.0000 18.3953 0.0000 5.6575
# 5 -6.7099 1.0056 2.7987 0.0000 11.7317 0.0000
# 6 0.0000 0.0000 0.0000 5.6575 0.0000 24.3066
#
#
#
# Elastic Compliance Matrix: (Units=1/GPa)
#
#
# Indices 1 2 3 4 5 6 
#
# 1 0.011144 -0.005454 -0.002527 0.000000 0.007444 0.000000
# 2 -0.005454 0.014579 -0.005809 0.000000 -0.002983 0.000000
# 3 -0.002527 -0.005809 0.022704 0.000000 -0.006364 0.000000
# 4 0.000000 0.000000 0.000000 0.058553 0.000000 -0.013629
# 5 0.007444 -0.002983 -0.006364 0.000000 0.091270 0.000000
# 6 0.000000 0.000000 0.000000 -0.013629 0.000000 0.044313
#
#
# Mechanical properties :
#
#
# Convention : Reuss Voigt Hill
#
# Bulk Modulus (GPa) = 47.96461 58.22505 53.09483
# Shear Modulus (GPa) = 18.04451 22.25726 20.15088
#
# Velocity S-wave (km/s) = 3.36538 3.73764 3.55638
# Velocity P-wave (km/s) = 6.72357 7.42779 7.08443
#
# Compressibility (1/GPa) = 0.02084871
#
# Stress axis : x y z
#
# Youngs Moduli (GPa) = 89.73407 68.59140 44.04441
#
# Poissons Ratio (x) = 0.37408 0.11130
# Poissons Ratio (y) = 0.48939 0.25584
# Poissons Ratio (z) = 0.22675 0.39843
#
# Static dielectric constant tensor:
#      x y z
#    x 3.527770 0.000000 -0.123420 
#    y 0.000000 2.863010 0.000000 
#    z -0.123420 0.000000 2.680830 
# 
# 
# High freq. dielectric constant tensor:
#      x y z
#    x 1.628140 0.000000 -0.012590 
#    y 0.000000 1.596540 0.000000 
#    z -0.012590 0.000000 1.563170 
# 
# From -- ./inp_files/276735.got.cif
#   From: 2010.06.25/outbox.cif.g09.slc.cpg/sg12_139_cif.got.tgz:276735.got - 2010.06.28 00:19:55.
