data_PCOD8078754
_publ_section_title
;
Structure prediction by ZEFSAII (Michael W. Deem and Ramdas Pophale) SiO2 
 PCOD8078754
Probable space group: C 2/M
;
_chemical_formula_sum "Si O2"
_cell_formula_units_Z 64
_cell_length_a 17.868309
_cell_length_b 13.333194
_cell_length_c 29.879863
_cell_angle_alpha 90.000000
_cell_angle_beta 149.625904
_cell_angle_gamma 90.000000
_cell_volume 3599.489471
_symmetry_space_group_name_H-M "C 2/M"
_symmetry_group_IT_number 12
_symmetry_cell_setting 'monoclinic'
loop_
_space_group_symop_operation_xyz
x,y,z
-x,y,-z
-x,-y,-z
x,-y,z
1/2+x,1/2+y,z
1/2-x,1/2+y,-z
1/2-x,1/2-y,-z
1/2+x,1/2-y,z
loop_
_atom_site_type_symbol
_atom_site_label
_atom_site_fract_x
_atom_site_fract_y
_atom_site_fract_z
Si Si1 0.533711 0.302978 0.827074
Si Si2 0.273644 0.803613 0.201406
Si Si3 0.595945 0.614581 0.764990
Si Si4 0.729778 0.884592 0.654787
Si Si5 0.497080 0.115279 0.385578
Si Si6 0.803143 0.613695 0.119856
Si Si7 0.972394 0.883515 0.083148
Si Si8 0.767399 0.881898 0.576002
O O1 0.591666 0.372561 0.816442
O O2 0.357295 0.313966 0.741162
O O3 0.575654 0.187450 0.839222
O O4 0.600632 0.340671 0.908841
O O5 0.277305 0.685947 0.189990
O O6 0.417138 0.822633 0.305945
O O7 0.286921 0.872250 0.164433
O O8 0.122978 0.825222 0.149542
O O9 0.634639 0.500000 0.773243
O O10 0.439357 0.649768 0.662257
O O11 0.584326 0.872867 0.608946
O O12 0.698881 0.847817 0.588315
O O13 0.787156 0.000000 0.684475
O O14 0.663390 0.158663 0.481565
O O15 0.498990 0.000000 0.370876
O O16 0.854216 0.500000 0.136095
O O17 0.642903 0.635229 0.015986
O O18 0.012316 0.000000 0.109726
O O19 0.755321 0.000000 0.566688
#
# Coordination Sequence:
#
# PCOD8078754 Si02
#       8
#     8   8   8   8   8   8   8   8
#     4  10  18  32  55  76  95 125 169 204 241 289
#     4  11  21  32  51  74 101 133 166 199 247 297
#     4   9  19  35  51  70 101 135 164 199 246 295
#     4   9  15  26  46  73 102 126 155 203 252 285
#     4  10  17  26  45  74 102 125 160 205 243 287
#     4  10  22  36  50  72 104 134 159 197 249 299
#     4  11  20  34  55  76  98 125 164 210 249 286
#     4   8  15  27  45  70  99 129 158 198 248 287
#
# _framework density 17.780298999999999
#
# number of rings (size 3 to 8) (size 9 to 14) (size 15 to 20)
#    0.000    2.250    1.250    4.125    0.000    3.000 
#    0.000    0.625    0.000    7.500    0.000    0.000 
#    0.000    6.500    0.000    0.000    0.000    0.000 
#
# Total GULP energy -396634.482799 kJ/mol
# GULP energy per Si atom -12394.827587 kJ/mol
# Density = 1.773983 g / cm^3
# Si number density = 17.780299 Si / 1000 Ang^3
#
#
#
# Elastic Constant Matrix: (Units=GPa)
#
#
# Indices 1 2 3 4 5 6 
#
# 1 54.0408 35.8596 31.1794 0.0000 -5.9430 0.0000
# 2 35.8596 90.4251 38.0182 0.0000 7.2908 0.0000
# 3 31.1794 38.0182 90.8109 0.0002 -16.1614 0.0000
# 4 0.0000 0.0000 0.0002 16.7722 0.0000 1.6419
# 5 -5.9430 7.2908 -16.1614 0.0000 23.6588 0.0000
# 6 0.0000 0.0000 0.0000 1.6419 0.0000 20.3980
#
#
#
# Elastic Compliance Matrix: (Units=1/GPa)
#
#
# Indices 1 2 3 4 5 6 
#
# 1 0.028459 -0.010102 -0.004230 0.000000 0.007372 0.000000
# 2 -0.010102 0.018970 -0.006791 0.000000 -0.013022 0.000000
# 3 -0.004230 -0.006791 0.017635 0.000000 0.013076 0.000000
# 4 0.000000 0.000000 0.000000 0.060096 0.000000 -0.004837
# 5 0.007372 -0.013022 0.013076 0.000000 0.057065 0.000000
# 6 0.000000 0.000000 0.000000 -0.004837 0.000000 0.049414
#
#
# Mechanical properties :
#
#
# Convention : Reuss Voigt Hill
#
# Bulk Modulus (GPa) = 43.82545 49.48790 46.65667
# Shear Modulus (GPa) = 17.76258 20.84709 19.30484
#
# Velocity S-wave (km/s) = 3.16413 3.42787 3.29864
# Velocity P-wave (km/s) = 6.16853 6.60003 6.38793
#
# Compressibility (1/GPa) = 0.02281779
#
# Stress axis : x y z
#
# Youngs Moduli (GPa) = 35.13812 52.71446 56.70695
#
# Poissons Ratio (x) = 0.53251 0.23988
# Poissons Ratio (y) = 0.35496 0.38510
# Poissons Ratio (z) = 0.14864 0.35799
#
# Static dielectric constant tensor:
#      x y z
#    x 3.157750 0.000000 -0.165150 
#    y 0.000000 3.107800 0.000000 
#    z -0.165150 0.000000 3.559540 
# 
# 
# High freq. dielectric constant tensor:
#      x y z
#    x 1.673590 0.000000 -0.017920 
#    y 0.000000 1.661630 0.000000 
#    z -0.017920 0.000000 1.697410 
# 
# From -- ./inp_files/296670.got.cif
#   From: 2010.06.25/outbox.cif.g09.slc.cpg/sg12_149_cif.got.tgz:296670.got - 2010.06.28 00:19:55.
