data_PCOD8078233
_publ_section_title
;
Structure prediction by ZEFSAII (Michael W. Deem and Ramdas Pophale) SiO2 
 PCOD8078233
Probable space group: C 2/M
;
_chemical_formula_sum "Si O2"
_cell_formula_units_Z 28
_cell_length_a 27.283336
_cell_length_b 8.077725
_cell_length_c 14.592489
_cell_angle_alpha 90.000000
_cell_angle_beta 25.192360
_cell_angle_gamma 90.000000
_cell_volume 1368.917761
_symmetry_space_group_name_H-M "C 2/M"
_symmetry_group_IT_number 12
_symmetry_cell_setting 'monoclinic'
loop_
_space_group_symop_operation_xyz
x,y,z
-x,y,-z
-x,-y,-z
x,-y,z
1/2+x,1/2+y,z
1/2-x,1/2+y,-z
1/2-x,1/2-y,-z
1/2+x,1/2-y,z
loop_
_atom_site_type_symbol
_atom_site_label
_atom_site_fract_x
_atom_site_fract_y
_atom_site_fract_z
Si Si1 0.473095 0.683050 0.295186
Si Si2 0.139152 0.500000 0.279065
Si Si3 0.173310 0.500000 0.434620
Si Si4 0.894043 0.180582 0.749208
Si Si5 0.430196 0.500000 0.025163
O O1 0.416712 0.500000 0.414309
O O2 0.560961 0.732667 0.226875
O O3 0.540235 0.664084 0.085027
O O4 0.384074 0.831265 0.433183
O O5 0.180144 0.500000 0.313457
O O6 0.188654 0.330092 0.148479
O O7 0.000000 0.500000 0.500000
O O8 0.296366 0.500000 0.274486
O O9 0.000000 0.167894 0.500000
O O10 0.832012 0.000000 0.858746
O O11 0.500000 0.500000 0.000000
#
# Coordination Sequence:
#
# PCOD8078233 Si02
#       5
#     8   4   4   8   4
#     4   9  20  39  63  90 123 160 204 249 304 365
#     4  10  16  26  56  90 117 158 191 228 292 368
#     4  12  20  40  70  86 123 173 192 246 326 350
#     4   9  14  26  54  82 121 160 181 236 293 347
#     4  10  26  46  60  92 124 148 222 274 284 364
#
# _framework density 20.454114000000001
#
# number of rings (size 3 to 8) (size 9 to 14) (size 15 to 20)
#    0.857    1.429    5.714    0.000    0.000    1.143 
#    2.571    2.143    0.000    0.000    0.000    0.000 
#    0.000    0.000    0.000    0.000    0.000    0.000 
#
# Total GULP energy -173489.908695 kJ/mol
# GULP energy per Si atom -12392.136335 kJ/mol
# Density = 2.040756 g / cm^3
# Si number density = 20.454114 Si / 1000 Ang^3
#
#
#
# Elastic Constant Matrix: (Units=GPa)
#
#
# Indices 1 2 3 4 5 6 
#
# 1 97.5688 14.7700 28.5394 0.0000 0.5316 0.0000
# 2 14.7700 166.1023 58.5961 0.0000 -10.6037 0.0000
# 3 28.5394 58.5961 62.4605 0.0000 -10.0539 0.0000
# 4 0.0000 0.0000 0.0000 39.7557 0.0000 -13.9454
# 5 0.5316 -10.6037 -10.0539 0.0000 27.4969 0.0000
# 6 0.0000 0.0000 0.0000 -13.9454 0.0000 -34.5980
#
#
#
# Elastic Compliance Matrix: (Units=1/GPa)
#
#
# Indices 1 2 3 4 5 6 
#
# 1 0.012156 0.001288 -0.007141 0.000000 -0.002349 0.000000
# 2 0.001288 0.009139 -0.009137 0.000000 0.000159 0.000000
# 3 -0.007141 -0.009137 0.029007 0.000000 0.007220 0.000000
# 4 0.000000 0.000000 0.000000 0.022038 0.000000 -0.008883
# 5 -0.002349 0.000159 0.007220 0.000000 0.039114 0.000000
# 6 0.000000 0.000000 0.000000 -0.008883 0.000000 -0.025323
#
#
# Mechanical properties :
#
#
# Convention : Reuss Voigt Hill
#
# Bulk Modulus (GPa) = 49.20604 58.88250 54.04427
# Shear Modulus (GPa) = 40.68895 21.47933 31.08414
#
# Velocity S-wave (km/s) = 4.46497 3.24408 3.90256
# Velocity P-wave (km/s) = 7.11971 6.54845 6.84005
#
# Compressibility (1/GPa) = 0.02032271
#
# Stress axis : x y z
#
# Youngs Moduli (GPa) = 82.26608 109.41926 34.47497
#
# Poissons Ratio (x) = -0.14095 0.24618
# Poissons Ratio (y) = -0.10597 0.31499
# Poissons Ratio (z) = 0.58744 0.99974
#
# Static dielectric constant tensor:
#      x y z
#    x 3.387190 0.000000 0.169120 
#    y 0.000000 4.891410 0.000000 
#    z 0.169120 0.000000 3.551290 
# 
# 
# High freq. dielectric constant tensor:
#      x y z
#    x 1.770770 0.000000 0.009060 
#    y 0.000000 1.822170 0.000000 
#    z 0.009060 0.000000 1.800600 
# 
# From -- ./inp_files/210453.got.cif
#   From: 2010.06.25/outbox.cif.g09.slc.cpg/sg12_106_cif.got.tgz:210453.got - 2010.06.28 00:19:55.
