data_PCOD8078274
_publ_section_title
;
Structure prediction by ZEFSAII (Michael W. Deem and Ramdas Pophale) SiO2 
 PCOD8078274
Probable space group: C 2/M
;
_chemical_formula_sum "Si O2"
_cell_formula_units_Z 44
_cell_length_a 21.806162
_cell_length_b 21.576214
_cell_length_c 17.853990
_cell_angle_alpha 90.000000
_cell_angle_beta 162.246343
_cell_angle_gamma 90.000000
_cell_volume 2561.432515
_symmetry_space_group_name_H-M "C 2/M"
_symmetry_group_IT_number 12
_symmetry_cell_setting 'monoclinic'
loop_
_space_group_symop_operation_xyz
x,y,z
-x,y,-z
-x,-y,-z
x,-y,z
1/2+x,1/2+y,z
1/2-x,1/2+y,-z
1/2-x,1/2-y,-z
1/2+x,1/2-y,z
loop_
_atom_site_type_symbol
_atom_site_label
_atom_site_fract_x
_atom_site_fract_y
_atom_site_fract_z
Si Si1 0.240633 0.832661 0.875723
Si Si2 0.265660 0.569495 0.247220
Si Si3 0.000000 0.736948 0.500000
Si Si4 0.169832 0.317150 0.423821
Si Si5 0.686073 0.348995 0.559173
Si Si6 0.289684 0.709130 0.718928
O O1 0.331186 0.889280 0.931227
O O2 0.170730 0.779684 0.736748
O O3 0.056084 0.850055 0.715348
O O4 0.427192 0.812255 0.143901
O O5 0.500000 0.570561 0.500000
O O6 0.177924 0.500000 0.144373
O O7 0.222330 0.598908 0.278847
O O8 0.111408 0.693357 0.569922
O O9 0.250000 0.250000 0.500000
O O10 0.254605 0.363810 0.458216
O O11 0.251395 0.334118 0.601469
O O12 0.779610 0.282445 0.689320
O O13 0.500000 0.690586 0.000000
#
# Coordination Sequence:
#
# PCOD8078274 Si02
#       6
#     8   8   4   8   8   8
#     4  10  17  31  44  64  93 120 153 185 218 264
#     4   9  16  29  49  70  93 128 156 178 221 273
#     4  10  16  28  47  60  88 124 147 186 222 262
#     4  10  21  28  43  63  85 120 157 193 222 265
#     4   9  18  30  45  63  92 123 146 188 220 267
#     4  10  19  30  44  62  85 121 153 193 227 262
#
# _framework density 17.177887999999999
#
# number of rings (size 3 to 8) (size 9 to 14) (size 15 to 20)
#    0.000    2.364    4.545    2.182    0.000    8.000 
#    0.000    1.818    0.000    0.000    0.000    0.000 
#    0.000    2.909    0.000   12.727    0.000    0.000 
#
# Total GULP energy -272644.930642 kJ/mol
# GULP energy per Si atom -12392.951393 kJ/mol
# Density = 1.713879 g / cm^3
# Si number density = 17.177888 Si / 1000 Ang^3
#
#
#
# Elastic Constant Matrix: (Units=GPa)
#
#
# Indices 1 2 3 4 5 6 
#
# 1 141.5385 18.6146 49.5245 -0.0001 -2.8996 0.0000
# 2 18.6146 32.0166 16.2854 0.0000 -2.0958 -0.0001
# 3 49.5245 16.2854 112.6122 -0.0010 -19.5508 0.0006
# 4 -0.0001 0.0000 -0.0010 7.2941 -0.0004 2.0927
# 5 -2.8996 -2.0958 -19.5508 -0.0004 24.2538 0.0002
# 6 0.0000 -0.0001 0.0006 2.0927 0.0002 14.8983
#
#
#
# Elastic Compliance Matrix: (Units=1/GPa)
#
#
# Indices 1 2 3 4 5 6 
#
# 1 0.008777 -0.003333 -0.003774 -0.000001 -0.002281 0.000000
# 2 -0.003333 0.035008 -0.003652 -0.000001 -0.000317 0.000000
# 3 -0.003774 -0.003652 0.012714 0.000002 0.009482 -0.000001
# 4 -0.000001 -0.000001 0.000002 0.142854 0.000004 -0.020066
# 5 -0.002281 -0.000317 0.009482 0.000004 0.048574 -0.000001
# 6 0.000000 0.000000 -0.000001 -0.020066 -0.000001 0.069941
#
#
# Mechanical properties :
#
#
# Convention : Reuss Voigt Hill
#
# Bulk Modulus (GPa) = 28.58629 50.55738 39.57183
# Shear Modulus (GPa) = 14.24313 22.73877 18.49095
#
# Velocity S-wave (km/s) = 2.88263 3.64225 3.28447
# Velocity P-wave (km/s) = 5.26848 6.86903 6.12129
#
# Compressibility (1/GPa) = 0.03498181
#
# Stress axis : x y z
#
# Youngs Moduli (GPa) = 113.92933 28.56459 78.65257
#
# Poissons Ratio (x) = 0.09520 0.29685
# Poissons Ratio (y) = 0.37970 0.28725
# Poissons Ratio (z) = 0.42998 0.10432
#
# Static dielectric constant tensor:
#      x y z
#    x 4.050720 0.000000 -0.032060 
#    y 0.000000 2.892280 0.000000 
#    z -0.032060 0.000000 3.168630 
# 
# 
# High freq. dielectric constant tensor:
#      x y z
#    x 1.676680 0.000000 0.016450 
#    y 0.000000 1.585510 0.000000 
#    z 0.016450 0.000000 1.666250 
# 
# From -- ./inp_files/286244.got.cif
#   From: 2010.06.25/outbox.cif.g09.slc.cpg/sg12_144_cif.got.tgz:286244.got - 2010.06.28 00:19:55.
