data_PCOD8078083
_publ_section_title
;
Structure prediction by ZEFSAII (Michael W. Deem and Ramdas Pophale) SiO2 
 PCOD8078083
Probable space group: C 2/M
;
_chemical_formula_sum "Si O2"
_cell_formula_units_Z 48
_cell_length_a 19.029830
_cell_length_b 13.008727
_cell_length_c 12.290314
_cell_angle_alpha 90.000000
_cell_angle_beta 76.993204
_cell_angle_gamma 90.000000
_cell_volume 2964.454056
_symmetry_space_group_name_H-M "C 2/M"
_symmetry_group_IT_number 12
_symmetry_cell_setting 'monoclinic'
loop_
_space_group_symop_operation_xyz
x,y,z
-x,y,-z
-x,-y,-z
x,-y,z
1/2+x,1/2+y,z
1/2-x,1/2+y,-z
1/2-x,1/2-y,-z
1/2+x,1/2-y,z
loop_
_atom_site_type_symbol
_atom_site_label
_atom_site_fract_x
_atom_site_fract_y
_atom_site_fract_z
Si Si1 0.079527 0.386228 0.516281
Si Si2 0.964782 0.714231 0.263735
Si Si3 0.168692 0.266849 0.061005
Si Si4 0.076338 0.380635 0.929512
Si Si5 0.037938 0.880911 0.103360
Si Si6 0.885956 0.619138 0.729300
O O1 0.105186 0.500000 0.550307
O O2 0.081187 0.295994 0.607638
O O3 0.125353 0.351271 0.394200
O O4 0.000000 0.401230 0.500000
O O5 0.910461 0.672907 0.190826
O O6 0.992074 0.827605 0.217880
O O7 0.033754 0.639808 0.252475
O O8 0.118872 0.165280 0.068849
O O9 0.169381 0.310917 0.183505
O O10 0.250000 0.250000 0.000000
O O11 0.138914 0.354447 0.991474
O O12 0.073405 0.500000 0.911261
O O13 0.000000 0.337321 0.000000
O O14 0.044064 0.000000 0.132295
O O15 0.000000 0.865544 0.000000
O O16 0.868784 0.500000 0.753870
#
# Coordination Sequence:
#
# PCOD8078083 Si02
#       6
#     8   8   8   8   8   8
#     4   8  14  23  42  72 100 121 144 185 243 292
#     4  10  15  27  47  73  95 119 150 199 241 283
#     4  11  21  32  46  68 100 129 161 194 238 284
#     4  11  18  28  49  75  96 118 150 201 254 287
#     4  10  19  33  48  66  93 128 166 197 228 277
#     4   9  16  28  46  71 100 125 150 190 240 288
#
# _framework density 16.191851
#
# number of rings (size 3 to 8) (size 9 to 14) (size 15 to 20)
#    0.000    2.167    5.000    3.000    0.000    1.333 
#    0.000    0.000    0.000   13.500    0.000    0.000 
#    0.000    0.000    0.000    0.000    0.000    0.000 
#
# Total GULP energy -297367.294605 kJ/mol
# GULP energy per Si atom -12390.303942 kJ/mol
# Density = 1.615500 g / cm^3
# Si number density = 16.191851 Si / 1000 Ang^3
#
#
#
# Elastic Constant Matrix: (Units=GPa)
#
#
# Indices 1 2 3 4 5 6 
#
# 1 57.3458 26.1260 37.5281 0.0000 -10.5531 0.0000
# 2 26.1260 101.4505 60.2028 0.0000 -5.3505 0.0000
# 3 37.5281 60.2028 135.7556 0.0000 -8.1049 0.0000
# 4 0.0000 0.0000 0.0000 21.7583 0.0000 3.7470
# 5 -10.5531 -5.3505 -8.1049 0.0000 15.5653 0.0000
# 6 0.0000 0.0000 0.0000 3.7470 0.0000 10.2479
#
#
#
# Elastic Compliance Matrix: (Units=1/GPa)
#
#
# Indices 1 2 3 4 5 6 
#
# 1 0.024145 -0.002758 -0.004676 0.000000 0.012987 0.000000
# 2 -0.002758 0.013729 -0.005321 0.000000 0.000079 0.000000
# 3 -0.004676 -0.005321 0.011064 0.000000 0.000762 0.000000
# 4 0.000000 0.000000 0.000000 0.049048 0.000000 -0.017934
# 5 0.012987 0.000079 0.000762 0.000000 0.073474 0.000000
# 6 0.000000 0.000000 0.000000 -0.017934 0.000000 0.104138
#
#
# Mechanical properties :
#
#
# Convention : Reuss Voigt Hill
#
# Bulk Modulus (GPa) = 42.68549 60.25172 51.46861
# Shear Modulus (GPa) = 16.18553 20.89396 18.53974
#
# Velocity S-wave (km/s) = 3.16509 3.59611 3.38746
# Velocity P-wave (km/s) = 6.30687 7.38475 6.86699
#
# Compressibility (1/GPa) = 0.02342716
#
# Stress axis : x y z
#
# Youngs Moduli (GPa) = 41.41705 72.83755 90.38248
#
# Poissons Ratio (x) = 0.20089 0.42264
# Poissons Ratio (y) = 0.11423 0.48095
# Poissons Ratio (z) = 0.19367 0.38759
#
# Static dielectric constant tensor:
#      x y z
#    x 2.148230 0.000000 0.272980 
#    y 0.000000 3.010280 0.000000 
#    z 0.272980 0.000000 3.594990 
# 
# 
# High freq. dielectric constant tensor:
#      x y z
#    x 1.566400 0.000000 0.009620 
#    y 0.000000 1.613420 0.000000 
#    z 0.009620 0.000000 1.633310 
# 
# From -- ./inp_files/153571.got.cif
#   From: 2010.06.25/outbox.cif.g09.slc.cpg/sg12_77_cif.got.tgz:153571.got - 2010.06.28 00:19:55.
