data_PCOD8078963
_publ_section_title
;
Structure prediction by ZEFSAII (Michael W. Deem and Ramdas Pophale) SiO2 
 PCOD8078963
Probable space group: C 2/M
;
_chemical_formula_sum "Si O2"
_cell_formula_units_Z 56
_cell_length_a 28.187322
_cell_length_b 8.908920
_cell_length_c 19.587235
_cell_angle_alpha 90.000000
_cell_angle_beta 130.619485
_cell_angle_gamma 90.000000
_cell_volume 3733.553385
_symmetry_space_group_name_H-M "C 2/M"
_symmetry_group_IT_number 12
_symmetry_cell_setting 'monoclinic'
loop_
_space_group_symop_operation_xyz
x,y,z
-x,y,-z
-x,-y,-z
x,-y,z
1/2+x,1/2+y,z
1/2-x,1/2+y,-z
1/2-x,1/2-y,-z
1/2+x,1/2-y,z
loop_
_atom_site_type_symbol
_atom_site_label
_atom_site_fract_x
_atom_site_fract_y
_atom_site_fract_z
Si Si1 0.933893 0.830599 0.401001
Si Si2 0.009377 0.675897 0.667593
Si Si3 0.019111 0.329147 0.090987
Si Si4 0.520919 0.677647 0.226269
Si Si5 0.365521 0.829336 0.720639
Si Si6 0.745176 0.822585 0.569324
Si Si7 0.880881 0.675078 0.474273
O O1 0.882280 0.760501 0.403094
O O2 0.000000 0.823525 0.500000
O O3 0.937848 0.734839 0.335123
O O4 0.914559 0.000000 0.364762
O O5 0.018200 0.500000 0.686727
O O6 0.019611 0.760139 0.748930
O O7 0.940685 0.717705 0.575718
O O8 0.994152 0.500000 0.073194
O O9 0.989009 0.231271 0.124602
O O10 0.095104 0.325937 0.171221
O O11 0.000000 0.259326 0.000000
O O12 0.525032 0.500000 0.233112
O O13 0.590903 0.749734 0.296279
O O14 0.301199 0.739590 0.669096
O O15 0.352071 0.000000 0.684199
O O16 0.750000 0.750000 0.500000
O O17 0.680566 0.772618 0.543189
O O18 0.750360 0.000000 0.567760
O O19 0.880114 0.500000 0.456815
#
# Coordination Sequence:
#
# PCOD8078963 Si02
#       7
#     8   8   8   8   8   8   8
#     4   9  17  28  42  60  80 105 141 185 226 261
#     4  10  17  28  44  60  83 115 147 181 221 263
#     4   8  16  31  48  64  87 118 147 178 221 272
#     4  10  18  27  42  65  89 112 142 179 219 260
#     4   9  18  31  44  61  86 116 150 182 218 261
#     4  11  21  31  44  62  87 119 155 190 221 256
#     4   9  19  31  42  57  80 113 151 184 218 260
#
# _framework density 14.999117
#
# number of rings (size 3 to 8) (size 9 to 14) (size 15 to 20)
#    0.857    1.714    0.000    3.429    0.000    4.857 
#    0.000    0.000    0.000    0.000    0.000    0.000 
#    0.000    1.143    0.000    3.429    0.000    5.286 
#
# Total GULP energy -347019.948968 kJ/mol
# GULP energy per Si atom -12393.569606 kJ/mol
# Density = 1.496498 g / cm^3
# Si number density = 14.999117 Si / 1000 Ang^3
#
#
#
# Elastic Constant Matrix: (Units=GPa)
#
#
# Indices 1 2 3 4 5 6 
#
# 1 101.0429 50.0016 40.1882 0.0000 -23.2615 0.0000
# 2 50.0016 95.3297 34.1363 0.0000 -17.7701 0.0000
# 3 40.1882 34.1363 67.1037 0.0000 -18.6871 0.0000
# 4 0.0000 0.0000 0.0000 18.2835 0.0000 -3.4649
# 5 -23.2615 -17.7701 -18.6871 0.0000 21.9545 0.0000
# 6 0.0000 0.0000 0.0000 -3.4649 0.0000 26.2728
#
#
#
# Elastic Compliance Matrix: (Units=1/GPa)
#
#
# Indices 1 2 3 4 5 6 
#
# 1 0.016464 -0.005259 -0.004604 0.000000 0.009269 0.000000
# 2 -0.005259 0.015214 -0.003555 0.000000 0.003716 0.000000
# 3 -0.004604 -0.003555 0.022685 0.000000 0.011554 0.000000
# 4 0.000000 0.000000 0.000000 0.056096 0.000000 0.007398
# 5 0.009269 0.003716 0.011554 0.000000 0.068212 0.000000
# 6 0.000000 0.000000 0.000000 0.007398 0.000000 0.039038
#
#
# Mechanical properties :
#
#
# Convention : Reuss Voigt Hill
#
# Bulk Modulus (GPa) = 36.32670 56.90315 46.61492
# Shear Modulus (GPa) = 19.70664 22.57886 21.14275
#
# Velocity S-wave (km/s) = 3.62864 3.88409 3.75854
# Velocity P-wave (km/s) = 6.46745 7.62462 7.06975
#
# Compressibility (1/GPa) = 0.02752796
#
# Stress axis : x y z
#
# Youngs Moduli (GPa) = 60.73749 65.72807 44.08115
#
# Poissons Ratio (x) = 0.34569 0.20294
# Poissons Ratio (y) = 0.31944 0.15670
# Poissons Ratio (z) = 0.27962 0.23366
#
# Static dielectric constant tensor:
#      x y z
#    x 2.844230 0.000000 -0.135290 
#    y 0.000000 2.948070 0.000000 
#    z -0.135290 0.000000 2.670610 
# 
# 
# High freq. dielectric constant tensor:
#      x y z
#    x 1.554840 0.000000 -0.023420 
#    y 0.000000 1.588600 0.000000 
#    z -0.023420 0.000000 1.534850 
# 
# From -- ./inp_files/326501.got.cif
#   From: 2010.06.25/outbox.cif.g09.slc.cpg/sg12_164_cif.got.tgz:326501.got - 2010.06.28 00:19:55.
