data_PCOD8078574
_publ_section_title
;
Structure prediction by ZEFSAII (Michael W. Deem and Ramdas Pophale) SiO2 
 PCOD8078574
Probable space group: C 2/M
;
_chemical_formula_sum "Si O2"
_cell_formula_units_Z 40
_cell_length_a 19.102479
_cell_length_b 8.669077
_cell_length_c 14.081009
_cell_angle_alpha 90.000000
_cell_angle_beta 69.980721
_cell_angle_gamma 90.000000
_cell_volume 2190.932351
_symmetry_space_group_name_H-M "C 2/M"
_symmetry_group_IT_number 12
_symmetry_cell_setting 'monoclinic'
loop_
_space_group_symop_operation_xyz
x,y,z
-x,y,-z
-x,-y,-z
x,-y,z
1/2+x,1/2+y,z
1/2-x,1/2+y,-z
1/2-x,1/2-y,-z
1/2+x,1/2-y,z
loop_
_atom_site_type_symbol
_atom_site_label
_atom_site_fract_x
_atom_site_fract_y
_atom_site_fract_z
Si Si1 0.586236 0.672093 0.488951
Si Si2 0.180137 0.817971 0.086276
Si Si3 0.520530 0.681561 0.705679
Si Si4 0.368340 0.821946 0.710119
Si Si5 0.524124 0.182422 0.093506
O O1 0.500000 0.684920 0.500000
O O2 0.615790 0.500000 0.458699
O O3 0.589324 0.714704 0.600662
O O4 0.638849 0.778872 0.398670
O O5 0.186896 0.773208 0.195036
O O6 0.106415 0.745060 0.074874
O O7 0.177726 0.000000 0.075784
O O8 0.250000 0.750000 0.000000
O O9 0.499731 0.500000 0.712678
O O10 0.451536 0.783718 0.703480
O O11 0.535969 0.738460 0.806009
O O12 0.349858 0.000000 0.731696
O O13 0.522583 0.000000 0.107870
O O14 0.500000 0.232289 0.000000
#
# Coordination Sequence:
#
# PCOD8078574 Si02
#       5
#     8   8   8   8   8
#     4   8  14  24  37  57  86 118 150 186 231 277
#     4  11  21  34  51  70  96 127 161 199 238 282
#     4   9  16  26  41  61  88 121 155 191 232 278
#     4  10  17  25  40  63  90 119 152 189 233 281
#     4  10  20  33  49  71  99 128 160 198 238 281
#
# _framework density 18.257068
#
# number of rings (size 3 to 8) (size 9 to 14) (size 15 to 20)
#    0.000    2.400    0.000    8.400    0.000    6.000 
#    0.000    0.000    0.000    0.000    0.000    1.400 
#    0.000    0.000    0.000    0.000    0.000    0.000 
#
# Total GULP energy -247778.016661 kJ/mol
# GULP energy per Si atom -12388.900833 kJ/mol
# Density = 1.821551 g / cm^3
# Si number density = 18.257068 Si / 1000 Ang^3
#
#
#
# Elastic Constant Matrix: (Units=GPa)
#
#
# Indices 1 2 3 4 5 6 
#
# 1 26.5845 16.0351 38.2158 0.0000 5.4022 0.0000
# 2 16.0351 73.6359 50.3329 0.0000 7.4070 0.0000
# 3 38.2158 50.3329 199.3509 0.0000 14.4055 0.0000
# 4 0.0000 0.0000 0.0000 39.1268 0.0000 1.0009
# 5 5.4022 7.4070 14.4055 0.0000 21.6952 0.0000
# 6 0.0000 0.0000 0.0000 1.0009 0.0000 13.7045
#
#
#
# Elastic Compliance Matrix: (Units=1/GPa)
#
#
# Indices 1 2 3 4 5 6 
#
# 1 0.054519 -0.005344 -0.008669 0.000000 -0.005995 0.000000
# 2 -0.005344 0.017124 -0.003123 0.000000 -0.002442 0.000000
# 3 -0.008669 -0.003123 0.007598 0.000000 -0.001820 0.000000
# 4 0.000000 0.000000 0.000000 0.025606 0.000000 -0.001870
# 5 -0.005995 -0.002442 -0.001820 0.000000 0.049628 0.000000
# 6 0.000000 0.000000 0.000000 -0.001870 0.000000 0.073105
#
#
# Mechanical properties :
#
#
# Convention : Reuss Voigt Hill
#
# Bulk Modulus (GPa) = 22.23668 56.52656 39.38162
# Shear Modulus (GPa) = 18.06088 27.90447 22.98267
#
# Velocity S-wave (km/s) = 3.14865 3.91374 3.55186
# Velocity P-wave (km/s) = 5.04231 7.17300 6.19987
#
# Compressibility (1/GPa) = 0.04497075
#
# Stress axis : x y z
#
# Youngs Moduli (GPa) = 18.34222 58.39716 131.61145
#
# Poissons Ratio (x) = 0.31205 1.14094
# Poissons Ratio (y) = 0.09801 0.41099
# Poissons Ratio (z) = 0.15901 0.18236
#
# Static dielectric constant tensor:
#      x y z
#    x 2.647570 0.000000 0.244450 
#    y 0.000000 3.443040 0.000000 
#    z 0.244450 0.000000 4.536430 
# 
# 
# High freq. dielectric constant tensor:
#      x y z
#    x 1.611620 0.000000 0.010990 
#    y 0.000000 1.720220 0.000000 
#    z 0.010990 0.000000 1.746580 
# 
# From -- ./inp_files/221221.got.cif
#   From: 2010.06.25/outbox.cif.g09.slc.cpg/sg12_111_cif.got.tgz:221221.got - 2010.06.28 00:19:55.
