data_PCOD8078403
_publ_section_title
;
Structure prediction by ZEFSAII (Michael W. Deem and Ramdas Pophale) SiO2 
 PCOD8078403
Probable space group: C 2/M
;
_chemical_formula_sum "Si O2"
_cell_formula_units_Z 44
_cell_length_a 17.441288
_cell_length_b 22.878174
_cell_length_c 6.612907
_cell_angle_alpha 90.000000
_cell_angle_beta 87.663180
_cell_angle_gamma 90.000000
_cell_volume 2636.519679
_symmetry_space_group_name_H-M "C 2/M"
_symmetry_group_IT_number 12
_symmetry_cell_setting 'monoclinic'
loop_
_space_group_symop_operation_xyz
x,y,z
-x,y,-z
-x,-y,-z
x,-y,z
1/2+x,1/2+y,z
1/2-x,1/2+y,-z
1/2-x,1/2-y,-z
1/2+x,1/2-y,z
loop_
_atom_site_type_symbol
_atom_site_label
_atom_site_fract_x
_atom_site_fract_y
_atom_site_fract_z
Si Si1 0.112682 0.066646 0.784354
Si Si2 0.286825 0.373969 0.554757
Si Si3 0.743840 0.934677 0.945486
Si Si4 0.284022 0.171354 0.822306
Si Si5 0.000000 0.851276 0.000000
Si Si6 0.351035 0.291047 0.879404
O O1 0.151042 0.089265 0.575439
O O2 0.086084 0.000000 0.755849
O O3 0.170599 0.071642 0.968840
O O4 0.038381 0.106436 0.830076
O O5 0.245685 0.420202 0.707660
O O6 0.225392 0.343636 0.412847
O O7 0.323505 0.321948 0.678603
O O8 0.711551 0.000000 0.981830
O O9 0.688977 0.887847 0.064568
O O10 0.347558 0.221242 0.844805
O O11 0.201825 0.191911 0.923182
O O12 0.938439 0.808454 0.906074
#
# Coordination Sequence:
#
# PCOD8078403 Si02
#       6
#     8   8   8   8   4   8
#     4  10  20  32  45  67 101 135 162 191 226 274
#     4  10  16  32  49  70  91 127 167 194 239 271
#     4   9  17  31  50  72  97 123 160 197 233 284
#     4   9  18  34  49  68  92 128 157 201 241 278
#     4  12  19  36  44  68  97 134 164 198 228 276
#     4  10  20  32  49  66  96 125 166 199 235 277
#
# _framework density 16.688666000000001
#
# number of rings (size 3 to 8) (size 9 to 14) (size 15 to 20)
#    0.000    2.182    5.455    1.364    0.000    1.455 
#    0.000    0.909    0.000    0.000    0.000    0.636 
#    0.000    1.455    0.000    0.000    0.000    0.000 
#
# Total GULP energy -272731.895986 kJ/mol
# GULP energy per Si atom -12396.904363 kJ/mol
# Density = 1.665068 g / cm^3
# Si number density = 16.688666 Si / 1000 Ang^3
#
#
#
# Elastic Constant Matrix: (Units=GPa)
#
#
# Indices 1 2 3 4 5 6 
#
# 1 35.0465 45.1984 15.5499 0.0000 0.1640 0.0000
# 2 45.1984 171.9999 47.3294 0.0000 4.3227 0.0000
# 3 15.5499 47.3294 107.0423 0.0000 3.7010 0.0000
# 4 0.0000 0.0000 0.0000 23.7101 0.0000 -0.7575
# 5 0.1640 4.3227 3.7010 0.0000 5.4551 0.0000
# 6 0.0000 0.0000 0.0000 -0.7575 0.0000 29.6898
#
#
#
# Elastic Compliance Matrix: (Units=1/GPa)
#
#
# Indices 1 2 3 4 5 6 
#
# 1 0.043754 -0.011255 -0.001682 0.000000 0.008744 0.000000
# 2 -0.011255 0.009574 -0.002404 0.000000 -0.005617 0.000000
# 3 -0.001682 -0.002404 0.010836 0.000000 -0.005396 0.000000
# 4 0.000000 0.000000 0.000000 0.042211 0.000000 0.001077
# 5 0.008744 -0.005617 -0.005396 0.000000 0.191164 0.000000
# 6 0.000000 0.000000 0.000000 0.001077 0.000000 0.033709
#
#
# Mechanical properties :
#
#
# Convention : Reuss Voigt Hill
#
# Bulk Modulus (GPa) = 29.86655 58.91600 44.39128
# Shear Modulus (GPa) = 13.40162 25.50507 19.45334
#
# Velocity S-wave (km/s) = 2.83687 3.91357 3.41788
# Velocity P-wave (km/s) = 5.35402 7.47001 6.49872
#
# Compressibility (1/GPa) = 0.03348227
#
# Stress axis : x y z
#
# Youngs Moduli (GPa) = 22.85527 104.44782 92.28477
#
# Poissons Ratio (x) = 1.17551 0.15523
# Poissons Ratio (y) = 0.25723 0.22186
# Poissons Ratio (z) = 0.03844 0.25111
#
# Static dielectric constant tensor:
#      x y z
#    x 2.631080 0.000000 -0.004310 
#    y 0.000000 3.554890 0.000000 
#    z -0.004310 0.000000 3.173420 
# 
# 
# High freq. dielectric constant tensor:
#      x y z
#    x 1.571870 0.000000 0.001420 
#    y 0.000000 1.665550 0.000000 
#    z 0.001420 0.000000 1.652390 
# 
# From -- ./inp_files/12123.got.cif
#   From: 2010.06.25/outbox.cif.g09.slc.cpg/sg12_7_cif.got.tgz:12123.got - 2010.06.28 00:19:55.
