data_PCOD8078355
_publ_section_title
;
Structure prediction by ZEFSAII (Michael W. Deem and Ramdas Pophale) SiO2 
 PCOD8078355
Probable space group: C 2/M
;
_chemical_formula_sum "Si O2"
_cell_formula_units_Z 48
_cell_length_a 5.224963
_cell_length_b 33.867081
_cell_length_c 15.057060
_cell_angle_alpha 90.000000
_cell_angle_beta 65.332110
_cell_angle_gamma 90.000000
_cell_volume 2421.262477
_symmetry_space_group_name_H-M "C 2/M"
_symmetry_group_IT_number 12
_symmetry_cell_setting 'monoclinic'
loop_
_space_group_symop_operation_xyz
x,y,z
-x,y,-z
-x,-y,-z
x,-y,z
1/2+x,1/2+y,z
1/2-x,1/2+y,-z
1/2-x,1/2-y,-z
1/2+x,1/2-y,z
loop_
_atom_site_type_symbol
_atom_site_label
_atom_site_fract_x
_atom_site_fract_y
_atom_site_fract_z
Si Si1 0.083094 0.347048 0.236261
Si Si2 0.670295 0.454849 0.061369
Si Si3 0.334240 0.728072 0.115543
Si Si4 0.419851 0.601984 0.762924
Si Si5 0.197630 0.917691 0.541964
Si Si6 0.299587 0.170884 0.457146
O O1 0.196978 0.314321 0.152731
O O2 0.358822 0.365965 0.238016
O O3 0.883208 0.377860 0.212653
O O4 0.915960 0.326986 0.340958
O O5 0.579766 0.500000 0.091061
O O6 0.596054 0.430743 0.159362
O O7 0.500000 0.438410 0.000000
O O8 0.000000 0.450619 0.000000
O O9 0.569769 0.741305 0.153063
O O10 0.500000 0.725570 0.000000
O O11 0.539849 0.581082 0.658248
O O12 0.500000 0.939669 0.500000
O O13 0.252606 0.873744 0.497226
O O14 0.000000 0.940398 0.500000
O O15 0.500000 0.192561 0.500000
O O16 0.000000 0.193273 0.500000
#
# Coordination Sequence:
#
# PCOD8078355 Si02
#       6
#     8   8   8   8   8   8
#     4  12  21  33  61  92 110 143 196 244 277 330
#     4  10  23  43  60  79 119 164 190 228 295 350
#     4  10  23  43  59  75 110 156 188 227 296 355
#     4  12  21  33  60  93 111 145 197 244 276 329
#     4  10  16  30  49  80 115 150 174 221 283 349
#     4  10  16  30  49  80 113 149 172 220 283 350
#
# _framework density 19.824369000000001
#
# number of rings (size 3 to 8) (size 9 to 14) (size 15 to 20)
#    0.000    1.333    6.667    2.000    0.000    2.000 
#    0.000    0.000    0.000    4.000    0.000    0.000 
#    0.000    0.000    0.000    0.000    0.000    0.000 
#
# Total GULP energy -297460.219249 kJ/mol
# GULP energy per Si atom -12394.175802 kJ/mol
# Density = 1.977925 g / cm^3
# Si number density = 19.824369 Si / 1000 Ang^3
#
#
#
# Elastic Constant Matrix: (Units=GPa)
#
#
# Indices 1 2 3 4 5 6 
#
# 1 172.4395 23.4575 42.3487 0.0000 8.3634 0.0000
# 2 23.4575 36.4219 35.9605 0.0000 0.7192 0.0000
# 3 42.3487 35.9605 68.4127 0.0000 -3.4777 0.0000
# 4 0.0000 0.0000 0.0000 0.6260 0.0000 -0.4784
# 5 8.3634 0.7192 -3.4777 0.0000 29.4384 0.0000
# 6 0.0000 0.0000 0.0000 -0.4784 0.0000 -6.0589
#
#
#
# Elastic Compliance Matrix: (Units=1/GPa)
#
#
# Indices 1 2 3 4 5 6 
#
# 1 0.007020 -0.000114 -0.004413 0.000000 -0.002513 0.000000
# 2 -0.000114 0.057813 -0.030572 0.000000 -0.004992 0.000000
# 3 -0.004413 -0.030572 0.033723 0.000000 0.005985 0.000000
# 4 0.000000 0.000000 0.000000 1.506464 0.000000 -0.118955
# 5 -0.002513 -0.004992 0.005985 0.000000 0.035512 0.000000
# 6 0.000000 0.000000 0.000000 -0.118955 0.000000 -0.155652
#
#
# Mechanical properties :
#
#
# Convention : Reuss Voigt Hill
#
# Bulk Modulus (GPa) = 35.26427 53.42305 44.34366
# Shear Modulus (GPa) = 3.19584 16.50158 9.84871
#
# Velocity S-wave (km/s) = 1.27105 2.88824 2.23132
# Velocity P-wave (km/s) = 4.47002 6.17489 5.39029
#
# Compressibility (1/GPa) = 0.02835732
#
# Stress axis : x y z
#
# Youngs Moduli (GPa) = 142.44087 17.29722 29.65318
#
# Poissons Ratio (x) = 0.00198 0.13087
# Poissons Ratio (y) = 0.01629 0.90655
# Poissons Ratio (z) = 0.62865 0.52881
#
# Static dielectric constant tensor:
#      x y z
#    x -46.213190 0.000000 -10.529570 
#    y 0.000000 3.074450 0.000000 
#    z -10.529570 0.000000 1.176250 
# 
# 
# High freq. dielectric constant tensor:
#      x y z
#    x 1.814040 0.000000 -0.002040 
#    y 0.000000 1.713320 0.000000 
#    z -0.002040 0.000000 1.778230 
# 
# From -- ./inp_files/192516.got.cif
#   From: 2010.06.25/outbox.cif.g09.slc.cpg/sg12_97_cif.got.tgz:192516.got - 2010.06.28 00:19:55.
