data_PCOD8078339
_publ_section_title
;
Structure prediction by ZEFSAII (Michael W. Deem and Ramdas Pophale) SiO2 
 PCOD8078339
Probable space group: C 2/M
;
_chemical_formula_sum "Si O2"
_cell_formula_units_Z 56
_cell_length_a 19.400936
_cell_length_b 14.494180
_cell_length_c 14.518109
_cell_angle_alpha 90.000000
_cell_angle_beta 131.212510
_cell_angle_gamma 90.000000
_cell_volume 3071.148015
_symmetry_space_group_name_H-M "C 2/M"
_symmetry_group_IT_number 12
_symmetry_cell_setting 'monoclinic'
loop_
_space_group_symop_operation_xyz
x,y,z
-x,y,-z
-x,-y,-z
x,-y,z
1/2+x,1/2+y,z
1/2-x,1/2+y,-z
1/2-x,1/2-y,-z
1/2+x,1/2-y,z
loop_
_atom_site_type_symbol
_atom_site_label
_atom_site_fract_x
_atom_site_fract_y
_atom_site_fract_z
Si Si1 0.157428 0.644476 0.940941
Si Si2 0.818009 0.788688 0.770677
Si Si3 0.962400 0.606506 0.325399
Si Si4 0.394617 0.898052 0.909506
Si Si5 0.175156 0.846374 0.021592
Si Si6 0.143953 0.391647 0.583727
Si Si7 0.019686 0.101199 0.124661
O O1 0.071603 0.658740 0.796144
O O2 0.187113 0.741066 0.007346
O O3 0.132001 0.584555 0.007443
O O4 0.243473 0.599221 0.960265
O O5 0.830753 0.678926 0.802605
O O6 0.725175 0.817648 0.635640
O O7 0.903514 0.822680 0.782924
O O8 0.813188 0.852745 0.858029
O O9 0.947891 0.500000 0.291541
O O10 0.901245 0.634808 0.358768
O O11 0.069113 0.627435 0.438116
O O12 0.384379 0.000000 0.852984
O O13 0.500000 0.863056 0.000000
O O14 0.075229 0.883196 0.903552
O O15 0.174354 0.500000 0.608179
O O16 0.057314 0.000000 0.183062
O O17 0.000000 0.111272 0.000000
#
# Coordination Sequence:
#
# PCOD8078339 Si02
#       7
#     8   8   8   8   8   8   8
#     4  10  17  30  48  68  97 131 161 198 244 280
#     4  10  16  30  48  68  99 130 156 193 239 290
#     4   9  17  28  44  70 100 128 161 198 238 284
#     4  10  21  34  49  69  95 128 167 207 244 283
#     4   9  18  27  43  70  99 126 158 195 234 293
#     4   9  17  28  45  72 102 129 159 195 237 288
#     4   9  17  27  42  67  96 128 156 184 235 296
#
# _framework density 18.234224000000001
#
# number of rings (size 3 to 8) (size 9 to 14) (size 15 to 20)
#    0.000    2.571    1.429    3.857    0.000    1.714 
#    0.000    0.000    0.000    3.429    0.000    5.000 
#    0.000    0.000    0.000    0.000    0.000    0.000 
#
# Total GULP energy -346866.661363 kJ/mol
# GULP energy per Si atom -12388.095049 kJ/mol
# Density = 1.819272 g / cm^3
# Si number density = 18.234224 Si / 1000 Ang^3
#
#
#
# Elastic Constant Matrix: (Units=GPa)
#
#
# Indices 1 2 3 4 5 6 
#
# 1 86.0575 22.2394 29.9251 0.0000 25.1006 0.0000
# 2 22.2394 70.4367 23.1526 0.0000 18.5103 0.0000
# 3 29.9251 23.1526 73.2650 0.0000 25.1872 0.0000
# 4 0.0000 0.0000 0.0000 11.9791 0.0000 11.0499
# 5 25.1006 18.5103 25.1872 0.0000 26.2736 0.0000
# 6 0.0000 0.0000 0.0000 11.0499 0.0000 13.0539
#
#
#
# Elastic Compliance Matrix: (Units=1/GPa)
#
#
# Indices 1 2 3 4 5 6 
#
# 1 0.016364 -0.001127 -0.001829 0.000000 -0.013087 0.000000
# 2 -0.001127 0.017683 -0.001812 0.000000 -0.009644 0.000000
# 3 -0.001829 -0.001812 0.020776 0.000000 -0.016893 0.000000
# 4 0.000000 0.000000 0.000000 0.380856 0.000000 -0.322386
# 5 -0.013087 -0.009644 -0.016893 0.000000 0.073553 0.000000
# 6 0.000000 0.000000 0.000000 -0.322386 0.000000 0.349498
#
#
# Mechanical properties :
#
#
# Convention : Reuss Voigt Hill
#
# Bulk Modulus (GPa) = 22.08096 42.26595 32.17346
# Shear Modulus (GPa) = 5.66019 20.55748 13.10884
#
# Velocity S-wave (km/s) = 1.76377 3.36134 2.68417
# Velocity P-wave (km/s) = 4.03532 6.18826 5.22390
#
# Compressibility (1/GPa) = 0.04528788
#
# Stress axis : x y z
#
# Youngs Moduli (GPa) = 61.10867 56.55140 48.13160
#
# Poissons Ratio (x) = 0.06371 0.08804
# Poissons Ratio (y) = 0.06884 0.08723
# Poissons Ratio (z) = 0.11177 0.10249
#
# Static dielectric constant tensor:
#      x y z
#    x 3.790890 0.000000 0.244510 
#    y 0.000000 3.135180 0.000000 
#    z 0.244510 0.000000 3.108770 
# 
# 
# High freq. dielectric constant tensor:
#      x y z
#    x 1.705590 0.000000 0.026140 
#    y 0.000000 1.693250 0.000000 
#    z 0.026140 0.000000 1.665150 
# 
# From -- ./inp_files/225401.got.cif
#   From: 2010.06.25/outbox.cif.g09.slc.cpg/sg12_113_cif.got.tgz:225401.got - 2010.06.28 00:19:55.
