data_PCOD8078085
_publ_section_title
;
Structure prediction by ZEFSAII (Michael W. Deem and Ramdas Pophale) SiO2 
 PCOD8078085
Probable space group: C 2/M
;
_chemical_formula_sum "Si O2"
_cell_formula_units_Z 48
_cell_length_a 18.875585
_cell_length_b 19.753660
_cell_length_c 9.083846
_cell_angle_alpha 90.000000
_cell_angle_beta 120.158956
_cell_angle_gamma 90.000000
_cell_volume 2928.535744
_symmetry_space_group_name_H-M "C 2/M"
_symmetry_group_IT_number 12
_symmetry_cell_setting 'monoclinic'
loop_
_space_group_symop_operation_xyz
x,y,z
-x,y,-z
-x,-y,-z
x,-y,z
1/2+x,1/2+y,z
1/2-x,1/2+y,-z
1/2-x,1/2-y,-z
1/2+x,1/2-y,z
loop_
_atom_site_type_symbol
_atom_site_label
_atom_site_fract_x
_atom_site_fract_y
_atom_site_fract_z
Si Si1 0.798894 0.250716 0.200387
Si Si2 0.465836 0.689905 0.310164
Si Si3 0.299528 0.645743 0.742983
Si Si4 0.070569 0.923062 0.958998
Si Si5 0.269265 0.818938 0.606778
Si Si6 0.071865 0.258986 0.185464
O O1 0.894211 0.244161 0.263581
O O2 0.780323 0.323056 0.258946
O O3 0.772574 0.186259 0.276299
O O4 0.750000 0.250000 0.000000
O O5 0.500000 0.662271 0.500000
O O6 0.433932 0.625146 0.186916
O O7 0.537457 0.730546 0.302444
O O8 0.272414 0.625087 0.545956
O O9 0.371612 0.702104 0.831479
O O10 0.339663 0.582048 0.868758
O O11 0.058073 0.000000 0.893447
O O12 0.000000 0.901199 0.000000
O O13 0.250000 0.750000 0.500000
O O14 0.368664 0.824266 0.723646
O O15 0.000000 0.280805 0.000000
#
# Coordination Sequence:
#
# PCOD8078085 Si02
#       6
#     8   8   8   8   8   8
#     4  10  17  26  44  69  88 119 146 184 240 284
#     4  12  19  28  46  69  96 119 150 194 240 269
#     4  10  16  33  44  60  91 125 156 188 223 272
#     4  11  22  34  48  62  85 133 175 188 212 264
#     4   8  17  26  42  62  87 120 152 175 223 280
#     4  10  15  28  44  64  94 126 144 173 224 289
#
# _framework density 16.390443999999999
#
# number of rings (size 3 to 8) (size 9 to 14) (size 15 to 20)
#    0.000    2.167    5.000    4.000    0.000    0.333 
#    0.000    0.000    0.000    0.000    0.000    0.000 
#    0.000    6.667    0.000    2.000    0.000    0.000 
#
# Total GULP energy -297352.968129 kJ/mol
# GULP energy per Si atom -12389.707005 kJ/mol
# Density = 1.635314 g / cm^3
# Si number density = 16.390444 Si / 1000 Ang^3
#
#
#
# Elastic Constant Matrix: (Units=GPa)
#
#
# Indices 1 2 3 4 5 6 
#
# 1 72.2353 19.6834 14.8537 0.0000 -0.7602 0.0000
# 2 19.6834 26.5982 13.1249 0.0000 0.8708 0.0000
# 3 14.8537 13.1249 120.8420 0.0000 -2.0595 0.0000
# 4 0.0000 0.0000 0.0000 13.0745 0.0000 2.2774
# 5 -0.7602 0.8708 -2.0595 0.0000 34.1109 0.0000
# 6 0.0000 0.0000 0.0000 2.2774 0.0000 10.9882
#
#
#
# Elastic Compliance Matrix: (Units=1/GPa)
#
#
# Indices 1 2 3 4 5 6 
#
# 1 0.017425 -0.012537 -0.000769 0.000000 0.000662 0.000000
# 2 -0.012537 0.048802 -0.003789 0.000000 -0.001754 0.000000
# 3 -0.000769 -0.003789 0.008792 0.000000 0.000610 0.000000
# 4 0.000000 0.000000 0.000000 0.079350 0.000000 -0.016446
# 5 0.000662 -0.001754 0.000610 0.000000 0.029413 0.000000
# 6 0.000000 0.000000 0.000000 -0.016446 0.000000 0.094416
#
#
# Mechanical properties :
#
#
# Convention : Reuss Voigt Hill
#
# Bulk Modulus (GPa) = 24.49321 34.99994 29.74658
# Shear Modulus (GPa) = 15.33759 23.10227 19.21993
#
# Velocity S-wave (km/s) = 3.06235 3.75840 3.42808
# Velocity P-wave (km/s) = 5.24213 6.34305 5.81869
#
# Compressibility (1/GPa) = 0.04082764
#
# Stress axis : x y z
#
# Youngs Moduli (GPa) = 57.38877 20.49106 113.74314
#
# Poissons Ratio (x) = 0.25690 0.08745
# Poissons Ratio (y) = 0.71950 0.43100
# Poissons Ratio (z) = 0.04412 0.07765
#
# Static dielectric constant tensor:
#      x y z
#    x 3.514380 0.000000 0.118150 
#    y 0.000000 2.639270 0.000000 
#    z 0.118150 0.000000 3.865820 
# 
# 
# High freq. dielectric constant tensor:
#      x y z
#    x 1.637200 0.000000 -0.000310 
#    y 0.000000 1.544500 0.000000 
#    z -0.000310 0.000000 1.658340 
# 
# From -- ./inp_files/78363.got.cif
#   From: 2010.06.25/outbox.cif.g09.slc.cpg/sg12_40_cif.got.tgz:78363.got - 2010.06.28 00:19:55.
