data_PCOD8078160
_publ_section_title
;
Structure prediction by ZEFSAII (Michael W. Deem and Ramdas Pophale) SiO2 
 PCOD8078160
Probable space group: C 2/M
;
_chemical_formula_sum "Si O2"
_cell_formula_units_Z 36
_cell_length_a 5.298514
_cell_length_b 18.051818
_cell_length_c 24.295338
_cell_angle_alpha 90.000000
_cell_angle_beta 56.960911
_cell_angle_gamma 90.000000
_cell_volume 1948.035306
_symmetry_space_group_name_H-M "C 2/M"
_symmetry_group_IT_number 12
_symmetry_cell_setting 'monoclinic'
loop_
_space_group_symop_operation_xyz
x,y,z
-x,y,-z
-x,-y,-z
x,-y,z
1/2+x,1/2+y,z
1/2-x,1/2+y,-z
1/2-x,1/2-y,-z
1/2+x,1/2-y,z
loop_
_atom_site_type_symbol
_atom_site_label
_atom_site_fract_x
_atom_site_fract_y
_atom_site_fract_z
Si Si1 0.856948 0.836613 0.857216
Si Si2 0.876969 0.204420 0.649202
Si Si3 0.500000 0.798756 0.000000
Si Si4 0.149767 0.086272 0.540094
Si Si5 0.994680 0.671723 0.802122
O O1 0.661590 0.850242 0.935363
O O2 0.897508 0.749217 0.840990
O O3 0.689687 0.873157 0.824357
O O4 0.188507 0.873157 0.824354
O O5 0.672758 0.249990 0.630878
O O6 0.687258 0.183898 0.725094
O O7 0.978381 0.128888 0.608650
O O8 0.750000 0.750000 0.000000
O O9 0.500000 0.108547 0.500000
O O10 0.000000 0.108548 0.500000
O O11 0.105812 0.000000 0.557676
#
# Coordination Sequence:
#
# PCOD8078160 Si02
#       5
#     8   8   4   8   8
#     4  10  16  25  36  54  90 126 156 190 234 284
#     4  12  21  32  55  80 100 128 168 203 250 297
#     4  12  16  20  34  52  74 128 170 178 214 292
#     4  10  23  42  57  73 102 135 162 200 253 300
#     4  10  16  27  38  59  91 120 149 189 246 278
#
# _framework density 18.480159
#
# number of rings (size 3 to 8) (size 9 to 14) (size 15 to 20)
#    0.000    1.333    8.889    1.333    0.000    2.667 
#    0.000    0.000    0.000    0.000    0.000    0.000 
#    0.000    0.000    0.000   11.000    0.000    0.444 
#
# Total GULP energy -223118.950630 kJ/mol
# GULP energy per Si atom -12395.497257 kJ/mol
# Density = 1.843810 g / cm^3
# Si number density = 18.480159 Si / 1000 Ang^3
#
#
#
# Elastic Constant Matrix: (Units=GPa)
#
#
# Indices 1 2 3 4 5 6 
#
# 1 206.9331 25.2918 41.2062 0.0000 -1.3079 0.0000
# 2 25.2918 29.1537 45.6400 0.0000 0.1962 0.0000
# 3 41.2062 45.6400 118.7337 0.0000 0.3640 0.0000
# 4 0.0000 0.0000 0.0000 -1.1266 0.0000 -0.0756
# 5 -1.3079 0.1962 0.3640 0.0000 20.7214 0.0000
# 6 0.0000 0.0000 0.0000 -0.0756 0.0000 6.2188
#
#
#
# Elastic Compliance Matrix: (Units=1/GPa)
#
#
# Indices 1 2 3 4 5 6 
#
# 1 0.005410 -0.004407 -0.000185 0.000000 0.000386 0.000000
# 2 -0.004407 0.089722 -0.032957 0.000000 -0.000549 0.000000
# 3 -0.000185 -0.032957 0.021155 0.000000 -0.000071 0.000000
# 4 0.000000 0.000000 0.000000 -0.886884 0.000000 -0.010782
# 5 0.000386 -0.000549 -0.000071 0.000000 0.048290 0.000000
# 6 0.000000 0.000000 0.000000 -0.010782 0.000000 0.160673
#
#
# Mechanical properties :
#
#
# Convention : Reuss Voigt Hill
#
# Bulk Modulus (GPa) = 24.27794 64.34404 44.31099
# Shear Modulus (GPa) = -10.57515 21.34155 5.38320
#
# Velocity S-wave (km/s) = -2.39476 3.40197 1.70859
# Velocity P-wave (km/s) = 2.34933 7.09399 5.28413
#
# Compressibility (1/GPa) = 0.04118966
#
# Stress axis : x y z
#
# Youngs Moduli (GPa) = 184.83096 11.14554 47.27021
#
# Poissons Ratio (x) = 0.04912 0.00874
# Poissons Ratio (y) = 0.81451 1.55789
# Poissons Ratio (z) = 0.03418 0.36733
#
# Static dielectric constant tensor:
#      x y z
#    x 5.829910 0.000000 -0.024070 
#    y 0.000000 2.654710 0.000000 
#    z -0.024070 0.000000 3.502100 
# 
# 
# High freq. dielectric constant tensor:
#      x y z
#    x 1.761920 0.000000 -0.000310 
#    y 0.000000 1.623010 0.000000 
#    z -0.000310 0.000000 1.732050 
# 
# From -- ./inp_files/252487.got.cif
#   From: 2010.06.25/outbox.cif.g09.slc.cpg/sg12_127_cif.got.tgz:252487.got - 2010.06.28 00:19:55.
