data_PCOD8078365
_publ_section_title
;
Structure prediction by ZEFSAII (Michael W. Deem and Ramdas Pophale) SiO2 
 PCOD8078365
Probable space group: C 2/M
;
_chemical_formula_sum "Si O2"
_cell_formula_units_Z 56
_cell_length_a 19.983048
_cell_length_b 18.755407
_cell_length_c 12.049868
_cell_angle_alpha 90.000000
_cell_angle_beta 49.365442
_cell_angle_gamma 90.000000
_cell_volume 3427.226847
_symmetry_space_group_name_H-M "C 2/M"
_symmetry_group_IT_number 12
_symmetry_cell_setting 'monoclinic'
loop_
_space_group_symop_operation_xyz
x,y,z
-x,y,-z
-x,-y,-z
x,-y,z
1/2+x,1/2+y,z
1/2-x,1/2+y,-z
1/2-x,1/2-y,-z
1/2+x,1/2-y,z
loop_
_atom_site_type_symbol
_atom_site_label
_atom_site_fract_x
_atom_site_fract_y
_atom_site_fract_z
Si Si1 0.484999 0.140122 0.864674
Si Si2 0.763734 0.222096 0.813154
Si Si3 0.961962 0.791832 0.153627
Si Si4 0.888184 0.242944 0.866055
Si Si5 0.823681 0.581307 0.159873
Si Si6 0.156177 0.578722 0.607437
Si Si7 0.262656 0.301385 0.385128
O O1 0.543373 0.205089 0.855670
O O2 0.419281 0.174553 0.843404
O O3 0.550409 0.088155 0.728361
O O4 0.426553 0.098863 0.020727
O O5 0.858459 0.225310 0.773106
O O6 0.739986 0.138353 0.830260
O O7 0.770121 0.260914 0.688812
O O8 0.692839 0.267154 0.960673
O O9 0.865233 0.824313 0.274324
O O10 0.029942 0.808146 0.182554
O O11 0.000000 0.825974 0.000000
O O12 0.802470 0.500000 0.144031
O O13 0.806391 0.589439 0.309221
O O14 0.175959 0.500000 0.541911
O O15 0.201972 0.629844 0.468680
O O16 0.250000 0.250000 0.500000
#
# Coordination Sequence:
#
# PCOD8078365 Si02
#       7
#     8   8   8   8   8   8   8
#     4   9  16  29  48  76 107 130 168 201 263 306
#     4  10  17  32  50  76 108 131 176 215 247 302
#     4  10  16  30  51  80  96 128 172 218 250 293
#     4   8  18  29  52  78  98 129 172 218 252 286
#     4  10  18  28  49  77 110 139 164 208 266 317
#     4  11  21  31  47  77 110 137 168 211 264 315
#     4  12  19  31  53  75 102 139 170 210 255 308
#
# _framework density 16.339741
#
# number of rings (size 3 to 8) (size 9 to 14) (size 15 to 20)
#    0.857    1.143    4.286    1.714    0.000    1.143 
#    0.000    2.857    0.000   10.714    0.000    2.000 
#    0.000    0.000    0.000    0.000    0.000    0.000 
#
# Total GULP energy -346901.410464 kJ/mol
# GULP energy per Si atom -12389.336088 kJ/mol
# Density = 1.630255 g / cm^3
# Si number density = 16.339741 Si / 1000 Ang^3
#
#
#
# Elastic Constant Matrix: (Units=GPa)
#
#
# Indices 1 2 3 4 5 6 
#
# 1 93.6317 17.7315 38.0526 0.0000 10.2772 0.0000
# 2 17.7315 76.4539 34.7608 0.0000 2.5505 0.0000
# 3 38.0526 34.7608 87.3460 0.0000 -1.7305 0.0000
# 4 0.0000 0.0000 0.0000 21.8690 0.0000 -2.1665
# 5 10.2772 2.5505 -1.7305 0.0000 21.6202 0.0000
# 6 0.0000 0.0000 0.0000 -2.1665 0.0000 16.1649
#
#
#
# Elastic Compliance Matrix: (Units=1/GPa)
#
#
# Indices 1 2 3 4 5 6 
#
# 1 0.014005 -0.000210 -0.006159 0.000000 -0.007125 0.000000
# 2 -0.000210 0.016097 -0.006360 0.000000 -0.002308 0.000000
# 3 -0.006159 -0.006360 0.016763 0.000000 0.005020 0.000000
# 4 0.000000 0.000000 0.000000 0.046342 0.000000 0.006211
# 5 -0.007125 -0.002308 0.005020 0.000000 0.050314 0.000000
# 6 0.000000 0.000000 0.000000 0.006211 0.000000 0.062695
#
#
# Mechanical properties :
#
#
# Convention : Reuss Voigt Hill
#
# Bulk Modulus (GPa) = 46.71574 48.72461 47.72018
# Shear Modulus (GPa) = 20.93712 23.05661 21.99686
#
# Velocity S-wave (km/s) = 3.58349 3.76050 3.67307
# Velocity P-wave (km/s) = 6.76567 6.98138 6.87437
#
# Compressibility (1/GPa) = 0.02140606
#
# Stress axis : x y z
#
# Youngs Moduli (GPa) = 71.40274 62.12203 59.65691
#
# Poissons Ratio (x) = 0.01306 0.36742
# Poissons Ratio (y) = 0.01501 0.37944
# Poissons Ratio (z) = 0.43976 0.39512
#
# Static dielectric constant tensor:
#      x y z
#    x 3.000620 0.000000 0.114370 
#    y 0.000000 2.945840 0.000000 
#    z 0.114370 0.000000 2.896270 
# 
# 
# High freq. dielectric constant tensor:
#      x y z
#    x 1.617100 0.000000 -0.006360 
#    y 0.000000 1.594190 0.000000 
#    z -0.006360 0.000000 1.619480 
# 
# From -- ./inp_files/176795.got.cif
#   From: 2010.06.25/outbox.cif.g09.slc.cpg/sg12_89_cif.got.tgz:176795.got - 2010.06.28 00:19:55.
