data_PCOD8078778
_publ_section_title
;
Structure prediction by ZEFSAII (Michael W. Deem and Ramdas Pophale) SiO2 
 PCOD8078778
Probable space group: C 2/M
;
_chemical_formula_sum "Si O2"
_cell_formula_units_Z 56
_cell_length_a 27.757543
_cell_length_b 8.844190
_cell_length_c 14.615473
_cell_angle_alpha 90.000000
_cell_angle_beta 74.769472
_cell_angle_gamma 90.000000
_cell_volume 3461.973674
_symmetry_space_group_name_H-M "C 2/M"
_symmetry_group_IT_number 12
_symmetry_cell_setting 'monoclinic'
loop_
_space_group_symop_operation_xyz
x,y,z
-x,y,-z
-x,-y,-z
x,-y,z
1/2+x,1/2+y,z
1/2-x,1/2+y,-z
1/2-x,1/2-y,-z
1/2+x,1/2-y,z
loop_
_atom_site_type_symbol
_atom_site_label
_atom_site_fract_x
_atom_site_fract_y
_atom_site_fract_z
Si Si1 0.863144 0.321673 0.430155
Si Si2 0.945107 0.323698 0.525324
Si Si3 0.318788 0.324473 0.893439
Si Si4 0.208197 0.821772 0.398318
Si Si5 0.813420 0.321959 0.279025
Si Si6 0.863018 0.676204 0.707616
Si Si7 0.295708 0.823073 0.088272
O O1 0.861601 0.500000 0.446021
O O2 0.912326 0.255276 0.456786
O O3 0.813121 0.257780 0.500998
O O4 0.860415 0.281000 0.322544
O O5 0.951775 0.500000 0.502689
O O6 0.917756 0.295052 0.636137
O O7 0.000000 0.246238 0.500000
O O8 0.332005 0.500000 0.882128
O O9 0.359952 0.232100 0.813976
O O10 0.263456 0.289862 0.882755
O O11 0.323475 0.269254 0.995342
O O12 0.263749 0.759527 0.352655
O O13 0.176254 0.778153 0.326036
O O14 0.206235 0.000000 0.413528
O O15 0.806918 0.500000 0.272014
O O16 0.818838 0.260382 0.172697
O O17 0.849041 0.500000 0.706964
O O18 0.305873 0.000000 0.067533
#
# Coordination Sequence:
#
# PCOD8078778 Si02
#       7
#     8   8   8   8   8   8   8
#     4   9  17  28  43  62  83 112 146 175 210 258
#     4   8  15  28  45  66  88 108 137 179 220 255
#     4  10  18  29  43  62  87 115 145 180 214 248
#     4  10  17  27  40  58  87 117 143 175 210 246
#     4   9  16  27  41  59  85 116 146 174 208 247
#     4  10  18  28  45  65  85 114 148 178 213 258
#     4   9  17  29  42  58  85 119 148 176 208 247
#
# _framework density 16.175744000000002
#
# number of rings (size 3 to 8) (size 9 to 14) (size 15 to 20)
#    0.000    2.714    1.429    2.571    0.000    0.571 
#    0.000    1.429    0.000   10.714    0.000    1.000 
#    0.000    8.000    0.000    0.000    0.000    0.000 
#
# Total GULP energy -346958.521380 kJ/mol
# GULP energy per Si atom -12391.375764 kJ/mol
# Density = 1.613893 g / cm^3
# Si number density = 16.175744 Si / 1000 Ang^3
#
#
#
# Elastic Constant Matrix: (Units=GPa)
#
#
# Indices 1 2 3 4 5 6 
#
# 1 77.3781 14.0081 57.5651 0.0000 7.7926 0.0000
# 2 14.0081 25.0295 21.1397 0.0000 1.5545 0.0000
# 3 57.5651 21.1397 116.4290 0.0000 20.0655 0.0000
# 4 0.0000 0.0000 0.0000 22.8365 0.0000 2.0188
# 5 7.7926 1.5545 20.0655 0.0000 23.4200 0.0000
# 6 0.0000 0.0000 0.0000 2.0188 0.0000 10.7764
#
#
#
# Elastic Compliance Matrix: (Units=1/GPa)
#
#
# Indices 1 2 3 4 5 6 
#
# 1 0.020764 -0.003300 -0.009989 0.000000 0.001868 0.000000
# 2 -0.003300 0.048206 -0.007930 0.000000 0.004692 0.000000
# 3 -0.009989 -0.007930 0.016782 0.000000 -0.010528 0.000000
# 4 0.000000 0.000000 0.000000 0.044527 0.000000 -0.008342
# 5 0.001868 0.004692 -0.010528 0.000000 0.050786 0.000000
# 6 0.000000 0.000000 0.000000 -0.008342 0.000000 0.094358
#
#
# Mechanical properties :
#
#
# Convention : Reuss Voigt Hill
#
# Bulk Modulus (GPa) = 23.08719 44.91803 34.00261
# Shear Modulus (GPa) = 15.04673 19.81482 17.43078
#
# Velocity S-wave (km/s) = 3.05323 3.50376 3.28622
# Velocity P-wave (km/s) = 5.17043 6.64812 5.95528
#
# Compressibility (1/GPa) = 0.04331407
#
# Stress axis : x y z
#
# Youngs Moduli (GPa) = 48.15983 20.74445 59.58786
#
# Poissons Ratio (x) = 0.06846 0.59523
# Poissons Ratio (y) = 0.15894 0.47250
# Poissons Ratio (z) = 0.48107 0.16449
#
# Static dielectric constant tensor:
#      x y z
#    x 3.075180 0.000000 0.175510 
#    y 0.000000 2.851180 0.000000 
#    z 0.175510 0.000000 3.214220 
# 
# 
# High freq. dielectric constant tensor:
#      x y z
#    x 1.582830 0.000000 0.021010 
#    y 0.000000 1.604180 0.000000 
#    z 0.021010 0.000000 1.621660 
# 
# From -- ./inp_files/243039.got.cif
#   From: 2010.06.25/outbox.cif.g09.slc.cpg/sg12_122_cif.got.tgz:243039.got - 2010.06.28 00:19:55.
