data_PCOD8078257
_publ_section_title
;
Structure prediction by ZEFSAII (Michael W. Deem and Ramdas Pophale) SiO2 
 PCOD8078257
Probable space group: C 2/M
;
_chemical_formula_sum "Si O2"
_cell_formula_units_Z 64
_cell_length_a 23.043610
_cell_length_b 17.474911
_cell_length_c 20.522721
_cell_angle_alpha 90.000000
_cell_angle_beta 24.171315
_cell_angle_gamma 90.000000
_cell_volume 3383.908628
_symmetry_space_group_name_H-M "C 2/M"
_symmetry_group_IT_number 12
_symmetry_cell_setting 'monoclinic'
loop_
_space_group_symop_operation_xyz
x,y,z
-x,y,-z
-x,-y,-z
x,-y,z
1/2+x,1/2+y,z
1/2-x,1/2+y,-z
1/2-x,1/2-y,-z
1/2+x,1/2-y,z
loop_
_atom_site_type_symbol
_atom_site_label
_atom_site_fract_x
_atom_site_fract_y
_atom_site_fract_z
Si Si1 0.325048 0.284133 0.251741
Si Si2 0.754148 0.122855 0.629941
Si Si3 0.342149 0.918676 0.136952
Si Si4 0.284141 0.410069 0.397466
Si Si5 0.033468 0.586788 0.752405
Si Si6 0.737503 0.193201 0.955573
Si Si7 0.501552 0.586407 0.284418
Si Si8 0.153501 0.744306 0.913081
O O1 0.244816 0.215728 0.371106
O O2 0.285565 0.363435 0.327716
O O3 0.280848 0.283680 0.219465
O O4 0.491962 0.269464 0.084300
O O5 0.761003 0.091789 0.695990
O O6 0.613539 0.091347 0.739157
O O7 0.889207 0.088218 0.457118
O O8 0.326869 0.848138 0.104743
O O9 0.306205 0.000000 0.138833
O O10 0.500000 0.917759 0.000000
O O11 0.288674 0.500000 0.375712
O O12 0.141863 0.389671 0.583210
O O13 0.422564 0.386488 0.298519
O O14 0.979504 0.500000 0.796716
O O15 0.904406 0.644753 0.888088
O O16 0.750000 0.250000 0.000000
O O17 0.871954 0.138451 0.820607
O O18 0.736351 0.254936 0.895882
O O19 0.556631 0.500000 0.218249
#
# Coordination Sequence:
#
# PCOD8078257 Si02
#       8
#     8   8   8   8   8   8   8   8
#     4  10  18  35  59  80 117 138 188 246 271 318
#     4  10  18  32  57  85 110 144 184 225 276 324
#     4  10  16  27  49  77 108 139 176 220 265 315
#     4   9  20  37  61  88 109 142 190 241 293 330
#     4  10  20  35  58  86 112 143 191 235 273 334
#     4  12  24  37  55  80 115 151 188 222 287 346
#     4  10  22  36  53  83 121 147 178 229 288 345
#     4  10  20  36  50  85 106 150 192 229 270 335
#
# _framework density 18.913039999999999
#
# number of rings (size 3 to 8) (size 9 to 14) (size 15 to 20)
#    0.000    1.875    3.750    3.000    1.750    3.000 
#    0.000    3.750    0.000    5.250    0.000    1.750 
#    0.000    0.000    0.000    0.000    0.000    0.000 
#
# Total GULP energy -396456.293973 kJ/mol
# GULP energy per Si atom -12389.259187 kJ/mol
# Density = 1.886999 g / cm^3
# Si number density = 18.913040 Si / 1000 Ang^3
#
#
#
# Elastic Constant Matrix: (Units=GPa)
#
#
# Indices 1 2 3 4 5 6 
#
# 1 97.4305 31.9079 35.7955 -0.0100 9.7436 0.0081
# 2 31.9079 48.7610 14.4030 0.0106 7.9291 -0.0020
# 3 35.7955 14.4030 51.0794 0.0060 -5.4733 -0.0037
# 4 -0.0100 0.0106 0.0060 16.0397 -0.0124 14.3312
# 5 9.7436 7.9291 -5.4733 -0.0124 28.1559 0.0043
# 6 0.0081 -0.0020 -0.0037 14.3312 0.0043 17.7821
#
#
#
# Elastic Compliance Matrix: (Units=1/GPa)
#
#
# Indices 1 2 3 4 5 6 
#
# 1 0.017076 -0.007066 -0.010615 0.000082 -0.005983 -0.000076
# 2 -0.007066 0.027052 -0.003299 -0.000113 -0.005814 0.000098
# 3 -0.010615 -0.003299 0.029045 -0.000052 0.010249 0.000050
# 4 0.000082 -0.000113 -0.000052 0.222740 0.000118 -0.179515
# 5 -0.005983 -0.005814 0.010249 0.000118 0.041217 -0.000101
# 6 -0.000076 0.000098 0.000050 -0.179515 -0.000101 0.200914
#
#
# Mechanical properties :
#
#
# Convention : Reuss Voigt Hill
#
# Bulk Modulus (GPa) = 32.03899 40.16487 36.10193
# Shear Modulus (GPa) = 8.46871 20.07315 14.27093
#
# Velocity S-wave (km/s) = 2.11836 3.26135 2.74990
# Velocity P-wave (km/s) = 4.79168 5.95522 5.40485
#
# Compressibility (1/GPa) = 0.03121197
#
# Stress axis : x y z
#
# Youngs Moduli (GPa) = 58.56129 36.96603 34.42927
#
# Poissons Ratio (x) = 0.26119 0.36548
# Poissons Ratio (y) = 0.41378 0.11360
# Poissons Ratio (z) = 0.62165 0.12197
#
# Static dielectric constant tensor:
#      x y z
#    x 3.494980 0.000310 0.236200 
#    y 0.000310 4.311430 -0.000430 
#    z 0.236200 -0.000430 3.346280 
# 
# 
# High freq. dielectric constant tensor:
#      x y z
#    x 1.721130 0.000000 0.019170 
#    y 0.000000 1.728730 0.000000 
#    z 0.019170 0.000000 1.726050 
# 
# From -- ./inp_files/326081.got.cif
#   From: 2010.06.25/outbox.cif.g09.slc.cpg/sg12_164_cif.got.tgz:326081.got - 2010.06.28 00:19:55.
