data_PCOD8078850
_publ_section_title
;
Structure prediction by ZEFSAII (Michael W. Deem and Ramdas Pophale) SiO2 
 PCOD8078850
Probable space group: C 2/M
;
_chemical_formula_sum "Si O2"
_cell_formula_units_Z 48
_cell_length_a 17.348153
_cell_length_b 28.698101
_cell_length_c 9.556456
_cell_angle_alpha 90.000000
_cell_angle_beta 151.014090
_cell_angle_gamma 90.000000
_cell_volume 2305.588346
_symmetry_space_group_name_H-M "C 2/M"
_symmetry_group_IT_number 12
_symmetry_cell_setting 'monoclinic'
loop_
_space_group_symop_operation_xyz
x,y,z
-x,y,-z
-x,-y,-z
x,-y,z
1/2+x,1/2+y,z
1/2-x,1/2+y,-z
1/2-x,1/2-y,-z
1/2+x,1/2-y,z
loop_
_atom_site_type_symbol
_atom_site_label
_atom_site_fract_x
_atom_site_fract_y
_atom_site_fract_z
Si Si1 0.516997 0.227052 0.861733
Si Si2 0.903385 0.371008 0.701853
Si Si3 0.895121 0.948700 0.193402
Si Si4 0.849717 0.892106 0.505525
Si Si5 0.872053 0.793143 0.416179
Si Si6 0.378627 0.054266 0.050433
O O1 0.431235 0.179089 0.673702
O O2 0.429831 0.270305 0.652203
O O3 0.500000 0.233653 0.000000
O O4 0.700185 0.227249 0.102909
O O5 0.717215 0.378647 0.446633
O O6 0.963962 0.413321 0.699797
O O7 0.000000 0.369829 0.000000
O O8 0.000000 0.946570 0.500000
O O9 0.969905 0.912464 0.199777
O O10 0.901340 0.000000 0.136207
O O11 0.713889 0.936713 0.949449
O O12 0.850765 0.848108 0.403806
O O13 0.734414 0.931894 0.258822
O O14 0.000000 0.781953 0.500000
O O15 0.426205 0.000000 0.110284
#
# Coordination Sequence:
#
# PCOD8078850 Si02
#       6
#     8   8   8   8   8   8
#     4  11  22  40  57  78 110 151 185 229 276 330
#     4   9  17  29  43  68  98 137 174 213 268 321
#     4   8  14  23  37  61  94 133 165 202 264 328
#     4  10  17  27  44  68 101 138 169 217 270 322
#     4  12  23  37  57  82 110 146 188 232 277 324
#     4   9  15  25  42  66 101 136 170 214 278 326
#
# _framework density 20.818981000000001
#
# number of rings (size 3 to 8) (size 9 to 14) (size 15 to 20)
#    0.000    2.167    5.000    4.000    0.000    3.667 
#    0.000    0.000    0.000    0.000    0.000    0.000 
#    0.000    6.000    0.000    0.833    0.000    0.167 
#
# Total GULP energy -297434.160199 kJ/mol
# GULP energy per Si atom -12393.090008 kJ/mol
# Density = 2.077160 g / cm^3
# Si number density = 20.818981 Si / 1000 Ang^3
#
#
#
# Elastic Constant Matrix: (Units=GPa)
#
#
# Indices 1 2 3 4 5 6 
#
# 1 119.1589 39.0725 29.7231 0.0000 37.3287 0.0000
# 2 39.0725 87.9822 22.5511 0.0000 3.2608 0.0000
# 3 29.7231 22.5511 21.0403 0.0000 13.2427 0.0000
# 4 0.0000 0.0000 0.0000 11.6338 0.0000 9.9908
# 5 37.3287 3.2608 13.2427 0.0000 25.0482 0.0000
# 6 0.0000 0.0000 0.0000 9.9908 0.0000 28.6896
#
#
#
# Elastic Compliance Matrix: (Units=1/GPa)
#
#
# Indices 1 2 3 4 5 6 
#
# 1 0.020087 -0.006876 -0.004090 0.000000 -0.026878 0.000000
# 2 -0.006876 0.020003 -0.024783 0.000000 0.020746 0.000000
# 3 -0.004090 -0.024783 0.110905 0.000000 -0.049313 0.000000
# 4 0.000000 0.000000 0.000000 0.122630 0.000000 -0.042704
# 5 -0.026878 0.020746 -0.049313 0.000000 0.103349 0.000000
# 6 0.000000 0.000000 0.000000 -0.042704 0.000000 0.049727
#
#
# Mechanical properties :
#
#
# Convention : Reuss Voigt Hill
#
# Bulk Modulus (GPa) = 12.57897 45.65275 29.11586
# Shear Modulus (GPa) = 9.52933 22.19665 15.86299
#
# Velocity S-wave (km/s) = 2.14177 3.26877 2.76334
# Velocity P-wave (km/s) = 3.48875 6.01852 4.91904
#
# Compressibility (1/GPa) = 0.07949778
#
# Stress axis : x y z
#
# Youngs Moduli (GPa) = 49.78368 49.99277 9.01673
#
# Poissons Ratio (x) = 0.34376 0.03687
# Poissons Ratio (y) = 0.34232 0.22346
# Poissons Ratio (z) = 0.20360 1.23896
#
# Static dielectric constant tensor:
#      x y z
#    x 4.301700 0.000000 0.786320 
#    y 0.000000 3.971160 0.000000 
#    z 0.786320 0.000000 3.203430 
# 
# 
# High freq. dielectric constant tensor:
#      x y z
#    x 1.816560 0.000000 0.053760 
#    y 0.000000 1.826810 0.000000 
#    z 0.053760 0.000000 1.743060 
# 
# From -- ./inp_files/68360.got.cif
#   From: 2010.06.25/outbox.cif.g09.slc.cpg/sg12_35_cif.got.tgz:68360.got - 2010.06.28 00:19:55.
