data_PCOD8078877
_publ_section_title
;
Structure prediction by ZEFSAII (Michael W. Deem and Ramdas Pophale) SiO2 
 PCOD8078877
Probable space group: C 2/M
;
_chemical_formula_sum "Si O2"
_cell_formula_units_Z 48
_cell_length_a 24.060571
_cell_length_b 8.904966
_cell_length_c 15.230418
_cell_angle_alpha 90.000000
_cell_angle_beta 62.074344
_cell_angle_gamma 90.000000
_cell_volume 2883.261972
_symmetry_space_group_name_H-M "C 2/M"
_symmetry_group_IT_number 12
_symmetry_cell_setting 'monoclinic'
loop_
_space_group_symop_operation_xyz
x,y,z
-x,y,-z
-x,-y,-z
x,-y,z
1/2+x,1/2+y,z
1/2-x,1/2+y,-z
1/2-x,1/2-y,-z
1/2+x,1/2-y,z
loop_
_atom_site_type_symbol
_atom_site_label
_atom_site_fract_x
_atom_site_fract_y
_atom_site_fract_z
Si Si1 0.314032 0.172252 0.473114
Si Si2 0.926101 0.173221 0.061155
Si Si3 0.200865 0.825217 0.154929
Si Si4 0.349782 0.177227 0.263625
Si Si5 0.216247 0.323357 0.319148
Si Si6 0.160336 0.675093 0.014386
O O1 0.250000 0.250000 0.500000
O O2 0.362976 0.213186 0.358327
O O3 0.331215 0.208249 0.562318
O O4 0.297878 0.000000 0.475941
O O5 0.904676 0.241741 0.169758
O O6 0.905852 0.000000 0.071123
O O7 0.895213 0.261376 0.003674
O O8 0.000000 0.194533 0.000000
O O9 0.181929 0.743173 0.259243
O O10 0.158056 0.757717 0.109594
O O11 0.186176 0.000000 0.173987
O O12 0.273984 0.792164 0.082411
O O13 0.282411 0.240088 0.283653
O O14 0.351091 0.000000 0.242053
O O15 0.228857 0.500000 0.297359
O O16 0.149923 0.500000 0.038249
#
# Coordination Sequence:
#
# PCOD8078877 Si02
#       6
#     8   8   8   8   8   8
#     4   8  16  27  41  64  93 124 156 190 231 280
#     4  11  23  36  50  69  95 128 164 201 240 282
#     4  10  19  30  47  71  99 128 157 194 237 286
#     4  10  18  30  46  66  94 126 161 199 236 278
#     4  10  17  27  45  69  98 129 157 189 234 286
#     4  10  20  33  49  69  94 126 161 198 238 283
#
# _framework density 16.647811999999998
#
# number of rings (size 3 to 8) (size 9 to 14) (size 15 to 20)
#    0.000    2.167    1.667    2.500    0.000    4.000 
#    0.000    0.000    0.000    0.000    0.000    1.167 
#    0.000    9.333    0.000    0.000    0.000    0.000 
#
# Total GULP energy -297421.176834 kJ/mol
# GULP energy per Si atom -12392.549035 kJ/mol
# Density = 1.660992 g / cm^3
# Si number density = 16.647812 Si / 1000 Ang^3
#
#
#
# Elastic Constant Matrix: (Units=GPa)
#
#
# Indices 1 2 3 4 5 6 
#
# 1 45.0579 19.8724 35.1338 0.0000 9.5630 0.0000
# 2 19.8724 58.0959 39.7918 0.0000 2.7995 0.0000
# 3 35.1338 39.7918 136.5724 0.0000 23.6364 0.0000
# 4 0.0000 0.0000 0.0000 26.5446 0.0000 5.4914
# 5 9.5630 2.7995 23.6364 0.0000 21.7832 0.0000
# 6 0.0000 0.0000 0.0000 5.4914 0.0000 22.3631
#
#
#
# Elastic Compliance Matrix: (Units=1/GPa)
#
#
# Indices 1 2 3 4 5 6 
#
# 1 0.030357 -0.006957 -0.004470 0.000000 -0.007582 0.000000
# 2 -0.006957 0.023544 -0.006249 0.000000 0.006808 0.000000
# 3 -0.004470 -0.006249 0.012083 0.000000 -0.010346 0.000000
# 4 0.000000 0.000000 0.000000 0.039689 0.000000 -0.009746
# 5 -0.007582 0.006808 -0.010346 0.000000 0.059586 0.000000
# 6 0.000000 0.000000 0.000000 -0.009746 0.000000 0.047110
#
#
# Mechanical properties :
#
#
# Convention : Reuss Voigt Hill
#
# Bulk Modulus (GPa) = 32.64421 47.70246 40.17334
# Shear Modulus (GPa) = 19.38501 23.80005 21.59253
#
# Velocity S-wave (km/s) = 3.41606 3.78513 3.60532
# Velocity P-wave (km/s) = 5.93385 6.91513 6.44320
#
# Compressibility (1/GPa) = 0.03063330
#
# Stress axis : x y z
#
# Youngs Moduli (GPa) = 32.94157 42.47309 82.75941
#
# Poissons Ratio (x) = 0.29547 0.36996
# Poissons Ratio (y) = 0.22916 0.51713
# Poissons Ratio (z) = 0.14726 0.26540
#
# Static dielectric constant tensor:
#      x y z
#    x 2.671010 0.000000 0.346150 
#    y 0.000000 3.214650 0.000000 
#    z 0.346150 0.000000 3.784470 
# 
# 
# High freq. dielectric constant tensor:
#      x y z
#    x 1.581620 0.000000 0.032720 
#    y 0.000000 1.662150 0.000000 
#    z 0.032720 0.000000 1.654920 
# 
# From -- ./inp_files/229841.got.cif
#   From: 2010.06.25/outbox.cif.g09.slc.cpg/sg12_115_cif.got.tgz:229841.got - 2010.06.28 00:19:55.
