data_PCOD8078255
_publ_section_title
;
Structure prediction by ZEFSAII (Michael W. Deem and Ramdas Pophale) SiO2 
 PCOD8078255
Probable space group: C 2/M
;
_chemical_formula_sum "Si O2"
_cell_formula_units_Z 32
_cell_length_a 22.061432
_cell_length_b 13.788767
_cell_length_c 11.628470
_cell_angle_alpha 90.000000
_cell_angle_beta 29.137036
_cell_angle_gamma 90.000000
_cell_volume 1722.350595
_symmetry_space_group_name_H-M "C 2/M"
_symmetry_group_IT_number 12
_symmetry_cell_setting 'monoclinic'
loop_
_space_group_symop_operation_xyz
x,y,z
-x,y,-z
-x,-y,-z
x,-y,z
1/2+x,1/2+y,z
1/2-x,1/2+y,-z
1/2-x,1/2-y,-z
1/2+x,1/2-y,z
loop_
_atom_site_type_symbol
_atom_site_label
_atom_site_fract_x
_atom_site_fract_y
_atom_site_fract_z
Si Si1 0.479853 0.887471 0.405156
Si Si2 0.163777 0.387923 0.676099
Si Si3 0.705969 0.609609 0.762603
Si Si4 0.921468 0.297200 0.972969
O O1 0.500000 0.846874 0.500000
O O2 0.338263 0.869116 0.602573
O O3 0.578343 0.832681 0.159102
O O4 0.514156 0.000000 0.341037
O O5 0.121732 0.500000 0.744405
O O6 0.282436 0.374297 0.395544
O O7 0.053820 0.322448 0.807699
O O8 0.186175 0.350697 0.770193
O O9 0.661864 0.500000 0.862055
O O10 0.602871 0.681787 0.984319
#
# Coordination Sequence:
#
# PCOD8078255 Si02
#       4
#     8   8   8   8
#     4   9  18  32  48  67  89 114 149 189 223 258
#     4   9  17  30  47  70  94 114 144 184 222 262
#     4   9  18  30  45  66  92 119 147 181 220 264
#     4  10  16  27  49  68  88 118 149 180 220 262
#
# _framework density 18.579260999999999
#
# number of rings (size 3 to 8) (size 9 to 14) (size 15 to 20)
#    0.000    2.750    0.000    5.250    0.000    1.000 
#    0.000    2.500    0.000   18.750    0.000    0.000 
#    0.000    0.000    0.000    0.000    0.000    0.000 
#
# Total GULP energy -198259.788793 kJ/mol
# GULP energy per Si atom -12391.236800 kJ/mol
# Density = 1.853697 g / cm^3
# Si number density = 18.579261 Si / 1000 Ang^3
#
#
#
# Elastic Constant Matrix: (Units=GPa)
#
#
# Indices 1 2 3 4 5 6 
#
# 1 73.8149 42.3045 42.0826 0.0000 38.6895 0.0000
# 2 42.3045 135.1381 69.4170 0.0000 14.7748 0.0000
# 3 42.0826 69.4170 71.3877 0.0000 31.9872 0.0000
# 4 0.0000 0.0000 0.0000 44.4327 0.0000 1.1631
# 5 38.6895 14.7748 31.9872 0.0000 34.9086 0.0000
# 6 0.0000 0.0000 0.0000 1.1631 0.0000 15.8618
#
#
#
# Elastic Compliance Matrix: (Units=1/GPa)
#
#
# Indices 1 2 3 4 5 6 
#
# 1 0.040771 -0.012768 0.010531 0.000000 -0.049432 0.000000
# 2 -0.012768 0.022287 -0.027586 0.000000 0.029995 0.000000
# 3 0.010531 -0.027586 0.058740 0.000000 -0.053820 0.000000
# 4 0.000000 0.000000 0.000000 0.022549 0.000000 -0.001653
# 5 -0.049432 0.029995 -0.053820 0.000000 0.120054 0.000000
# 6 0.000000 0.000000 0.000000 -0.001653 0.000000 0.063166
#
#
# Mechanical properties :
#
#
# Convention : Reuss Voigt Hill
#
# Bulk Modulus (GPa) = 16.08941 65.32767 40.70854
# Shear Modulus (GPa) = 12.25701 27.47638 19.86670
#
# Velocity S-wave (km/s) = 2.57128 3.84978 3.27355
# Velocity P-wave (km/s) = 4.18258 7.41614 6.02051
#
# Compressibility (1/GPa) = 0.06215267
#
# Stress axis : x y z
#
# Youngs Moduli (GPa) = 24.52740 44.86821 17.02423
#
# Poissons Ratio (x) = 0.57289 -0.17928
# Poissons Ratio (y) = 0.31317 0.46962
# Poissons Ratio (z) = -0.25830 1.23772
#
# Static dielectric constant tensor:
#      x y z
#    x 3.416540 0.000000 0.625750 
#    y 0.000000 3.423150 0.000000 
#    z 0.625750 0.000000 3.551010 
# 
# 
# High freq. dielectric constant tensor:
#      x y z
#    x 1.683560 0.000000 0.033380 
#    y 0.000000 1.723950 0.000000 
#    z 0.033380 0.000000 1.707690 
# 
# From -- ./inp_files/117663.got.cif
#   From: 2010.06.25/outbox.cif.g09.slc.cpg/sg12_59_cif.got.tgz:117663.got - 2010.06.28 00:19:55.
