data_PCOD8078935
_publ_section_title
;
Structure prediction by ZEFSAII (Michael W. Deem and Ramdas Pophale) SiO2 
 PCOD8078935
Probable space group: C 2/M
;
_chemical_formula_sum "Si O2"
_cell_formula_units_Z 56
_cell_length_a 28.786707
_cell_length_b 8.791982
_cell_length_c 14.361234
_cell_angle_alpha 90.000000
_cell_angle_beta 60.559726
_cell_angle_gamma 90.000000
_cell_volume 3165.360181
_symmetry_space_group_name_H-M "C 2/M"
_symmetry_group_IT_number 12
_symmetry_cell_setting 'monoclinic'
loop_
_space_group_symop_operation_xyz
x,y,z
-x,y,-z
-x,-y,-z
x,-y,z
1/2+x,1/2+y,z
1/2-x,1/2+y,-z
1/2-x,1/2-y,-z
1/2+x,1/2-y,z
loop_
_atom_site_type_symbol
_atom_site_label
_atom_site_fract_x
_atom_site_fract_y
_atom_site_fract_z
Si Si1 0.296750 0.320400 0.391916
Si Si2 0.384493 0.679464 0.442328
Si Si3 0.781466 0.177670 0.197676
Si Si4 0.196564 0.321541 0.008974
Si Si5 0.496821 0.681567 0.397077
Si Si6 0.393373 0.670372 0.785865
Si Si7 0.675694 0.670230 0.321310
O O1 0.287853 0.500000 0.402971
O O2 0.250000 0.250000 0.500000
O O3 0.355480 0.275818 0.374168
O O4 0.296041 0.260323 0.286423
O O5 0.389124 0.500000 0.449650
O O6 0.443981 0.746881 0.396604
O O7 0.345619 0.740238 0.561507
O O8 0.814565 0.263659 0.085169
O O9 0.719719 0.214826 0.238536
O O10 0.792609 0.000000 0.177225
O O11 0.205657 0.500000 0.000072
O O12 0.250000 0.250000 0.000000
O O13 0.143241 0.280961 0.117598
O O14 0.500000 0.745492 0.500000
O O15 0.497269 0.500000 0.400712
O O16 0.546501 0.735474 0.283687
O O17 0.392220 0.500000 0.830717
O O18 0.373311 0.662869 0.700201
O O19 0.700100 0.500000 0.310232
#
# Coordination Sequence:
#
# PCOD8078935 Si02
#       7
#     8   8   8   8   8   8   8
#     4  10  20  32  50  76 106 140 175 215 257 304
#     4   9  16  28  47  75 109 141 173 208 251 303
#     4  11  22  34  49  74 106 139 177 215 255 304
#     4  12  24  37  54  75 102 136 172 212 262 313
#     4   9  15  26  48  79 108 135 169 208 251 304
#     4  10  19  31  51  80 108 135 170 210 253 305
#     4  10  17  27  49  76 106 139 169 203 251 309
#
# _framework density 17.691510999999998
#
# number of rings (size 3 to 8) (size 9 to 14) (size 15 to 20)
#    0.000    1.857    4.286    1.714    0.000    0.571 
#    0.000    0.000    0.000    3.000    0.000    6.000 
#    0.000    0.000    0.000    0.000    0.000    0.000 
#
# Total GULP energy -347054.215283 kJ/mol
# GULP energy per Si atom -12394.793403 kJ/mol
# Density = 1.765124 g / cm^3
# Si number density = 17.691511 Si / 1000 Ang^3
#
#
#
# Elastic Constant Matrix: (Units=GPa)
#
#
# Indices 1 2 3 4 5 6 
#
# 1 109.0431 21.3029 51.6079 0.0000 -3.9061 0.0000
# 2 21.3029 57.8642 35.5258 0.0000 1.8748 0.0000
# 3 51.6079 35.5258 116.3426 0.0000 1.0604 0.0000
# 4 0.0000 0.0000 0.0000 24.8287 0.0000 -1.4684
# 5 -3.9061 1.8748 1.0604 0.0000 29.3082 0.0000
# 6 0.0000 0.0000 0.0000 -1.4684 0.0000 14.3688
#
#
#
# Elastic Compliance Matrix: (Units=1/GPa)
#
#
# Indices 1 2 3 4 5 6 
#
# 1 0.011794 -0.001451 -0.004805 0.000000 0.001839 0.000000
# 2 -0.001451 0.021485 -0.005904 0.000000 -0.001354 0.000000
# 3 -0.004805 -0.005904 0.012536 0.000000 -0.000716 0.000000
# 4 0.000000 0.000000 0.000000 0.040521 0.000000 0.004141
# 5 0.001839 -0.001354 -0.000716 0.000000 0.034478 0.000000
# 6 0.000000 0.000000 0.000000 0.004141 0.000000 0.070018
#
#
# Mechanical properties :
#
#
# Convention : Reuss Voigt Hill
#
# Bulk Modulus (GPa) = 46.52592 55.56925 51.04759
# Shear Modulus (GPa) = 22.49012 25.35534 23.92273
#
# Velocity S-wave (km/s) = 3.56931 3.78986 3.68124
# Velocity P-wave (km/s) = 6.58348 7.11541 6.85460
#
# Compressibility (1/GPa) = 0.02149339
#
# Stress axis : x y z
#
# Youngs Moduli (GPa) = 84.78605 46.54391 79.76788
#
# Poissons Ratio (x) = 0.06756 0.38331
# Poissons Ratio (y) = 0.12306 0.47098
# Poissons Ratio (z) = 0.40743 0.27481
#
# Static dielectric constant tensor:
#      x y z
#    x 3.470950 0.000000 0.075220 
#    y 0.000000 2.982000 0.000000 
#    z 0.075220 0.000000 3.353310 
# 
# 
# High freq. dielectric constant tensor:
#      x y z
#    x 1.673800 0.000000 0.001230 
#    y 0.000000 1.652770 0.000000 
#    z 0.001230 0.000000 1.679720 
# 
# From -- ./inp_files/243070.got.cif
#   From: 2010.06.25/outbox.cif.g09.slc.cpg/sg12_122_cif.got.tgz:243070.got - 2010.06.28 00:19:55.
