data_PCOD8078243
_publ_section_title
;
Structure prediction by ZEFSAII (Michael W. Deem and Ramdas Pophale) SiO2 
 PCOD8078243
Probable space group: C 2/M
;
_chemical_formula_sum "Si O2"
_cell_formula_units_Z 64
_cell_length_a 9.539792
_cell_length_b 27.859976
_cell_length_c 15.235827
_cell_angle_alpha 90.000000
_cell_angle_beta 82.376153
_cell_angle_gamma 90.000000
_cell_volume 4013.558729
_symmetry_space_group_name_H-M "C 2/M"
_symmetry_group_IT_number 12
_symmetry_cell_setting 'monoclinic'
loop_
_space_group_symop_operation_xyz
x,y,z
-x,y,-z
-x,-y,-z
x,-y,z
1/2+x,1/2+y,z
1/2-x,1/2+y,-z
1/2-x,1/2-y,-z
1/2+x,1/2-y,z
loop_
_atom_site_type_symbol
_atom_site_label
_atom_site_fract_x
_atom_site_fract_y
_atom_site_fract_z
Si Si1 0.832038 0.447139 0.522929
Si Si2 0.121331 0.615538 0.324565
Si Si3 0.871455 0.556064 0.841897
Si Si4 0.858444 0.811135 0.550536
Si Si5 0.200230 0.443945 0.824753
Si Si6 0.154091 0.943464 0.012383
Si Si7 0.628435 0.204948 0.428093
Si Si8 0.789581 0.603150 0.355107
O O1 0.774984 0.500000 0.551163
O O2 0.794152 0.410584 0.603836
O O3 0.751423 0.430268 0.441379
O O4 0.000000 0.448557 0.500000
O O5 0.179852 0.592922 0.229633
O O6 0.141802 0.672843 0.338064
O O7 0.956682 0.605432 0.339777
O O8 0.853559 0.500000 0.814305
O O9 0.771394 0.569491 0.930816
O O10 0.033871 0.566069 0.854819
O O11 0.768743 0.800557 0.472012
O O12 0.893896 0.760595 0.596718
O O13 0.782668 0.845043 0.627435
O O14 0.000000 0.835185 0.500000
O O15 0.226306 0.500000 0.810612
O O16 0.261983 0.418781 0.732503
O O17 0.289630 0.423001 0.899320
O O18 0.139101 0.000000 0.022603
O O19 0.000000 0.921402 0.000000
O O20 0.500000 0.185590 0.500000
#
# Coordination Sequence:
#
# PCOD8078243 Si02
#       8
#     8   8   8   8   8   8   8   8
#     4   9  15  23  39  63  90 119 151 182 215 256
#     4  10  16  27  46  67  90 119 152 190 226 262
#     4   9  17  28  46  71  93 115 152 192 224 265
#     4  10  20  30  46  66  91 122 158 194 229 269
#     4   9  17  29  48  69  90 118 154 192 224 263
#     4   9  17  31  47  64  90 123 151 183 228 271
#     4  10  17  32  49  65  88 122 158 195 230 262
#     4  10  17  29  44  66  92 120 151 187 230 268
#
# _framework density 15.945947
#
# number of rings (size 3 to 8) (size 9 to 14) (size 15 to 20)
#    0.000    2.500    2.500    1.500    0.000    4.500 
#    2.250    0.000    0.000    1.500    0.000    0.875 
#    0.000    0.000    0.000    0.000    0.000    0.000 
#
# Total GULP energy -396574.793695 kJ/mol
# GULP energy per Si atom -12392.962303 kJ/mol
# Density = 1.590965 g / cm^3
# Si number density = 15.945947 Si / 1000 Ang^3
#
#
#
# Elastic Constant Matrix: (Units=GPa)
#
#
# Indices 1 2 3 4 5 6 
#
# 1 53.4084 10.7414 38.6346 0.0000 5.9799 0.0000
# 2 10.7414 71.2992 44.9420 0.0000 4.5099 0.0000
# 3 38.6346 44.9420 123.2114 0.0000 13.1558 0.0000
# 4 0.0000 0.0000 0.0000 8.8132 0.0000 -5.4584
# 5 5.9799 4.5099 13.1558 0.0000 15.7030 0.0000
# 6 0.0000 0.0000 0.0000 -5.4584 0.0000 14.9543
#
#
#
# Elastic Compliance Matrix: (Units=1/GPa)
#
#
# Indices 1 2 3 4 5 6 
#
# 1 0.024478 0.001477 -0.007878 0.000000 -0.003145 0.000000
# 2 0.001477 0.018304 -0.007159 0.000000 0.000178 0.000000
# 3 -0.007878 -0.007159 0.013901 0.000000 -0.006590 0.000000
# 4 0.000000 0.000000 0.000000 0.146610 0.000000 0.053514
# 5 -0.003145 0.000178 -0.006590 0.000000 0.070350 0.000000
# 6 0.000000 0.000000 0.000000 0.053514 0.000000 0.086403
#
#
# Mechanical properties :
#
#
# Convention : Reuss Voigt Hill
#
# Bulk Modulus (GPa) = 33.82550 48.50613 41.16581
# Shear Modulus (GPa) = 12.59382 18.13416 15.36399
#
# Velocity S-wave (km/s) = 2.81335 3.37594 3.10740
# Velocity P-wave (km/s) = 5.64021 6.75878 6.22467
#
# Compressibility (1/GPa) = 0.02956350
#
# Stress axis : x y z
#
# Youngs Moduli (GPa) = 40.85344 54.63315 71.93568
#
# Poissons Ratio (x) = -0.08071 0.56673
# Poissons Ratio (y) = -0.06035 0.51496
# Poissons Ratio (z) = 0.32186 0.39110
#
# Static dielectric constant tensor:
#      x y z
#    x 2.971630 0.000000 0.145770 
#    y 0.000000 3.057660 0.000000 
#    z 0.145770 0.000000 3.091380 
# 
# 
# High freq. dielectric constant tensor:
#      x y z
#    x 1.599210 0.000000 0.009160 
#    y 0.000000 1.591470 0.000000 
#    z 0.009160 0.000000 1.594060 
# 
# From -- ./inp_files/200605.got.cif
#   From: 2010.06.25/outbox.cif.g09.slc.cpg/sg12_101_cif.got.tgz:200605.got - 2010.06.28 00:19:55.
