data_PCOD8078559
_publ_section_title
;
Structure prediction by ZEFSAII (Michael W. Deem and Ramdas Pophale) SiO2 
 PCOD8078559
Probable space group: C 2/M
;
_chemical_formula_sum "Si O2"
_cell_formula_units_Z 48
_cell_length_a 20.768884
_cell_length_b 8.570972
_cell_length_c 20.327589
_cell_angle_alpha 90.000000
_cell_angle_beta 48.240136
_cell_angle_gamma 90.000000
_cell_volume 2699.197057
_symmetry_space_group_name_H-M "C 2/M"
_symmetry_group_IT_number 12
_symmetry_cell_setting 'monoclinic'
loop_
_space_group_symop_operation_xyz
x,y,z
-x,y,-z
-x,-y,-z
x,-y,z
1/2+x,1/2+y,z
1/2-x,1/2+y,-z
1/2-x,1/2-y,-z
1/2+x,1/2-y,z
loop_
_atom_site_type_symbol
_atom_site_label
_atom_site_fract_x
_atom_site_fract_y
_atom_site_fract_z
Si Si1 0.255397 0.815865 0.274358
Si Si2 0.593669 0.815228 0.733369
Si Si3 0.095733 0.684525 0.453723
Si Si4 0.874201 0.818161 0.096651
Si Si5 0.344458 0.815153 0.445530
Si Si6 0.973199 0.681477 0.923880
O O1 0.321991 0.752632 0.284757
O O2 0.159612 0.764332 0.358564
O O3 0.280438 0.734293 0.187363
O O4 0.258913 0.000000 0.263012
O O5 0.596675 0.755782 0.655934
O O6 0.503654 0.762586 0.829836
O O7 0.599026 0.000000 0.732506
O O8 0.107344 0.500000 0.441102
O O9 0.114660 0.746764 0.514552
O O10 0.000000 0.737559 0.500000
O O11 0.943325 0.712421 0.087833
O O12 0.890157 0.000000 0.098110
O O13 0.890220 0.777863 0.008039
O O14 0.250000 0.750000 0.500000
O O15 0.339238 0.000000 0.449400
O O16 0.949397 0.500000 0.940643
#
# Coordination Sequence:
#
# PCOD8078559 Si02
#       6
#     8   8   8   8   8   8
#     4  10  18  30  47  66  90 123 163 200 237 283
#     4   8  15  26  43  66  91 119 155 195 233 275
#     4  10  21  34  48  70 100 130 160 199 245 289
#     4  10  17  25  39  62  92 123 154 189 238 290
#     4  10  18  31  49  70  95 126 163 199 237 283
#     4   9  15  25  39  60  91 123 155 192 234 281
#
# _framework density 17.783066999999999
#
# number of rings (size 3 to 8) (size 9 to 14) (size 15 to 20)
#    0.000    2.500    1.667    4.500    0.000    0.333 
#    0.000    0.833    0.000    0.000    0.000    1.167 
#    0.000    0.000    0.000    0.000    0.000    0.000 
#
# Total GULP energy -297381.931872 kJ/mol
# GULP energy per Si atom -12390.913828 kJ/mol
# Density = 1.774259 g / cm^3
# Si number density = 17.783067 Si / 1000 Ang^3
#
#
#
# Elastic Constant Matrix: (Units=GPa)
#
#
# Indices 1 2 3 4 5 6 
#
# 1 66.3835 16.0435 52.0926 0.0000 -0.4425 0.0002
# 2 16.0435 43.9455 39.2673 0.0001 -2.8104 0.0001
# 3 52.0926 39.2673 208.1262 0.0000 3.8873 0.0000
# 4 0.0000 0.0001 0.0000 29.8835 0.0000 -4.3351
# 5 -0.4425 -2.8104 3.8873 0.0000 15.3577 0.0000
# 6 0.0002 0.0001 0.0000 -4.3351 0.0000 11.2607
#
#
#
# Elastic Compliance Matrix: (Units=1/GPa)
#
#
# Indices 1 2 3 4 5 6 
#
# 1 0.019141 -0.003155 -0.004215 0.000000 0.001041 0.000000
# 2 -0.003155 0.028519 -0.004709 0.000000 0.006320 0.000000
# 3 -0.004215 -0.004709 0.006799 0.000000 -0.002704 0.000000
# 4 0.000000 0.000000 0.000000 0.035443 0.000000 0.013645
# 5 0.001041 0.006320 -0.002704 0.000000 0.066985 0.000000
# 6 0.000000 0.000000 0.000000 0.013645 0.000000 0.094057
#
#
# Mechanical properties :
#
#
# Convention : Reuss Voigt Hill
#
# Bulk Modulus (GPa) = 33.00261 59.25134 46.12697
# Shear Modulus (GPa) = 17.53143 25.37051 21.45097
#
# Velocity S-wave (km/s) = 3.14323 3.78122 3.47689
# Velocity P-wave (km/s) = 5.63666 7.24257 6.48948
#
# Compressibility (1/GPa) = 0.03030064
#
# Stress axis : x y z
#
# Youngs Moduli (GPa) = 52.24361 35.06407 147.08585
#
# Poissons Ratio (x) = 0.11063 0.61998
# Poissons Ratio (y) = 0.16483 0.69264
# Poissons Ratio (z) = 0.22021 0.16512
#
# Static dielectric constant tensor:
#      x y z
#    x 2.815800 0.000000 0.246970 
#    y 0.000000 3.084000 0.000000 
#    z 0.246970 0.000000 4.286640 
# 
# 
# High freq. dielectric constant tensor:
#      x y z
#    x 1.606420 0.000000 0.008490 
#    y 0.000000 1.677710 0.000000 
#    z 0.008490 0.000000 1.724120 
# 
# From -- ./inp_files/236872.got.cif
#   From: 2010.06.25/outbox.cif.g09.slc.cpg/sg12_119_cif.got.tgz:236872.got - 2010.06.28 00:19:55.
