data_PCOD8078533
_publ_section_title
;
Structure prediction by ZEFSAII (Michael W. Deem and Ramdas Pophale) SiO2 
 PCOD8078533
Probable space group: C 2/M
;
_chemical_formula_sum "Si O2"
_cell_formula_units_Z 64
_cell_length_a 27.849274
_cell_length_b 9.281239
_cell_length_c 20.099070
_cell_angle_alpha 90.000000
_cell_angle_beta 125.629741
_cell_angle_gamma 90.000000
_cell_volume 4222.587736
_symmetry_space_group_name_H-M "C 2/M"
_symmetry_group_IT_number 12
_symmetry_cell_setting 'monoclinic'
loop_
_space_group_symop_operation_xyz
x,y,z
-x,y,-z
-x,-y,-z
x,-y,z
1/2+x,1/2+y,z
1/2-x,1/2+y,-z
1/2-x,1/2-y,-z
1/2+x,1/2-y,z
loop_
_atom_site_type_symbol
_atom_site_label
_atom_site_fract_x
_atom_site_fract_y
_atom_site_fract_z
Si Si1 0.908343 0.332735 0.027585
Si Si2 0.607069 0.833113 0.761355
Si Si3 0.189619 0.666456 0.945682
Si Si4 0.979023 0.170501 0.826716
Si Si5 0.916892 0.838556 0.380307
Si Si6 0.027515 0.668090 0.309386
Si Si7 0.931947 0.158492 0.925345
Si Si8 0.946608 0.837026 0.546590
O O1 0.927344 0.500000 0.041517
O O2 0.847169 0.310814 0.016591
O O3 0.958537 0.242861 0.105459
O O4 0.898484 0.275185 0.944175
O O5 0.652477 0.773266 0.852950
O O6 0.620029 0.758452 0.700868
O O7 0.541571 0.802037 0.735170
O O8 0.616684 0.000000 0.756893
O O9 0.204123 0.500000 0.946228
O O10 0.250000 0.750000 0.000000
O O11 0.952502 0.244230 0.739587
O O12 0.930761 0.199653 0.846159
O O13 0.989159 0.000000 0.824329
O O14 0.909949 0.785734 0.451486
O O15 0.984954 0.832986 0.415910
O O16 0.892376 0.000000 0.354311
O O17 0.041451 0.500000 0.311615
O O18 0.065685 0.728834 0.402273
O O19 0.903618 0.000000 0.914034
O O20 0.000000 0.153307 0.000000
O O21 0.928446 0.000000 0.551740
#
# Coordination Sequence:
#
# PCOD8078533 Si02
#       8
#     8   8   8   8   8   8   8   8
#     4  10  18  30  44  58  78 100 130 171 208 243
#     4   9  17  29  40  53  76 100 129 171 208 239
#     4  10  21  34  44  59  80 103 136 176 213 247
#     4  10  18  27  40  58  81 107 135 165 197 239
#     4   8  14  24  38  54  72  97 132 164 192 235
#     4  10  17  25  38  56  80 106 135 167 198 236
#     4   8  16  28  40  58  79 100 131 163 195 241
#     4   8  14  24  35  52  77 101 129 163 193 229
#
# _framework density 15.156582999999999
#
# number of rings (size 3 to 8) (size 9 to 14) (size 15 to 20)
#    0.000    2.875    1.250    2.625    0.000    5.250 
#    0.000    2.500    0.000    0.000    0.000    0.000 
#    0.000    0.000    0.000    1.125    0.000   14.750 
#
# Total GULP energy -396593.418060 kJ/mol
# GULP energy per Si atom -12393.544314 kJ/mol
# Density = 1.512209 g / cm^3
# Si number density = 15.156583 Si / 1000 Ang^3
#
#
#
# Elastic Constant Matrix: (Units=GPa)
#
#
# Indices 1 2 3 4 5 6 
#
# 1 48.1349 41.4978 44.2623 0.0000 -20.1631 0.0000
# 2 41.4978 90.6957 55.9049 0.0000 -24.1558 0.0000
# 3 44.2623 55.9049 97.7150 0.0000 -33.4827 0.0000
# 4 0.0000 0.0000 0.0000 27.6279 0.0000 -8.0938
# 5 -20.1631 -24.1558 -33.4827 0.0000 26.7747 0.0000
# 6 0.0000 0.0000 0.0000 -8.0938 0.0000 20.9245
#
#
#
# Elastic Compliance Matrix: (Units=1/GPa)
#
#
# Indices 1 2 3 4 5 6 
#
# 1 0.043958 -0.011199 -0.009840 0.000000 0.010694 0.000000
# 2 -0.011199 0.020373 -0.005555 0.000000 0.003000 0.000000
# 3 -0.009840 -0.005555 0.023820 0.000000 0.017365 0.000000
# 4 0.000000 0.000000 0.000000 0.040821 0.000000 0.015790
# 5 0.010694 0.003000 0.017365 0.000000 0.069825 0.000000
# 6 0.000000 0.000000 0.000000 0.015790 0.000000 0.053898
#
#
# Mechanical properties :
#
#
# Convention : Reuss Voigt Hill
#
# Bulk Modulus (GPa) = 28.60233 57.76397 43.18315
# Shear Modulus (GPa) = 15.74613 21.39079 18.56846
#
# Velocity S-wave (km/s) = 3.22669 3.76083 3.50395
# Velocity P-wave (km/s) = 5.72662 7.55332 6.70250
#
# Compressibility (1/GPa) = 0.03496219
#
# Stress axis : x y z
#
# Youngs Moduli (GPa) = 22.74890 49.08390 41.98214
#
# Poissons Ratio (x) = 0.54971 0.41310
# Poissons Ratio (y) = 0.25477 0.23321
# Poissons Ratio (z) = 0.22385 0.27266
#
# Static dielectric constant tensor:
#      x y z
#    x 2.686230 0.000000 -0.524870 
#    y 0.000000 3.030350 0.000000 
#    z -0.524870 0.000000 3.091620 
# 
# 
# High freq. dielectric constant tensor:
#      x y z
#    x 1.529250 0.000000 -0.046920 
#    y 0.000000 1.589210 0.000000 
#    z -0.046920 0.000000 1.566620 
# 
# From -- ./inp_files/323712.got.cif
#   From: 2010.06.25/outbox.cif.g09.slc.cpg/sg12_162_cif.got.tgz:323712.got - 2010.06.28 00:19:55.
