data_PCOD8078912
_publ_section_title
;
Structure prediction by ZEFSAII (Michael W. Deem and Ramdas Pophale) SiO2 
 PCOD8078912
Probable space group: C 2/M
;
_chemical_formula_sum "Si O2"
_cell_formula_units_Z 64
_cell_length_a 20.232059
_cell_length_b 9.311894
_cell_length_c 24.595557
_cell_angle_alpha 90.000000
_cell_angle_beta 125.537585
_cell_angle_gamma 90.000000
_cell_volume 3770.660671
_symmetry_space_group_name_H-M "C 2/M"
_symmetry_group_IT_number 12
_symmetry_cell_setting 'monoclinic'
loop_
_space_group_symop_operation_xyz
x,y,z
-x,y,-z
-x,-y,-z
x,-y,z
1/2+x,1/2+y,z
1/2-x,1/2+y,-z
1/2-x,1/2-y,-z
1/2+x,1/2-y,z
loop_
_atom_site_type_symbol
_atom_site_label
_atom_site_fract_x
_atom_site_fract_y
_atom_site_fract_z
Si Si1 0.275029 0.829731 0.321467
Si Si2 0.009437 0.333019 0.845323
Si Si3 0.959346 0.830046 0.924420
Si Si4 0.877529 0.329470 0.193971
Si Si5 0.778200 0.170483 0.822734
Si Si6 0.513969 0.829616 0.338302
Si Si7 0.365070 0.166921 0.693131
Si Si8 0.541304 0.829066 0.573854
O O1 0.249565 0.774170 0.249615
O O2 0.215538 0.759690 0.337201
O O3 0.365901 0.776395 0.377637
O O4 0.267459 0.000000 0.322362
O O5 0.013329 0.500000 0.862675
O O6 0.009813 0.240320 0.899933
O O7 0.089836 0.284474 0.849960
O O8 0.929894 0.300045 0.771502
O O9 0.867156 0.769918 0.879872
O O10 0.962065 0.000000 0.917656
O O11 0.000000 0.782261 0.000000
O O12 0.880741 0.500000 0.199709
O O13 0.786162 0.273559 0.162539
O O14 0.937021 0.265820 0.268724
O O15 0.779854 0.000000 0.823418
O O16 0.597011 0.785811 0.347111
O O17 0.510014 0.772597 0.398416
O O18 0.506348 0.000000 0.334100
O O19 0.341682 0.000000 0.681929
O O20 0.500000 0.764046 0.500000
O O21 0.539386 0.000000 0.571207
#
# Coordination Sequence:
#
# PCOD8078912 Si02
#       8
#     8   8   8   8   8   8   8   8
#     4  10  17  27  47  71  91 116 152 191 226 260
#     4   9  17  29  47  69  89 113 148 191 231 262
#     4  10  20  32  46  66  94 125 150 177 223 278
#     4   8  13  24  44  67  86 109 150 193 223 259
#     4   9  15  26  45  67  88 114 151 188 217 257
#     4   8  13  24  41  63  89 117 148 183 227 269
#     4   9  17  28  45  68  92 117 147 186 228 271
#     4   9  16  26  43  69  96 118 149 195 232 257
#
# _framework density 16.973153
#
# number of rings (size 3 to 8) (size 9 to 14) (size 15 to 20)
#    0.000    3.000    2.500    1.500    0.000    0.250 
#    0.000    1.250    0.000    2.625    0.000    0.000 
#    0.000    0.000    0.000    0.000    0.000    0.000 
#
# Total GULP energy -396587.293754 kJ/mol
# GULP energy per Si atom -12393.352930 kJ/mol
# Density = 1.693452 g / cm^3
# Si number density = 16.973153 Si / 1000 Ang^3
#
#
#
# Elastic Constant Matrix: (Units=GPa)
#
#
# Indices 1 2 3 4 5 6 
#
# 1 171.4742 27.3772 80.5965 0.0000 -13.9869 0.0000
# 2 27.3772 16.5220 21.0520 0.0000 -4.3582 0.0000
# 3 80.5965 21.0520 121.4891 0.0000 -8.7345 0.0000
# 4 0.0000 0.0000 0.0000 8.7397 0.0000 -0.9266
# 5 -13.9869 -4.3582 -8.7345 0.0000 28.1661 0.0000
# 6 0.0000 0.0000 0.0000 -0.9266 0.0000 22.6806
#
#
#
# Elastic Compliance Matrix: (Units=1/GPa)
#
#
# Indices 1 2 3 4 5 6 
#
# 1 0.009707 -0.009695 -0.004624 0.000000 0.001886 0.000000
# 2 -0.009695 0.089173 -0.008566 0.000000 0.006327 0.000000
# 3 -0.004624 -0.008566 0.012808 0.000000 0.000350 0.000000
# 4 0.000000 0.000000 0.000000 0.114919 0.000000 0.004695
# 5 0.001886 0.006327 0.000350 0.000000 0.037528 0.000000
# 6 0.000000 0.000000 0.000000 0.004695 0.000000 0.044282
#
#
# Mechanical properties :
#
#
# Convention : Reuss Voigt Hill
#
# Bulk Modulus (GPa) = 15.17009 63.05962 39.11486
# Shear Modulus (GPa) = 13.29222 23.94791 18.62006
#
# Velocity S-wave (km/s) = 2.80149 3.76031 3.31574
# Velocity P-wave (km/s) = 4.40699 7.48909 6.14443
#
# Compressibility (1/GPa) = 0.06591917
#
# Stress axis : x y z
#
# Youngs Moduli (GPa) = 103.01931 11.21411 78.07477
#
# Poissons Ratio (x) = 0.10872 0.36102
# Poissons Ratio (y) = 0.99878 0.66875
# Poissons Ratio (z) = 0.47636 0.09605
#
# Static dielectric constant tensor:
#      x y z
#    x 3.544190 0.000000 -0.059660 
#    y 0.000000 2.625800 0.000000 
#    z -0.059660 0.000000 3.158720 
# 
# 
# High freq. dielectric constant tensor:
#      x y z
#    x 1.674010 0.000000 -0.007430 
#    y 0.000000 1.596920 0.000000 
#    z -0.007430 0.000000 1.632180 
# 
# From -- ./inp_files/315363.got.cif
#   From: 2010.06.25/outbox.cif.g09.slc.cpg/sg12_158_cif.got.tgz:315363.got - 2010.06.28 00:19:55.
