data_PCOD8078234
_publ_section_title
;
Structure prediction by ZEFSAII (Michael W. Deem and Ramdas Pophale) SiO2 
 PCOD8078234
Probable space group: C 2/M
;
_chemical_formula_sum "Si O2"
_cell_formula_units_Z 64
_cell_length_a 18.545321
_cell_length_b 18.319416
_cell_length_c 21.819025
_cell_angle_alpha 90.000000
_cell_angle_beta 32.200200
_cell_angle_gamma 90.000000
_cell_volume 3950.118394
_symmetry_space_group_name_H-M "C 2/M"
_symmetry_group_IT_number 12
_symmetry_cell_setting 'monoclinic'
loop_
_space_group_symop_operation_xyz
x,y,z
-x,y,-z
-x,-y,-z
x,-y,z
1/2+x,1/2+y,z
1/2-x,1/2+y,-z
1/2-x,1/2-y,-z
1/2+x,1/2-y,z
loop_
_atom_site_type_symbol
_atom_site_label
_atom_site_fract_x
_atom_site_fract_y
_atom_site_fract_z
Si Si1 0.435668 0.262069 0.810745
Si Si2 0.185717 0.353215 0.015242
Si Si3 0.899657 0.843349 0.217990
Si Si4 0.132919 0.415311 0.364646
Si Si5 0.538264 0.077647 0.903528
Si Si6 0.164024 0.082474 0.984167
Si Si7 0.627376 0.223635 0.862959
Si Si8 0.833268 0.680904 0.775763
O O1 0.404181 0.211200 0.891418
O O2 0.567140 0.310507 0.737180
O O3 0.449603 0.211205 0.739283
O O4 0.310650 0.316768 0.889193
O O5 0.099780 0.399584 0.030172
O O6 0.235447 0.408856 0.031309
O O7 0.755340 0.883430 0.317930
O O8 0.906907 0.777008 0.166754
O O9 0.012666 0.900481 0.114909
O O10 0.160732 0.500000 0.328833
O O11 0.106785 0.370938 0.320329
O O12 0.000000 0.405771 0.500000
O O13 0.649447 0.142311 0.818591
O O14 0.592709 0.000000 0.836875
O O15 0.500000 0.063005 0.000000
O O16 0.169316 0.000000 0.955504
O O17 0.212972 0.136313 0.895326
O O18 0.765322 0.247172 0.796280
O O19 0.500000 0.220519 0.000000
#
# Coordination Sequence:
#
# PCOD8078234 Si02
#       8
#     8   8   8   8   8   8   8   8
#     4   9  16  28  45  70  90 124 158 190 229 278
#     4   9  16  26  40  60 100 130 149 179 230 282
#     4  10  18  30  50  70  96 130 160 194 235 287
#     4  10  22  38  52  69  97 129 160 202 256 298
#     4  10  18  24  35  54  85 128 163 185 215 267
#     4  10  18  27  44  74 101 125 158 192 230 282
#     4  10  16  27  41  63  92 125 160 192 227 275
#     4  10  19  30  50  71  97 128 160 196 238 284
#
# _framework density 16.202045999999999
#
# number of rings (size 3 to 8) (size 9 to 14) (size 15 to 20)
#    0.000    2.250    2.500    3.375    0.000    0.000 
#    0.000    2.500    0.000    0.750    0.000    0.000 
#    0.000    8.000    0.000    0.000    0.000    0.500 
#
# Total GULP energy -396456.730648 kJ/mol
# GULP energy per Si atom -12389.272833 kJ/mol
# Density = 1.616517 g / cm^3
# Si number density = 16.202046 Si / 1000 Ang^3
#
#
#
# Elastic Constant Matrix: (Units=GPa)
#
#
# Indices 1 2 3 4 5 6 
#
# 1 102.5395 46.1471 30.6109 0.0010 3.3766 0.0009
# 2 46.1471 119.7053 25.6442 0.0009 -2.5215 0.0009
# 3 30.6109 25.6442 45.2283 0.0013 -2.3518 0.0017
# 4 0.0010 0.0009 0.0013 15.7818 -0.0011 1.2669
# 5 3.3766 -2.5215 -2.3518 -0.0011 13.4794 -0.0003
# 6 0.0009 0.0009 0.0017 1.2669 -0.0003 -1.9366
#
#
#
# Elastic Compliance Matrix: (Units=1/GPa)
#
#
# Indices 1 2 3 4 5 6 
#
# 1 0.013920 -0.003873 -0.007512 0.000000 -0.005522 -0.000001
# 2 -0.003873 0.010596 -0.003263 0.000000 0.002383 0.000000
# 3 -0.007512 -0.003263 0.029377 -0.000003 0.006397 0.000017
# 4 0.000000 0.000000 -0.000003 0.060203 0.000005 0.039384
# 5 -0.005522 0.002383 0.006397 0.000005 0.077133 -0.000006
# 6 -0.000001 0.000000 0.000017 0.039384 -0.000006 -0.490610
#
#
# Mechanical properties :
#
#
# Convention : Reuss Voigt Hill
#
# Bulk Modulus (GPa) = 40.65548 52.47528 46.56538
# Shear Modulus (GPa) = -19.09217 16.46965 -1.31126
#
# Velocity S-wave (km/s) = -3.43648 3.19174 -0.90060
# Velocity P-wave (km/s) = 3.06618 6.78538 5.26511
#
# Compressibility (1/GPa) = 0.02459693
#
# Stress axis : x y z
#
# Youngs Moduli (GPa) = 71.83986 94.37408 34.04046
#
# Poissons Ratio (x) = 0.36553 0.25572
# Poissons Ratio (y) = 0.27825 0.11106
# Poissons Ratio (z) = 0.53967 0.30791
#
# Static dielectric constant tensor:
#      x y z
#    x 3.438730 0.000020 -0.033740 
#    y 0.000020 3.475430 -0.000010 
#    z -0.033740 -0.000010 2.614320 
# 
# 
# High freq. dielectric constant tensor:
#      x y z
#    x 1.640560 0.000000 0.009770 
#    y 0.000000 1.640030 0.000000 
#    z 0.009770 0.000000 1.548300 
# 
# From -- ./inp_files/322425.got.cif
#   From: 2010.06.25/outbox.cif.g09.slc.cpg/sg12_162_cif.got.tgz:322425.got - 2010.06.28 00:19:55.
