data_PCOD8078576
_publ_section_title
;
Structure prediction by ZEFSAII (Michael W. Deem and Ramdas Pophale) SiO2 
 PCOD8078576
Probable space group: C 2/M
;
_chemical_formula_sum "Si O2"
_cell_formula_units_Z 48
_cell_length_a 20.079726
_cell_length_b 8.826951
_cell_length_c 25.209145
_cell_angle_alpha 90.000000
_cell_angle_beta 142.158791
_cell_angle_gamma 90.000000
_cell_volume 2741.092084
_symmetry_space_group_name_H-M "C 2/M"
_symmetry_group_IT_number 12
_symmetry_cell_setting 'monoclinic'
loop_
_space_group_symop_operation_xyz
x,y,z
-x,y,-z
-x,-y,-z
x,-y,z
1/2+x,1/2+y,z
1/2-x,1/2+y,-z
1/2-x,1/2-y,-z
1/2+x,1/2-y,z
loop_
_atom_site_type_symbol
_atom_site_label
_atom_site_fract_x
_atom_site_fract_y
_atom_site_fract_z
Si Si1 0.189667 0.320810 0.763256
Si Si2 0.983836 0.179663 0.410028
Si Si3 0.656452 0.676808 0.232848
Si Si4 0.225034 0.322413 0.905093
Si Si5 0.851062 0.677492 0.422721
Si Si6 0.418310 0.320794 0.100911
O O1 0.173593 0.500000 0.746858
O O2 0.072768 0.241133 0.679172
O O3 0.279703 0.257724 0.778333
O O4 0.229169 0.274132 0.846436
O O5 0.914735 0.246867 0.414510
O O6 0.107548 0.243326 0.496460
O O7 0.985745 0.000000 0.411423
O O8 0.642294 0.500000 0.213703
O O9 0.723737 0.706446 0.329908
O O10 0.537110 0.750243 0.163464
O O11 0.208061 0.500000 0.901039
O O12 0.123743 0.242228 0.869602
O O13 0.337896 0.270072 0.002989
O O14 0.877022 0.500000 0.441182
O O15 0.425095 0.500000 0.110187
#
# Coordination Sequence:
#
# PCOD8078576 Si02
#       6
#     8   8   8   8   8   8
#     4   9  17  30  46  66  92 120 153 188 223 264
#     4  10  17  25  40  65  93 119 149 184 225 267
#     4   8  15  27  46  70  91 116 150 187 224 260
#     4   9  18  31  48  68  90 120 153 184 222 270
#     4   9  15  26  43  63  90 122 152 181 219 267
#     4   9  17  31  49  68  91 118 150 186 224 269
#
# _framework density 17.51127
#
# number of rings (size 3 to 8) (size 9 to 14) (size 15 to 20)
#    0.000    3.000    0.000    4.000    0.000    1.333 
#    0.000    7.500    0.000    1.000    0.000    9.333 
#    0.000    0.000    0.000    0.000    0.000    0.000 
#
# Total GULP energy -297379.990361 kJ/mol
# GULP energy per Si atom -12390.832932 kJ/mol
# Density = 1.747141 g / cm^3
# Si number density = 17.511270 Si / 1000 Ang^3
#
#
#
# Elastic Constant Matrix: (Units=GPa)
#
#
# Indices 1 2 3 4 5 6 
#
# 1 82.9072 20.7290 74.4717 0.0000 8.0612 0.0000
# 2 20.7290 61.7729 40.4597 0.0000 -0.4242 0.0000
# 3 74.4717 40.4597 147.4952 0.0000 11.5248 0.0000
# 4 0.0000 0.0000 0.0000 19.8166 0.0000 -2.3148
# 5 8.0612 -0.4242 11.5248 0.0000 9.5607 0.0000
# 6 0.0000 0.0000 0.0000 -2.3148 0.0000 17.3628
#
#
#
# Elastic Compliance Matrix: (Units=1/GPa)
#
#
# Indices 1 2 3 4 5 6 
#
# 1 0.022374 -0.000559 -0.010673 0.000000 -0.006024 0.000000
# 2 -0.000559 0.020343 -0.005968 0.000000 0.008568 0.000000
# 3 -0.010673 -0.005968 0.014488 0.000000 -0.008730 0.000000
# 4 0.000000 0.000000 0.000000 0.051261 0.000000 0.006834
# 5 -0.006024 0.008568 -0.008730 0.000000 0.120578 0.000000
# 6 0.000000 0.000000 0.000000 0.006834 0.000000 0.058506
#
#
# Mechanical properties :
#
#
# Convention : Reuss Voigt Hill
#
# Bulk Modulus (GPa) = 43.84726 62.61067 53.22896
# Shear Modulus (GPa) = 15.17215 19.78233 17.47724
#
# Velocity S-wave (km/s) = 2.94670 3.36473 3.16263
# Velocity P-wave (km/s) = 6.05567 7.13634 6.61810
#
# Compressibility (1/GPa) = 0.02280644
#
# Stress axis : x y z
#
# Youngs Moduli (GPa) = 44.69452 49.15600 69.02339
#
# Poissons Ratio (x) = 0.02748 0.73668
# Poissons Ratio (y) = 0.02498 0.41191
# Poissons Ratio (z) = 0.47702 0.29335
#
# Static dielectric constant tensor:
#      x y z
#    x 3.027580 0.000000 0.137700 
#    y 0.000000 3.054680 0.000000 
#    z 0.137700 0.000000 4.215020 
# 
# 
# High freq. dielectric constant tensor:
#      x y z
#    x 1.626870 0.000000 0.002710 
#    y 0.000000 1.659540 0.000000 
#    z 0.002710 0.000000 1.699220 
# 
# From -- ./inp_files/273658.got.cif
#   From: 2010.06.25/outbox.cif.g09.slc.cpg/sg12_137_cif.got.tgz:273658.got - 2010.06.28 00:19:55.
