data_PCOD8078994
_publ_section_title
;
Structure prediction by ZEFSAII (Michael W. Deem and Ramdas Pophale) SiO2 
 PCOD8078994
Probable space group: C 2/M
;
_chemical_formula_sum "Si O2"
_cell_formula_units_Z 44
_cell_length_a 19.386361
_cell_length_b 13.578683
_cell_length_c 10.152141
_cell_angle_alpha 90.000000
_cell_angle_beta 86.437871
_cell_angle_gamma 90.000000
_cell_volume 2667.299131
_symmetry_space_group_name_H-M "C 2/M"
_symmetry_group_IT_number 12
_symmetry_cell_setting 'monoclinic'
loop_
_space_group_symop_operation_xyz
x,y,z
-x,y,-z
-x,-y,-z
x,-y,z
1/2+x,1/2+y,z
1/2-x,1/2+y,-z
1/2-x,1/2-y,-z
1/2+x,1/2-y,z
loop_
_atom_site_type_symbol
_atom_site_label
_atom_site_fract_x
_atom_site_fract_y
_atom_site_fract_z
Si Si1 0.982184 0.611219 0.220118
Si Si2 0.866647 0.616823 0.836129
Si Si3 0.657185 0.883821 0.873970
Si Si4 0.759606 0.383985 0.381975
Si Si5 0.000000 0.317620 0.500000
Si Si6 0.150023 0.274929 0.423933
O O1 0.978607 0.500000 0.173122
O O2 0.915121 0.666213 0.166938
O O3 0.981785 0.614302 0.378563
O O4 0.054093 0.654292 0.155746
O O5 0.863380 0.500000 0.807106
O O6 0.833226 0.674481 0.718431
O O7 0.826831 0.645356 0.976310
O O8 0.719512 0.853068 0.769962
O O9 0.647851 0.000000 0.863389
O O10 0.747670 0.500000 0.399637
O O11 0.821408 0.349647 0.469607
O O12 0.688372 0.329804 0.426947
O O13 0.068422 0.253271 0.457229
#
# Coordination Sequence:
#
# PCOD8078994 Si02
#       6
#     8   8   8   8   4   8
#     4   9  15  23  40  66  97 125 146 179 229 277
#     4   9  17  27  43  69  98 122 149 184 224 274
#     4   9  16  27  43  65  95 125 149 180 229 280
#     4  10  20  34  49  67  94 125 155 189 232 276
#     4  10  17  28  45  70  94 114 158 196 224 266
#     4  10  20  32  49  70  93 122 156 192 229 273
#
# _framework density 16.496085999999998
#
# number of rings (size 3 to 8) (size 9 to 14) (size 15 to 20)
#    0.000    2.545    1.818    1.364    0.000    4.364 
#    0.000    0.455    0.000    0.000    0.000    0.000 
#    0.000    3.273    0.000    0.000    0.000    0.000 
#
# Total GULP energy -272584.023025 kJ/mol
# GULP energy per Si atom -12390.182865 kJ/mol
# Density = 1.645854 g / cm^3
# Si number density = 16.496086 Si / 1000 Ang^3
#
#
#
# Elastic Constant Matrix: (Units=GPa)
#
#
# Indices 1 2 3 4 5 6 
#
# 1 76.7967 32.5619 27.7894 0.0000 -6.3063 0.0000
# 2 32.5619 55.0492 23.9928 0.0000 -4.9448 0.0000
# 3 27.7894 23.9928 103.2847 0.0000 -2.6214 0.0000
# 4 0.0000 0.0000 0.0000 12.7235 0.0000 -0.1114
# 5 -6.3063 -4.9448 -2.6214 0.0000 19.6269 0.0000
# 6 0.0000 0.0000 0.0000 -0.1114 0.0000 13.3611
#
#
#
# Elastic Compliance Matrix: (Units=1/GPa)
#
#
# Indices 1 2 3 4 5 6 
#
# 1 0.018191 -0.009323 -0.002649 0.000000 0.003142 0.000000
# 2 -0.009323 0.025391 -0.003315 0.000000 0.002959 0.000000
# 3 -0.002649 -0.003315 0.011160 0.000000 -0.000196 0.000000
# 4 0.000000 0.000000 0.000000 0.078601 0.000000 0.000655
# 5 0.003142 0.002959 -0.000196 0.000000 0.052679 0.000000
# 6 0.000000 0.000000 0.000000 0.000655 0.000000 0.074850
#
#
# Mechanical properties :
#
#
# Convention : Reuss Voigt Hill
#
# Bulk Modulus (GPa) = 41.37734 44.86876 43.12305
# Shear Modulus (GPa) = 16.69444 19.19473 17.94458
#
# Velocity S-wave (km/s) = 3.18468 3.41485 3.30177
# Velocity P-wave (km/s) = 6.21776 6.54270 6.38230
#
# Compressibility (1/GPa) = 0.02416782
#
# Stress axis : x y z
#
# Youngs Moduli (GPa) = 54.97207 39.38433 89.60831
#
# Poissons Ratio (x) = 0.36719 0.23736
# Poissons Ratio (y) = 0.51253 0.29702
# Poissons Ratio (z) = 0.14561 0.13054
#
# Static dielectric constant tensor:
#      x y z
#    x 3.115170 0.000000 -0.058570 
#    y 0.000000 2.560000 0.000000 
#    z -0.058570 0.000000 3.401150 
# 
# 
# High freq. dielectric constant tensor:
#      x y z
#    x 1.629210 0.000000 -0.001930 
#    y 0.000000 1.570660 0.000000 
#    z -0.001930 0.000000 1.656720 
# 
# From -- ./inp_files/85062.got.cif
#   From: 2010.06.25/outbox.cif.g09.slc.cpg/sg12_43_cif.got.tgz:85062.got - 2010.06.28 00:19:55.
