data_PCOD8078630
_publ_section_title
;
Structure prediction by ZEFSAII (Michael W. Deem and Ramdas Pophale) SiO2 
 PCOD8078630
Probable space group: C 2/M
;
_chemical_formula_sum "Si O2"
_cell_formula_units_Z 64
_cell_length_a 27.462708
_cell_length_b 9.027150
_cell_length_c 24.091358
_cell_angle_alpha 90.000000
_cell_angle_beta 44.102773
_cell_angle_gamma 90.000000
_cell_volume 4156.538532
_symmetry_space_group_name_H-M "C 2/M"
_symmetry_group_IT_number 12
_symmetry_cell_setting 'monoclinic'
loop_
_space_group_symop_operation_xyz
x,y,z
-x,y,-z
-x,-y,-z
x,-y,z
1/2+x,1/2+y,z
1/2-x,1/2+y,-z
1/2-x,1/2-y,-z
1/2+x,1/2-y,z
loop_
_atom_site_type_symbol
_atom_site_label
_atom_site_fract_x
_atom_site_fract_y
_atom_site_fract_z
Si Si1 0.887493 0.325818 0.446235
Si Si2 0.926712 0.675458 0.534422
Si Si3 0.943589 0.836903 0.997687
Si Si4 0.789766 0.169564 0.678671
Si Si5 0.750703 0.168902 0.583922
Si Si6 0.955099 0.675016 0.156945
Si Si7 0.658748 0.324276 0.827494
Si Si8 0.098072 0.674817 0.684794
O O1 0.880205 0.500000 0.455725
O O2 0.925993 0.269096 0.470541
O O3 0.809520 0.262976 0.504753
O O4 0.928574 0.279216 0.355540
O O5 0.915986 0.500000 0.547702
O O6 0.865726 0.753851 0.619406
O O7 0.000000 0.726595 0.500000
O O8 0.870934 0.787951 0.086281
O O9 0.936205 0.000000 0.976785
O O10 0.000000 0.842220 0.000000
O O11 0.969428 0.724143 0.928980
O O12 0.758979 0.181770 0.642808
O O13 0.736393 0.256310 0.762548
O O14 0.796785 0.000000 0.692660
O O15 0.675847 0.239715 0.630266
O O16 0.758226 0.000000 0.557966
O O17 0.946717 0.500000 0.156544
O O18 0.890686 0.751403 0.178425
O O19 0.953107 0.726228 0.223501
O O20 0.660507 0.500000 0.815425
O O21 0.105147 0.500000 0.683334
#
# Coordination Sequence:
#
# PCOD8078630 Si02
#       8
#     8   8   8   8   8   8   8   8
#     4   9  17  28  42  58  76 105 140 169 203 243
#     4   9  18  32  47  63  84 108 137 173 211 251
#     4   8  16  28  38  53  78 109 142 174 203 236
#     4  10  18  28  44  64  84 107 139 174 208 247
#     4   9  16  27  38  53  81 107 131 170 206 233
#     4  10  17  26  39  56  80 112 144 174 206 238
#     4  10  18  28  41  57  82 111 141 174 205 240
#     4   9  16  26  38  55  82 109 137 172 202 234
#
# _framework density 15.397427
#
# number of rings (size 3 to 8) (size 9 to 14) (size 15 to 20)
#    0.000    2.750    1.250    2.250    0.000    3.500 
#    0.000    1.250    0.000    0.000    0.000    0.000 
#    0.000    1.000    0.000    2.000    0.000    2.625 
#
# Total GULP energy -396530.854506 kJ/mol
# GULP energy per Si atom -12391.589203 kJ/mol
# Density = 1.536238 g / cm^3
# Si number density = 15.397427 Si / 1000 Ang^3
#
#
#
# Elastic Constant Matrix: (Units=GPa)
#
#
# Indices 1 2 3 4 5 6 
#
# 1 54.4648 23.1219 49.6866 0.0033 -3.8855 -0.0012
# 2 23.1219 53.4282 48.3851 0.0077 -3.2477 -0.0061
# 3 49.6866 48.3851 142.4818 0.0080 1.4757 -0.0062
# 4 0.0033 0.0077 0.0080 23.7957 -0.0051 -4.5043
# 5 -3.8855 -3.2477 1.4757 -0.0051 16.7411 0.0028
# 6 -0.0012 -0.0061 -0.0062 -4.5043 0.0028 11.0241
#
#
#
# Elastic Compliance Matrix: (Units=1/GPa)
#
#
# Indices 1 2 3 4 5 6 
#
# 1 0.028397 -0.004133 -0.008567 0.000001 0.006544 -0.000005
# 2 -0.004133 0.028259 -0.008209 -0.000003 0.005246 0.000008
# 3 -0.008567 -0.008209 0.012843 -0.000001 -0.004713 0.000003
# 4 0.000001 -0.000003 -0.000001 0.045547 0.000010 0.018610
# 5 0.006544 0.005246 -0.004713 0.000010 0.062685 -0.000011
# 6 -0.000005 0.000008 0.000003 0.018610 -0.000011 0.098314
#
#
# Mechanical properties :
#
#
# Convention : Reuss Voigt Hill
#
# Bulk Modulus (GPa) = 36.12771 54.75135 45.43953
# Shear Modulus (GPa) = 15.28627 18.92427 17.10527
#
# Velocity S-wave (km/s) = 3.15426 3.50959 3.33666
# Velocity P-wave (km/s) = 6.06467 7.21519 6.66480
#
# Compressibility (1/GPa) = 0.02767959
#
# Stress axis : x y z
#
# Youngs Moduli (GPa) = 35.21442 35.38723 77.86623
#
# Poissons Ratio (x) = 0.14627 0.66708
# Poissons Ratio (y) = 0.14555 0.63923
# Poissons Ratio (z) = 0.30168 0.29050
#
# Static dielectric constant tensor:
#      x y z
#    x 2.662010 0.000000 0.133840 
#    y 0.000000 2.936700 0.000000 
#    z 0.133840 0.000000 3.372810 
# 
# 
# High freq. dielectric constant tensor:
#      x y z
#    x 1.531650 0.000000 0.007160 
#    y 0.000000 1.587880 0.000000 
#    z 0.007160 0.000000 1.598400 
# 
# From -- ./inp_files/350946.got.cif
#   From: 2010.06.25/outbox.cif.g09.slc.cpg/sg12_176_cif.got.tgz:350946.got - 2010.06.28 00:19:55.
