data_PCOD8078603
_publ_section_title
;
Structure prediction by ZEFSAII (Michael W. Deem and Ramdas Pophale) SiO2 
 PCOD8078603
Probable space group: C 2/M
;
_chemical_formula_sum "Si O2"
_cell_formula_units_Z 56
_cell_length_a 11.314391
_cell_length_b 23.071617
_cell_length_c 22.157423
_cell_angle_alpha 90.000000
_cell_angle_beta 147.151427
_cell_angle_gamma 90.000000
_cell_volume 3137.362134
_symmetry_space_group_name_H-M "C 2/M"
_symmetry_group_IT_number 12
_symmetry_cell_setting 'monoclinic'
loop_
_space_group_symop_operation_xyz
x,y,z
-x,y,-z
-x,-y,-z
x,-y,z
1/2+x,1/2+y,z
1/2-x,1/2+y,-z
1/2-x,1/2-y,-z
1/2+x,1/2-y,z
loop_
_atom_site_type_symbol
_atom_site_label
_atom_site_fract_x
_atom_site_fract_y
_atom_site_fract_z
Si Si1 0.741381 0.932461 0.125948
Si Si2 0.849628 0.245908 0.191915
Si Si3 0.826717 0.351646 0.801628
Si Si4 0.053111 0.153909 0.193393
Si Si5 0.281824 0.306746 0.974505
Si Si6 0.482517 0.314089 0.561727
Si Si7 0.990875 0.693794 0.623906
O O1 0.745676 0.910887 0.196691
O O2 0.929223 0.901322 0.167462
O O3 0.791303 0.000000 0.144028
O O4 0.500000 0.916189 0.000000
O O5 0.695186 0.202133 0.161520
O O6 0.694070 0.289007 0.085950
O O7 0.003933 0.211773 0.211227
O O8 0.996706 0.280988 0.302412
O O9 0.671863 0.347761 0.677617
O O10 0.077575 0.351221 0.889755
O O11 0.316103 0.147395 0.306466
O O12 0.986751 0.161291 0.094130
O O13 0.250000 0.250000 0.000000
O O14 0.500000 0.330482 0.500000
O O15 0.245604 0.335869 0.484466
O O16 0.507938 0.245497 0.582868
#
# Coordination Sequence:
#
# PCOD8078603 Si02
#       7
#     8   8   8   8   8   8   8
#     4  10  20  37  57  74  97 129 170 220 268 309
#     4   9  17  27  42  68 106 138 161 190 241 300
#     4  10  19  31  47  73  99 134 174 206 245 299
#     4  10  19  29  47  75 103 131 168 209 253 298
#     4  10  17  25  42  69 105 133 160 197 244 301
#     4  10  19  32  49  70 107 144 176 198 233 300
#     4  10  19  30  45  72 105 145 172 196 237 295
#
# _framework density 17.84939
#
# number of rings (size 3 to 8) (size 9 to 14) (size 15 to 20)
#    0.000    2.143    1.429    5.143    0.000    4.000 
#    0.000    0.000    0.000    2.143    0.000    5.000 
#    0.000    0.000    0.000    0.000    0.000    0.000 
#
# Total GULP energy -347013.993556 kJ/mol
# GULP energy per Si atom -12393.356913 kJ/mol
# Density = 1.780876 g / cm^3
# Si number density = 17.849390 Si / 1000 Ang^3
#
#
#
# Elastic Constant Matrix: (Units=GPa)
#
#
# Indices 1 2 3 4 5 6 
#
# 1 67.1983 23.8481 41.6703 -0.0021 -10.0573 0.0009
# 2 23.8481 52.6119 24.3109 0.0023 1.8984 0.0012
# 3 41.6703 24.3109 108.6450 -0.0545 12.7183 0.0072
# 4 -0.0021 0.0023 -0.0545 14.2785 0.0001 3.7545
# 5 -10.0573 1.8984 12.7183 0.0001 41.4216 0.0002
# 6 0.0009 0.0012 0.0072 3.7545 0.0002 12.8815
#
#
#
# Elastic Compliance Matrix: (Units=1/GPa)
#
#
# Indices 1 2 3 4 5 6 
#
# 1 0.024171 -0.007264 -0.008683 -0.000032 0.008868 0.000013
# 2 -0.007264 0.023392 -0.002195 -0.000014 -0.002162 0.000004
# 3 -0.008683 -0.002195 0.013755 0.000058 -0.006231 -0.000024
# 4 -0.000032 -0.000014 0.000058 0.075849 -0.000025 -0.022107
# 5 0.008868 -0.002162 -0.006231 -0.000025 0.028308 0.000010
# 6 0.000013 0.000004 -0.000024 -0.022107 0.000010 0.084074
#
#
# Mechanical properties :
#
#
# Convention : Reuss Voigt Hill
#
# Bulk Modulus (GPa) = 39.94637 45.34596 42.64617
# Shear Modulus (GPa) = 16.99649 22.95805 19.97727
#
# Velocity S-wave (km/s) = 3.08915 3.59027 3.34909
# Velocity P-wave (km/s) = 5.92892 6.53044 6.23693
#
# Compressibility (1/GPa) = 0.02503356
#
# Stress axis : x y z
#
# Youngs Moduli (GPa) = 41.37160 42.74946 72.69822
#
# Poissons Ratio (x) = 0.31053 0.63127
# Poissons Ratio (y) = 0.30052 0.15959
# Poissons Ratio (z) = 0.35925 0.09384
#
# Static dielectric constant tensor:
#      x y z
#    x 3.385070 0.000000 -0.127810 
#    y 0.000000 2.773860 -0.000010 
#    z -0.127810 -0.000010 3.645230 
# 
# 
# High freq. dielectric constant tensor:
#      x y z
#    x 1.697890 0.000000 -0.001330 
#    y 0.000000 1.609440 0.000000 
#    z -0.001330 0.000000 1.710630 
# 
# From -- ./inp_files/337041.got.cif
#   From: 2010.06.25/outbox.cif.g09.slc.cpg/sg12_169_cif.got.tgz:337041.got - 2010.06.28 00:19:55.
