data_PCOD8078125
_publ_section_title
;
Structure prediction by ZEFSAII (Michael W. Deem and Ramdas Pophale) SiO2 
 PCOD8078125
Probable space group: C 2/M
;
_chemical_formula_sum "Si O2"
_cell_formula_units_Z 56
_cell_length_a 5.323448
_cell_length_b 17.302266
_cell_length_c 32.413413
_cell_angle_alpha 90.000000
_cell_angle_beta 109.420874
_cell_angle_gamma 90.000000
_cell_volume 2815.653684
_symmetry_space_group_name_H-M "C 2/M"
_symmetry_group_IT_number 12
_symmetry_cell_setting 'monoclinic'
loop_
_space_group_symop_operation_xyz
x,y,z
-x,y,-z
-x,-y,-z
x,-y,z
1/2+x,1/2+y,z
1/2-x,1/2+y,-z
1/2-x,1/2-y,-z
1/2+x,1/2-y,z
loop_
_atom_site_type_symbol
_atom_site_label
_atom_site_fract_x
_atom_site_fract_y
_atom_site_fract_z
Si Si1 0.612134 0.297778 0.549853
Si Si2 0.850904 0.909223 0.680344
Si Si3 0.255063 0.409964 0.372089
Si Si4 0.103086 0.659680 0.050910
Si Si5 0.323666 0.669659 0.912910
Si Si6 0.456435 0.658923 0.225279
Si Si7 0.616687 0.170199 0.810838
O O1 0.500000 0.327407 0.500000
O O2 0.400038 0.240997 0.559574
O O3 0.648777 0.371263 0.580713
O O4 0.547439 0.885377 0.654357
O O5 0.045574 0.885610 0.653672
O O6 0.940906 0.858371 0.723719
O O7 0.874705 0.000000 0.692002
O O8 0.272799 0.500000 0.381457
O O9 0.397707 0.622583 0.073287
O O10 0.120718 0.751248 0.059612
O O11 0.899097 0.622584 0.073292
O O12 0.000000 0.640773 0.000000
O O13 0.220454 0.689430 0.861900
O O14 0.439161 0.750536 0.216596
O O15 0.661437 0.622410 0.202847
O O16 0.160639 0.622446 0.202749
#
# Coordination Sequence:
#
# PCOD8078125 Si02
#       7
#     8   8   8   8   8   8   8
#     4  10  21  39  59  86 119 147 177 221 270 315
#     4  10  21  37  55  74 104 136 171 216 261 301
#     4  10  21  39  58  81 108 144 184 217 259 323
#     4  10  16  22  33  51  75 110 157 188 215 281
#     4  10  16  25  36  51  78 114 151 184 238 274
#     4  10  18  32  45  66  92 120 161 201 243 291
#     4  10  19  30  45  65  92 123 159 205 237 303
#
# _framework density 19.888808000000001
#
# number of rings (size 3 to 8) (size 9 to 14) (size 15 to 20)
#    0.000    2.000    0.000    8.143    0.000    0.286 
#   15.429    0.000    0.000    5.143    0.000    0.000 
#    0.000    0.000    0.000    0.000    0.000  402.143 
#
# Total GULP energy -347042.196808 kJ/mol
# GULP energy per Si atom -12394.364172 kJ/mol
# Density = 1.984354 g / cm^3
# Si number density = 19.888808 Si / 1000 Ang^3
#
#
#
# Elastic Constant Matrix: (Units=GPa)
#
#
# Indices 1 2 3 4 5 6 
#
# 1 230.4651 17.8559 73.7277 0.0000 -3.7577 0.0000
# 2 17.8559 22.0737 46.5718 0.0000 -4.1228 0.0000
# 3 73.7277 46.5718 163.4149 0.0000 -6.1045 0.0000
# 4 0.0000 0.0000 0.0000 0.9196 0.0000 0.6281
# 5 -3.7577 -4.1228 -6.1045 0.0000 33.5386 0.0000
# 6 0.0000 0.0000 0.0000 0.6281 0.0000 6.6728
#
#
#
# Elastic Compliance Matrix: (Units=1/GPa)
#
#
# Indices 1 2 3 4 5 6 
#
# 1 0.005103 0.001908 -0.002835 0.000000 0.000290 0.000000
# 2 0.001908 0.116580 -0.033771 0.000000 0.008398 0.000000
# 3 -0.002835 -0.033771 0.016972 0.000000 -0.001380 0.000000
# 4 0.000000 0.000000 0.000000 1.162135 0.000000 -0.109381
# 5 0.000290 0.008398 -0.001380 0.000000 0.030630 0.000000
# 6 0.000000 0.000000 0.000000 -0.109381 0.000000 0.160156
#
#
# Mechanical properties :
#
#
# Convention : Reuss Voigt Hill
#
# Bulk Modulus (GPa) = 14.43888 76.91828 45.67858
# Shear Modulus (GPa) = 3.15645 26.74610 14.95127
#
# Velocity S-wave (km/s) = 1.26115 3.67110 2.74477
# Velocity P-wave (km/s) = 3.06533 7.53176 5.74994
#
# Compressibility (1/GPa) = 0.06925743
#
# Stress axis : x y z
#
# Youngs Moduli (GPa) = 195.96414 8.57782 58.92185
#
# Poissons Ratio (x) = -0.01637 0.16706
# Poissons Ratio (y) = -0.37398 1.98988
# Poissons Ratio (z) = 0.55562 0.28969
#
# Static dielectric constant tensor:
#      x y z
#    x 6.185420 0.000000 0.124010 
#    y 0.000000 2.853650 0.000000 
#    z 0.124010 0.000000 3.562770 
# 
# 
# High freq. dielectric constant tensor:
#      x y z
#    x 1.824320 0.000000 0.001000 
#    y 0.000000 1.694280 0.000000 
#    z 0.001000 0.000000 1.784540 
# 
# From -- ./inp_files/371617.got.cif
#   From: 2010.06.25/outbox.cif.g09.slc.cpg/sg12_186_cif.got.tgz:371617.got - 2010.06.28 00:19:55.
