data_PCOD8078836
_publ_section_title
;
Structure prediction by ZEFSAII (Michael W. Deem and Ramdas Pophale) SiO2 
 PCOD8078836
Probable space group: C 2/M
;
_chemical_formula_sum "Si O2"
_cell_formula_units_Z 64
_cell_length_a 19.385262
_cell_length_b 9.015123
_cell_length_c 20.902475
_cell_angle_alpha 90.000000
_cell_angle_beta 98.176223
_cell_angle_gamma 90.000000
_cell_volume 3615.796644
_symmetry_space_group_name_H-M "C 2/M"
_symmetry_group_IT_number 12
_symmetry_cell_setting 'monoclinic'
loop_
_space_group_symop_operation_xyz
x,y,z
-x,y,-z
-x,-y,-z
x,-y,z
1/2+x,1/2+y,z
1/2-x,1/2+y,-z
1/2-x,1/2-y,-z
1/2+x,1/2-y,z
loop_
_atom_site_type_symbol
_atom_site_label
_atom_site_fract_x
_atom_site_fract_y
_atom_site_fract_z
Si Si1 0.129659 0.328596 0.676506
Si Si2 0.236445 0.172570 0.148024
Si Si3 0.004324 0.673579 0.572219
Si Si4 0.284001 0.673547 0.714708
Si Si5 0.549666 0.327167 0.774046
Si Si6 0.618348 0.175707 0.892530
Si Si7 0.921602 0.173389 0.669021
Si Si8 0.320989 0.673817 0.988762
O O1 0.119931 0.500000 0.695542
O O2 0.081368 0.289166 0.609492
O O3 0.210249 0.295471 0.669817
O O4 0.109624 0.229479 0.734331
O O5 0.216469 0.245231 0.213765
O O6 0.310253 0.233130 0.131492
O O7 0.174409 0.199034 0.087785
O O8 0.248952 0.000000 0.161557
O O9 0.989243 0.500000 0.570263
O O10 0.000000 0.738475 0.500000
O O11 0.944625 0.747203 0.607113
O O12 0.299585 0.500000 0.722953
O O13 0.346701 0.740417 0.680463
O O14 0.560635 0.500000 0.788078
O O15 0.554773 0.240018 0.842056
O O16 0.474686 0.292087 0.733726
O O17 0.612336 0.000000 0.898034
O O18 0.616230 0.247264 0.963901
O O19 0.918989 0.000000 0.653275
O O20 0.318974 0.500000 0.004762
O O21 0.250000 0.750000 0.000000
#
# Coordination Sequence:
#
# PCOD8078836 Si02
#       8
#     8   8   8   8   8   8   8   8
#     4   9  16  29  51  71  90 123 162 193 225 275
#     4   8  14  24  42  65  88 115 152 193 232 277
#     4   9  18  33  52  73  98 128 159 190 226 273
#     4   9  15  28  49  71  93 120 158 196 231 279
#     4  10  18  28  43  68  96 119 150 197 246 284
#     4  10  17  27  44  65  88 121 163 201 237 281
#     4   9  19  32  49  72  97 123 153 193 237 280
#     4   9  16  25  38  62  93 122 153 198 248 290
#
# _framework density 17.700111
#
# number of rings (size 3 to 8) (size 9 to 14) (size 15 to 20)
#    0.000    2.875    1.250    1.875    0.000    0.750 
#    0.000    1.250    0.000    0.750    0.000    5.250 
#    0.000    0.000    0.000    0.000    0.000    0.000 
#
# Total GULP energy -396575.586959 kJ/mol
# GULP energy per Si atom -12392.987092 kJ/mol
# Density = 1.765982 g / cm^3
# Si number density = 17.700111 Si / 1000 Ang^3
#
#
#
# Elastic Constant Matrix: (Units=GPa)
#
#
# Indices 1 2 3 4 5 6 
#
# 1 93.1514 21.7714 45.6575 0.0000 -3.4029 0.0000
# 2 21.7714 53.1451 30.4755 0.0000 6.0688 0.0000
# 3 45.6575 30.4755 121.7077 0.0000 12.3852 0.0000
# 4 0.0000 0.0000 0.0000 24.9777 0.0000 2.5840
# 5 -3.4029 6.0688 12.3852 0.0000 21.8834 0.0000
# 6 0.0000 0.0000 0.0000 2.5840 0.0000 15.4510
#
#
#
# Elastic Compliance Matrix: (Units=1/GPa)
#
#
# Indices 1 2 3 4 5 6 
#
# 1 0.014296 -0.003645 -0.005071 0.000000 0.006104 0.000000
# 2 -0.003645 0.023109 -0.003936 0.000000 -0.004748 0.000000
# 3 -0.005071 -0.003936 0.011750 0.000000 -0.006347 0.000000
# 4 0.000000 0.000000 0.000000 0.040741 0.000000 -0.006813
# 5 0.006104 -0.004748 -0.006347 0.000000 0.051555 0.000000
# 6 0.000000 0.000000 0.000000 -0.006813 0.000000 0.065860
#
#
# Mechanical properties :
#
#
# Convention : Reuss Voigt Hill
#
# Bulk Modulus (GPa) = 41.92852 51.53477 46.73164
# Shear Modulus (GPa) = 20.78434 23.80242 22.29338
#
# Velocity S-wave (km/s) = 3.43045 3.67108 3.55280
# Velocity P-wave (km/s) = 6.27936 6.86642 6.57944
#
# Compressibility (1/GPa) = 0.02385012
#
# Stress axis : x y z
#
# Youngs Moduli (GPa) = 69.95016 43.27346 85.10422
#
# Poissons Ratio (x) = 0.15775 0.43159
# Poissons Ratio (y) = 0.25500 0.33495
# Poissons Ratio (z) = 0.35474 0.17031
#
# Static dielectric constant tensor:
#      x y z
#    x 3.266040 0.000000 0.288810 
#    y 0.000000 3.126050 0.000000 
#    z 0.288810 0.000000 3.721730 
# 
# 
# High freq. dielectric constant tensor:
#      x y z
#    x 1.654680 0.000000 0.021960 
#    y 0.000000 1.664030 0.000000 
#    z 0.021960 0.000000 1.683890 
# 
# From -- ./inp_files/319157.got.cif
#   From: 2010.06.25/outbox.cif.g09.slc.cpg/sg12_160_cif.got.tgz:319157.got - 2010.06.28 00:19:55.
