data_PCOD8078924
_publ_section_title
;
Structure prediction by ZEFSAII (Michael W. Deem and Ramdas Pophale) SiO2 
 PCOD8078924
Probable space group: C 2/M
;
_chemical_formula_sum "Si O2"
_cell_formula_units_Z 48
_cell_length_a 25.235231
_cell_length_b 7.669745
_cell_length_c 23.062274
_cell_angle_alpha 90.000000
_cell_angle_beta 141.592997
_cell_angle_gamma 90.000000
_cell_volume 2773.015128
_symmetry_space_group_name_H-M "C 2/M"
_symmetry_group_IT_number 12
_symmetry_cell_setting 'monoclinic'
loop_
_space_group_symop_operation_xyz
x,y,z
-x,y,-z
-x,-y,-z
x,-y,z
1/2+x,1/2+y,z
1/2-x,1/2+y,-z
1/2-x,1/2-y,-z
1/2+x,1/2-y,z
loop_
_atom_site_type_symbol
_atom_site_label
_atom_site_fract_x
_atom_site_fract_y
_atom_site_fract_z
Si Si1 0.311482 0.196214 0.966484
Si Si2 0.949545 0.794586 0.686694
Si Si3 0.386215 0.500000 0.958785
Si Si4 0.350657 0.200381 0.714758
Si Si5 0.300382 0.297542 0.486488
Si Si6 0.361209 0.201963 0.135850
Si Si7 0.916658 0.000000 0.851510
O O1 0.338853 0.325957 0.939310
O O2 0.209198 0.195975 0.887214
O O3 0.340034 0.000000 0.974265
O O4 0.356898 0.259922 0.064885
O O5 0.913452 0.701734 0.713044
O O6 0.897348 0.733245 0.583308
O O7 0.046805 0.743929 0.758990
O O8 0.938438 0.000000 0.686750
O O9 0.380852 0.500000 0.885310
O O10 0.481824 0.500000 0.064156
O O11 0.255344 0.275198 0.615463
O O12 0.384806 0.323400 0.794333
O O13 0.347668 0.000000 0.734660
O O14 0.300950 0.500000 0.475956
O O15 0.250000 0.250000 0.500000
O O16 0.338861 0.000000 0.121661
#
# Coordination Sequence:
#
# PCOD8078924 Si02
#       7
#     8   8   4   8   8   8   4
#     4  10  21  36  54  74 105 139 168 213 260 307
#     4  10  17  27  47  78 112 141 169 205 254 312
#     4  11  24  40  54  75 105 131 181 224 251 301
#     4  10  19  34  51  74 105 140 177 212 253 306
#     4   8  16  27  43  69 105 139 167 205 252 304
#     4  10  19  31  50  80 108 137 170 202 257 319
#     4  11  24  38  56  75  97 143 179 217 259 294
#
# _framework density 17.309677000000001
#
# number of rings (size 3 to 8) (size 9 to 14) (size 15 to 20)
#    0.000    2.167    1.667    2.000    3.500    3.333 
#    0.000    1.667    0.000    0.000    0.000    2.333 
#    0.000    5.333    0.000    0.000    0.000    0.000 
#
# Total GULP energy -297378.257003 kJ/mol
# GULP energy per Si atom -12390.760708 kJ/mol
# Density = 1.727028 g / cm^3
# Si number density = 17.309677 Si / 1000 Ang^3
#
#
#
# Elastic Constant Matrix: (Units=GPa)
#
#
# Indices 1 2 3 4 5 6 
#
# 1 68.4772 35.5111 47.7063 0.0000 2.9598 0.0000
# 2 35.5111 87.8022 37.5879 -0.0001 -8.3478 -0.0002
# 3 47.7063 37.5879 137.3167 0.0000 13.6005 0.0000
# 4 0.0000 -0.0001 0.0000 14.7595 0.0000 8.7343
# 5 2.9598 -8.3478 13.6005 0.0000 24.5937 0.0000
# 6 0.0000 -0.0002 0.0000 8.7343 0.0000 16.1139
#
#
#
# Elastic Compliance Matrix: (Units=1/GPa)
#
#
# Indices 1 2 3 4 5 6 
#
# 1 0.022095 -0.006679 -0.005671 0.000000 -0.001790 0.000000
# 2 -0.006679 0.016055 -0.002850 0.000000 0.007829 0.000000
# 3 -0.005671 -0.002850 0.010644 0.000000 -0.006171 0.000000
# 4 0.000000 0.000000 0.000000 0.099749 0.000000 -0.054068
# 5 -0.001790 0.007829 -0.006171 0.000000 0.046946 0.000000
# 6 0.000000 0.000000 0.000000 -0.054068 0.000000 0.091365
#
#
# Mechanical properties :
#
#
# Convention : Reuss Voigt Hill
#
# Bulk Modulus (GPa) = 54.36261 59.46740 56.91500
# Shear Modulus (GPa) = 15.46150 22.61281 19.03715
#
# Velocity S-wave (km/s) = 2.99194 3.61829 3.31992
# Velocity P-wave (km/s) = 6.58860 7.20317 6.90273
#
# Compressibility (1/GPa) = 0.01839500
#
# Stress axis : x y z
#
# Youngs Moduli (GPa) = 45.25943 62.28678 93.95122
#
# Poissons Ratio (x) = 0.41600 0.53277
# Poissons Ratio (y) = 0.30227 0.26775
# Poissons Ratio (z) = 0.25665 0.17751
#
# Static dielectric constant tensor:
#      x y z
#    x 2.786780 0.000000 0.252750 
#    y 0.000000 3.303800 0.000000 
#    z 0.252750 0.000000 3.731310 
# 
# 
# High freq. dielectric constant tensor:
#      x y z
#    x 1.609670 0.000000 0.026650 
#    y 0.000000 1.682870 0.000000 
#    z 0.026650 0.000000 1.679170 
# 
# From -- ./inp_files/323883.got.cif
#   From: 2010.06.25/outbox.cif.g09.slc.cpg/sg12_162_cif.got.tgz:323883.got - 2010.06.28 00:19:55.
