data_PCOD8078624
_publ_section_title
;
Structure prediction by ZEFSAII (Michael W. Deem and Ramdas Pophale) SiO2 
 PCOD8078624
Probable space group: C 2/M
;
_chemical_formula_sum "Si O2"
_cell_formula_units_Z 64
_cell_length_a 5.114742
_cell_length_b 33.881317
_cell_length_c 27.401734
_cell_angle_alpha 90.000000
_cell_angle_beta 107.003408
_cell_angle_gamma 90.000000
_cell_volume 4540.989298
_symmetry_space_group_name_H-M "C 2/M"
_symmetry_group_IT_number 12
_symmetry_cell_setting 'monoclinic'
loop_
_space_group_symop_operation_xyz
x,y,z
-x,y,-z
-x,-y,-z
x,-y,z
1/2+x,1/2+y,z
1/2-x,1/2+y,-z
1/2-x,1/2-y,-z
1/2+x,1/2-y,z
loop_
_atom_site_type_symbol
_atom_site_label
_atom_site_fract_x
_atom_site_fract_y
_atom_site_fract_z
Si Si1 0.298674 0.547115 0.530274
Si Si2 0.293101 0.357038 0.895479
Si Si3 0.011109 0.045696 0.356127
Si Si4 0.611947 0.724109 0.058332
Si Si5 0.399625 0.046488 0.292441
Si Si6 0.133122 0.393154 0.058866
Si Si7 0.260747 0.454670 0.139193
Si Si8 0.337084 0.920018 0.185974
O O1 0.500000 0.563768 0.500000
O O2 0.310752 0.500000 0.532312
O O3 0.386753 0.565023 0.587592
O O4 0.000000 0.562538 0.500000
O O5 0.358310 0.310423 0.899541
O O6 0.557709 0.378996 0.930957
O O7 0.221337 0.375278 0.837668
O O8 0.037681 0.362420 0.917836
O O9 0.691196 0.053146 0.333124
O O10 0.174758 0.062086 0.318433
O O11 0.084328 0.000000 0.362661
O O12 0.408430 0.756902 0.067744
O O13 0.500000 0.707573 0.000000
O O14 0.370645 0.076692 0.245795
O O15 0.359591 0.000000 0.275127
O O16 0.124704 0.435672 0.084084
O O17 0.000000 0.398596 0.000000
O O18 0.190586 0.500000 0.134019
O O19 0.584591 0.447758 0.157159
O O20 0.120397 0.435913 0.179285
#
# Coordination Sequence:
#
# PCOD8078624 Si02
#       8
#     8   8   8   8   8   8   8   8
#     4   9  15  23  34  47  67  93 119 150 194 243
#     4  10  20  33  46  62  83 101 125 151 181 236
#     4   9  17  25  35  53  71  92 123 161 201 233
#     4  10  19  30  47  68  85 101 119 145 185 229
#     4  10  17  26  39  53  72  94 125 165 198 227
#     4  10  19  30  45  60  77 103 124 149 188 224
#     4  10  19  30  42  57  75  95 128 162 190 231
#     4  10  20  31  44  58  74 103 129 157 201 231
#
# _framework density 14.093844000000001
#
# number of rings (size 3 to 8) (size 9 to 14) (size 15 to 20)
#    0.000    2.250    0.000    4.500    0.000    5.250 
#    0.000    0.000    0.000    4.500    0.000    0.000 
#    0.000    0.000    0.000    0.000    0.000    0.000 
#
# Total GULP energy -396675.914762 kJ/mol
# GULP energy per Si atom -12396.122336 kJ/mol
# Density = 1.406177 g / cm^3
# Si number density = 14.093844 Si / 1000 Ang^3
#
#
#
# Elastic Constant Matrix: (Units=GPa)
#
#
# Indices 1 2 3 4 5 6 
#
# 1 61.1071 4.5402 11.0067 0.0000 -6.2534 0.0000
# 2 4.5402 50.9474 24.4334 0.0000 -2.3176 0.0000
# 3 11.0067 24.4334 88.4903 0.0000 -6.5405 0.0000
# 4 0.0000 0.0000 0.0000 8.2949 0.0000 -1.7310
# 5 -6.2534 -2.3176 -6.5405 0.0000 20.0217 0.0000
# 6 0.0000 0.0000 0.0000 -1.7310 0.0000 10.3608
#
#
#
# Elastic Compliance Matrix: (Units=1/GPa)
#
#
# Indices 1 2 3 4 5 6 
#
# 1 0.017188 -0.000528 -0.001639 0.000000 0.004772 0.000000
# 2 -0.000528 0.022647 -0.006154 0.000000 0.000446 0.000000
# 3 -0.001639 -0.006154 0.013438 0.000000 0.003165 0.000000
# 4 0.000000 0.000000 0.000000 0.124911 0.000000 0.020869
# 5 0.004772 0.000446 0.003165 0.000000 0.052522 0.000000
# 6 0.000000 0.000000 0.000000 0.020869 0.000000 0.100004
#
#
# Mechanical properties :
#
#
# Convention : Reuss Voigt Hill
#
# Bulk Modulus (GPa) = 27.30146 31.16726 29.23436
# Shear Modulus (GPa) = 13.90575 18.43977 16.17276
#
# Velocity S-wave (km/s) = 3.14451 3.62105 3.39116
# Velocity P-wave (km/s) = 5.70940 6.29641 6.01007
#
# Compressibility (1/GPa) = 0.03662808
#
# Stress axis : x y z
#
# Youngs Moduli (GPa) = 58.18165 44.15589 74.41655
#
# Poissons Ratio (x) = 0.02333 0.12199
# Poissons Ratio (y) = 0.03075 0.45799
# Poissons Ratio (z) = 0.09537 0.27176
#
# Static dielectric constant tensor:
#      x y z
#    x 3.024240 0.000000 -0.056670 
#    y 0.000000 2.421370 0.000000 
#    z -0.056670 0.000000 2.807360 
# 
# 
# High freq. dielectric constant tensor:
#      x y z
#    x 1.566460 0.000000 -0.001320 
#    y 0.000000 1.477420 0.000000 
#    z -0.001320 0.000000 1.526910 
# 
# From -- ./inp_files/331539.got.cif
#   From: 2010.06.25/outbox.cif.g09.slc.cpg/sg12_166_cif.got.tgz:331539.got - 2010.06.28 00:19:55.
