data_PCOD8078622
_publ_section_title
;
Structure prediction by ZEFSAII (Michael W. Deem and Ramdas Pophale) SiO2 
 PCOD8078622
Probable space group: C 2/M
;
_chemical_formula_sum "Si O2"
_cell_formula_units_Z 48
_cell_length_a 24.758863
_cell_length_b 8.147331
_cell_length_c 24.037194
_cell_angle_alpha 90.000000
_cell_angle_beta 143.679172
_cell_angle_gamma 90.000000
_cell_volume 2871.944464
_symmetry_space_group_name_H-M "C 2/M"
_symmetry_group_IT_number 12
_symmetry_cell_setting 'monoclinic'
loop_
_space_group_symop_operation_xyz
x,y,z
-x,y,-z
-x,-y,-z
x,-y,z
1/2+x,1/2+y,z
1/2-x,1/2+y,-z
1/2-x,1/2-y,-z
1/2+x,1/2-y,z
loop_
_atom_site_type_symbol
_atom_site_label
_atom_site_fract_x
_atom_site_fract_y
_atom_site_fract_z
Si Si1 0.364348 0.000000 0.849772
Si Si2 0.848200 0.313746 0.137447
Si Si3 0.559088 0.000000 0.964027
Si Si4 0.807106 0.819369 0.311343
Si Si5 0.434161 0.183860 0.497509
Si Si6 0.140010 0.812707 0.970492
Si Si7 0.925177 0.812102 0.310034
O O1 0.390375 0.000000 0.935483
O O2 0.302731 0.163219 0.786057
O O3 0.450350 0.000000 0.880966
O O4 0.856228 0.500000 0.122990
O O5 0.875529 0.197695 0.108790
O O6 0.916396 0.285436 0.245239
O O7 0.745401 0.275838 0.072188
O O8 0.582053 0.170365 0.952211
O O9 0.832970 0.729936 0.390958
O O10 0.852292 0.735309 0.294076
O O11 0.853033 0.000000 0.352668
O O12 0.500000 0.209758 0.500000
O O13 0.472013 0.291969 0.580295
O O14 0.432454 0.000000 0.518387
O O15 0.112779 0.000000 0.966519
O O16 0.902967 0.000000 0.278387
#
# Coordination Sequence:
#
# PCOD8078622 Si02
#       7
#     4   8   4   8   8   8   8
#     4   9  20  34  55  74  94 134 179 218 248 301
#     4  10  19  31  47  76 106 134 169 200 250 315
#     4  11  20  38  56  74 102 136 173 219 260 288
#     4   8  16  30  44  66  95 132 169 203 245 294
#     4   9  16  26  41  66 102 136 164 203 251 302
#     4  10  21  34  52  74 104 138 167 210 256 306
#     4  10  17  25  45  72 104 137 163 202 247 306
#
# _framework density 16.713415000000001
#
# number of rings (size 3 to 8) (size 9 to 14) (size 15 to 20)
#    0.500    2.000    0.833    2.500    2.333    2.667 
#    0.000    3.333    0.000    0.000    0.000    1.167 
#    0.000    0.000    0.000    0.000    0.000    0.000 
#
# Total GULP energy -297379.200170 kJ/mol
# GULP energy per Si atom -12390.800007 kJ/mol
# Density = 1.667537 g / cm^3
# Si number density = 16.713415 Si / 1000 Ang^3
#
#
#
# Elastic Constant Matrix: (Units=GPa)
#
#
# Indices 1 2 3 4 5 6 
#
# 1 58.6432 32.9475 37.8174 0.0000 2.2568 0.0000
# 2 32.9475 76.5456 25.1525 0.0000 -1.8520 0.0000
# 3 37.8174 25.1525 119.7079 0.0000 -4.2356 0.0000
# 4 0.0000 0.0000 0.0000 28.3794 0.0000 -4.1569
# 5 2.2568 -1.8520 -4.2356 0.0000 20.8261 0.0000
# 6 0.0000 0.0000 0.0000 -4.1569 0.0000 14.1776
#
#
#
# Elastic Compliance Matrix: (Units=1/GPa)
#
#
# Indices 1 2 3 4 5 6 
#
# 1 0.026899 -0.009507 -0.006681 0.000000 -0.005119 0.000000
# 2 -0.009507 0.017402 -0.000566 0.000000 0.002462 0.000000
# 3 -0.006681 -0.000566 0.010684 0.000000 0.002847 0.000000
# 4 0.000000 0.000000 0.000000 0.036818 0.000000 0.010795
# 5 -0.005119 0.002462 0.002847 0.000000 0.049369 0.000000
# 6 0.000000 0.000000 0.000000 0.010795 0.000000 0.073699
#
#
# Mechanical properties :
#
#
# Convention : Reuss Voigt Hill
#
# Bulk Modulus (GPa) = 46.56189 49.63685 48.09937
# Shear Modulus (GPa) = 19.56657 23.27523 21.42090
#
# Velocity S-wave (km/s) = 3.42528 3.73581 3.58391
# Velocity P-wave (km/s) = 6.60021 6.95498 6.77992
#
# Compressibility (1/GPa) = 0.02147679
#
# Stress axis : x y z
#
# Youngs Moduli (GPa) = 37.17609 57.46611 93.59733
#
# Poissons Ratio (x) = 0.54630 0.62537
# Poissons Ratio (y) = 0.35342 0.05297
# Poissons Ratio (z) = 0.24839 0.03252
#
# Static dielectric constant tensor:
#      x y z
#    x 2.668700 0.000000 -0.069230 
#    y 0.000000 3.069400 0.000000 
#    z -0.069230 0.000000 3.225150 
# 
# 
# High freq. dielectric constant tensor:
#      x y z
#    x 1.580110 0.000000 -0.017840 
#    y 0.000000 1.644140 0.000000 
#    z -0.017840 0.000000 1.653870 
# 
# From -- ./inp_files/319392.got.cif
#   From: 2010.06.25/outbox.cif.g09.slc.cpg/sg12_160_cif.got.tgz:319392.got - 2010.06.28 00:19:55.
