data_PCOD8078074
_publ_section_title
;
Structure prediction by ZEFSAII (Michael W. Deem and Ramdas Pophale) SiO2 
 PCOD8078074
Probable space group: C 2/M
;
_chemical_formula_sum "Si O2"
_cell_formula_units_Z 64
_cell_length_a 30.969752
_cell_length_b 17.794965
_cell_length_c 26.496875
_cell_angle_alpha 90.000000
_cell_angle_beta 162.974138
_cell_angle_gamma 90.000000
_cell_volume 4275.683331
_symmetry_space_group_name_H-M "C 2/M"
_symmetry_group_IT_number 12
_symmetry_cell_setting 'monoclinic'
loop_
_space_group_symop_operation_xyz
x,y,z
-x,y,-z
-x,-y,-z
x,-y,z
1/2+x,1/2+y,z
1/2-x,1/2+y,-z
1/2-x,1/2-y,-z
1/2+x,1/2-y,z
loop_
_atom_site_type_symbol
_atom_site_label
_atom_site_fract_x
_atom_site_fract_y
_atom_site_fract_z
Si Si1 0.090577 0.228167 0.339163
Si Si2 0.997146 0.082727 0.715502
Si Si3 0.441759 0.228449 0.274171
Si Si4 0.784802 0.087245 0.202368
Si Si5 0.168317 0.587805 0.182876
Si Si6 0.339022 0.083841 0.118861
Si Si7 0.344591 0.178039 0.031291
Si Si8 0.439946 0.645315 0.540210
O O1 0.250000 0.250000 0.500000
O O2 0.088294 0.137844 0.341866
O O3 0.049903 0.263474 0.347619
O O4 0.974420 0.260736 0.168384
O O5 0.985199 0.108042 0.643954
O O6 0.926566 0.000000 0.641467
O O7 0.163933 0.081167 0.920649
O O8 0.395961 0.140373 0.227326
O O9 0.527032 0.264240 0.418146
O O10 0.295839 0.278772 0.102284
O O11 0.731795 0.106280 0.199022
O O12 0.957401 0.108116 0.388391
O O13 0.760201 0.000000 0.161977
O O14 0.685806 0.138339 0.055528
O O15 0.177691 0.500000 0.206090
O O16 0.269215 0.631739 0.336197
O O17 0.000000 0.616289 0.000000
O O18 0.396603 0.115111 0.129544
O O19 0.402403 0.000000 0.199660
#
# Coordination Sequence:
#
# PCOD8078074 Si02
#       8
#     8   8   8   8   8   8   8   8
#     4  10  18  28  40  59  88 120 145 177 217 255
#     4  10  17  27  46  67  86 114 153 181 214 262
#     4   9  17  30  44  63  87 112 149 182 215 260
#     4  10  18  28  45  65  82 109 149 185 217 252
#     4  10  21  33  42  59  90 119 145 182 221 256
#     4  10  15  25  46  68  89 113 143 180 220 254
#     4  10  16  29  43  62  87 113 151 183 212 254
#     4  10  18  29  49  63  85 114 149 187 219 257
#
# _framework density 14.968367000000001
#
# number of rings (size 3 to 8) (size 9 to 14) (size 15 to 20)
#    0.000    2.125    5.000    2.625    0.000    3.000 
#    0.000    4.375    0.000    0.000    0.000    0.000 
#    0.000    9.500    0.000    0.000    0.000    4.500 
#
# Total GULP energy -396513.763847 kJ/mol
# GULP energy per Si atom -12391.055120 kJ/mol
# Density = 1.493430 g / cm^3
# Si number density = 14.968367 Si / 1000 Ang^3
#
#
#
# Elastic Constant Matrix: (Units=GPa)
#
#
# Indices 1 2 3 4 5 6 
#
# 1 44.7625 34.2758 38.4640 -0.0035 6.0247 -0.0019
# 2 34.2758 120.4646 42.6994 0.0015 -1.7350 0.0005
# 3 38.4640 42.6994 99.8404 -0.0105 9.4376 -0.0051
# 4 -0.0035 0.0015 -0.0105 21.9394 -0.0059 -2.5947
# 5 6.0247 -1.7350 9.4376 -0.0059 18.2180 -0.0020
# 6 -0.0019 0.0005 -0.0051 -2.5947 -0.0020 15.5152
#
#
#
# Elastic Compliance Matrix: (Units=1/GPa)
#
#
# Indices 1 2 3 4 5 6 
#
# 1 0.038231 -0.007099 -0.010971 -0.000001 -0.007636 0.000000
# 2 -0.007099 0.011290 -0.002542 -0.000002 0.004740 -0.000002
# 3 -0.010971 -0.002542 0.015782 0.000005 -0.004790 0.000004
# 4 -0.000001 -0.000002 0.000005 0.046500 0.000013 0.007776
# 5 -0.007636 0.004740 -0.004790 0.000013 0.060348 0.000007
# 6 0.000000 -0.000002 0.000004 0.007776 0.000007 0.065753
#
#
# Mechanical properties :
#
#
# Convention : Reuss Voigt Hill
#
# Bulk Modulus (GPa) = 41.52743 55.10509 48.31626
# Shear Modulus (GPa) = 17.41220 21.10975 19.26097
#
# Velocity S-wave (km/s) = 3.41437 3.75946 3.59106
# Velocity P-wave (km/s) = 6.58389 7.46585 7.03870
#
# Compressibility (1/GPa) = 0.02408047
#
# Stress axis : x y z
#
# Youngs Moduli (GPa) = 26.15680 88.57175 63.36238
#
# Poissons Ratio (x) = 0.62879 0.69513
# Poissons Ratio (y) = 0.18569 0.16104
# Poissons Ratio (z) = 0.28696 0.22511
#
# Static dielectric constant tensor:
#      x y z
#    x 2.646990 -0.000010 -0.019830 
#    y -0.000010 3.335020 0.000000 
#    z -0.019830 0.000000 2.876310 
# 
# 
# High freq. dielectric constant tensor:
#      x y z
#    x 1.541860 0.000000 0.007970 
#    y 0.000000 1.568290 0.000000 
#    z 0.007970 0.000000 1.561270 
# 
# From -- ./inp_files/97699.got.cif
#   From: 2010.06.25/outbox.cif.g09.slc.cpg/sg12_49_cif.got.tgz:97699.got - 2010.06.28 00:19:55.
