data_PCOD8078856
_publ_section_title
;
Structure prediction by ZEFSAII (Michael W. Deem and Ramdas Pophale) SiO2 
 PCOD8078856
Probable space group: C 2/M
;
_chemical_formula_sum "Si O2"
_cell_formula_units_Z 48
_cell_length_a 28.540918
_cell_length_b 9.046825
_cell_length_c 12.172350
_cell_angle_alpha 90.000000
_cell_angle_beta 68.740555
_cell_angle_gamma 90.000000
_cell_volume 2929.073641
_symmetry_space_group_name_H-M "C 2/M"
_symmetry_group_IT_number 12
_symmetry_cell_setting 'monoclinic'
loop_
_space_group_symop_operation_xyz
x,y,z
-x,y,-z
-x,-y,-z
x,-y,z
1/2+x,1/2+y,z
1/2-x,1/2+y,-z
1/2-x,1/2-y,-z
1/2+x,1/2-y,z
loop_
_atom_site_type_symbol
_atom_site_label
_atom_site_fract_x
_atom_site_fract_y
_atom_site_fract_z
Si Si1 0.882642 0.824896 0.535865
Si Si2 0.084654 0.671529 0.271069
Si Si3 0.280637 0.823673 0.570808
Si Si4 0.010558 0.837095 0.619662
Si Si5 0.742590 0.673129 0.839006
Si Si6 0.323385 0.170094 0.947790
O O1 0.891882 0.765283 0.650260
O O2 0.836764 0.740115 0.519020
O O3 0.931054 0.790814 0.416709
O O4 0.872458 0.000000 0.551505
O O5 0.084944 0.500000 0.305355
O O6 0.118616 0.698148 0.134018
O O7 0.027786 0.722504 0.290317
O O8 0.250000 0.750000 0.500000
O O9 0.253673 0.773681 0.706379
O O10 0.282473 0.000000 0.556754
O O11 0.000000 0.840877 0.500000
O O12 0.001192 0.000000 0.678138
O O13 0.735586 0.500000 0.847740
O O14 0.788958 0.725298 0.875580
O O15 0.690838 0.743476 0.928759
O O16 0.312802 0.000000 0.980617
#
# Coordination Sequence:
#
# PCOD8078856 Si02
#       6
#     8   8   8   8   8   8
#     4  10  19  31  46  65  93 127 160 196 235 276
#     4  10  17  27  44  69  98 126 155 191 235 283
#     4  11  22  36  51  70  95 124 163 200 235 279
#     4   8  16  28  41  63  93 123 157 191 228 282
#     4   9  18  32  46  65  93 123 157 195 231 276
#     4   9  17  29  45  68  96 124 155 191 232 280
#
# _framework density 16.387433999999999
#
# number of rings (size 3 to 8) (size 9 to 14) (size 15 to 20)
#    0.000    2.500    1.667    2.500    0.000    6.333 
#    0.000    0.000    0.000    0.000    0.000    1.167 
#    0.000    9.333    0.000    0.000    0.000    0.000 
#
# Total GULP energy -297500.928664 kJ/mol
# GULP energy per Si atom -12395.872028 kJ/mol
# Density = 1.635014 g / cm^3
# Si number density = 16.387434 Si / 1000 Ang^3
#
#
#
# Elastic Constant Matrix: (Units=GPa)
#
#
# Indices 1 2 3 4 5 6 
#
# 1 98.8328 48.5092 58.4207 0.0000 -19.4024 0.0000
# 2 48.5092 73.2315 45.4004 0.0000 -12.8756 0.0000
# 3 58.4207 45.4004 91.5354 0.0000 -18.1132 0.0000
# 4 0.0000 0.0000 0.0000 26.4609 0.0000 -6.4138
# 5 -19.4024 -12.8756 -18.1132 0.0000 26.3381 0.0000
# 6 0.0000 0.0000 0.0000 -6.4138 0.0000 28.8700
#
#
#
# Elastic Compliance Matrix: (Units=1/GPa)
#
#
# Indices 1 2 3 4 5 6 
#
# 1 0.019146 -0.006959 -0.007697 0.000000 0.005408 0.000000
# 2 -0.006959 0.022511 -0.006436 0.000000 0.001452 0.000000
# 3 -0.007697 -0.006436 0.020008 0.000000 0.004943 0.000000
# 4 0.000000 0.000000 0.000000 0.039942 0.000000 0.008874
# 5 0.005408 0.001452 0.004943 0.000000 0.046061 0.000000
# 6 0.000000 0.000000 0.000000 0.008874 0.000000 0.036609
#
#
# Mechanical properties :
#
#
# Convention : Reuss Voigt Hill
#
# Bulk Modulus (GPa) = 51.33892 63.14003 57.23947
# Shear Modulus (GPa) = 21.46339 23.75176 22.60757
#
# Velocity S-wave (km/s) = 3.62297 3.81121 3.71828
# Velocity P-wave (km/s) = 6.99267 7.61448 7.31019
#
# Compressibility (1/GPa) = 0.01947840
#
# Stress axis : x y z
#
# Youngs Moduli (GPa) = 52.23151 44.42363 49.98060
#
# Poissons Ratio (x) = 0.30916 0.38472
# Poissons Ratio (y) = 0.36349 0.32168
# Poissons Ratio (z) = 0.40205 0.28591
#
# Static dielectric constant tensor:
#      x y z
#    x 3.238780 0.000000 -0.445430 
#    y 0.000000 3.175730 0.000000 
#    z -0.445430 0.000000 3.029900 
# 
# 
# High freq. dielectric constant tensor:
#      x y z
#    x 1.609320 0.000000 -0.039340 
#    y 0.000000 1.640270 0.000000 
#    z -0.039340 0.000000 1.603300 
# 
# From -- ./inp_files/185727.got.cif
#   From: 2010.06.25/outbox.cif.g09.slc.cpg/sg12_93_cif.got.tgz:185727.got - 2010.06.28 00:19:55.
