data_PCOD8078383
_publ_section_title
;
Structure prediction by ZEFSAII (Michael W. Deem and Ramdas Pophale) SiO2 
 PCOD8078383
Probable space group: C 2/M
;
_chemical_formula_sum "Si O2"
_cell_formula_units_Z 40
_cell_length_a 12.933258
_cell_length_b 14.671275
_cell_length_c 12.027433
_cell_angle_alpha 90.000000
_cell_angle_beta 65.576949
_cell_angle_gamma 90.000000
_cell_volume 2077.959072
_symmetry_space_group_name_H-M "C 2/M"
_symmetry_group_IT_number 12
_symmetry_cell_setting 'monoclinic'
loop_
_space_group_symop_operation_xyz
x,y,z
-x,y,-z
-x,-y,-z
x,-y,z
1/2+x,1/2+y,z
1/2-x,1/2+y,-z
1/2-x,1/2-y,-z
1/2+x,1/2-y,z
loop_
_atom_site_type_symbol
_atom_site_label
_atom_site_fract_x
_atom_site_fract_y
_atom_site_fract_z
Si Si1 0.038494 0.174640 0.725405
Si Si2 0.822734 0.500000 0.859772
Si Si3 0.665261 0.199725 0.119862
Si Si4 0.923934 0.000000 0.140842
Si Si5 0.214741 0.309882 0.352570
Si Si6 0.622161 0.000000 0.396082
Si Si7 0.500000 0.696155 0.500000
O O1 0.955478 0.248932 0.819621
O O2 0.162040 0.222523 0.659514
O O3 0.997916 0.142344 0.618959
O O4 0.045406 0.087677 0.800379
O O5 0.842944 0.593700 0.920435
O O6 0.703587 0.500000 0.845819
O O7 0.912040 0.500000 0.719308
O O8 0.718408 0.198790 0.218133
O O9 0.750000 0.250000 0.000000
O O10 0.000000 0.000000 0.000000
O O11 0.197062 0.413874 0.398694
O O12 0.114143 0.254887 0.454371
O O13 0.500000 0.000000 0.500000
#
# Coordination Sequence:
#
# PCOD8078383 Si02
#       7
#     8   4   8   4   8   4   4
#     4  11  22  37  61  88 125 160 199 256 304 362
#     4  10  20  40  57  88 120 151 211 245 288 369
#     4  10  21  36  60  91 123 157 203 257 306 352
#     4  12  22  37  64  92 112 158 211 249 294 363
#     4  10  19  35  56  88 117 160 201 247 300 369
#     4  10  16  30  59  82 116 147 206 254 287 341
#     4  10  22  36  54  84 126 156 194 241 316 367
#
# _framework density 19.249658
#
# number of rings (size 3 to 8) (size 9 to 14) (size 15 to 20)
#    0.000    1.600    5.000    1.800    0.000    0.400 
#    0.000    0.000    0.000    7.200    0.000    0.000 
#    0.000    0.000    0.000    0.000    0.000    0.000 
#
# Total GULP energy -247779.956227 kJ/mol
# GULP energy per Si atom -12388.997811 kJ/mol
# Density = 1.920585 g / cm^3
# Si number density = 19.249658 Si / 1000 Ang^3
#
#
#
# Elastic Constant Matrix: (Units=GPa)
#
#
# Indices 1 2 3 4 5 6 
#
# 1 121.4998 55.0144 48.8043 0.0000 -23.5603 0.0000
# 2 55.0144 130.1147 50.4583 0.0000 -10.2410 0.0000
# 3 48.8043 50.4583 116.8990 0.0000 -20.7819 0.0000
# 4 0.0000 0.0000 0.0000 22.2075 0.0000 0.3522
# 5 -23.5603 -10.2410 -20.7819 0.0000 30.5742 0.0000
# 6 0.0000 0.0000 0.0000 0.3522 0.0000 29.8882
#
#
#
# Elastic Compliance Matrix: (Units=1/GPa)
#
#
# Indices 1 2 3 4 5 6 
#
# 1 0.012096 -0.003714 -0.002287 0.000000 0.006522 0.000000
# 2 -0.003714 0.010376 -0.003207 0.000000 -0.001566 0.000000
# 3 -0.002287 -0.003207 0.011817 0.000000 0.005196 0.000000
# 4 0.000000 0.000000 0.000000 0.045038 0.000000 -0.000531
# 5 0.006522 -0.001566 0.005196 0.000000 0.040740 0.000000
# 6 0.000000 0.000000 0.000000 -0.000531 0.000000 0.033464
#
#
# Mechanical properties :
#
#
# Convention : Reuss Voigt Hill
#
# Bulk Modulus (GPa) = 62.99910 75.22972 69.11441
# Shear Modulus (GPa) = 28.21065 30.81640 29.51353
#
# Velocity S-wave (km/s) = 3.83236 4.00544 3.91985
# Velocity P-wave (km/s) = 7.23748 7.78186 7.51460
#
# Compressibility (1/GPa) = 0.01587324
#
# Stress axis : x y z
#
# Youngs Moduli (GPa) = 82.67512 96.37570 84.62325
#
# Poissons Ratio (x) = 0.35792 0.19356
# Poissons Ratio (y) = 0.30704 0.27135
# Poissons Ratio (z) = 0.18910 0.30904
#
# Static dielectric constant tensor:
#      x y z
#    x 3.569760 0.000000 -0.257100 
#    y 0.000000 3.617980 0.000000 
#    z -0.257100 0.000000 3.697020 
# 
# 
# High freq. dielectric constant tensor:
#      x y z
#    x 1.739070 0.000000 -0.022840 
#    y 0.000000 1.739200 0.000000 
#    z -0.022840 0.000000 1.761560 
# 
# From -- ./inp_files/129652.got.cif
#   From: 2010.06.25/outbox.cif.g09.slc.cpg/sg12_65_cif.got.tgz:129652.got - 2010.06.28 00:19:55.
