data_PCOD8078868
_publ_section_title
;
Structure prediction by ZEFSAII (Michael W. Deem and Ramdas Pophale) SiO2 
 PCOD8078868
Probable space group: C 2/M
;
_chemical_formula_sum "Si O2"
_cell_formula_units_Z 56
_cell_length_a 30.381634
_cell_length_b 9.385020
_cell_length_c 16.872134
_cell_angle_alpha 90.000000
_cell_angle_beta 46.324580
_cell_angle_gamma 90.000000
_cell_volume 3479.468236
_symmetry_space_group_name_H-M "C 2/M"
_symmetry_group_IT_number 12
_symmetry_cell_setting 'monoclinic'
loop_
_space_group_symop_operation_xyz
x,y,z
-x,y,-z
-x,-y,-z
x,-y,z
1/2+x,1/2+y,z
1/2-x,1/2+y,-z
1/2-x,1/2-y,-z
1/2+x,1/2-y,z
loop_
_atom_site_type_symbol
_atom_site_label
_atom_site_fract_x
_atom_site_fract_y
_atom_site_fract_z
Si Si1 0.921468 0.668313 0.248599
Si Si2 0.626387 0.831673 0.861202
Si Si3 0.231832 0.663821 0.136630
Si Si4 0.837697 0.333805 0.926945
Si Si5 0.054570 0.668485 0.103586
Si Si6 0.249883 0.336994 0.288462
Si Si7 0.301852 0.833454 0.481662
O O1 0.923764 0.500000 0.254026
O O2 0.910022 0.713054 0.172183
O O3 0.867463 0.726301 0.372077
O O4 0.986611 0.734231 0.194703
O O5 0.692373 0.763030 0.776184
O O6 0.636183 0.000000 0.853839
O O7 0.588442 0.772788 0.983125
O O8 0.249701 0.500000 0.100369
O O9 0.175057 0.704606 0.149539
O O10 0.214200 0.692519 0.250073
O O11 0.290555 0.755537 0.042593
O O12 0.828560 0.500000 0.955201
O O13 0.906125 0.288407 0.867276
O O14 0.048844 0.500000 0.102117
O O15 0.272649 0.500000 0.263709
O O16 0.203393 0.305150 0.417805
O O17 0.250000 0.750000 0.500000
O O18 0.294846 0.000000 0.469326
#
# Coordination Sequence:
#
# PCOD8078868 Si02
#       7
#     8   8   8   8   8   8   8
#     4   9  17  28  43  64  88 115 146 182 218 252
#     4  10  17  27  45  67  88 113 145 179 215 258
#     4   9  17  28  42  63  91 117 139 172 221 264
#     4   9  16  27  45  66  86 111 145 181 213 254
#     4   9  16  26  43  67  90 111 143 183 218 254
#     4  10  19  29  43  64  93 120 140 173 222 266
#     4  10  19  31  47  64  85 116 151 183 215 252
#
# _framework density 16.094412999999999
#
# number of rings (size 3 to 8) (size 9 to 14) (size 15 to 20)
#    0.000    2.571    2.857    0.429    0.000    1.714 
#    0.000    0.000    0.000    5.143    0.000    6.000 
#    0.000    0.000    0.000    9.714    0.000   10.286 
#
# Total GULP energy -347026.681048 kJ/mol
# GULP energy per Si atom -12393.810037 kJ/mol
# Density = 1.605778 g / cm^3
# Si number density = 16.094413 Si / 1000 Ang^3
#
#
#
# Elastic Constant Matrix: (Units=GPa)
#
#
# Indices 1 2 3 4 5 6 
#
# 1 140.8646 28.4962 70.8018 0.0000 -5.2020 0.0000
# 2 28.4962 21.6076 23.0498 0.0001 1.7056 0.0002
# 3 70.8018 23.0498 106.3485 -0.0001 -8.5298 0.0002
# 4 0.0000 0.0001 -0.0001 15.3224 0.0000 -0.7617
# 5 -5.2020 1.7056 -8.5298 0.0000 26.1670 0.0000
# 6 0.0000 0.0002 0.0002 -0.7617 0.0000 15.8928
#
#
#
# Elastic Compliance Matrix: (Units=1/GPa)
#
#
# Indices 1 2 3 4 5 6 
#
# 1 0.012034 -0.009770 -0.005803 0.000000 0.001138 0.000000
# 2 -0.009770 0.069982 -0.009431 -0.000001 -0.009578 -0.000001
# 3 -0.005803 -0.009431 0.015677 0.000000 0.004572 0.000000
# 4 0.000000 -0.000001 0.000000 0.065420 0.000000 0.003135
# 5 0.001138 -0.009578 0.004572 0.000000 0.040557 0.000000
# 6 0.000000 -0.000001 0.000000 0.003135 0.000000 0.063072
#
#
# Mechanical properties :
#
#
# Convention : Reuss Voigt Hill
#
# Bulk Modulus (GPa) = 20.97127 57.05738 39.01432
# Shear Modulus (GPa) = 15.03098 21.24131 18.13614
#
# Velocity S-wave (km/s) = 3.05933 3.63684 3.36051
# Velocity P-wave (km/s) = 5.05349 7.29137 6.27303
#
# Compressibility (1/GPa) = 0.04768428
#
# Stress axis : x y z
#
# Youngs Moduli (GPa) = 83.09632 14.28931 63.78687
#
# Poissons Ratio (x) = 0.13961 0.37015
# Poissons Ratio (y) = 0.81188 0.60160
# Poissons Ratio (z) = 0.48221 0.13477
#
# Static dielectric constant tensor:
#      x y z
#    x 3.433690 0.000000 0.076590 
#    y 0.000000 2.832500 0.000000 
#    z 0.076590 0.000000 3.218140 
# 
# 
# High freq. dielectric constant tensor:
#      x y z
#    x 1.626540 0.000000 0.009090 
#    y 0.000000 1.589560 0.000000 
#    z 0.009090 0.000000 1.601520 
# 
# From -- ./inp_files/239259.got.cif
#   From: 2010.06.25/outbox.cif.g09.slc.cpg/sg12_120_cif.got.tgz:239259.got - 2010.06.28 00:19:55.
