data_PCOD8078983
_publ_section_title
;
Structure prediction by ZEFSAII (Michael W. Deem and Ramdas Pophale) SiO2 
 PCOD8078983
Probable space group: C 2/M
;
_chemical_formula_sum "Si O2"
_cell_formula_units_Z 48
_cell_length_a 24.438924
_cell_length_b 8.170833
_cell_length_c 15.379228
_cell_angle_alpha 90.000000
_cell_angle_beta 57.829013
_cell_angle_gamma 90.000000
_cell_volume 2599.506299
_symmetry_space_group_name_H-M "C 2/M"
_symmetry_group_IT_number 12
_symmetry_cell_setting 'monoclinic'
loop_
_space_group_symop_operation_xyz
x,y,z
-x,y,-z
-x,-y,-z
x,-y,z
1/2+x,1/2+y,z
1/2-x,1/2+y,-z
1/2-x,1/2-y,-z
1/2+x,1/2-y,z
loop_
_atom_site_type_symbol
_atom_site_label
_atom_site_fract_x
_atom_site_fract_y
_atom_site_fract_z
Si Si1 0.464053 0.194722 0.615937
Si Si2 0.055523 0.192314 0.889006
Si Si3 0.685975 0.313543 0.851522
Si Si4 0.321704 0.194844 0.771746
Si Si5 0.653492 0.186699 0.059175
Si Si6 0.017952 0.189497 0.216435
O O1 0.500000 0.260837 0.500000
O O2 0.389669 0.260882 0.675914
O O3 0.501694 0.267347 0.667887
O O4 0.466301 0.000000 0.619071
O O5 0.126048 0.273102 0.851564
O O6 0.040609 0.229051 0.800584
O O7 0.060186 0.000000 0.904699
O O8 0.000000 0.265637 0.000000
O O9 0.688825 0.500000 0.818976
O O10 0.758246 0.237355 0.773029
O O11 0.673981 0.306126 0.964803
O O12 0.313034 0.248349 0.879926
O O13 0.323345 0.000000 0.766833
O O14 0.576746 0.196182 0.138714
O O15 0.671308 0.000000 0.020761
O O16 0.037800 0.000000 0.191527
#
# Coordination Sequence:
#
# PCOD8078983 Si02
#       6
#     8   8   8   8   8   8
#     4   9  18  34  53  71  92 114 142 190 242 281
#     4   9  16  27  43  65  92 123 158 187 215 253
#     4  10  17  28  45  62  88 124 157 187 217 260
#     4   8  16  28  44  66  87 114 152 186 225 274
#     4  10  18  28  41  64  96 123 152 185 224 270
#     4  10  18  30  48  69  92 120 157 192 221 261
#
# _framework density 18.465043999999999
#
# number of rings (size 3 to 8) (size 9 to 14) (size 15 to 20)
#    0.000    2.667    1.667    2.500    0.000    0.333 
#    0.000    5.833    0.000    1.000    0.000    0.000 
#    0.000    0.000    0.000    0.000    0.000    0.167 
#
# Total GULP energy -297335.635609 kJ/mol
# GULP energy per Si atom -12388.984817 kJ/mol
# Density = 1.842302 g / cm^3
# Si number density = 18.465044 Si / 1000 Ang^3
#
#
#
# Elastic Constant Matrix: (Units=GPa)
#
#
# Indices 1 2 3 4 5 6 
#
# 1 184.4374 7.2245 64.2884 0.0000 7.3911 0.0000
# 2 7.2245 16.6933 -0.9118 0.0001 4.9691 0.0002
# 3 64.2884 -0.9118 99.1001 0.0000 8.6232 0.0000
# 4 0.0000 0.0001 0.0000 16.9789 0.0000 4.4591
# 5 7.3911 4.9691 8.6232 0.0000 14.0941 0.0000
# 6 0.0000 0.0002 0.0000 4.4591 0.0000 13.4453
#
#
#
# Elastic Compliance Matrix: (Units=1/GPa)
#
#
# Indices 1 2 3 4 5 6 
#
# 1 0.007192 -0.003474 -0.004728 0.000000 0.000346 0.000000
# 2 -0.003474 0.069360 0.005134 0.000000 -0.025774 -0.000001
# 3 -0.004728 0.005134 0.013886 0.000000 -0.007827 0.000000
# 4 0.000000 0.000000 0.000000 0.064516 0.000000 -0.021397
# 5 0.000346 -0.025774 -0.007827 0.000000 0.084646 0.000000
# 6 0.000000 -0.000001 0.000000 -0.021397 0.000000 0.081471
#
#
# Mechanical properties :
#
#
# Convention : Reuss Voigt Hill
#
# Bulk Modulus (GPa) = 11.86180 49.04812 30.45496
# Shear Modulus (GPa) = 14.07234 24.21232 19.14233
#
# Velocity S-wave (km/s) = 2.76362 3.62505 3.22324
# Velocity P-wave (km/s) = 4.07693 6.64392 5.51194
#
# Compressibility (1/GPa) = 0.08430423
#
# Stress axis : x y z
#
# Youngs Moduli (GPa) = 139.04347 14.41751 72.01488
#
# Poissons Ratio (x) = 0.05008 0.34046
# Poissons Ratio (y) = 0.48299 -0.36975
# Poissons Ratio (z) = 0.65735 -0.07402
#
# Static dielectric constant tensor:
#      x y z
#    x 3.912060 0.000000 -0.063360 
#    y 0.000000 3.031600 0.000000 
#    z -0.063360 0.000000 3.272020 
# 
# 
# High freq. dielectric constant tensor:
#      x y z
#    x 1.728270 0.000000 0.001380 
#    y 0.000000 1.683110 0.000000 
#    z 0.001380 0.000000 1.671910 
# 
# From -- ./inp_files/230430.got.cif
#   From: 2010.06.25/outbox.cif.g09.slc.cpg/sg12_116_cif.got.tgz:230430.got - 2010.06.28 00:19:55.
