data_PCOD8078978
_publ_section_title
;
Structure prediction by ZEFSAII (Michael W. Deem and Ramdas Pophale) SiO2 
 PCOD8078978
Probable space group: C 2/M
;
_chemical_formula_sum "Si O2"
_cell_formula_units_Z 48
_cell_length_a 21.796154
_cell_length_b 14.307995
_cell_length_c 9.547667
_cell_angle_alpha 90.000000
_cell_angle_beta 94.860726
_cell_angle_gamma 90.000000
_cell_volume 2966.820042
_symmetry_space_group_name_H-M "C 2/M"
_symmetry_group_IT_number 12
_symmetry_cell_setting 'monoclinic'
loop_
_space_group_symop_operation_xyz
x,y,z
-x,y,-z
-x,-y,-z
x,-y,z
1/2+x,1/2+y,z
1/2-x,1/2+y,-z
1/2-x,1/2-y,-z
1/2+x,1/2-y,z
loop_
_atom_site_type_symbol
_atom_site_label
_atom_site_fract_x
_atom_site_fract_y
_atom_site_fract_z
Si Si1 0.158242 0.259576 0.262111
Si Si2 0.157989 0.392277 0.495373
Si Si3 0.957105 0.707924 0.608900
Si Si4 0.258069 0.107369 0.231490
Si Si5 0.472650 0.105883 0.138536
Si Si6 0.157249 0.394644 0.001080
O O1 0.190634 0.329433 0.380423
O O2 0.091361 0.227109 0.313532
O O3 0.197375 0.167796 0.243802
O O4 0.149061 0.318027 0.118795
O O5 0.169013 0.500000 0.461442
O O6 0.084437 0.370356 0.480491
O O7 0.188552 0.365059 0.648809
O O8 0.000000 0.759908 0.500000
O O9 0.004231 0.663555 0.726152
O O10 0.281946 0.125928 0.078715
O O11 0.238623 0.000000 0.247468
O O12 0.399015 0.111471 0.118791
O O13 0.496487 0.000000 0.160956
O O14 0.500000 0.147853 0.000000
O O15 0.159818 0.500000 0.065961
#
# Coordination Sequence:
#
# PCOD8078978 Si02
#       6
#     8   8   8   8   8   8
#     4  10  20  32  48  68  99 125 158 194 232 272
#     4   9  18  31  48  70  99 126 151 185 233 282
#     4  10  20  29  45  70  99 126 153 181 227 283
#     4  10  20  34  50  68  91 127 165 199 231 267
#     4  10  17  28  44  68  99 128 149 175 223 289
#     4  10  19  31  49  72 100 126 153 186 232 285
#
# _framework density 16.178937999999999
#
# number of rings (size 3 to 8) (size 9 to 14) (size 15 to 20)
#    1.000    1.167    1.667    3.000    0.000    2.667 
#    0.000    0.000    0.000    0.500    0.000    2.333 
#    0.000    0.000    0.000    0.000    0.000    0.000 
#
# Total GULP energy -297324.082446 kJ/mol
# GULP energy per Si atom -12388.503435 kJ/mol
# Density = 1.614211 g / cm^3
# Si number density = 16.178938 Si / 1000 Ang^3
#
#
#
# Elastic Constant Matrix: (Units=GPa)
#
#
# Indices 1 2 3 4 5 6 
#
# 1 84.1343 40.6152 47.2377 0.0000 -20.0690 0.0000
# 2 40.6152 44.4069 27.4879 0.0000 -8.0300 0.0000
# 3 47.2377 27.4879 83.5683 0.0000 -9.6110 0.0000
# 4 0.0000 0.0000 0.0000 11.9382 0.0000 -1.5111
# 5 -20.0690 -8.0300 -9.6110 0.0000 29.5243 0.0000
# 6 0.0000 0.0000 0.0000 -1.5111 0.0000 20.3902
#
#
#
# Elastic Compliance Matrix: (Units=1/GPa)
#
#
# Indices 1 2 3 4 5 6 
#
# 1 0.028455 -0.018599 -0.008648 0.000000 0.011469 0.000000
# 2 -0.018599 0.041116 -0.003303 0.000000 -0.002535 0.000000
# 3 -0.008648 -0.003303 0.017829 0.000000 -0.000973 0.000000
# 4 0.000000 0.000000 0.000000 0.084558 0.000000 0.006266
# 5 0.011469 -0.002535 -0.000973 0.000000 0.040660 0.000000
# 6 0.000000 0.000000 0.000000 0.006266 0.000000 0.049508
#
#
# Mechanical properties :
#
#
# Convention : Reuss Voigt Hill
#
# Bulk Modulus (GPa) = 38.02062 49.19903 43.60982
# Shear Modulus (GPa) = 15.06065 18.82178 16.94121
#
# Velocity S-wave (km/s) = 3.05434 3.41449 3.23943
# Velocity P-wave (km/s) = 5.99915 6.78383 6.40352
#
# Compressibility (1/GPa) = 0.02630152
#
# Stress axis : x y z
#
# Youngs Moduli (GPa) = 35.14279 24.32170 56.08835
#
# Poissons Ratio (x) = 0.45235 0.48505
# Poissons Ratio (y) = 0.65361 0.18523
# Poissons Ratio (z) = 0.30392 0.08032
#
# Static dielectric constant tensor:
#      x y z
#    x 3.016480 0.000000 -0.078970 
#    y 0.000000 2.639060 0.000000 
#    z -0.078970 0.000000 3.137580 
# 
# 
# High freq. dielectric constant tensor:
#      x y z
#    x 1.616120 0.000000 -0.005930 
#    y 0.000000 1.569720 0.000000 
#    z -0.005930 0.000000 1.638320 
# 
# From -- ./inp_files/85143.got.cif
#   From: 2010.06.25/outbox.cif.g09.slc.cpg/sg12_43_cif.got.tgz:85143.got - 2010.06.28 00:19:55.
