data_PCOD8078059
_publ_section_title
;
Structure prediction by ZEFSAII (Michael W. Deem and Ramdas Pophale) SiO2 
 PCOD8078059
Probable space group: C 2/M
;
_chemical_formula_sum "Si O2"
_cell_formula_units_Z 40
_cell_length_a 7.431739
_cell_length_b 23.577276
_cell_length_c 13.108633
_cell_angle_alpha 90.000000
_cell_angle_beta 128.255301
_cell_angle_gamma 90.000000
_cell_volume 1803.660369
_symmetry_space_group_name_H-M "C 2/M"
_symmetry_group_IT_number 12
_symmetry_cell_setting 'monoclinic'
loop_
_space_group_symop_operation_xyz
x,y,z
-x,y,-z
-x,-y,-z
x,-y,z
1/2+x,1/2+y,z
1/2-x,1/2+y,-z
1/2-x,1/2-y,-z
1/2+x,1/2-y,z
loop_
_atom_site_type_symbol
_atom_site_label
_atom_site_fract_x
_atom_site_fract_y
_atom_site_fract_z
Si Si1 0.066681 0.000000 0.404581
Si Si2 0.429861 0.000000 0.857480
Si Si3 0.207898 0.885099 0.497738
Si Si4 0.833714 0.793886 0.858743
Si Si5 0.979816 0.381384 0.785713
Si Si6 0.930721 0.184063 0.261067
O O1 0.218272 0.943386 0.434460
O O2 0.000000 0.000000 0.500000
O O3 0.844048 0.000000 0.253672
O O4 0.538635 0.054873 0.840017
O O5 0.500000 0.000000 0.000000
O O6 0.430692 0.876749 0.646164
O O7 0.000000 0.894305 0.500000
O O8 0.155631 0.830134 0.409042
O O9 0.699263 0.841528 0.876287
O O10 0.660936 0.747606 0.749624
O O11 0.990540 0.822300 0.827475
O O12 0.000000 0.763746 0.000000
O O13 0.769299 0.360532 0.782499
#
# Coordination Sequence:
#
# PCOD8078059 Si02
#       6
#     4   4   8   8   8   8
#     4  10  14  36  65  95 127 176 232 264 333 401
#     4  12  24  38  74 106 136 187 224 275 343 418
#     4   9  18  37  67  97 129 172 227 284 333 399
#     4  12  27  42  65  96 140 184 226 281 343 417
#     4  11  24  45  67 101 136 177 225 284 343 399
#     4  11  23  42  67  98 126 183 228 277 339 403
#
# _framework density 22.177126000000001
#
# number of rings (size 3 to 8) (size 9 to 14) (size 15 to 20)
#    0.000    1.200    8.000    0.600    2.800    1.600 
#    3.600    2.500    0.000    2.400    0.000    0.000 
#    0.000    0.000    0.000    0.000    0.000    0.000 
#
# Total GULP energy -247876.287237 kJ/mol
# GULP energy per Si atom -12393.814362 kJ/mol
# Density = 2.212665 g / cm^3
# Si number density = 22.177126 Si / 1000 Ang^3
#
#
#
# Elastic Constant Matrix: (Units=GPa)
#
#
# Indices 1 2 3 4 5 6 
#
# 1 73.8140 27.9273 26.3780 0.0000 -12.4408 0.0000
# 2 27.9273 161.9815 58.0473 0.0000 -7.9701 0.0000
# 3 26.3780 58.0473 150.8606 0.0000 -14.7331 0.0000
# 4 0.0000 0.0000 0.0000 32.4251 0.0000 -4.2860
# 5 -12.4408 -7.9701 -14.7331 0.0000 19.4298 0.0000
# 6 0.0000 0.0000 0.0000 -4.2860 0.0000 8.4749
#
#
#
# Elastic Compliance Matrix: (Units=1/GPa)
#
#
# Indices 1 2 3 4 5 6 
#
# 1 0.016172 -0.001917 -0.001248 0.000000 0.008622 0.000000
# 2 -0.001917 0.007403 -0.002524 0.000000 -0.000104 0.000000
# 3 -0.001248 -0.002524 0.008250 0.000000 0.004421 0.000000
# 4 0.000000 0.000000 0.000000 0.033050 0.000000 0.016714
# 5 0.008622 -0.000104 0.004421 0.000000 0.060298 0.000000
# 6 0.000000 0.000000 0.000000 0.016714 0.000000 0.126449
#
#
# Mechanical properties :
#
#
# Convention : Reuss Voigt Hill
#
# Bulk Modulus (GPa) = 48.90448 67.92902 58.41675
# Shear Modulus (GPa) = 18.53126 30.35284 24.44205
#
# Velocity S-wave (km/s) = 2.89381 3.70355 3.32343
# Velocity P-wave (km/s) = 5.76760 6.99893 6.41289
#
# Compressibility (1/GPa) = 0.02044802
#
# Stress axis : x y z
#
# Youngs Moduli (GPa) = 61.83535 135.07606 121.21708
#
# Poissons Ratio (x) = 0.25890 0.15130
# Poissons Ratio (y) = 0.11852 0.30590
# Poissons Ratio (z) = 0.07718 0.34088
#
# Static dielectric constant tensor:
#      x y z
#    x 3.629540 0.000000 -0.150760 
#    y 0.000000 4.419440 0.000000 
#    z -0.150760 0.000000 5.371670 
# 
# 
# High freq. dielectric constant tensor:
#      x y z
#    x 1.838610 0.000000 -0.002140 
#    y 0.000000 1.881320 0.000000 
#    z -0.002140 0.000000 1.873330 
# 
# From -- ./inp_files/196787.got.cif
#   From: 2010.06.25/outbox.cif.g09.slc.cpg/sg12_99_cif.got.tgz:196787.got - 2010.06.28 00:19:55.
