data_PCOD8078980
_publ_section_title
;
Structure prediction by ZEFSAII (Michael W. Deem and Ramdas Pophale) SiO2 
 PCOD8078980
Probable space group: C 2/M
;
_chemical_formula_sum "Si O2"
_cell_formula_units_Z 60
_cell_length_a 22.325573
_cell_length_b 21.292648
_cell_length_c 14.731254
_cell_angle_alpha 90.000000
_cell_angle_beta 151.914140
_cell_angle_gamma 90.000000
_cell_volume 3296.879546
_symmetry_space_group_name_H-M "C 2/M"
_symmetry_group_IT_number 12
_symmetry_cell_setting 'monoclinic'
loop_
_space_group_symop_operation_xyz
x,y,z
-x,y,-z
-x,-y,-z
x,-y,z
1/2+x,1/2+y,z
1/2-x,1/2+y,-z
1/2-x,1/2-y,-z
1/2+x,1/2-y,z
loop_
_atom_site_type_symbol
_atom_site_label
_atom_site_fract_x
_atom_site_fract_y
_atom_site_fract_z
Si Si1 0.412336 0.069392 0.470739
Si Si2 0.258863 0.826245 0.206031
Si Si3 0.467581 0.747237 0.160920
Si Si4 0.597348 0.852300 0.057793
Si Si5 0.615152 0.155772 0.808203
Si Si6 0.746951 0.926229 0.113580
Si Si7 0.500000 0.641245 0.500000
Si Si8 0.150912 0.213368 0.554887
O O1 0.500000 0.062288 0.500000
O O2 0.276261 0.101936 0.264417
O O3 0.483171 0.116299 0.634983
O O4 0.387416 0.000000 0.479316
O O5 0.353687 0.816734 0.248295
O O6 0.308165 0.779883 0.349688
O O7 0.113924 0.812805 0.982512
O O8 0.387923 0.784257 0.130513
O O9 0.599483 0.723294 0.382556
O O10 0.480776 0.794515 0.093285
O O11 0.637399 0.904031 0.037463
O O12 0.725101 0.830398 0.280650
O O13 0.500000 0.882669 0.000000
O O14 0.723585 0.107271 0.985794
O O15 0.885372 0.905742 0.328623
O O16 0.738465 0.000000 0.090079
O O17 0.536951 0.684266 0.463211
#
# Coordination Sequence:
#
# PCOD8078980 Si02
#       8
#     8   8   8   8   8   8   4   8
#     4   9  17  27  40  61  95 135 165 196 233 286
#     4  10  18  28  44  70 103 134 163 194 244 312
#     4  10  18  29  49  72  95 127 164 206 256 299
#     4   9  21  36  49  72  98 126 170 217 253 291
#     4  10  17  28  44  70  99 129 164 200 239 300
#     4  10  20  33  50  71  99 134 169 203 246 301
#     4  10  19  30  48  76 107 130 156 202 250 302
#     4  10  18  31  51  74 102 131 162 199 253 305
#
# _framework density 18.199027000000001
#
# number of rings (size 3 to 8) (size 9 to 14) (size 15 to 20)
#    0.000    2.267    1.333    3.400    0.933    1.333 
#    0.000    0.000    0.000    0.800    0.000    0.000 
#    0.000    8.533    0.000    0.000    0.000    0.000 
#
# Total GULP energy -371767.511082 kJ/mol
# GULP energy per Si atom -12392.250369 kJ/mol
# Density = 1.815761 g / cm^3
# Si number density = 18.199027 Si / 1000 Ang^3
#
#
#
# Elastic Constant Matrix: (Units=GPa)
#
#
# Indices 1 2 3 4 5 6 
#
# 1 31.5480 -11.8559 13.8227 0.0000 9.4319 0.0000
# 2 -11.8559 49.8302 21.2866 0.0000 1.6136 0.0000
# 3 13.8227 21.2866 95.3109 0.0000 -17.0939 0.0000
# 4 0.0000 0.0000 0.0000 22.7281 0.0000 -0.8704
# 5 9.4319 1.6136 -17.0939 0.0000 21.4559 0.0000
# 6 0.0000 0.0000 0.0000 -0.8704 0.0000 10.0826
#
#
#
# Elastic Compliance Matrix: (Units=1/GPa)
#
#
# Indices 1 2 3 4 5 6 
#
# 1 0.071483 0.030356 -0.027058 0.000000 -0.055264 0.000000
# 2 0.030356 0.035894 -0.017847 0.000000 -0.030262 0.000000
# 3 -0.027058 -0.017847 0.024240 0.000000 0.032549 0.000000
# 4 0.000000 0.000000 0.000000 0.044144 0.000000 0.003811
# 5 -0.055264 -0.030262 0.032549 0.000000 0.099109 0.000000
# 6 0.000000 0.000000 0.000000 0.003811 0.000000 0.099510
#
#
# Mechanical properties :
#
#
# Convention : Reuss Voigt Hill
#
# Bulk Modulus (GPa) = 9.75420 24.79953 17.27687
# Shear Modulus (GPa) = 11.42463 21.08236 16.25349
#
# Velocity S-wave (km/s) = 2.50823 3.40727 2.99171
# Velocity P-wave (km/s) = 3.70940 5.39775 4.63117
#
# Compressibility (1/GPa) = 0.10251993
#
# Stress axis : x y z
#
# Youngs Moduli (GPa) = 13.98924 27.85954 41.25486
#
# Poissons Ratio (x) = -0.84571 1.11629
# Poissons Ratio (y) = -0.42466 0.73626
# Poissons Ratio (z) = 0.37853 0.49720
#
# Static dielectric constant tensor:
#      x y z
#    x 2.987190 0.000000 -0.283410 
#    y 0.000000 3.367950 0.000000 
#    z -0.283410 0.000000 3.534920 
# 
# 
# High freq. dielectric constant tensor:
#      x y z
#    x 1.657670 0.000000 -0.025790 
#    y 0.000000 1.695880 0.000000 
#    z -0.025790 0.000000 1.713430 
# 
# From -- ./inp_files/235467.got.cif
#   From: 2010.06.25/outbox.cif.g09.slc.cpg/sg12_118_cif.got.tgz:235467.got - 2010.06.28 00:19:55.
