data_PCOD8078828
_publ_section_title
;
Structure prediction by ZEFSAII (Michael W. Deem and Ramdas Pophale) SiO2 
 PCOD8078828
Probable space group: C 2/M
;
_chemical_formula_sum "Si O2"
_cell_formula_units_Z 48
_cell_length_a 8.535494
_cell_length_b 19.756289
_cell_length_c 16.274304
_cell_angle_alpha 90.000000
_cell_angle_beta 105.195979
_cell_angle_gamma 90.000000
_cell_volume 2648.374956
_symmetry_space_group_name_H-M "C 2/M"
_symmetry_group_IT_number 12
_symmetry_cell_setting 'monoclinic'
loop_
_space_group_symop_operation_xyz
x,y,z
-x,y,-z
-x,-y,-z
x,-y,z
1/2+x,1/2+y,z
1/2-x,1/2+y,-z
1/2-x,1/2-y,-z
1/2+x,1/2-y,z
loop_
_atom_site_type_symbol
_atom_site_label
_atom_site_fract_x
_atom_site_fract_y
_atom_site_fract_z
Si Si1 0.733510 0.575608 0.094661
Si Si2 0.978354 0.325724 0.585597
Si Si3 0.607300 0.674376 0.585589
Si Si4 0.306161 0.825170 0.239852
Si Si5 0.933855 0.174873 0.239870
Si Si6 0.138768 0.075610 0.905283
O O1 0.805325 0.500000 0.116523
O O2 0.834028 0.628702 0.163188
O O3 0.548729 0.576096 0.097404
O O4 0.743973 0.596611 0.999964
O O5 0.792675 0.326400 0.585289
O O6 0.000000 0.363065 0.500000
O O7 0.042812 0.250077 0.585209
O O8 0.086656 0.359154 0.672388
O O9 0.500000 0.637067 0.500000
O O10 0.585599 0.640942 0.672344
O O11 0.363014 0.750029 0.225749
O O12 0.121472 0.822962 0.242788
O O13 0.829293 0.128720 0.163249
O O14 0.188690 0.000000 0.883395
#
# Coordination Sequence:
#
# PCOD8078828 Si02
#       6
#     8   8   8   8   8   8
#     4   8  15  29  48  68  90 120 158 194 227 268
#     4  10  17  27  43  64  92 122 153 187 225 271
#     4  10  17  27  43  64  92 122 153 187 225 271
#     4  10  18  28  45  70  97 122 151 189 231 272
#     4  10  18  28  45  70  97 122 151 189 231 272
#     4   8  15  29  48  68  90 120 158 194 227 268
#
# _framework density 18.124320999999998
#
# number of rings (size 3 to 8) (size 9 to 14) (size 15 to 20)
#    0.000    2.667    0.000    8.000    0.000    0.667 
#    0.000    0.000    0.000    8.000    0.000    9.333 
#    0.000    0.000    0.000    0.000    0.000    0.000 
#
# Total GULP energy -297401.811125 kJ/mol
# GULP energy per Si atom -12391.742130 kJ/mol
# Density = 1.808307 g / cm^3
# Si number density = 18.124321 Si / 1000 Ang^3
#
#
#
# Elastic Constant Matrix: (Units=GPa)
#
#
# Indices 1 2 3 4 5 6 
#
# 1 92.9600 21.7500 46.9464 0.0000 1.1204 0.0000
# 2 21.7500 68.0109 82.8743 0.0000 -1.1646 0.0000
# 3 46.9464 82.8743 213.6918 0.0000 -3.1290 0.0000
# 4 0.0000 0.0000 0.0000 8.1286 0.0000 0.0274
# 5 1.1204 -1.1646 -3.1290 0.0000 2.1770 0.0000
# 6 0.0000 0.0000 0.0000 0.0274 0.0000 9.5833
#
#
#
# Elastic Compliance Matrix: (Units=1/GPa)
#
#
# Indices 1 2 3 4 5 6 
#
# 1 0.012381 -0.001209 -0.002405 0.000000 -0.010475 0.000000
# 2 -0.001209 0.027997 -0.010587 0.000000 0.000383 0.000000
# 3 -0.002405 -0.010587 0.009448 0.000000 0.009153 0.000000
# 4 0.000000 0.000000 0.000000 0.123024 0.000000 -0.000352
# 5 -0.010475 0.000383 0.009153 0.000000 0.478108 0.000000
# 6 0.000000 0.000000 0.000000 -0.000352 0.000000 0.104349
#
#
# Mechanical properties :
#
#
# Convention : Reuss Voigt Hill
#
# Bulk Modulus (GPa) = 46.67335 75.31158 60.99247
# Shear Modulus (GPa) = 6.32232 18.85057 12.58645
#
# Velocity S-wave (km/s) = 1.86973 3.22851 2.63810
# Velocity P-wave (km/s) = 5.51986 7.45256 6.55780
#
# Compressibility (1/GPa) = 0.02142550
#
# Stress axis : x y z
#
# Youngs Moduli (GPa) = 80.77087 35.71821 105.84626
#
# Poissons Ratio (x) = 0.04317 0.25452
# Poissons Ratio (y) = 0.09762 1.12056
# Poissons Ratio (z) = 0.19422 0.37814
#
# Static dielectric constant tensor:
#      x y z
#    x 3.120990 0.000000 -0.030260 
#    y 0.000000 3.140150 0.000000 
#    z -0.030260 0.000000 4.616060 
# 
# 
# High freq. dielectric constant tensor:
#      x y z
#    x 1.687780 0.000000 -0.000870 
#    y 0.000000 1.648720 0.000000 
#    z -0.000870 0.000000 1.731080 
# 
# From -- ./inp_files/198029.got.cif
#   From: 2010.06.25/outbox.cif.g09.slc.cpg/sg12_100_cif.got.tgz:198029.got - 2010.06.28 00:19:55.
