data_PCOD8078436
_publ_section_title
;
Structure prediction by ZEFSAII (Michael W. Deem and Ramdas Pophale) SiO2 
 PCOD8078436
Probable space group: C 2/M
;
_chemical_formula_sum "Si O2"
_cell_formula_units_Z 40
_cell_length_a 14.912796
_cell_length_b 15.460751
_cell_length_c 16.221633
_cell_angle_alpha 90.000000
_cell_angle_beta 34.414306
_cell_angle_gamma 90.000000
_cell_volume 2113.808524
_symmetry_space_group_name_H-M "C 2/M"
_symmetry_group_IT_number 12
_symmetry_cell_setting 'monoclinic'
loop_
_space_group_symop_operation_xyz
x,y,z
-x,y,-z
-x,-y,-z
x,-y,z
1/2+x,1/2+y,z
1/2-x,1/2+y,-z
1/2-x,1/2-y,-z
1/2+x,1/2-y,z
loop_
_atom_site_type_symbol
_atom_site_label
_atom_site_fract_x
_atom_site_fract_y
_atom_site_fract_z
Si Si1 0.431690 0.874513 0.923101
Si Si2 0.708789 0.093796 0.140394
Si Si3 0.507064 0.695821 0.901228
Si Si4 0.352545 0.216720 0.667134
Si Si5 0.751237 0.594756 0.222752
O O1 0.390378 0.917261 0.867787
O O2 0.433923 0.771910 0.901596
O O3 0.601980 0.905765 0.825545
O O4 0.301378 0.899785 0.089421
O O5 0.635405 0.168063 0.254118
O O6 0.704139 0.000000 0.188380
O O7 0.895198 0.112292 0.977521
O O8 0.693648 0.681010 0.740953
O O9 0.500000 0.733866 0.000000
O O10 0.500000 0.188490 0.500000
O O11 0.356913 0.321210 0.675569
O O12 0.665493 0.500000 0.299285
#
# Coordination Sequence:
#
# PCOD8078436 Si02
#       5
#     8   8   8   8   8
#     4  10  16  33  56  86 108 130 171 225 269 309
#     4  11  21  33  57  83 105 137 180 223 260 307
#     4   9  17  34  55  78 106 137 173 218 264 306
#     4  10  22  38  52  77 108 147 179 211 264 314
#     4  10  18  32  56  83 111 135 168 219 271 318
#
# _framework density 18.923190000000002
#
# number of rings (size 3 to 8) (size 9 to 14) (size 15 to 20)
#    0.000    2.000    6.000    3.000    0.000    4.400 
#    0.000    4.000    0.000    0.000    0.000    0.000 
#    0.000    0.000    0.000    0.000    0.000    0.000 
#
# Total GULP energy -247769.471278 kJ/mol
# GULP energy per Si atom -12388.473564 kJ/mol
# Density = 1.888012 g / cm^3
# Si number density = 18.923190 Si / 1000 Ang^3
#
#
#
# Elastic Constant Matrix: (Units=GPa)
#
#
# Indices 1 2 3 4 5 6 
#
# 1 81.3806 40.6765 30.4323 -0.0002 3.6262 0.0002
# 2 40.6765 123.4575 33.4486 0.0000 0.3578 0.0003
# 3 30.4323 33.4486 104.3233 0.0005 -2.8532 0.0002
# 4 -0.0002 0.0000 0.0005 6.9366 0.0002 -2.1699
# 5 3.6262 0.3578 -2.8532 0.0002 10.1482 -0.0003
# 6 0.0002 0.0003 0.0002 -2.1699 -0.0003 13.9405
#
#
#
# Elastic Compliance Matrix: (Units=1/GPa)
#
#
# Indices 1 2 3 4 5 6 
#
# 1 0.016040 -0.004325 -0.003472 0.000001 -0.006555 0.000000
# 2 -0.004325 0.010050 -0.001943 0.000000 0.000645 0.000000
# 3 -0.003472 -0.001943 0.011344 -0.000001 0.004498 0.000000
# 4 0.000001 0.000000 -0.000001 0.151542 -0.000004 0.023588
# 5 -0.006555 0.000645 0.004498 -0.000004 0.102124 0.000002
# 6 0.000000 0.000000 0.000000 0.023588 0.000002 0.075405
#
#
# Mechanical properties :
#
#
# Convention : Reuss Voigt Hill
#
# Bulk Modulus (GPa) = 55.69597 57.58626 56.64111
# Shear Modulus (GPa) = 12.75611 19.84532 16.30071
#
# Velocity S-wave (km/s) = 2.59916 3.24192 2.93817
# Velocity P-wave (km/s) = 6.20516 6.67166 6.44264
#
# Compressibility (1/GPa) = 0.01795462
#
# Stress axis : x y z
#
# Youngs Moduli (GPa) = 62.34357 99.50712 88.15070
#
# Poissons Ratio (x) = 0.43040 0.30602
# Poissons Ratio (y) = 0.26966 0.17125
# Poissons Ratio (z) = 0.21643 0.19332
#
# Static dielectric constant tensor:
#      x y z
#    x 3.235100 0.000000 -0.116580 
#    y 0.000000 3.660820 0.000000 
#    z -0.116580 0.000000 3.129360 
# 
# 
# High freq. dielectric constant tensor:
#      x y z
#    x 1.719220 0.000000 -0.008430 
#    y 0.000000 1.752420 0.000000 
#    z -0.008430 0.000000 1.685860 
# 
# From -- ./inp_files/270504.got.cif
#   From: 2010.06.25/outbox.cif.g09.slc.cpg/sg12_136_cif.got.tgz:270504.got - 2010.06.28 00:19:55.
