data_PCOD8078585
_publ_section_title
;
Structure prediction by ZEFSAII (Michael W. Deem and Ramdas Pophale) SiO2 
 PCOD8078585
Probable space group: C 2/M
;
_chemical_formula_sum "Si O2"
_cell_formula_units_Z 56
_cell_length_a 28.608023
_cell_length_b 9.014391
_cell_length_c 17.723939
_cell_angle_alpha 90.000000
_cell_angle_beta 128.865606
_cell_angle_gamma 90.000000
_cell_volume 3558.852769
_symmetry_space_group_name_H-M "C 2/M"
_symmetry_group_IT_number 12
_symmetry_cell_setting 'monoclinic'
loop_
_space_group_symop_operation_xyz
x,y,z
-x,y,-z
-x,-y,-z
x,-y,z
1/2+x,1/2+y,z
1/2-x,1/2+y,-z
1/2-x,1/2-y,-z
1/2+x,1/2-y,z
loop_
_atom_site_type_symbol
_atom_site_label
_atom_site_fract_x
_atom_site_fract_y
_atom_site_fract_z
Si Si1 0.190246 0.669779 0.918595
Si Si2 0.280008 0.331180 0.354019
Si Si3 0.929258 0.828982 0.928895
Si Si4 0.854220 0.673470 0.726831
Si Si5 0.727787 0.173048 0.800448
Si Si6 0.812410 0.827185 0.547757
Si Si7 0.648066 0.825071 0.029965
O O1 0.205762 0.500000 0.945507
O O2 0.178131 0.702737 0.817294
O O3 0.250000 0.750000 0.000000
O O4 0.140168 0.710760 0.931352
O O5 0.283844 0.500000 0.330117
O O6 0.211641 0.292323 0.307169
O O7 0.301550 0.225744 0.307776
O O8 0.324878 0.305954 0.470741
O O9 0.903415 0.743050 0.831077
O O10 0.905500 0.758205 0.982397
O O11 0.909546 0.000000 0.904750
O O12 0.000000 0.810181 0.000000
O O13 0.866340 0.500000 0.730468
O O14 0.861659 0.749065 0.651398
O O15 0.788204 0.266252 0.875309
O O16 0.744430 0.000000 0.812676
O O17 0.750000 0.750000 0.500000
O O18 0.807828 0.000000 0.563641
O O19 0.644249 0.000000 0.043750
#
# Coordination Sequence:
#
# PCOD8078585 Si02
#       7
#     8   8   8   8   8   8   8
#     4   8  16  27  39  59  83 111 144 176 211 254
#     4   9  17  27  40  62  89 117 146 176 212 255
#     4  11  23  35  47  64  85 112 150 190 224 261
#     4  10  19  31  46  62  84 113 146 183 223 262
#     4  10  17  25  41  63  88 117 147 176 211 255
#     4   9  17  28  42  60  85 115 148 180 214 258
#     4  10  18  30  45  59  83 114 146 183 220 258
#
# _framework density 15.735408
#
# number of rings (size 3 to 8) (size 9 to 14) (size 15 to 20)
#    0.000    2.429    1.429    3.000    0.000    5.143 
#    0.000    0.000    0.000    0.000    0.000    0.000 
#    0.000    1.143    0.000   12.857    0.000    5.714 
#
# Total GULP energy -346882.201433 kJ/mol
# GULP energy per Si atom -12388.650051 kJ/mol
# Density = 1.569959 g / cm^3
# Si number density = 15.735408 Si / 1000 Ang^3
#
#
#
# Elastic Constant Matrix: (Units=GPa)
#
#
# Indices 1 2 3 4 5 6 
#
# 1 76.3924 45.5282 47.1710 0.0000 -26.3760 0.0000
# 2 45.5282 96.2551 51.1355 0.0000 -18.8083 0.0000
# 3 47.1710 51.1355 84.8775 0.0000 -28.5768 0.0000
# 4 0.0000 0.0000 0.0000 25.7928 0.0000 -6.9360
# 5 -26.3760 -18.8083 -28.5768 0.0000 25.8876 0.0000
# 6 0.0000 0.0000 0.0000 -6.9360 0.0000 19.8107
#
#
#
# Elastic Compliance Matrix: (Units=1/GPa)
#
#
# Indices 1 2 3 4 5 6 
#
# 1 0.025352 -0.006245 -0.005026 0.000000 0.015745 0.000000
# 2 -0.006245 0.016854 -0.007485 0.000000 -0.002379 0.000000
# 3 -0.005026 -0.007485 0.024715 0.000000 0.016723 0.000000
# 4 0.000000 0.000000 0.000000 0.042800 0.000000 0.014985
# 5 0.015745 -0.002379 0.016723 0.000000 0.071402 0.000000
# 6 0.000000 0.000000 0.000000 0.014985 0.000000 0.055724
#
#
# Mechanical properties :
#
#
# Convention : Reuss Voigt Hill
#
# Bulk Modulus (GPa) = 34.00249 60.57717 47.28983
# Shear Modulus (GPa) = 17.59571 21.87758 19.73664
#
# Velocity S-wave (km/s) = 3.34761 3.73277 3.54543
# Velocity P-wave (km/s) = 6.04961 7.56036 6.84678
#
# Compressibility (1/GPa) = 0.02940961
#
# Stress axis : x y z
#
# Youngs Moduli (GPa) = 39.44508 59.33340 40.46201
#
# Poissons Ratio (x) = 0.37051 0.20337
# Poissons Ratio (y) = 0.24632 0.30284
# Poissons Ratio (z) = 0.19826 0.44408
#
# Static dielectric constant tensor:
#      x y z
#    x 3.105420 0.000000 -0.662090 
#    y 0.000000 3.109910 0.000000 
#    z -0.662090 0.000000 3.146450 
# 
# 
# High freq. dielectric constant tensor:
#      x y z
#    x 1.568920 0.000000 -0.051720 
#    y 0.000000 1.623970 0.000000 
#    z -0.051720 0.000000 1.580900 
# 
# From -- ./inp_files/291798.got.cif
#   From: 2010.06.25/outbox.cif.g09.slc.cpg/sg12_146_cif.got.tgz:291798.got - 2010.06.28 00:19:55.
