data_PCOD8078080
_publ_section_title
;
Structure prediction by ZEFSAII (Michael W. Deem and Ramdas Pophale) SiO2 
 PCOD8078080
Probable space group: C 2/M
;
_chemical_formula_sum "Si O2"
_cell_formula_units_Z 44
_cell_length_a 17.116567
_cell_length_b 25.475006
_cell_length_c 9.141134
_cell_angle_alpha 90.000000
_cell_angle_beta 45.080759
_cell_angle_gamma 90.000000
_cell_volume 2822.456891
_symmetry_space_group_name_H-M "C 2/M"
_symmetry_group_IT_number 12
_symmetry_cell_setting 'monoclinic'
loop_
_space_group_symop_operation_xyz
x,y,z
-x,y,-z
-x,-y,-z
x,-y,z
1/2+x,1/2+y,z
1/2-x,1/2+y,-z
1/2-x,1/2-y,-z
1/2+x,1/2-y,z
loop_
_atom_site_type_symbol
_atom_site_label
_atom_site_fract_x
_atom_site_fract_y
_atom_site_fract_z
Si Si1 0.167198 0.720760 0.218318
Si Si2 0.000000 0.212374 0.000000
Si Si3 0.498568 0.383330 0.339623
Si Si4 0.047629 0.238556 0.631057
Si Si5 0.886335 0.940823 0.239659
Si Si6 0.319787 0.634371 0.105259
O O1 0.158307 0.746926 0.393324
O O2 0.208481 0.661271 0.192603
O O3 0.048455 0.722465 0.298727
O O4 0.250000 0.750000 0.000000
O O5 0.944356 0.247013 0.203674
O O6 0.903718 0.177784 0.057715
O O7 0.500000 0.407196 0.500000
O O8 0.477062 0.321495 0.373683
O O9 0.403512 0.412889 0.373153
O O10 0.619152 0.394106 0.110884
O O11 0.795470 0.908298 0.265190
O O12 0.843977 0.000000 0.319278
O O13 0.000000 0.939096 0.000000
#
# Coordination Sequence:
#
# PCOD8078080 Si02
#       6
#     8   4   8   8   8   8
#     4  11  18  29  45  63  90 127 151 180 224 261
#     4  10  16  30  41  64  92 114 157 178 212 264
#     4  10  15  27  43  60  90 114 144 179 219 262
#     4  10  19  29  42  65  91 121 152 183 212 270
#     4   9  17  29  43  59  83 115 148 185 222 261
#     4  10  17  29  44  62  86 122 150 182 214 269
#
# _framework density 15.589256000000001
#
# number of rings (size 3 to 8) (size 9 to 14) (size 15 to 20)
#    0.000    2.000   10.000    0.000    0.000    1.091 
#    0.000    0.000    0.000    0.000    0.000    2.545 
#    0.000    0.000    0.000   20.909    0.000    1.455 
#
# Total GULP energy -272537.967391 kJ/mol
# GULP energy per Si atom -12388.089427 kJ/mol
# Density = 1.555377 g / cm^3
# Si number density = 15.589256 Si / 1000 Ang^3
#
#
#
# Elastic Constant Matrix: (Units=GPa)
#
#
# Indices 1 2 3 4 5 6 
#
# 1 68.8746 43.8627 37.7851 0.0000 23.3169 0.0000
# 2 43.8627 79.0495 20.7879 0.0000 5.6042 0.0000
# 3 37.7851 20.7879 101.3938 0.0000 33.8182 0.0000
# 4 0.0000 0.0000 0.0000 5.7861 0.0000 -1.1651
# 5 23.3169 5.6042 33.8182 0.0000 34.7790 0.0000
# 6 0.0000 0.0000 0.0000 -1.1651 0.0000 19.6947
#
#
#
# Elastic Compliance Matrix: (Units=1/GPa)
#
#
# Indices 1 2 3 4 5 6 
#
# 1 0.031388 -0.015428 -0.003470 0.000000 -0.015184 0.000000
# 2 -0.015428 0.020968 -0.001291 0.000000 0.008220 0.000000
# 3 -0.003470 -0.001291 0.015651 0.000000 -0.012684 0.000000
# 4 0.000000 0.000000 0.000000 0.174913 0.000000 0.010348
# 5 -0.015184 0.008220 -0.012684 0.000000 0.049942 0.000000
# 6 0.000000 0.000000 0.000000 0.010348 0.000000 0.051387
#
#
# Mechanical properties :
#
#
# Convention : Reuss Voigt Hill
#
# Bulk Modulus (GPa) = 36.19348 50.46550 43.32949
# Shear Modulus (GPa) = 12.69565 21.84408 17.26987
#
# Velocity S-wave (km/s) = 2.85684 3.74736 3.33198
# Velocity P-wave (km/s) = 5.84375 7.15303 6.53128
#
# Compressibility (1/GPa) = 0.02762929
#
# Stress axis : x y z
#
# Youngs Moduli (GPa) = 31.85932 47.69281 63.89407
#
# Poissons Ratio (x) = 0.73578 0.22169
# Poissons Ratio (y) = 0.49151 0.08250
# Poissons Ratio (z) = 0.11054 0.06158
#
# Static dielectric constant tensor:
#      x y z
#    x 3.084100 0.000000 0.367740 
#    y 0.000000 2.892790 0.000000 
#    z 0.367740 0.000000 3.323730 
# 
# 
# High freq. dielectric constant tensor:
#      x y z
#    x 1.580950 0.000000 0.038230 
#    y 0.000000 1.562840 0.000000 
#    z 0.038230 0.000000 1.588730 
# 
# From -- ./inp_files/66415.got.cif
#   From: 2010.06.25/outbox.cif.g09.slc.cpg/sg12_34_cif.got.tgz:66415.got - 2010.06.28 00:19:55.
