data_PCOD8078902
_publ_section_title
;
Structure prediction by ZEFSAII (Michael W. Deem and Ramdas Pophale) SiO2 
 PCOD8078902
Probable space group: C 2/M
;
_chemical_formula_sum "Si O2"
_cell_formula_units_Z 64
_cell_length_a 20.484991
_cell_length_b 9.021346
_cell_length_c 24.178678
_cell_angle_alpha 90.000000
_cell_angle_beta 126.828264
_cell_angle_gamma 90.000000
_cell_volume 3576.565311
_symmetry_space_group_name_H-M "C 2/M"
_symmetry_group_IT_number 12
_symmetry_cell_setting 'monoclinic'
loop_
_space_group_symop_operation_xyz
x,y,z
-x,y,-z
-x,-y,-z
x,-y,z
1/2+x,1/2+y,z
1/2-x,1/2+y,-z
1/2-x,1/2-y,-z
1/2+x,1/2-y,z
loop_
_atom_site_type_symbol
_atom_site_label
_atom_site_fract_x
_atom_site_fract_y
_atom_site_fract_z
Si Si1 0.613354 0.170766 0.798855
Si Si2 0.330560 0.825029 0.772384
Si Si3 0.923751 0.335702 0.502405
Si Si4 0.073108 0.175346 0.996571
Si Si5 0.986309 0.326080 0.142577
Si Si6 0.718133 0.176145 0.131793
Si Si7 0.824894 0.825627 0.368135
Si Si8 0.948695 0.327673 0.350929
O O1 0.559546 0.210510 0.824303
O O2 0.691298 0.275828 0.838490
O O3 0.556361 0.202778 0.716789
O O4 0.642180 0.000000 0.814173
O O5 0.420760 0.769631 0.803053
O O6 0.303141 0.761447 0.818029
O O7 0.267512 0.773576 0.692579
O O8 0.328604 0.000000 0.775915
O O9 0.886789 0.500000 0.488166
O O10 0.851518 0.233020 0.442171
O O11 0.000000 0.330832 0.500000
O O12 0.960393 0.283037 0.580492
O O13 0.055457 0.232215 0.926430
O O14 0.084900 0.000000 0.001994
O O15 0.156300 0.251603 0.057347
O O16 0.000000 0.224081 0.000000
O O17 0.982993 0.500000 0.125917
O O18 0.710995 0.000000 0.124256
O O19 0.880313 0.767098 0.346653
O O20 0.833348 0.000000 0.373612
O O21 0.933195 0.500000 0.357834
#
# Coordination Sequence:
#
# PCOD8078902 Si02
#       8
#     8   8   8   8   8   8   8   8
#     4  10  21  36  56  81 107 138 178 222 261 306
#     4   9  18  32  52  78 104 134 174 214 258 310
#     4   8  15  27  42  66 101 137 169 207 256 307
#     4  11  23  38  57  83 110 135 171 220 265 308
#     4  10  21  39  59  78 104 140 179 215 260 319
#     4  11  21  36  59  81 106 141 175 213 261 317
#     4  10  17  27  46  75 103 130 171 218 257 300
#     4   9  17  30  47  70 103 137 169 208 259 310
#
# _framework density 17.894262000000001
#
# number of rings (size 3 to 8) (size 9 to 14) (size 15 to 20)
#    0.000    2.250    2.500    1.875    0.000    3.750 
#    0.000    1.250    0.000    0.750    0.000    0.000 
#    0.000    0.000    0.000    0.000    0.000    1.250 
#
# Total GULP energy -396726.240051 kJ/mol
# GULP energy per Si atom -12397.695002 kJ/mol
# Density = 1.785353 g / cm^3
# Si number density = 17.894262 Si / 1000 Ang^3
#
#
#
# Elastic Constant Matrix: (Units=GPa)
#
#
# Indices 1 2 3 4 5 6 
#
# 1 94.5237 34.3549 65.0800 0.0000 3.8869 0.0000
# 2 34.3549 64.7423 56.7160 0.0000 3.2733 0.0000
# 3 65.0800 56.7160 182.3368 0.0000 11.3778 0.0000
# 4 0.0000 0.0000 0.0000 29.9353 0.0000 0.7337
# 5 3.8869 3.2733 11.3778 0.0000 24.6464 0.0000
# 6 0.0000 0.0000 0.0000 0.7337 0.0000 17.3936
#
#
#
# Elastic Compliance Matrix: (Units=1/GPa)
#
#
# Indices 1 2 3 4 5 6 
#
# 1 0.014910 -0.004467 -0.003936 0.000000 0.000059 0.000000
# 2 -0.004467 0.022571 -0.005440 0.000000 0.000218 0.000000
# 3 -0.003936 -0.005440 0.008750 0.000000 -0.002696 0.000000
# 4 0.000000 0.000000 0.000000 0.033440 0.000000 -0.001411
# 5 0.000059 0.000218 -0.002696 0.000000 0.041780 0.000000
# 6 0.000000 0.000000 0.000000 -0.001411 0.000000 0.057552
#
#
# Mechanical properties :
#
#
# Convention : Reuss Voigt Hill
#
# Bulk Modulus (GPa) = 53.92342 72.65606 63.28974
# Shear Modulus (GPa) = 23.48848 26.75851 25.12350
#
# Velocity S-wave (km/s) = 3.62695 3.87119 3.75106
# Velocity P-wave (km/s) = 6.90938 7.78927 7.36248
#
# Compressibility (1/GPa) = 0.01854482
#
# Stress axis : x y z
#
# Youngs Moduli (GPa) = 67.06691 44.30534 114.29157
#
# Poissons Ratio (x) = 0.19791 0.44986
# Poissons Ratio (y) = 0.29958 0.62173
# Poissons Ratio (z) = 0.26398 0.24102
#
# Static dielectric constant tensor:
#      x y z
#    x 3.081260 0.000000 0.106750 
#    y 0.000000 3.209710 0.000000 
#    z 0.106750 0.000000 3.797480 
# 
# 
# High freq. dielectric constant tensor:
#      x y z
#    x 1.656020 0.000000 0.007130 
#    y 0.000000 1.682900 0.000000 
#    z 0.007130 0.000000 1.715720 
# 
# From -- ./inp_files/346262.got.cif
#   From: 2010.06.25/outbox.cif.g09.slc.cpg/sg12_174_cif.got.tgz:346262.got - 2010.06.28 00:19:55.
