data_PCOD8078947
_publ_section_title
;
Structure prediction by ZEFSAII (Michael W. Deem and Ramdas Pophale) SiO2 
 PCOD8078947
Probable space group: C 2/M
;
_chemical_formula_sum "Si O2"
_cell_formula_units_Z 48
_cell_length_a 19.207119
_cell_length_b 18.215615
_cell_length_c 14.285601
_cell_angle_alpha 90.000000
_cell_angle_beta 28.502478
_cell_angle_gamma 90.000000
_cell_volume 2385.075193
_symmetry_space_group_name_H-M "C 2/M"
_symmetry_group_IT_number 12
_symmetry_cell_setting 'monoclinic'
loop_
_space_group_symop_operation_xyz
x,y,z
-x,y,-z
-x,-y,-z
x,-y,z
1/2+x,1/2+y,z
1/2-x,1/2+y,-z
1/2-x,1/2-y,-z
1/2+x,1/2-y,z
loop_
_atom_site_type_symbol
_atom_site_label
_atom_site_fract_x
_atom_site_fract_y
_atom_site_fract_z
Si Si1 0.918641 0.733893 0.305773
Si Si2 0.484268 0.079360 0.257551
Si Si3 0.159693 0.829311 0.961043
Si Si4 0.325710 0.581733 0.880359
Si Si5 0.639652 0.917114 0.393480
Si Si6 0.423769 0.728225 0.688178
O O1 0.750000 0.750000 0.500000
O O2 0.941934 0.649225 0.244395
O O3 0.973983 0.746068 0.346888
O O4 0.007690 0.785213 0.127331
O O5 0.389315 0.087231 0.463279
O O6 0.447103 0.000000 0.253535
O O7 0.652332 0.081449 0.084018
O O8 0.222105 0.864300 0.791845
O O9 0.272772 0.772398 0.874705
O O10 0.128116 0.895849 0.069608
O O11 0.386608 0.500000 0.785328
O O12 0.391565 0.640853 0.730139
O O13 0.500000 0.888027 0.500000
O O14 0.675676 0.000000 0.318711
O O15 0.500000 0.745690 0.500000
#
# Coordination Sequence:
#
# PCOD8078947 Si02
#       6
#     8   8   8   8   8   8
#     4  11  22  38  56  83 114 150 189 229 282 335
#     4  10  18  33  54  79 110 145 185 223 275 343
#     4  11  18  33  55  82 113 140 188 228 275 334
#     4  10  18  31  54  80 107 142 188 233 271 320
#     4  10  17  27  52  87 116 139 172 227 287 338
#     4  11  21  36  57  82 112 142 185 235 276 326
#
# _framework density 20.125150999999999
#
# number of rings (size 3 to 8) (size 9 to 14) (size 15 to 20)
#    0.000    1.500    5.000    3.000    0.000    0.333 
#    0.000    7.500    0.000    2.000    0.000    2.333 
#    0.000    0.000    0.000    0.000    0.000    0.000 
#
# Total GULP energy -297472.991671 kJ/mol
# GULP energy per Si atom -12394.707986 kJ/mol
# Density = 2.007935 g / cm^3
# Si number density = 20.125151 Si / 1000 Ang^3
#
#
#
# Elastic Constant Matrix: (Units=GPa)
#
#
# Indices 1 2 3 4 5 6 
#
# 1 18.2554 8.2710 18.3607 -0.0015 -5.5785 0.0003
# 2 8.2710 173.4466 50.4125 -0.0009 -14.0490 0.0003
# 3 18.3607 50.4125 106.5272 -0.0041 -13.8567 -0.0007
# 4 -0.0015 -0.0009 -0.0041 38.1246 0.0025 5.5465
# 5 -5.5785 -14.0490 -13.8567 0.0025 27.3137 0.0004
# 6 0.0003 0.0003 -0.0007 5.5465 0.0004 -9.8607
#
#
#
# Elastic Compliance Matrix: (Units=1/GPa)
#
#
# Indices 1 2 3 4 5 6 
#
# 1 0.068122 0.000626 -0.010906 0.000000 0.008703 0.000004
# 2 0.000626 0.006790 -0.003052 0.000000 0.002072 0.000000
# 3 -0.010906 -0.003052 0.013080 0.000001 0.002839 -0.000001
# 4 0.000000 0.000000 0.000001 0.024246 -0.000002 0.013638
# 5 0.008703 0.002072 0.002839 -0.000002 0.040895 0.000001
# 6 0.000004 0.000000 -0.000001 0.013638 0.000001 -0.093741
#
#
# Mechanical properties :
#
#
# Convention : Reuss Voigt Hill
#
# Bulk Modulus (GPa) = 16.30506 50.25752 33.28129
# Shear Modulus (GPa) = 46.94857 25.86116 36.40487
#
# Velocity S-wave (km/s) = 4.83518 3.58860 4.25776
# Velocity P-wave (km/s) = 6.26828 6.49596 6.38313
#
# Compressibility (1/GPa) = 0.06133065
#
# Stress axis : x y z
#
# Youngs Moduli (GPa) = 14.67945 147.26466 76.44987
#
# Poissons Ratio (x) = -0.09221 0.83374
# Poissons Ratio (y) = -0.00919 0.23331
# Poissons Ratio (z) = 0.16009 0.44943
#
# Static dielectric constant tensor:
#      x y z
#    x 2.973770 0.000000 0.097940 
#    y 0.000000 4.565800 0.000000 
#    z 0.097940 0.000000 3.640750 
# 
# 
# High freq. dielectric constant tensor:
#      x y z
#    x 1.714140 0.000000 0.009580 
#    y 0.000000 1.817620 0.000000 
#    z 0.009580 0.000000 1.780950 
# 
# From -- ./inp_files/62792.got.cif
#   From: 2010.06.25/outbox.cif.g09.slc.cpg/sg12_32_cif.got.tgz:62792.got - 2010.06.28 00:19:55.
