data_PCOD8078790
_publ_section_title
;
Structure prediction by ZEFSAII (Michael W. Deem and Ramdas Pophale) SiO2 
 PCOD8078790
Probable space group: C 2/M
;
_chemical_formula_sum "Si O2"
_cell_formula_units_Z 64
_cell_length_a 27.327528
_cell_length_b 9.115273
_cell_length_c 24.073520
_cell_angle_alpha 90.000000
_cell_angle_beta 136.200679
_cell_angle_gamma 90.000000
_cell_volume 4150.497897
_symmetry_space_group_name_H-M "C 2/M"
_symmetry_group_IT_number 12
_symmetry_cell_setting 'monoclinic'
loop_
_space_group_symop_operation_xyz
x,y,z
-x,y,-z
-x,-y,-z
x,-y,z
1/2+x,1/2+y,z
1/2-x,1/2+y,-z
1/2-x,1/2-y,-z
1/2+x,1/2-y,z
loop_
_atom_site_type_symbol
_atom_site_label
_atom_site_fract_x
_atom_site_fract_y
_atom_site_fract_z
Si Si1 0.300258 0.332580 0.500621
Si Si2 0.913213 0.827608 0.673970
Si Si3 0.811353 0.672805 0.016772
Si Si4 0.345430 0.667986 0.812362
Si Si5 0.967298 0.671076 0.177706
Si Si6 0.692274 0.828074 0.326434
Si Si7 0.498824 0.334784 0.901131
Si Si8 0.847314 0.168426 0.937181
O O1 0.287053 0.500000 0.503956
O O2 0.250000 0.250000 0.500000
O O3 0.380952 0.294075 0.585425
O O4 0.273206 0.299949 0.415670
O O5 0.864610 0.757546 0.682588
O O6 0.991649 0.756423 0.739311
O O7 0.918917 0.000000 0.690506
O O8 0.798988 0.500000 0.005720
O O9 0.884752 0.714576 0.107579
O O10 0.750000 0.750000 0.000000
O O11 0.810501 0.729301 0.952741
O O12 0.325849 0.500000 0.782782
O O13 0.307516 0.770602 0.736340
O O14 0.429999 0.689818 0.882079
O O15 0.318823 0.710625 0.852478
O O16 0.977383 0.500000 0.195374
O O17 0.004810 0.718251 0.151436
O O18 0.673193 0.000000 0.311823
O O19 0.500095 0.500000 0.877163
O O20 0.568252 0.307377 0.994744
O O21 0.828762 0.000000 0.936164
#
# Coordination Sequence:
#
# PCOD8078790 Si02
#       8
#     8   8   8   8   8   8   8   8
#     4   8  16  27  38  54  78 112 151 185 216 250
#     4  10  17  27  42  59  82 114 152 186 215 256
#     4  10  21  36  52  68  88 112 141 179 223 268
#     4  10  18  27  41  62  88 118 152 182 210 253
#     4  10  19  29  43  66  90 112 142 181 222 259
#     4  10  18  27  39  57  85 119 151 185 221 250
#     4   9  16  27  42  59  84 117 149 179 210 248
#     4   9  18  31  46  64  86 114 147 181 217 256
#
# _framework density 15.419836
#
# number of rings (size 3 to 8) (size 9 to 14) (size 15 to 20)
#    0.000    2.500    1.250    1.875    0.000    4.500 
#    0.000    0.000    0.000    3.750    0.000    0.000 
#    0.000    1.000    0.000   11.250    0.000    5.000 
#
# Total GULP energy -396480.042228 kJ/mol
# GULP energy per Si atom -12390.001320 kJ/mol
# Density = 1.538474 g / cm^3
# Si number density = 15.419836 Si / 1000 Ang^3
#
#
#
# Elastic Constant Matrix: (Units=GPa)
#
#
# Indices 1 2 3 4 5 6 
#
# 1 63.3182 36.5234 43.8179 0.0000 -2.1798 0.0000
# 2 36.5234 75.6957 53.7493 0.0000 0.1725 0.0000
# 3 43.8179 53.7493 119.3795 0.0000 -5.9560 0.0000
# 4 0.0000 0.0000 0.0000 24.8248 0.0000 -0.1573
# 5 -2.1798 0.1725 -5.9560 0.0000 12.5313 0.0000
# 6 0.0000 0.0000 0.0000 -0.1573 0.0000 18.3340
#
#
#
# Elastic Compliance Matrix: (Units=1/GPa)
#
#
# Indices 1 2 3 4 5 6 
#
# 1 0.023988 -0.007925 -0.005145 0.000000 0.001837 0.000000
# 2 -0.007925 0.022292 -0.007387 0.000000 -0.005196 0.000000
# 3 -0.005145 -0.007387 0.013881 0.000000 0.005804 0.000000
# 4 0.000000 0.000000 0.000000 0.040285 0.000000 0.000346
# 5 0.001837 -0.005196 0.005804 0.000000 0.082950 0.000000
# 6 0.000000 0.000000 0.000000 0.000346 0.000000 0.054546
#
#
# Mechanical properties :
#
#
# Convention : Reuss Voigt Hill
#
# Bulk Modulus (GPa) = 51.95796 58.50829 55.23313
# Shear Modulus (GPa) = 17.52715 19.42487 18.47601
#
# Velocity S-wave (km/s) = 3.37510 3.55312 3.46525
# Velocity P-wave (km/s) = 6.99693 7.40667 7.20472
#
# Compressibility (1/GPa) = 0.01924633
#
# Stress axis : x y z
#
# Youngs Moduli (GPa) = 41.68668 44.85923 72.04335
#
# Poissons Ratio (x) = 0.35553 0.37066
# Poissons Ratio (y) = 0.33039 0.53218
# Poissons Ratio (z) = 0.21447 0.33137
#
# Static dielectric constant tensor:
#      x y z
#    x 2.488760 0.000000 0.027670 
#    y 0.000000 3.014400 0.000000 
#    z 0.027670 0.000000 3.599060 
# 
# 
# High freq. dielectric constant tensor:
#      x y z
#    x 1.526310 0.000000 -0.001450 
#    y 0.000000 1.601990 0.000000 
#    z -0.001450 0.000000 1.603060 
# 
# From -- ./inp_files/350970.got.cif
#   From: 2010.06.25/outbox.cif.g09.slc.cpg/sg12_176_cif.got.tgz:350970.got - 2010.06.28 00:19:55.
