data_PCOD8078661
_publ_section_title
;
Structure prediction by ZEFSAII (Michael W. Deem and Ramdas Pophale) SiO2 
 PCOD8078661
Probable space group: C 2/M
;
_chemical_formula_sum "Si O2"
_cell_formula_units_Z 48
_cell_length_a 24.303752
_cell_length_b 8.950144
_cell_length_c 16.577165
_cell_angle_alpha 90.000000
_cell_angle_beta 63.681197
_cell_angle_gamma 90.000000
_cell_volume 3232.115405
_symmetry_space_group_name_H-M "C 2/M"
_symmetry_group_IT_number 12
_symmetry_cell_setting 'monoclinic'
loop_
_space_group_symop_operation_xyz
x,y,z
-x,y,-z
-x,-y,-z
x,-y,z
1/2+x,1/2+y,z
1/2-x,1/2+y,-z
1/2-x,1/2-y,-z
1/2+x,1/2-y,z
loop_
_atom_site_type_symbol
_atom_site_label
_atom_site_fract_x
_atom_site_fract_y
_atom_site_fract_z
Si Si1 0.429189 0.324172 0.549944
Si Si2 0.348536 0.664966 0.745771
Si Si3 0.703392 0.673885 0.639612
Si Si4 0.161871 0.674025 0.511305
Si Si5 0.761379 0.323673 0.907255
Si Si6 0.783310 0.333849 0.210140
O O1 0.500000 0.279979 0.500000
O O2 0.418119 0.500000 0.544048
O O3 0.404600 0.275235 0.654710
O O4 0.394787 0.234269 0.503034
O O5 0.363674 0.500000 0.771748
O O6 0.330077 0.777060 0.831007
O O7 0.289631 0.652870 0.724333
O O8 0.689043 0.500000 0.655114
O O9 0.774653 0.706223 0.575753
O O10 0.661128 0.743588 0.597743
O O11 0.684555 0.749349 0.736603
O O12 0.152682 0.500000 0.533234
O O13 0.756001 0.500000 0.917487
O O14 0.709912 0.260102 0.878029
O O15 0.750000 0.250000 0.000000
O O16 0.812127 0.500000 0.181445
#
# Coordination Sequence:
#
# PCOD8078661 Si02
#       6
#     8   8   8   8   8   8
#     4  10  19  31  46  62  85 119 155 187 217 252
#     4   8  16  28  41  58  84 113 143 177 214 254
#     4  10  18  27  42  60  81 110 143 179 219 263
#     4  10  19  28  40  59  82 110 145 183 220 257
#     4  10  17  26  41  61  85 113 142 173 215 264
#     4   9  16  26  40  58  83 111 137 170 211 254
#
# _framework density 14.850955000000001
#
# number of rings (size 3 to 8) (size 9 to 14) (size 15 to 20)
#    1.000    1.500    1.667    2.500    0.000    2.333 
#    0.000    0.000    0.000    0.000    0.000    0.000 
#    0.000    1.333    0.000   14.333    0.000    6.833 
#
# Total GULP energy -297370.272690 kJ/mol
# GULP energy per Si atom -12390.428029 kJ/mol
# Density = 1.481715 g / cm^3
# Si number density = 14.850955 Si / 1000 Ang^3
#
#
#
# Elastic Constant Matrix: (Units=GPa)
#
#
# Indices 1 2 3 4 5 6 
#
# 1 57.8290 40.1160 39.8500 0.0000 11.5663 0.0000
# 2 40.1160 115.2727 56.7265 0.0000 23.2810 0.0000
# 3 39.8500 56.7265 98.5869 0.0000 24.2849 0.0000
# 4 0.0000 0.0000 0.0000 24.5677 0.0000 8.9193
# 5 11.5663 23.2810 24.2849 0.0000 25.4007 0.0000
# 6 0.0000 0.0000 0.0000 8.9193 0.0000 21.9185
#
#
#
# Elastic Compliance Matrix: (Units=1/GPa)
#
#
# Indices 1 2 3 4 5 6 
#
# 1 0.026216 -0.005482 -0.007508 0.000000 0.000265 0.000000
# 2 -0.005482 0.013939 -0.004280 0.000000 -0.006187 0.000000
# 3 -0.007508 -0.004280 0.018094 0.000000 -0.009957 0.000000
# 4 0.000000 0.000000 0.000000 0.047760 0.000000 -0.019435
# 5 0.000265 -0.006187 -0.009957 0.000000 0.054439 0.000000
# 6 0.000000 0.000000 0.000000 -0.019435 0.000000 0.053532
#
#
# Mechanical properties :
#
#
# Convention : Reuss Voigt Hill
#
# Bulk Modulus (GPa) = 42.18009 60.56374 51.37191
# Shear Modulus (GPa) = 19.49911 23.37713 21.43812
#
# Velocity S-wave (km/s) = 3.62745 3.97182 3.80353
# Velocity P-wave (km/s) = 6.78295 7.86787 7.34547
#
# Compressibility (1/GPa) = 0.02370787
#
# Stress axis : x y z
#
# Youngs Moduli (GPa) = 38.14475 71.74134 55.26833
#
# Poissons Ratio (x) = 0.39332 0.41493
# Poissons Ratio (y) = 0.20913 0.23657
# Poissons Ratio (z) = 0.28637 0.30707
#
# Static dielectric constant tensor:
#      x y z
#    x 2.537810 0.000000 0.157600 
#    y 0.000000 2.936640 0.000000 
#    z 0.157600 0.000000 2.687630 
# 
# 
# High freq. dielectric constant tensor:
#      x y z
#    x 1.523850 0.000000 0.028080 
#    y 0.000000 1.582770 0.000000 
#    z 0.028080 0.000000 1.546140 
# 
# From -- ./inp_files/280048.got.cif
#   From: 2010.06.25/outbox.cif.g09.slc.cpg/sg12_141_cif.got.tgz:280048.got - 2010.06.28 00:19:55.
