data_PCOD8078346
_publ_section_title
;
Structure prediction by ZEFSAII (Michael W. Deem and Ramdas Pophale) SiO2 
 PCOD8078346
Probable space group: C 2/M
;
_chemical_formula_sum "Si O2"
_cell_formula_units_Z 56
_cell_length_a 5.245449
_cell_length_b 16.992748
_cell_length_c 34.747104
_cell_angle_alpha 90.000000
_cell_angle_beta 67.828434
_cell_angle_gamma 90.000000
_cell_volume 2868.158045
_symmetry_space_group_name_H-M "C 2/M"
_symmetry_group_IT_number 12
_symmetry_cell_setting 'monoclinic'
loop_
_space_group_symop_operation_xyz
x,y,z
-x,y,-z
-x,-y,-z
x,-y,z
1/2+x,1/2+y,z
1/2-x,1/2+y,-z
1/2-x,1/2-y,-z
1/2+x,1/2-y,z
loop_
_atom_site_type_symbol
_atom_site_label
_atom_site_fract_x
_atom_site_fract_y
_atom_site_fract_z
Si Si1 0.960361 0.699359 0.327227
Si Si2 0.235916 0.906540 0.405174
Si Si3 0.794736 0.661962 0.197100
Si Si4 0.811716 0.592782 0.975176
Si Si5 0.477143 0.199420 0.896984
Si Si6 0.615566 0.906439 0.453292
Si Si7 0.205587 0.662395 0.232754
O O1 0.719937 0.762045 0.333671
O O2 0.849022 0.628636 0.359328
O O3 0.050682 0.661312 0.281965
O O4 0.421600 0.875890 0.429975
O O5 0.925728 0.875915 0.429565
O O6 0.247199 0.000000 0.400814
O O7 0.500554 0.618358 0.218786
O O8 0.785681 0.750060 0.214557
O O9 0.886005 0.659523 0.147856
O O10 0.018884 0.618248 0.211414
O O11 0.826164 0.500000 0.968533
O O12 0.928930 0.630849 0.930088
O O13 0.500000 0.621347 0.000000
O O14 0.000000 0.620539 0.000000
O O15 0.684678 0.263207 0.902715
O O16 0.500000 0.872213 0.500000
O O17 0.611964 0.000000 0.454779
#
# Coordination Sequence:
#
# PCOD8078346 Si02
#       7
#     8   8   8   8   8   8   8
#     4  12  21  33  55  80 104 144 187 213 249 324
#     4  10  21  35  53  81 111 133 169 230 272 300
#     4  10  16  30  48  78 104 129 170 224 258 299
#     4  10  23  42  57  74 110 154 181 206 262 336
#     4  12  21  32  58  88 108 133 173 237 276 292
#     4   9  17  33  57  79 100 137 182 217 260 320
#     4  10  16  30  49  73 101 141 171 210 252 317
#
# _framework density 19.524726000000001
#
# number of rings (size 3 to 8) (size 9 to 14) (size 15 to 20)
#    0.000    1.571    5.714    2.143    0.000    3.429 
#    0.000    0.000    0.000   10.286    0.000    0.000 
#    0.000    0.000    0.000    0.000    0.000    0.000 
#
# Total GULP energy -347168.763185 kJ/mol
# GULP energy per Si atom -12398.884399 kJ/mol
# Density = 1.948029 g / cm^3
# Si number density = 19.524726 Si / 1000 Ang^3
#
#
#
# Elastic Constant Matrix: (Units=GPa)
#
#
# Indices 1 2 3 4 5 6 
#
# 1 160.0389 14.1070 43.9407 0.0000 -0.7226 0.0000
# 2 14.1070 16.1397 33.0546 0.0000 -0.2290 0.0000
# 3 43.9407 33.0546 170.3407 0.0000 -0.4038 0.0000
# 4 0.0000 0.0000 0.0000 58.0295 0.0000 -25.8940
# 5 -0.7226 -0.2290 -0.4038 0.0000 35.9867 0.0000
# 6 0.0000 0.0000 0.0000 -25.8940 0.0000 20.8355
#
#
#
# Elastic Compliance Matrix: (Units=1/GPa)
#
#
# Indices 1 2 3 4 5 6 
#
# 1 0.006873 -0.003942 -0.001008 0.000000 0.000102 0.000000
# 2 -0.003942 0.105091 -0.019375 0.000000 0.000372 0.000000
# 3 -0.001008 -0.019375 0.009890 0.000000 -0.000033 0.000000
# 4 0.000000 0.000000 0.000000 0.038686 0.000000 0.048079
# 5 0.000102 0.000372 -0.000033 0.000000 0.027792 0.000000
# 6 0.000000 0.000000 0.000000 0.048079 0.000000 0.107746
#
#
# Mechanical properties :
#
#
# Convention : Reuss Voigt Hill
#
# Bulk Modulus (GPa) = 13.66045 58.74710 36.20377
# Shear Modulus (GPa) = 13.54538 39.99816 26.77177
#
# Velocity S-wave (km/s) = 2.63678 4.53105 3.70695
# Velocity P-wave (km/s) = 4.03507 7.58470 6.07493
#
# Compressibility (1/GPa) = 0.07320404
#
# Stress axis : x y z
#
# Youngs Moduli (GPa) = 145.49436 9.51560 101.11012
#
# Poissons Ratio (x) = 0.03751 0.10190
# Poissons Ratio (y) = 0.57355 1.95902
# Poissons Ratio (z) = 0.14662 0.18437
#
# Static dielectric constant tensor:
#      x y z
#    x 4.908600 0.000000 0.001700 
#    y 0.000000 2.881640 0.000000 
#    z 0.001700 0.000000 3.685390 
# 
# 
# High freq. dielectric constant tensor:
#      x y z
#    x 1.796950 0.000000 0.000000 
#    y 0.000000 1.691990 0.000000 
#    z 0.000000 0.000000 1.776620 
# 
# From -- ./inp_files/371592.got.cif
#   From: 2010.06.25/outbox.cif.g09.slc.cpg/sg12_186_cif.got.tgz:371592.got - 2010.06.28 00:19:55.
