data_PCOD8078010
_publ_section_title
;
Structure prediction by ZEFSAII (Michael W. Deem and Ramdas Pophale) SiO2 
 PCOD8078010
Probable space group: P 21/M
;
_chemical_formula_sum "Si O2"
_cell_formula_units_Z 32
_cell_length_a 30.000000
_cell_length_b 9.000000
_cell_length_c 12.000000
_cell_angle_alpha 90.000000
_cell_angle_beta 30.000000
_cell_angle_gamma 90.000000
_cell_volume 1620.000000
_symmetry_space_group_name_H-M "P 21/M"
_symmetry_group_IT_number 11
_symmetry_cell_setting 'monoclinic'
loop_
_space_group_symop_operation_xyz
x,y,z
-x,1/2+y,-z
-x,-y,-z
x,1/2-y,z
loop_
_atom_site_type_symbol
_atom_site_label
_atom_site_fract_x
_atom_site_fract_y
_atom_site_fract_z
Si Si1 0.996101 0.921241 0.190139
Si Si2 0.876664 0.421688 0.272875
Si Si3 0.062229 0.927008 0.457998
Si Si4 0.403165 0.076376 0.525218
Si Si5 0.571785 0.913580 0.774566
Si Si6 0.698381 0.583680 0.695137
Si Si7 0.603948 0.423273 0.093072
Si Si8 0.730952 0.075295 0.018884
O O1 0.981441 0.750000 0.256678
O O2 0.094372 0.943667 0.920428
O O3 0.929902 0.965487 0.235272
O O4 0.977816 0.022872 0.336723
O O5 0.892457 0.250000 0.273975
O O6 0.775580 0.463323 0.515814
O O7 0.055705 0.750000 0.464239
O O8 0.165733 0.978583 0.216472
O O9 0.000000 0.000000 0.500000
O O10 0.380943 0.250000 0.579496
O O11 0.403999 0.013980 0.396800
O O12 0.503327 0.043286 0.355885
O O13 0.322191 0.995755 0.763216
O O14 0.531810 0.750000 0.836401
O O15 0.660885 0.902669 0.652616
O O16 0.500000 0.000000 0.000000
O O17 0.728830 0.750000 0.668130
O O18 0.623440 0.520530 0.941318
O O19 0.613331 0.250000 0.043172
O O20 0.677322 0.471896 0.024650
O O21 0.728871 0.250000 0.041802
#
# Coordination Sequence:
#
# PCOD8078010 Si02
#       8
#     4   4   4   4   4   4   4   4
#     4  10  21  39  63  90 119 151 194 245 301 360
#     4  10  21  37  59  88 121 156 194 241 299 358
#     4  11  24  42  63  87 119 159 204 251 304 362
#     4  10  21  37  59  86 118 156 196 239 292 351
#     4  10  21  37  55  80 113 150 191 233 281 338
#     4  11  22  34  55  87 119 154 199 243 287 345
#     4  10  20  37  60  85 119 157 194 241 296 353
#     4  10  23  40  59  86 115 149 196 245 294 351
#
# _framework density 19.753086
#
# number of rings (size 3 to 8) (size 9 to 14) (size 15 to 20)
#    0.000    1.750    1.250    2.625    0.000    6.500 
#    0.000    2.500    0.000    0.000    0.000    0.000 
#    0.000    0.000    0.000    0.000    0.000    0.000 
#
# Total GULP energy -396637.423374 kJ/mol
# GULP energy per Si atom -12394.919480 kJ/mol
# Density = 1.970813 g / cm^3
# Si number density = 19.753086 Si / 1000 Ang^3
#
#
#
# Elastic Constant Matrix: (Units=GPa)
#
#
# Indices 1 2 3 4 5 6 
#
# 1 93.5996 22.3717 36.7507 0.0000 13.9223 0.0000
# 2 22.3717 72.0474 38.5456 0.0000 8.9895 0.0000
# 3 36.7507 38.5456 126.7206 0.0000 15.9036 0.0000
# 4 0.0000 0.0000 0.0000 40.1528 0.0000 5.4664
# 5 13.9223 8.9895 15.9036 0.0000 31.8449 0.0000
# 6 0.0000 0.0000 0.0000 5.4664 0.0000 27.9665
#
#
#
# Elastic Compliance Matrix: (Units=1/GPa)
#
#
# Indices 1 2 3 4 5 6 
#
# 1 0.012755 -0.002113 -0.002594 0.000000 -0.003685 0.000000
# 2 -0.002113 0.017088 -0.004369 0.000000 -0.001718 0.000000
# 3 -0.002594 -0.004369 0.010323 0.000000 -0.002788 0.000000
# 4 0.000000 0.000000 0.000000 0.025586 0.000000 -0.005001
# 5 -0.003685 -0.001718 -0.002788 0.000000 0.034890 0.000000
# 6 0.000000 0.000000 0.000000 -0.005001 0.000000 0.036735
#
#
# Mechanical properties :
#
#
# Convention : Reuss Voigt Hill
#
# Bulk Modulus (GPa) = 45.42812 54.18930 49.80871
# Shear Modulus (GPa) = 30.69989 32.97282 31.83635
#
# Velocity S-wave (km/s) = 3.94659 4.09008 4.01897
# Velocity P-wave (km/s) = 6.61931 7.05676 6.84153
#
# Compressibility (1/GPa) = 0.02201280
#
# Stress axis : x y z
#
# Youngs Moduli (GPa) = 78.39777 58.52109 96.87486
#
# Poissons Ratio (x) = 0.12367 0.25130
# Poissons Ratio (y) = 0.16567 0.42328
# Poissons Ratio (z) = 0.20337 0.25570
#
# Static dielectric constant tensor:
#      x y z
#    x 3.722550 0.000000 0.050400 
#    y 0.000000 3.710850 0.000000 
#    z 0.050400 0.000000 3.877670 
# 
# 
# High freq. dielectric constant tensor:
#      x y z
#    x 1.764380 0.000000 0.005910 
#    y 0.000000 1.774280 0.000000 
#    z 0.005910 0.000000 1.788760 
# 
# From -- ./inp_files/45197.got.cif
#   From: 2010.06.25/outbox.ucp.g09.slc.cvg/sg11_23_cif.got.tgz:45197.got - 2010.06.28 13:43:20.
