data_PCOD8078260
_publ_section_title
;
Structure prediction by ZEFSAII (Michael W. Deem and Ramdas Pophale) SiO2 
 PCOD8078260
Probable space group: C 2/M
;
_chemical_formula_sum "Si O2"
_cell_formula_units_Z 64
_cell_length_a 18.727937
_cell_length_b 21.397444
_cell_length_c 9.508933
_cell_angle_alpha 90.000000
_cell_angle_beta 100.751939
_cell_angle_gamma 90.000000
_cell_volume 3743.617491
_symmetry_space_group_name_H-M "C 2/M"
_symmetry_group_IT_number 12
_symmetry_cell_setting 'monoclinic'
loop_
_space_group_symop_operation_xyz
x,y,z
-x,y,-z
-x,-y,-z
x,-y,z
1/2+x,1/2+y,z
1/2-x,1/2+y,-z
1/2-x,1/2-y,-z
1/2+x,1/2-y,z
loop_
_atom_site_type_symbol
_atom_site_label
_atom_site_fract_x
_atom_site_fract_y
_atom_site_fract_z
Si Si1 0.275359 0.928349 0.459127
Si Si2 0.472504 0.186172 0.336056
Si Si3 0.701502 0.655864 0.238143
Si Si4 0.748947 0.428293 0.017417
Si Si5 0.613523 0.930388 0.742821
Si Si6 0.829825 0.253181 0.366328
Si Si7 0.265795 0.140530 0.734921
Si Si8 0.378538 0.766451 0.702285
O O1 0.206039 0.893058 0.367853
O O2 0.346594 0.914497 0.390176
O O3 0.289505 0.906746 0.621478
O O4 0.254621 0.000000 0.447616
O O5 0.500000 0.168914 0.500000
O O6 0.448947 0.120880 0.255203
O O7 0.406981 0.236060 0.318278
O O8 0.536798 0.217256 0.269953
O O9 0.697806 0.617376 0.091228
O O10 0.772262 0.700633 0.272859
O O11 0.629211 0.697720 0.230683
O O12 0.719864 0.500000 0.008503
O O13 0.829977 0.426525 0.108829
O O14 0.748081 0.401814 0.861102
O O15 0.579007 0.000000 0.724498
O O16 0.804893 0.181855 0.331835
O O17 0.837324 0.267256 0.535740
O O18 0.335857 0.184682 0.786200
#
# Coordination Sequence:
#
# PCOD8078260 Si02
#       8
#     8   8   8   8   8   8   8   8
#     4  10  16  27  52  76  97 131 171 207 248 299
#     4  10  18  31  50  77 103 135 171 207 253 304
#     4  10  16  33  52  73 101 130 171 212 258 293
#     4  10  21  34  52  76 105 137 172 209 252 306
#     4   9  18  34  51  71 105 142 173 203 240 299
#     4  10  17  31  53  75 104 133 163 217 261 298
#     4  11  19  32  50  75 106 131 166 219 260 294
#     4  10  19  30  52  78 103 130 169 219 251 300
#
# _framework density 17.095763999999999
#
# number of rings (size 3 to 8) (size 9 to 14) (size 15 to 20)
#    0.000    2.000    5.000    3.000    0.000    2.250 
#    0.000    1.875    0.000    1.500    0.000    5.250 
#    0.000    0.000    0.000    0.000    0.000    0.000 
#
# Total GULP energy -396695.952177 kJ/mol
# GULP energy per Si atom -12396.748506 kJ/mol
# Density = 1.705685 g / cm^3
# Si number density = 17.095764 Si / 1000 Ang^3
#
#
#
# Elastic Constant Matrix: (Units=GPa)
#
#
# Indices 1 2 3 4 5 6 
#
# 1 77.3288 51.8584 11.4109 0.0000 -7.6871 0.0000
# 2 51.8584 122.7592 43.4713 0.0000 -14.0935 0.0000
# 3 11.4109 43.4713 75.0783 0.0000 -8.1475 0.0000
# 4 0.0000 0.0000 0.0000 30.9328 0.0000 -3.7577
# 5 -7.6871 -14.0935 -8.1475 0.0000 12.3321 0.0000
# 6 0.0000 0.0000 0.0000 -3.7577 0.0000 29.2071
#
#
#
# Elastic Compliance Matrix: (Units=1/GPa)
#
#
# Indices 1 2 3 4 5 6 
#
# 1 0.018453 -0.008203 0.002344 0.000000 0.003676 0.000000
# 2 -0.008203 0.014769 -0.006493 0.000000 0.007475 0.000000
# 3 0.002344 -0.006493 0.017318 0.000000 0.005482 0.000000
# 4 0.000000 0.000000 0.000000 0.032841 0.000000 0.004225
# 5 0.003676 0.007475 0.005482 0.000000 0.095545 0.000000
# 6 0.000000 0.000000 0.000000 0.004225 0.000000 0.034782
#
#
# Mechanical properties :
#
#
# Convention : Reuss Voigt Hill
#
# Bulk Modulus (GPa) = 38.70813 54.29415 46.50114
# Shear Modulus (GPa) = 20.24092 25.72277 22.98184
#
# Velocity S-wave (km/s) = 3.44462 3.88316 3.67045
# Velocity P-wave (km/s) = 6.20578 7.20646 6.72476
#
# Compressibility (1/GPa) = 0.02583437
#
# Stress axis : x y z
#
# Youngs Moduli (GPa) = 54.19306 67.70932 57.74396
#
# Poissons Ratio (x) = 0.55543 -0.13536
# Poissons Ratio (y) = 0.44455 0.37496
# Poissons Ratio (z) = -0.12704 0.43967
#
# Static dielectric constant tensor:
#      x y z
#    x 2.998490 0.000000 -0.089160 
#    y 0.000000 3.517410 0.000000 
#    z -0.089160 0.000000 3.016100 
# 
# 
# High freq. dielectric constant tensor:
#      x y z
#    x 1.618440 0.000000 -0.008330 
#    y 0.000000 1.675100 0.000000 
#    z -0.008330 0.000000 1.643420 
# 
# From -- ./inp_files/89173.got.cif
#   From: 2010.06.25/outbox.cif.g09.slc.cpg/sg12_45_cif.got.tgz:89173.got - 2010.06.28 00:19:55.
