data_PCOD8078127
_publ_section_title
;
Structure prediction by ZEFSAII (Michael W. Deem and Ramdas Pophale) SiO2 
 PCOD8078127
Probable space group: C 2/M
;
_chemical_formula_sum "Si O2"
_cell_formula_units_Z 56
_cell_length_a 20.622680
_cell_length_b 8.605139
_cell_length_c 18.911617
_cell_angle_alpha 90.000000
_cell_angle_beta 68.612320
_cell_angle_gamma 90.000000
_cell_volume 3124.956378
_symmetry_space_group_name_H-M "C 2/M"
_symmetry_group_IT_number 12
_symmetry_cell_setting 'monoclinic'
loop_
_space_group_symop_operation_xyz
x,y,z
-x,y,-z
-x,-y,-z
x,-y,z
1/2+x,1/2+y,z
1/2-x,1/2+y,-z
1/2-x,1/2-y,-z
1/2+x,1/2-y,z
loop_
_atom_site_type_symbol
_atom_site_label
_atom_site_fract_x
_atom_site_fract_y
_atom_site_fract_z
Si Si1 0.319113 0.818169 0.008979
Si Si2 0.436642 0.318457 0.693622
Si Si3 0.806234 0.818200 0.530160
Si Si4 0.879138 0.822210 0.859637
Si Si5 0.301792 0.177993 0.677668
Si Si6 0.042766 0.682271 0.552184
Si Si7 0.746111 0.678899 0.845305
O O1 0.384001 0.776195 0.931061
O O2 0.314935 0.000000 0.021291
O O3 0.250000 0.750000 0.000000
O O4 0.323789 0.736299 0.085152
O O5 0.421128 0.500000 0.687391
O O6 0.438337 0.281239 0.777673
O O7 0.377649 0.219335 0.677629
O O8 0.511108 0.270761 0.632561
O O9 0.750000 0.750000 0.500000
O O10 0.781210 0.786219 0.620241
O O11 0.878214 0.731802 0.487911
O O12 0.815314 0.000000 0.513820
O O13 0.806988 0.790161 0.848430
O O14 0.882995 0.000000 0.881251
O O15 0.242186 0.199335 0.761923
O O16 0.305043 0.000000 0.650522
O O17 0.038007 0.500000 0.567465
O O18 0.000000 0.733374 0.500000
O O19 0.762808 0.500000 0.857930
#
# Coordination Sequence:
#
# PCOD8078127 Si02
#       7
#     8   8   8   8   8   8   8
#     4  10  16  22  34  53  82 120 160 197 240 294
#     4  10  19  30  48  73  98 130 170 211 255 301
#     4  12  25  40  58  77 104 136 172 215 262 312
#     4   9  16  25  37  57  88 122 159 200 244 295
#     4  10  19  32  49  71  98 129 168 210 256 305
#     4  11  22  36  56  79 105 135 172 215 258 309
#     4   9  16  25  39  58  85 121 159 200 243 293
#
# _framework density 17.920249999999999
#
# number of rings (size 3 to 8) (size 9 to 14) (size 15 to 20)
#    0.000    1.857    1.429    6.429    0.000    4.000 
#    0.000    0.000    0.000    0.000    0.000    0.000 
#    0.000    1.143    0.000   12.000    0.000    6.571 
#
# Total GULP energy -347019.446234 kJ/mol
# GULP energy per Si atom -12393.551651 kJ/mol
# Density = 1.787946 g / cm^3
# Si number density = 17.920250 Si / 1000 Ang^3
#
#
#
# Elastic Constant Matrix: (Units=GPa)
#
#
# Indices 1 2 3 4 5 6 
#
# 1 49.7843 9.7718 29.2138 0.0001 -0.7662 0.0000
# 2 9.7718 69.0339 43.5081 0.0001 -2.8540 0.0000
# 3 29.2138 43.5081 164.0169 0.0000 -1.3487 0.0000
# 4 0.0001 0.0001 0.0000 34.7772 0.0001 0.6354
# 5 -0.7662 -2.8540 -1.3487 0.0001 10.1156 0.0001
# 6 0.0000 0.0000 0.0000 0.6354 0.0001 16.6844
#
#
#
# Elastic Compliance Matrix: (Units=1/GPa)
#
#
# Indices 1 2 3 4 5 6 
#
# 1 0.022477 -0.000748 -0.003797 0.000000 0.000985 0.000000
# 2 -0.000748 0.017607 -0.004502 0.000000 0.004311 0.000000
# 3 -0.003797 -0.004502 0.007963 0.000000 -0.000496 0.000000
# 4 0.000000 0.000000 0.000000 0.028775 0.000000 -0.001096
# 5 0.000985 0.004311 -0.000496 0.000000 0.100081 0.000000
# 6 0.000000 0.000000 0.000000 -0.001096 0.000000 0.059978
#
#
# Mechanical properties :
#
#
# Convention : Reuss Voigt Hill
#
# Bulk Modulus (GPa) = 33.38494 49.75805 41.57149
# Shear Modulus (GPa) = 18.87086 25.67154 22.27120
#
# Velocity S-wave (km/s) = 3.24859 3.78900 3.52915
# Velocity P-wave (km/s) = 5.72200 6.85337 6.31308
#
# Compressibility (1/GPa) = 0.02995363
#
# Stress axis : x y z
#
# Youngs Moduli (GPa) = 44.49059 56.79562 125.57552
#
# Poissons Ratio (x) = 0.04248 0.47680
# Poissons Ratio (y) = 0.03327 0.56533
# Poissons Ratio (z) = 0.16893 0.25569
#
# Static dielectric constant tensor:
#      x y z
#    x 2.402780 0.000000 -0.105130 
#    y 0.000000 3.411520 0.000000 
#    z -0.105130 0.000000 4.386540 
# 
# 
# High freq. dielectric constant tensor:
#      x y z
#    x 1.595060 0.000000 0.001500 
#    y 0.000000 1.713250 0.000000 
#    z 0.001500 0.000000 1.731580 
# 
# From -- ./inp_files/319027.got.cif
#   From: 2010.06.25/outbox.cif.g09.slc.cpg/sg12_160_cif.got.tgz:319027.got - 2010.06.28 00:19:55.
