data_PCOD8078516
_publ_section_title
;
Structure prediction by ZEFSAII (Michael W. Deem and Ramdas Pophale) SiO2 
 PCOD8078516
Probable space group: C 2/M
;
_chemical_formula_sum "Si O2"
_cell_formula_units_Z 48
_cell_length_a 20.841504
_cell_length_b 8.927591
_cell_length_c 16.586288
_cell_angle_alpha 90.000000
_cell_angle_beta 64.168388
_cell_angle_gamma 90.000000
_cell_volume 2777.748573
_symmetry_space_group_name_H-M "C 2/M"
_symmetry_group_IT_number 12
_symmetry_cell_setting 'monoclinic'
loop_
_space_group_symop_operation_xyz
x,y,z
-x,y,-z
-x,-y,-z
x,-y,z
1/2+x,1/2+y,z
1/2-x,1/2+y,-z
1/2-x,1/2-y,-z
1/2+x,1/2-y,z
loop_
_atom_site_type_symbol
_atom_site_label
_atom_site_fract_x
_atom_site_fract_y
_atom_site_fract_z
Si Si1 0.789619 0.324878 0.551923
Si Si2 0.033185 0.825379 0.087618
Si Si3 0.949978 0.322610 0.456810
Si Si4 0.826504 0.825659 0.259194
Si Si5 0.536150 0.328093 0.714828
Si Si6 0.395852 0.177524 0.083125
O O1 0.789683 0.500000 0.534131
O O2 0.750000 0.250000 0.500000
O O3 0.869821 0.261929 0.515046
O O4 0.748825 0.289309 0.657689
O O5 0.029797 0.805170 0.186340
O O6 0.965563 0.738459 0.089362
O O7 0.028682 0.000000 0.067246
O O8 0.103492 0.750214 0.007926
O O9 0.951494 0.500000 0.457398
O O10 0.980254 0.269630 0.354477
O O11 0.000000 0.256987 0.500000
O O12 0.889665 0.775357 0.285159
O O13 0.829076 0.733216 0.173665
O O14 0.835683 0.000000 0.233148
O O15 0.542700 0.500000 0.684593
O O16 0.395479 0.000000 0.076307
#
# Coordination Sequence:
#
# PCOD8078516 Si02
#       6
#     8   8   8   8   8   8
#     4  10  19  32  50  70  94 126 163 199 237 286
#     4   9  16  27  41  59  90 125 155 188 232 283
#     4  10  21  34  48  70  99 128 158 197 244 287
#     4   9  17  29  44  64  92 124 157 192 235 281
#     4   9  17  29  46  67  90 122 162 196 231 279
#     4  10  17  24  38  64  93 120 153 190 234 281
#
# _framework density 17.280180000000001
#
# number of rings (size 3 to 8) (size 9 to 14) (size 15 to 20)
#    0.000    2.500    1.667    4.000    0.000    4.333 
#    0.000    0.000    0.000    0.000    0.000    1.167 
#    0.000    0.000    0.000    0.000    0.000    0.000 
#
# Total GULP energy -297442.646586 kJ/mol
# GULP energy per Si atom -12393.443608 kJ/mol
# Density = 1.724085 g / cm^3
# Si number density = 17.280180 Si / 1000 Ang^3
#
#
#
# Elastic Constant Matrix: (Units=GPa)
#
#
# Indices 1 2 3 4 5 6 
#
# 1 69.8352 23.8812 50.9358 0.0000 1.1657 0.0000
# 2 23.8812 60.2771 53.2986 0.0000 -1.1187 0.0001
# 3 50.9358 53.2986 158.0947 0.0000 0.8719 0.0000
# 4 0.0000 0.0000 0.0000 33.6503 0.0000 3.4250
# 5 1.1657 -1.1187 0.8719 0.0000 13.6694 0.0000
# 6 0.0000 0.0001 0.0000 3.4250 0.0000 11.4365
#
#
#
# Elastic Compliance Matrix: (Units=1/GPa)
#
#
# Indices 1 2 3 4 5 6 
#
# 1 0.019131 -0.003086 -0.005115 0.000000 -0.001558 0.000000
# 2 -0.003086 0.024216 -0.007185 0.000000 0.002703 0.000000
# 3 -0.005115 -0.007185 0.010400 0.000000 -0.000815 0.000000
# 4 0.000000 0.000000 0.000000 0.030652 0.000000 -0.009180
# 5 -0.001558 0.002703 -0.000815 0.000000 0.073562 0.000000
# 6 0.000000 0.000000 0.000000 -0.009180 0.000000 0.090189
#
#
# Mechanical properties :
#
#
# Convention : Reuss Voigt Hill
#
# Bulk Modulus (GPa) = 43.52318 60.49314 52.00816
# Shear Modulus (GPa) = 17.44722 22.42398 19.93560
#
# Velocity S-wave (km/s) = 3.18097 3.60623 3.40025
# Velocity P-wave (km/s) = 6.22358 7.24038 6.75115
#
# Compressibility (1/GPa) = 0.02297626
#
# Stress axis : x y z
#
# Youngs Moduli (GPa) = 52.27021 41.29581 96.15486
#
# Poissons Ratio (x) = 0.12743 0.49182
# Poissons Ratio (y) = 0.16130 0.69082
# Poissons Ratio (z) = 0.26736 0.29669
#
# Static dielectric constant tensor:
#      x y z
#    x 2.804880 0.000000 -0.146620 
#    y 0.000000 3.136630 0.000000 
#    z -0.146620 0.000000 4.084890 
# 
# 
# High freq. dielectric constant tensor:
#      x y z
#    x 1.591270 0.000000 -0.005110 
#    y 0.000000 1.665770 0.000000 
#    z -0.005110 0.000000 1.696520 
# 
# From -- ./inp_files/280078.got.cif
#   From: 2010.06.25/outbox.cif.g09.slc.cpg/sg12_141_cif.got.tgz:280078.got - 2010.06.28 00:19:55.
