data_PCOD8078337
_publ_section_title
;
Structure prediction by ZEFSAII (Michael W. Deem and Ramdas Pophale) SiO2 
 PCOD8078337
Probable space group: C 2/M
;
_chemical_formula_sum "Si O2"
_cell_formula_units_Z 56
_cell_length_a 5.345058
_cell_length_b 25.542270
_cell_length_c 24.199052
_cell_angle_alpha 90.000000
_cell_angle_beta 123.616364
_cell_angle_gamma 90.000000
_cell_volume 2751.260850
_symmetry_space_group_name_H-M "C 2/M"
_symmetry_group_IT_number 12
_symmetry_cell_setting 'monoclinic'
loop_
_space_group_symop_operation_xyz
x,y,z
-x,y,-z
-x,-y,-z
x,-y,z
1/2+x,1/2+y,z
1/2-x,1/2+y,-z
1/2-x,1/2-y,-z
1/2+x,1/2-y,z
loop_
_atom_site_type_symbol
_atom_site_label
_atom_site_fract_x
_atom_site_fract_y
_atom_site_fract_z
Si Si1 0.345301 0.391578 0.237929
Si Si2 0.789559 0.938349 0.616221
Si Si3 0.300504 0.783224 0.821081
Si Si4 0.180271 0.308676 0.972179
Si Si5 0.342144 0.061524 0.236672
Si Si6 0.283033 0.898132 0.613609
Si Si7 0.804880 0.218800 0.422120
O O1 0.537894 0.407279 0.314666
O O2 0.333431 0.328957 0.233239
O O3 0.507000 0.414746 0.202769
O O4 0.007440 0.414777 0.202777
O O5 0.440565 0.919912 0.576628
O O6 0.939672 0.919698 0.576620
O O7 0.821429 0.000000 0.628660
O O8 0.521531 0.749426 0.810229
O O9 0.482437 0.809559 0.893163
O O10 0.500000 0.337370 0.000000
O O11 0.250000 0.250000 0.000000
O O12 0.000000 0.337369 0.000000
O O13 0.535663 0.076551 0.313776
O O14 0.319041 0.000000 0.227515
O O15 0.293336 0.835531 0.617433
O O16 0.502868 0.249850 0.401538
O O17 0.000000 0.206238 0.500000
#
# Coordination Sequence:
#
# PCOD8078337 Si02
#       7
#     8   8   8   8   8   8   8
#     4  10  20  32  48  76 100 133 170 197 247 305
#     4  10  19  35  55  74 101 130 166 212 252 300
#     4  12  21  32  47  69 108 139 158 204 243 287
#     4  10  16  30  48  66  85 132 170 198 234 284
#     4  10  19  36  55  72 100 130 166 214 252 298
#     4  10  18  32  56  78  94 131 176 208 240 300
#     4  10  21  37  54  75 104 137 171 209 246 289
#
# _framework density 20.354306000000001
#
# number of rings (size 3 to 8) (size 9 to 14) (size 15 to 20)
#    0.000    1.714    2.857    6.000    0.000    0.000 
#    0.000   17.143    0.000    4.714    0.000    0.000 
#    0.000   19.429    0.000    0.000    0.000    0.000 
#
# Total GULP energy -347017.045928 kJ/mol
# GULP energy per Si atom -12393.465926 kJ/mol
# Density = 2.030798 g / cm^3
# Si number density = 20.354306 Si / 1000 Ang^3
#
#
#
# Elastic Constant Matrix: (Units=GPa)
#
#
# Indices 1 2 3 4 5 6 
#
# 1 243.2723 53.5667 7.6072 0.0000 2.5797 0.0000
# 2 53.5667 102.4633 16.4018 0.0000 -7.8916 0.0000
# 3 7.6072 16.4018 16.2515 0.0000 -1.4842 0.0000
# 4 0.0000 0.0000 0.0000 -7.3324 0.0000 2.1146
# 5 2.5797 -7.8916 -1.4842 0.0000 -1.7349 0.0000
# 6 0.0000 0.0000 0.0000 2.1146 0.0000 30.8829
#
#
#
# Elastic Compliance Matrix: (Units=1/GPa)
#
#
# Indices 1 2 3 4 5 6 
#
# 1 0.004269 -0.001374 0.000500 0.000000 0.012170 0.000000
# 2 -0.001374 0.009722 -0.012423 0.000000 -0.035638 0.000000
# 3 0.000500 -0.012423 0.073336 0.000000 -0.005484 0.000000
# 4 0.000000 0.000000 0.000000 -0.133740 0.000000 0.009157
# 5 0.012170 -0.035638 -0.005484 0.000000 -0.391512 0.000000
# 6 0.000000 0.000000 0.000000 0.009157 0.000000 0.031753
#
#
# Mechanical properties :
#
#
# Convention : Reuss Voigt Hill
#
# Bulk Modulus (GPa) = 16.46579 57.45984 36.96282
# Shear Modulus (GPa) = -13.91462 23.32388 4.70463
#
# Velocity S-wave (km/s) = -2.61745 3.38878 1.52197
# Velocity P-wave (km/s) = 1.01370 6.60325 4.61385
#
# Compressibility (1/GPa) = 0.06073197
#
# Stress axis : x y z
#
# Youngs Moduli (GPa) = 234.27304 102.86072 13.63593
#
# Poissons Ratio (x) = 0.14136 -0.00682
# Poissons Ratio (y) = 0.32196 0.16940
# Poissons Ratio (z) = -0.11723 1.27786
#
# Static dielectric constant tensor:
#      x y z
#    x 8.374400 0.000000 0.305800 
#    y 0.000000 3.367550 0.000000 
#    z 0.305800 0.000000 3.146580 
# 
# 
# High freq. dielectric constant tensor:
#      x y z
#    x 1.847450 0.000000 0.006180 
#    y 0.000000 1.776180 0.000000 
#    z 0.006180 0.000000 1.731020 
# 
# From -- ./inp_files/331381.got.cif
#   From: 2010.06.25/outbox.cif.g09.slc.cpg/sg12_166_cif.got.tgz:331381.got - 2010.06.28 00:19:55.
