data_PCOD8078878
_publ_section_title
;
Structure prediction by ZEFSAII (Michael W. Deem and Ramdas Pophale) SiO2 
 PCOD8078878
Probable space group: C 2/M
;
_chemical_formula_sum "Si O2"
_cell_formula_units_Z 64
_cell_length_a 31.741754
_cell_length_b 9.047143
_cell_length_c 14.635613
_cell_angle_alpha 90.000000
_cell_angle_beta 117.502010
_cell_angle_gamma 90.000000
_cell_volume 3727.986115
_symmetry_space_group_name_H-M "C 2/M"
_symmetry_group_IT_number 12
_symmetry_cell_setting 'monoclinic'
loop_
_space_group_symop_operation_xyz
x,y,z
-x,y,-z
-x,-y,-z
x,-y,z
1/2+x,1/2+y,z
1/2-x,1/2+y,-z
1/2-x,1/2-y,-z
1/2+x,1/2-y,z
loop_
_atom_site_type_symbol
_atom_site_label
_atom_site_fract_x
_atom_site_fract_y
_atom_site_fract_z
Si Si1 0.365080 0.174297 0.151854
Si Si2 0.053259 0.825085 0.659108
Si Si3 0.222037 0.827925 0.615024
Si Si4 0.783942 0.172611 0.182905
Si Si5 0.053624 0.825129 0.454439
Si Si6 0.863199 0.176482 0.591055
Si Si7 0.671635 0.175757 0.273443
Si Si8 0.677812 0.173863 0.077713
O O1 0.413413 0.246961 0.234231
O O2 0.319704 0.230814 0.160530
O O3 0.368600 0.000000 0.167422
O O4 0.358482 0.219120 0.038583
O O5 0.066096 0.769901 0.569449
O O6 0.999308 0.776384 0.627570
O O7 0.060168 0.000000 0.674852
O O8 0.203860 0.798352 0.699098
O O9 0.183778 0.759887 0.506713
O O10 0.274945 0.764664 0.651925
O O11 0.224957 0.000000 0.599883
O O12 0.730865 0.233409 0.109336
O O13 0.790264 0.000000 0.164406
O O14 0.091177 0.762841 0.418865
O O15 0.055963 0.000000 0.459886
O O16 0.864623 0.244670 0.693871
O O17 0.863889 0.000000 0.597096
O O18 0.658498 0.228221 0.157032
O O19 0.667394 0.000000 0.280179
O O20 0.684654 0.000000 0.092615
#
# Coordination Sequence:
#
# PCOD8078878 Si02
#       8
#     8   8   8   8   8   8   8   8
#     4  11  20  29  44  70  97 119 145 189 237 268
#     4   9  17  33  53  70  88 119 154 180 214 275
#     4   8  15  27  45  66  91 120 150 179 215 263
#     4   9  16  30  49  66  87 124 162 185 211 265
#     4   8  16  31  52  72  91 115 149 186 221 266
#     4  10  17  27  45  70  93 113 141 187 233 262
#     4   9  17  31  46  62  87 124 159 182 208 260
#     4   8  17  32  47  62  89 126 160 188 219 259
#
# _framework density 17.167446000000002
#
# number of rings (size 3 to 8) (size 9 to 14) (size 15 to 20)
#    0.000    3.000    0.000    4.125    0.000    2.000 
#    0.000    8.750    0.000    0.750    0.000    5.250 
#    0.000    0.000    0.000    0.000    0.000    0.000 
#
# Total GULP energy -396609.732741 kJ/mol
# GULP energy per Si atom -12394.054148 kJ/mol
# Density = 1.712837 g / cm^3
# Si number density = 17.167446 Si / 1000 Ang^3
#
#
#
# Elastic Constant Matrix: (Units=GPa)
#
#
# Indices 1 2 3 4 5 6 
#
# 1 121.0031 27.8684 71.0773 0.0000 -12.6626 0.0000
# 2 27.8684 32.6380 34.6517 0.0000 -1.3471 0.0000
# 3 71.0773 34.6517 132.4177 0.0000 0.9807 0.0000
# 4 0.0000 0.0000 0.0000 23.5080 0.0000 -1.8717
# 5 -12.6626 -1.3471 0.9807 0.0000 20.9598 0.0000
# 6 0.0000 0.0000 0.0000 -1.8717 0.0000 22.0535
#
#
#
# Elastic Compliance Matrix: (Units=1/GPa)
#
#
# Indices 1 2 3 4 5 6 
#
# 1 0.013959 -0.004917 -0.006268 0.000000 0.008410 0.000000
# 2 -0.004917 0.044380 -0.008977 0.000000 0.000302 0.000000
# 3 -0.006268 -0.008977 0.013302 0.000000 -0.004986 0.000000
# 4 0.000000 0.000000 0.000000 0.042828 0.000000 0.003635
# 5 0.008410 0.000302 -0.004986 0.000000 0.053044 0.000000
# 6 0.000000 0.000000 0.000000 0.003635 0.000000 0.045653
#
#
# Mechanical properties :
#
#
# Convention : Reuss Voigt Hill
#
# Bulk Modulus (GPa) = 31.93044 61.47262 46.70153
# Shear Modulus (GPa) = 18.94448 23.46836 21.20642
#
# Velocity S-wave (km/s) = 3.32552 3.70134 3.51845
# Velocity P-wave (km/s) = 5.77800 7.35880 6.61579
#
# Compressibility (1/GPa) = 0.03131807
#
# Stress axis : x y z
#
# Youngs Moduli (GPa) = 71.64007 22.53249 75.17439
#
# Poissons Ratio (x) = 0.11079 0.47121
# Poissons Ratio (y) = 0.35224 0.67482
# Poissons Ratio (z) = 0.44905 0.20227
#
# Static dielectric constant tensor:
#      x y z
#    x 3.350770 0.000000 0.003730 
#    y 0.000000 2.785990 0.000000 
#    z 0.003730 0.000000 3.483600 
# 
# 
# High freq. dielectric constant tensor:
#      x y z
#    x 1.653170 0.000000 -0.007860 
#    y 0.000000 1.624490 0.000000 
#    z -0.007860 0.000000 1.662170 
# 
# From -- ./inp_files/249249.got.cif
#   From: 2010.06.25/outbox.cif.g09.slc.cpg/sg12_125_cif.got.tgz:249249.got - 2010.06.28 00:19:55.
