data_PCOD8078953
_publ_section_title
;
Structure prediction by ZEFSAII (Michael W. Deem and Ramdas Pophale) SiO2 
 PCOD8078953
Probable space group: C 2/M
;
_chemical_formula_sum "Si O2"
_cell_formula_units_Z 56
_cell_length_a 27.916076
_cell_length_b 9.129847
_cell_length_c 14.438232
_cell_angle_alpha 90.000000
_cell_angle_beta 74.905377
_cell_angle_gamma 90.000000
_cell_volume 3552.898900
_symmetry_space_group_name_H-M "C 2/M"
_symmetry_group_IT_number 12
_symmetry_cell_setting 'monoclinic'
loop_
_space_group_symop_operation_xyz
x,y,z
-x,y,-z
-x,-y,-z
x,-y,z
1/2+x,1/2+y,z
1/2-x,1/2+y,-z
1/2-x,1/2-y,-z
1/2+x,1/2-y,z
loop_
_atom_site_type_symbol
_atom_site_label
_atom_site_fract_x
_atom_site_fract_y
_atom_site_fract_z
Si Si1 0.131025 0.163722 0.073845
Si Si2 0.792961 0.828672 0.594343
Si Si3 0.183901 0.668794 0.592410
Si Si4 0.208505 0.832994 0.879531
Si Si5 0.443125 0.674331 0.038115
Si Si6 0.192639 0.825370 0.205795
Si Si7 0.870857 0.328829 0.200558
O O1 0.086909 0.240146 0.036295
O O2 0.143914 0.225561 0.170316
O O3 0.111699 0.000000 0.097175
O O4 0.182574 0.169755 0.992360
O O5 0.826146 0.754820 0.497716
O O6 0.735550 0.778699 0.613927
O O7 0.813864 0.779061 0.683900
O O8 0.798643 0.000000 0.579243
O O9 0.188501 0.500000 0.563880
O O10 0.137871 0.696224 0.685239
O O11 0.261683 0.759495 0.862390
O O12 0.176870 0.737902 0.824411
O O13 0.212869 0.000000 0.841115
O O14 0.435774 0.500000 0.051062
O O15 0.500000 0.720054 0.000000
O O16 0.420993 0.747742 0.142150
O O17 0.201423 0.000000 0.191866
O O18 0.874467 0.500000 0.174864
#
# Coordination Sequence:
#
# PCOD8078953 Si02
#       7
#     8   8   8   8   8   8   8
#     4   8  16  28  43  62  85 116 146 175 215 261
#     4   9  17  27  40  59  84 117 151 182 215 248
#     4   9  17  29  41  59  85 115 149 183 218 251
#     4  10  18  27  40  62  89 119 152 178 212 254
#     4   9  18  33  50  70  93 113 140 180 224 267
#     4  10  17  28  42  59  87 119 151 180 211 254
#     4  10  18  30  47  66  89 117 150 183 219 261
#
# _framework density 15.761777
#
# number of rings (size 3 to 8) (size 9 to 14) (size 15 to 20)
#    0.000    2.714    1.429    2.143    0.000    2.000 
#    0.000    2.857    0.000    0.000    0.000    1.000 
#    0.000    8.000    0.000    0.000    0.000    0.000 
#
# Total GULP energy -346953.374825 kJ/mol
# GULP energy per Si atom -12391.191958 kJ/mol
# Density = 1.572590 g / cm^3
# Si number density = 15.761777 Si / 1000 Ang^3
#
#
#
# Elastic Constant Matrix: (Units=GPa)
#
#
# Indices 1 2 3 4 5 6 
#
# 1 87.2477 29.2735 61.0086 0.0000 2.5667 0.0000
# 2 29.2735 42.5410 34.9199 0.0000 -0.2105 0.0000
# 3 61.0086 34.9199 101.9858 0.0000 11.4858 0.0000
# 4 0.0000 0.0000 0.0000 25.7480 0.0000 -2.1192
# 5 2.5667 -0.2105 11.4858 0.0000 21.1186 0.0000
# 6 0.0000 0.0000 0.0000 -2.1192 0.0000 14.2048
#
#
#
# Elastic Compliance Matrix: (Units=1/GPa)
#
#
# Indices 1 2 3 4 5 6 
#
# 1 0.020863 -0.005254 -0.011068 0.000000 0.003431 0.000000
# 2 -0.005254 0.034972 -0.009526 0.000000 0.006168 0.000000
# 3 -0.011068 -0.009526 0.020822 0.000000 -0.010074 0.000000
# 4 0.000000 0.000000 0.000000 0.039321 0.000000 0.005866
# 5 0.003431 0.006168 -0.010074 0.000000 0.052475 0.000000
# 6 0.000000 0.000000 0.000000 0.005866 0.000000 0.071274
#
#
# Mechanical properties :
#
#
# Convention : Reuss Voigt Hill
#
# Bulk Modulus (GPa) = 40.06164 53.57540 46.81852
# Shear Modulus (GPa) = 16.68095 19.31913 18.00004
#
# Velocity S-wave (km/s) = 3.25671 3.50479 3.38302
# Velocity P-wave (km/s) = 6.29394 7.10229 6.71030
#
# Compressibility (1/GPa) = 0.02496154
#
# Stress axis : x y z
#
# Youngs Moduli (GPa) = 47.93245 28.59402 48.02552
#
# Poissons Ratio (x) = 0.15024 0.53153
# Poissons Ratio (y) = 0.25185 0.45749
# Poissons Ratio (z) = 0.53050 0.27239
#
# Static dielectric constant tensor:
#      x y z
#    x 2.833870 0.000000 0.162180 
#    y 0.000000 2.929660 0.000000 
#    z 0.162180 0.000000 3.083630 
# 
# 
# High freq. dielectric constant tensor:
#      x y z
#    x 1.566820 0.000000 0.016830 
#    y 0.000000 1.597490 0.000000 
#    z 0.016830 0.000000 1.600020 
# 
# From -- ./inp_files/243047.got.cif
#   From: 2010.06.25/outbox.cif.g09.slc.cpg/sg12_122_cif.got.tgz:243047.got - 2010.06.28 00:19:55.
