data_PCOD8078875
_publ_section_title
;
Structure prediction by ZEFSAII (Michael W. Deem and Ramdas Pophale) SiO2 
 PCOD8078875
Probable space group: C 2/M
;
_chemical_formula_sum "Si O2"
_cell_formula_units_Z 64
_cell_length_a 23.112292
_cell_length_b 8.573714
_cell_length_c 17.934419
_cell_angle_alpha 90.000000
_cell_angle_beta 101.609486
_cell_angle_gamma 90.000000
_cell_volume 3481.146960
_symmetry_space_group_name_H-M "C 2/M"
_symmetry_group_IT_number 12
_symmetry_cell_setting 'monoclinic'
loop_
_space_group_symop_operation_xyz
x,y,z
-x,y,-z
-x,-y,-z
x,-y,z
1/2+x,1/2+y,z
1/2-x,1/2+y,-z
1/2-x,1/2-y,-z
1/2+x,1/2-y,z
loop_
_atom_site_type_symbol
_atom_site_label
_atom_site_fract_x
_atom_site_fract_y
_atom_site_fract_z
Si Si1 0.714538 0.681938 0.298798
Si Si2 0.540101 0.315696 0.208166
Si Si3 0.364796 0.182180 0.848888
Si Si4 0.382518 0.183793 0.637994
Si Si5 0.942591 0.317434 0.269735
Si Si6 0.313796 0.316012 0.234443
Si Si7 0.236305 0.679560 0.075562
Si Si8 0.018145 0.182865 0.421357
O O1 0.727549 0.500000 0.310235
O O2 0.669783 0.714822 0.220049
O O3 0.683214 0.745058 0.366533
O O4 0.775775 0.771601 0.298043
O O5 0.548113 0.500000 0.212905
O O6 0.567289 0.245964 0.137126
O O7 0.575680 0.229717 0.282612
O O8 0.472078 0.268561 0.205083
O O9 0.332771 0.209928 0.920299
O O10 0.360832 0.000000 0.825927
O O11 0.414739 0.255307 0.573517
O O12 0.377167 0.000000 0.628264
O O13 0.951055 0.500000 0.261580
O O14 0.874384 0.275523 0.253440
O O15 0.971868 0.265048 0.354611
O O16 0.324944 0.500000 0.236601
O O17 0.278927 0.255764 0.151770
O O18 0.249704 0.500000 0.071473
O O19 0.250000 0.750000 0.000000
O O20 0.000000 0.225479 0.500000
O O21 0.015835 0.000000 0.404449
#
# Coordination Sequence:
#
# PCOD8078875 Si02
#       8
#     8   8   8   8   8   8   8   8
#     4  10  17  27  45  70  96 124 161 203 244 287
#     4  10  17  27  45  69  95 125 160 202 245 286
#     4   9  16  28  44  67  96 126 160 201 245 286
#     4  10  17  27  45  69  97 127 160 202 245 285
#     4  11  21  33  51  75 101 131 164 202 246 292
#     4  10  20  35  51  72 101 132 165 202 245 292
#     4   9  19  32  50  73 100 131 162 200 244 291
#     4  10  20  34  52  74 101 133 166 202 244 290
#
# _framework density 18.384746
#
# number of rings (size 3 to 8) (size 9 to 14) (size 15 to 20)
#    0.000    2.125    0.000    9.375    0.000    4.000 
#    0.000    0.000    0.000    1.500    0.000    5.250 
#    0.000    0.000    0.000    0.000    0.000    0.000 
#
# Total GULP energy -396547.641232 kJ/mol
# GULP energy per Si atom -12392.113788 kJ/mol
# Density = 1.834290 g / cm^3
# Si number density = 18.384746 Si / 1000 Ang^3
#
#
#
# Elastic Constant Matrix: (Units=GPa)
#
#
# Indices 1 2 3 4 5 6 
#
# 1 144.2712 36.4740 53.9445 0.0000 -36.1892 0.0000
# 2 36.4740 89.5075 31.6499 0.0000 -16.0293 0.0000
# 3 53.9445 31.6499 58.0262 0.0000 -25.4814 0.0000
# 4 0.0000 0.0000 0.0000 21.7206 0.0000 -8.0047
# 5 -36.1892 -16.0293 -25.4814 0.0000 30.7564 0.0000
# 6 0.0000 0.0000 0.0000 -8.0047 0.0000 36.2665
#
#
#
# Elastic Compliance Matrix: (Units=1/GPa)
#
#
# Indices 1 2 3 4 5 6 
#
# 1 0.011671 -0.000922 -0.007117 0.000000 0.007355 0.000000
# 2 -0.000922 0.013959 -0.006348 0.000000 0.000931 0.000000
# 3 -0.007117 -0.006348 0.034868 0.000000 0.017205 0.000000
# 4 0.000000 0.000000 0.000000 0.050116 0.000000 0.011062
# 5 0.007355 0.000931 0.017205 0.000000 0.055908 0.000000
# 6 0.000000 0.000000 0.000000 0.011062 0.000000 0.030015
#
#
# Mechanical properties :
#
#
# Convention : Reuss Voigt Hill
#
# Bulk Modulus (GPa) = 31.52173 59.54908 45.53540
# Shear Modulus (GPa) = 21.19680 29.06445 25.13062
#
# Velocity S-wave (km/s) = 3.39920 3.98037 3.70121
# Velocity P-wave (km/s) = 5.70867 7.32019 6.56407
#
# Compressibility (1/GPa) = 0.03172415
#
# Stress axis : x y z
#
# Youngs Moduli (GPa) = 85.68591 71.63647 28.67982
#
# Poissons Ratio (x) = 0.06605 0.20411
# Poissons Ratio (y) = 0.07900 0.18206
# Poissons Ratio (z) = 0.60980 0.45475
#
# Static dielectric constant tensor:
#      x y z
#    x 4.226400 0.000000 -0.613370 
#    y 0.000000 3.430050 0.000000 
#    z -0.613370 0.000000 2.842640 
# 
# 
# High freq. dielectric constant tensor:
#      x y z
#    x 1.730440 0.000000 -0.044630 
#    y 0.000000 1.729580 0.000000 
#    z -0.044630 0.000000 1.649550 
# 
# From -- ./inp_files/323396.got.cif
#   From: 2010.06.25/outbox.cif.g09.slc.cpg/sg12_162_cif.got.tgz:323396.got - 2010.06.28 00:19:55.
