data_PCOD8078396
_publ_section_title
;
Structure prediction by ZEFSAII (Michael W. Deem and Ramdas Pophale) SiO2 
 PCOD8078396
Probable space group: C 2/M
;
_chemical_formula_sum "Si O2"
_cell_formula_units_Z 56
_cell_length_a 13.066448
_cell_length_b 19.827252
_cell_length_c 18.273666
_cell_angle_alpha 90.000000
_cell_angle_beta 140.744432
_cell_angle_gamma 90.000000
_cell_volume 2995.703981
_symmetry_space_group_name_H-M "C 2/M"
_symmetry_group_IT_number 12
_symmetry_cell_setting 'monoclinic'
loop_
_space_group_symop_operation_xyz
x,y,z
-x,y,-z
-x,-y,-z
x,-y,z
1/2+x,1/2+y,z
1/2-x,1/2+y,-z
1/2-x,1/2-y,-z
1/2+x,1/2-y,z
loop_
_atom_site_type_symbol
_atom_site_label
_atom_site_fract_x
_atom_site_fract_y
_atom_site_fract_z
Si Si1 0.266308 0.178537 0.547432
Si Si2 0.398776 0.228946 0.267545
Si Si3 0.197162 0.160894 0.674418
Si Si4 0.057031 0.826086 0.104614
Si Si5 0.968753 0.675580 0.063434
Si Si6 0.116381 0.847311 0.852148
Si Si7 0.983497 0.077576 0.644408
O O1 0.250000 0.250000 0.500000
O O2 0.460565 0.172543 0.659213
O O3 0.185475 0.177242 0.582728
O O4 0.184304 0.120151 0.453420
O O5 0.407708 0.283093 0.338937
O O6 0.245676 0.183762 0.199671
O O7 0.395366 0.272023 0.190066
O O8 0.385128 0.154509 0.802162
O O9 0.103142 0.091597 0.641565
O O10 0.957362 0.756193 0.053127
O O11 0.016321 0.862409 0.158411
O O12 0.000000 0.866330 0.000000
O O13 0.793512 0.645455 0.988441
O O14 0.000000 0.646188 0.000000
O O15 0.082997 0.903381 0.772483
O O16 0.934008 0.000000 0.618191
#
# Coordination Sequence:
#
# PCOD8078396 Si02
#       7
#     8   8   8   8   8   8   8
#     4  12  23  36  58  89 121 160 202 257 301 350
#     4  10  19  32  51  87 118 151 190 248 296 351
#     4  10  21  35  57  89 125 154 198 244 302 353
#     4  10  19  28  52  88 123 155 181 239 312 356
#     4  10  16  31  54  89 126 150 182 241 305 365
#     4  11  19  35  56  84 126 156 194 241 301 368
#     4  11  25  43  61  83 119 167 207 245 302 365
#
# _framework density 18.693436999999999
#
# number of rings (size 3 to 8) (size 9 to 14) (size 15 to 20)
#    0.000    1.429    8.571    2.571    2.000    1.143 
#    0.000    1.429    0.000    2.143    0.000    0.000 
#    0.000    0.000    0.000    0.000    0.000    0.000 
#
# Total GULP energy -346950.991870 kJ/mol
# GULP energy per Si atom -12391.106853 kJ/mol
# Density = 1.865089 g / cm^3
# Si number density = 18.693437 Si / 1000 Ang^3
#
#
#
# Elastic Constant Matrix: (Units=GPa)
#
#
# Indices 1 2 3 4 5 6 
#
# 1 120.0447 29.7932 37.4090 0.0003 -4.2557 0.0001
# 2 29.7932 76.6643 40.1787 0.0002 11.8075 0.0001
# 3 37.4090 40.1787 76.0792 0.0008 -0.1976 0.0004
# 4 0.0003 0.0002 0.0008 13.6269 0.0003 3.1809
# 5 -4.2557 11.8075 -0.1976 0.0003 32.0409 0.0001
# 6 0.0001 0.0001 0.0004 3.1809 0.0001 14.6910
#
#
#
# Elastic Compliance Matrix: (Units=1/GPa)
#
#
# Indices 1 2 3 4 5 6 
#
# 1 0.010154 -0.002305 -0.003770 0.000000 0.002175 0.000000
# 2 -0.002305 0.020125 -0.009515 0.000000 -0.007781 0.000000
# 3 -0.003770 -0.009515 0.020031 -0.000001 0.003129 0.000000
# 4 0.000000 0.000000 -0.000001 0.077291 -0.000001 -0.016735
# 5 0.002175 -0.007781 0.003129 -0.000001 0.034386 0.000000
# 6 0.000000 0.000000 0.000000 -0.016735 0.000000 0.071692
#
#
# Mechanical properties :
#
#
# Convention : Reuss Voigt Hill
#
# Bulk Modulus (GPa) = 52.27425 54.17221 53.22323
# Shear Modulus (GPa) = 18.43417 23.09892 20.76654
#
# Velocity S-wave (km/s) = 3.14368 3.51902 3.33663
# Velocity P-wave (km/s) = 6.41885 6.74934 6.58617
#
# Compressibility (1/GPa) = 0.01912988
#
# Stress axis : x y z
#
# Youngs Moduli (GPa) = 98.48080 49.68984 49.92281
#
# Poissons Ratio (x) = 0.11456 0.18820
# Poissons Ratio (y) = 0.22704 0.47501
# Poissons Ratio (z) = 0.37125 0.47279
#
# Static dielectric constant tensor:
#      x y z
#    x 3.788700 0.000000 0.219620 
#    y 0.000000 2.873180 0.000000 
#    z 0.219620 0.000000 3.891230 
# 
# 
# High freq. dielectric constant tensor:
#      x y z
#    x 1.734510 0.000000 0.004900 
#    y 0.000000 1.641040 0.000000 
#    z 0.004900 0.000000 1.748080 
# 
# From -- ./inp_files/264319.got.cif
#   From: 2010.06.25/outbox.cif.g09.slc.cpg/sg12_133_cif.got.tgz:264319.got - 2010.06.28 00:19:55.
