data_PCOD8078119
_publ_section_title
;
Structure prediction by ZEFSAII (Michael W. Deem and Ramdas Pophale) SiO2 
 PCOD8078119
Probable space group: C 2/M
;
_chemical_formula_sum "Si O2"
_cell_formula_units_Z 64
_cell_length_a 19.538358
_cell_length_b 8.863512
_cell_length_c 23.628258
_cell_angle_alpha 90.000000
_cell_angle_beta 118.582956
_cell_angle_gamma 90.000000
_cell_volume 3593.205961
_symmetry_space_group_name_H-M "C 2/M"
_symmetry_group_IT_number 12
_symmetry_cell_setting 'monoclinic'
loop_
_space_group_symop_operation_xyz
x,y,z
-x,y,-z
-x,-y,-z
x,-y,z
1/2+x,1/2+y,z
1/2-x,1/2+y,-z
1/2-x,1/2-y,-z
1/2+x,1/2-y,z
loop_
_atom_site_type_symbol
_atom_site_label
_atom_site_fract_x
_atom_site_fract_y
_atom_site_fract_z
Si Si1 0.623903 0.321564 0.065341
Si Si2 0.724397 0.678307 0.829454
Si Si3 0.021435 0.178673 0.921032
Si Si4 0.110209 0.821028 0.573256
Si Si5 0.939244 0.822657 0.185880
Si Si6 0.950811 0.678619 0.551773
Si Si7 0.001519 0.667537 0.688235
Si Si8 0.171435 0.329078 0.701042
O O1 0.639375 0.500000 0.074461
O O2 0.703551 0.232225 0.104738
O O3 0.562683 0.268691 0.089301
O O4 0.589895 0.271970 0.990976
O O5 0.724462 0.500000 0.822892
O O6 0.646540 0.735147 0.830804
O O7 0.729177 0.750357 0.768760
O O8 0.037327 0.249666 0.865361
O O9 0.021187 0.000000 0.918222
O O10 0.120386 0.744140 0.514616
O O11 0.175587 0.758692 0.642615
O O12 0.026419 0.771526 0.562919
O O13 0.117371 0.000000 0.571445
O O14 0.001999 0.776252 0.258843
O O15 0.940555 0.000000 0.181334
O O16 0.963424 0.500000 0.546147
O O17 0.937858 0.709017 0.614145
O O18 0.986409 0.500000 0.705370
O O19 0.084548 0.678057 0.690569
O O20 0.199456 0.500000 0.702575
#
# Coordination Sequence:
#
# PCOD8078119 Si02
#       8
#     8   8   8   8   8   8   8   8
#     4   9  17  32  52  67  85 116 152 185 216 261
#     4  10  19  29  43  67  95 117 142 182 230 271
#     4   8  16  32  51  68  85 114 154 186 215 259
#     4  10  16  21  32  52  77 106 143 185 225 260
#     4   9  17  29  45  64  89 118 147 183 225 267
#     4   9  15  23  33  47  73 111 150 181 212 261
#     4   8  15  25  37  55  80 110 145 182 218 259
#     4   9  16  27  40  54  78 114 150 179 214 263
#
# _framework density 17.811392999999999
#
# number of rings (size 3 to 8) (size 9 to 14) (size 15 to 20)
#    0.000    3.000    0.000    4.500    0.000    4.500 
#    0.000    2.500    0.000    0.000    0.000    0.000 
#    0.000    1.000    0.000    3.000    0.000    8.875 
#
# Total GULP energy -396514.352485 kJ/mol
# GULP energy per Si atom -12391.073515 kJ/mol
# Density = 1.777085 g / cm^3
# Si number density = 17.811393 Si / 1000 Ang^3
#
#
#
# Elastic Constant Matrix: (Units=GPa)
#
#
# Indices 1 2 3 4 5 6 
#
# 1 35.8981 17.0476 42.6101 0.0000 -14.6003 0.0000
# 2 17.0476 64.8527 37.5409 0.0000 -8.5144 0.0000
# 3 42.6101 37.5409 144.4563 0.0000 -34.1510 0.0000
# 4 0.0000 0.0000 0.0000 34.3490 0.0000 2.1059
# 5 -14.6003 -8.5144 -34.1510 0.0000 12.2095 0.0000
# 6 0.0000 0.0000 0.0000 2.1059 0.0000 9.1788
#
#
#
# Elastic Compliance Matrix: (Units=1/GPa)
#
#
# Indices 1 2 3 4 5 6 
#
# 1 0.056696 -0.006558 -0.000213 0.000000 0.062628 0.000000
# 2 -0.006558 0.018919 -0.005069 0.000000 -0.008828 0.000000
# 3 -0.000213 -0.005069 0.021866 0.000000 0.057370 0.000000
# 4 0.000000 0.000000 0.000000 0.029528 0.000000 -0.006775
# 5 0.062628 -0.008828 0.057370 0.000000 0.311109 0.000000
# 6 0.000000 0.000000 0.000000 -0.006775 0.000000 0.110501
#
#
# Mechanical properties :
#
#
# Convention : Reuss Voigt Hill
#
# Bulk Modulus (GPa) = 13.55017 48.84493 31.19755
# Shear Modulus (GPa) = 8.37663 21.01469 14.69566
#
# Velocity S-wave (km/s) = 2.17098 3.43861 2.87552
# Velocity P-wave (km/s) = 3.72939 6.57635 5.34587
#
# Compressibility (1/GPa) = 0.07379981
#
# Stress axis : x y z
#
# Youngs Moduli (GPa) = 17.63801 52.85758 45.73347
#
# Poissons Ratio (x) = 0.34662 0.00976
# Poissons Ratio (y) = 0.11566 0.23183
# Poissons Ratio (z) = 0.00376 0.26795
#
# Static dielectric constant tensor:
#      x y z
#    x 2.868130 0.000000 -0.295110 
#    y 0.000000 3.150320 0.000000 
#    z -0.295110 0.000000 4.051450 
# 
# 
# High freq. dielectric constant tensor:
#      x y z
#    x 1.613890 0.000000 -0.012720 
#    y 0.000000 1.680360 0.000000 
#    z -0.012720 0.000000 1.715510 
# 
# From -- ./inp_files/345599.got.cif
#   From: 2010.06.25/outbox.cif.g09.slc.cpg/sg12_173_cif.got.tgz:345599.got - 2010.06.28 00:19:55.
