data_PCOD8078055
_publ_section_title
;
Structure prediction by ZEFSAII (Michael W. Deem and Ramdas Pophale) SiO2 
 PCOD8078055
Probable space group: C 2/M
;
_chemical_formula_sum "Si O2"
_cell_formula_units_Z 48
_cell_length_a 17.861799
_cell_length_b 29.722890
_cell_length_c 9.125817
_cell_angle_alpha 90.000000
_cell_angle_beta 150.016657
_cell_angle_gamma 90.000000
_cell_volume 2421.247769
_symmetry_space_group_name_H-M "C 2/M"
_symmetry_group_IT_number 12
_symmetry_cell_setting 'monoclinic'
loop_
_space_group_symop_operation_xyz
x,y,z
-x,y,-z
-x,-y,-z
x,-y,z
1/2+x,1/2+y,z
1/2-x,1/2+y,-z
1/2-x,1/2-y,-z
1/2+x,1/2-y,z
loop_
_atom_site_type_symbol
_atom_site_label
_atom_site_fract_x
_atom_site_fract_y
_atom_site_fract_z
Si Si1 0.269277 0.594491 0.659624
Si Si2 0.334325 0.500000 0.798500
Si Si3 0.076340 0.096476 0.357580
Si Si4 0.589305 0.758131 0.292256
Si Si5 0.368385 0.168213 0.391561
Si Si6 0.038433 0.183351 0.722867
Si Si7 0.531245 0.500000 0.385192
O O1 0.228323 0.541839 0.576984
O O2 0.293345 0.612361 0.534368
O O3 0.144840 0.623223 0.532547
O O4 0.423006 0.594744 0.008961
O O5 0.500000 0.500000 0.000000
O O6 0.370053 0.500000 0.032169
O O7 0.117783 0.046931 0.492676
O O8 0.052206 0.135703 0.436421
O O9 0.750000 0.750000 0.500000
O O10 0.588315 0.792368 0.424780
O O11 0.519586 0.712136 0.237707
O O12 0.500000 0.776319 0.000000
O O13 0.500000 0.160495 0.500000
O O14 0.216687 0.178415 0.045061
O O15 0.000000 0.206260 0.500000
O O16 0.500000 0.500000 0.500000
#
# Coordination Sequence:
#
# PCOD8078055 Si02
#       7
#     8   4   8   8   8   8   4
#     4   9  16  32  57  84 115 155 202 245 297 362
#     4  10  14  30  57  86 112 156 203 250 294 356
#     4   9  16  30  54  83 118 151 194 245 300 351
#     4  12  25  43  67  90 115 158 210 256 315 372
#     4  11  25  42  60  88 128 164 200 256 314 369
#     4  11  24  39  61  89 121 160 202 254 304 363
#     4  10  16  24  46  86 124 147 180 247 308 353
#
# _framework density 19.824487999999999
#
# number of rings (size 3 to 8) (size 9 to 14) (size 15 to 20)
#    0.000    1.667    5.000    2.000    4.667    1.333 
#    0.000    0.417    0.000    0.000    0.000    0.583 
#    0.000    0.000    0.000    0.000    0.000    0.000 
#
# Total GULP energy -297353.610556 kJ/mol
# GULP energy per Si atom -12389.733773 kJ/mol
# Density = 1.977937 g / cm^3
# Si number density = 19.824488 Si / 1000 Ang^3
#
#
#
# Elastic Constant Matrix: (Units=GPa)
#
#
# Indices 1 2 3 4 5 6 
#
# 1 169.7068 56.1807 47.1318 0.0000 6.5430 0.0000
# 2 56.1807 114.1673 23.4601 0.0000 11.1562 0.0000
# 3 47.1318 23.4601 70.4675 0.0000 -2.6300 0.0000
# 4 0.0000 0.0000 0.0000 14.9547 0.0000 -2.5422
# 5 6.5430 11.1562 -2.6300 0.0000 36.4480 0.0000
# 6 0.0000 0.0000 0.0000 -2.5422 0.0000 34.1455
#
#
#
# Elastic Compliance Matrix: (Units=1/GPa)
#
#
# Indices 1 2 3 4 5 6 
#
# 1 0.008172 -0.003013 -0.004495 0.000000 -0.000869 0.000000
# 2 -0.003013 0.010879 -0.001715 0.000000 -0.002913 0.000000
# 3 -0.004495 -0.001715 0.017866 0.000000 0.002621 0.000000
# 4 0.000000 0.000000 0.000000 0.067726 0.000000 0.005042
# 5 -0.000869 -0.002913 0.002621 0.000000 0.028673 0.000000
# 6 0.000000 0.000000 0.000000 0.005042 0.000000 0.029662
#
#
# Mechanical properties :
#
#
# Convention : Reuss Voigt Hill
#
# Bulk Modulus (GPa) = 54.14051 67.54296 60.84173
# Shear Modulus (GPa) = 26.65520 32.28091 29.46805
#
# Velocity S-wave (km/s) = 3.67080 4.03964 3.85963
# Velocity P-wave (km/s) = 6.73317 7.47681 7.11471
#
# Compressibility (1/GPa) = 0.01847046
#
# Stress axis : x y z
#
# Youngs Moduli (GPa) = 122.37289 91.92275 55.97092
#
# Poissons Ratio (x) = 0.27693 0.25160
# Poissons Ratio (y) = 0.36866 0.09602
# Poissons Ratio (z) = 0.55008 0.15769
#
# Static dielectric constant tensor:
#      x y z
#    x 3.788650 0.000000 -0.160470 
#    y 0.000000 9.176490 0.000000 
#    z -0.160470 0.000000 3.121850 
# 
# 
# High freq. dielectric constant tensor:
#      x y z
#    x 1.783400 0.000000 -0.024080 
#    y 0.000000 1.787690 0.000000 
#    z -0.024080 0.000000 1.721960 
# 
# From -- ./inp_files/80901.got.cif
#   From: 2010.06.25/outbox.cif.g09.slc.cpg/sg12_41_cif.got.tgz:80901.got - 2010.06.28 00:19:55.
