data_PCOD8078327
_publ_section_title
;
Structure prediction by ZEFSAII (Michael W. Deem and Ramdas Pophale) SiO2 
 PCOD8078327
Probable space group: C 2/M
;
_chemical_formula_sum "Si O2"
_cell_formula_units_Z 44
_cell_length_a 27.860114
_cell_length_b 12.978422
_cell_length_c 8.430081
_cell_angle_alpha 90.000000
_cell_angle_beta 136.067628
_cell_angle_gamma 90.000000
_cell_volume 2114.834318
_symmetry_space_group_name_H-M "C 2/M"
_symmetry_group_IT_number 12
_symmetry_cell_setting 'monoclinic'
loop_
_space_group_symop_operation_xyz
x,y,z
-x,y,-z
-x,-y,-z
x,-y,z
1/2+x,1/2+y,z
1/2-x,1/2+y,-z
1/2-x,1/2-y,-z
1/2+x,1/2-y,z
loop_
_atom_site_type_symbol
_atom_site_label
_atom_site_fract_x
_atom_site_fract_y
_atom_site_fract_z
Si Si1 0.031878 0.382393 0.750340
Si Si2 0.607812 0.190770 0.516385
Si Si3 0.777948 0.218374 0.396890
Si Si4 0.140964 0.776273 0.912664
Si Si5 0.688292 0.000000 0.815893
Si Si6 0.793037 0.000000 0.314911
Si Si7 0.664252 0.500000 0.929000
O O1 0.053018 0.500000 0.850163
O O2 0.971359 0.335805 0.720284
O O3 0.000000 0.381510 0.500000
O O4 0.095311 0.301459 0.911755
O O5 0.651808 0.216611 0.464905
O O6 0.617796 0.279404 0.672880
O O7 0.638160 0.094814 0.682075
O O8 0.750000 0.250000 0.500000
O O9 0.801252 0.099415 0.446489
O O10 0.721372 0.244203 0.126304
O O11 0.132350 0.897919 0.937273
O O12 0.714865 0.000000 0.060277
O O13 0.752045 0.000000 0.842413
O O14 0.845628 0.000000 0.288134
#
# Coordination Sequence:
#
# PCOD8078327 Si02
#       7
#     8   8   8   8   4   4   4
#     4   9  20  32  58  90 120 146 187 243 297 340
#     4  11  18  37  59  90 115 152 189 237 295 345
#     4  12  24  36  58  86 119 154 199 241 286 345
#     4  11  20  36  57  88 114 154 196 233 292 344
#     4  10  16  29  66  86 111 147 192 236 298 339
#     4  10  20  36  54  88 114 154 184 250 298 328
#     4  10  18  33  62  86 113 153 194 238 290 341
#
# _framework density 20.805412
#
# number of rings (size 3 to 8) (size 9 to 14) (size 15 to 20)
#    0.545    0.909    6.364    0.545    2.545    1.455 
#    0.000    5.909    0.000    1.091    0.000    2.545 
#    0.000    0.000    0.000    0.000    0.000    0.000 
#
# Total GULP energy -272573.351204 kJ/mol
# GULP energy per Si atom -12389.697782 kJ/mol
# Density = 2.075806 g / cm^3
# Si number density = 20.805412 Si / 1000 Ang^3
#
#
#
# Elastic Constant Matrix: (Units=GPa)
#
#
# Indices 1 2 3 4 5 6 
#
# 1 125.4903 49.8426 19.5747 0.0000 21.9881 0.0000
# 2 49.8426 155.3825 17.7333 0.0000 21.9300 0.0000
# 3 19.5747 17.7333 18.3581 0.0000 8.7377 0.0000
# 4 0.0000 0.0000 0.0000 18.7184 0.0000 12.9077
# 5 21.9881 21.9300 8.7377 0.0000 29.9213 0.0000
# 6 0.0000 0.0000 0.0000 12.9077 0.0000 44.1844
#
#
#
# Elastic Compliance Matrix: (Units=1/GPa)
#
#
# Indices 1 2 3 4 5 6 
#
# 1 0.010651 -0.001973 -0.007450 0.000000 -0.004206 0.000000
# 2 -0.001973 0.007988 -0.004084 0.000000 -0.003212 0.000000
# 3 -0.007450 -0.004084 0.072391 0.000000 -0.012672 0.000000
# 4 0.000000 0.000000 0.000000 0.066900 0.000000 -0.019544
# 5 -0.004206 -0.003212 -0.012672 0.000000 0.042567 0.000000
# 6 0.000000 0.000000 0.000000 -0.019544 0.000000 0.028342
#
#
# Mechanical properties :
#
#
# Convention : Reuss Voigt Hill
#
# Bulk Modulus (GPa) = 15.62052 52.61468 34.11760
# Shear Modulus (GPa) = 18.03811 32.70351 25.37081
#
# Velocity S-wave (km/s) = 2.94767 3.96899 3.49583
# Velocity P-wave (km/s) = 4.37141 6.80791 5.72088
#
# Compressibility (1/GPa) = 0.06401834
#
# Stress axis : x y z
#
# Youngs Moduli (GPa) = 93.88526 125.18797 13.81384
#
# Poissons Ratio (x) = 0.24698 0.10291
# Poissons Ratio (y) = 0.18522 0.05641
# Poissons Ratio (z) = 0.69941 0.51122
#
# Static dielectric constant tensor:
#      x y z
#    x 3.720840 0.000000 0.410770 
#    y 0.000000 3.654310 0.000000 
#    z 0.410770 0.000000 3.294490 
# 
# 
# High freq. dielectric constant tensor:
#      x y z
#    x 1.794880 0.000000 0.023790 
#    y 0.000000 1.831170 0.000000 
#    z 0.023790 0.000000 1.755740 
# 
# From -- ./inp_files/103408.got.cif
#   From: 2010.06.25/outbox.cif.g09.slc.cpg/sg12_52_cif.got.tgz:103408.got - 2010.06.28 00:19:55.
