data_PCOD8078005
_publ_section_title
;
Structure prediction by ZEFSAII (Michael W. Deem and Ramdas Pophale) SiO2 
 PCOD8078005
Probable space group: P 21/M
;
_chemical_formula_sum "Si O2"
_cell_formula_units_Z 32
_cell_length_a 27.000000
_cell_length_b 9.000000
_cell_length_c 21.000000
_cell_angle_alpha 90.000000
_cell_angle_beta 160.000000
_cell_angle_gamma 90.000000
_cell_volume 1745.328791
_symmetry_space_group_name_H-M "P 21/M"
_symmetry_group_IT_number 11
_symmetry_cell_setting 'monoclinic'
loop_
_space_group_symop_operation_xyz
x,y,z
-x,1/2+y,-z
-x,-y,-z
x,1/2-y,z
loop_
_atom_site_type_symbol
_atom_site_label
_atom_site_fract_x
_atom_site_fract_y
_atom_site_fract_z
Si Si1 0.528351 0.926881 0.688802
Si Si2 0.023777 0.071731 0.705549
Si Si3 0.314339 0.423357 0.993244
Si Si4 0.448808 0.075653 0.027977
Si Si5 0.952246 0.920221 0.035484
Si Si6 0.813801 0.427544 0.984406
Si Si7 0.721586 0.924160 0.305107
Si Si8 0.781946 0.920903 0.698491
O O1 0.522609 0.750000 0.668344
O O2 0.374781 0.001198 0.487574
O O3 0.570770 0.961798 0.812906
O O4 0.654234 0.001122 0.798526
O O5 0.015799 0.250000 0.703128
O O6 0.151972 0.020122 0.812371
O O7 0.872211 0.009327 0.497070
O O8 0.066520 0.999116 0.824290
O O9 0.303669 0.250000 0.970136
O O10 0.372372 0.493194 0.998000
O O11 0.485683 0.250000 0.077310
O O12 0.599877 0.988325 0.205106
O O13 0.335845 0.043855 0.835125
O O14 0.965168 0.750000 0.076085
O O15 0.114504 0.985393 0.223389
O O16 0.867615 0.029730 0.979849
O O17 0.857070 0.924237 0.857354
O O18 0.805875 0.250000 0.983682
O O19 0.744452 0.750000 0.345843
O O20 0.765204 0.750000 0.654739
#
# Coordination Sequence:
#
# PCOD8078005 Si02
#       8
#     4   4   4   4   4   4   4   4
#     4  10  20  36  57  80 109 143 180 222 272 328
#     4  10  20  36  56  77 105 139 175 216 267 325
#     4   8  17  34  55  77 100 134 178 218 258 311
#     4   9  18  35  55  74 103 141 179 220 265 314
#     4  10  21  38  58  80 109 145 182 221 270 323
#     4  11  22  37  57  81 109 139 178 226 271 320
#     4  10  20  33  51  78 108 138 176 220 265 315
#     4  10  21  37  57  82 111 143 182 226 268 314
#
# _framework density 18.334654
#
# number of rings (size 3 to 8) (size 9 to 14) (size 15 to 20)
#    0.000    2.250    0.000    3.750    0.000    4.000 
#    0.000    7.500    0.000    0.000    0.000    0.000 
#    0.000    0.000    0.000    0.000    0.000    0.000 
#
# Total GULP energy -396730.277736 kJ/mol
# GULP energy per Si atom -12397.821179 kJ/mol
# Density = 1.829292 g / cm^3
# Si number density = 18.334654 Si / 1000 Ang^3
#
#
#
# Elastic Constant Matrix: (Units=GPa)
#
#
# Indices 1 2 3 4 5 6 
#
# 1 90.4112 34.3835 29.1953 0.0000 18.2849 0.0000
# 2 34.3835 132.8843 57.6327 0.0000 12.0682 0.0000
# 3 29.1953 57.6327 132.8533 0.0000 23.3719 0.0000
# 4 0.0000 0.0000 0.0000 40.5029 0.0000 3.6963
# 5 18.2849 12.0682 23.3719 0.0000 18.9087 0.0000
# 6 0.0000 0.0000 0.0000 3.6963 0.0000 27.2260
#
#
#
# Elastic Compliance Matrix: (Units=1/GPa)
#
#
# Indices 1 2 3 4 5 6 
#
# 1 0.014579 -0.002710 0.000189 0.000000 -0.012601 0.000000
# 2 -0.002710 0.009795 -0.003852 0.000000 0.001131 0.000000
# 3 0.000189 -0.003852 0.011190 0.000000 -0.011554 0.000000
# 4 0.000000 0.000000 0.000000 0.024999 0.000000 -0.003394
# 5 -0.012601 0.001131 -0.011554 0.000000 0.078631 0.000000
# 6 0.000000 0.000000 0.000000 -0.003394 0.000000 0.037190
#
#
# Mechanical properties :
#
#
# Convention : Reuss Voigt Hill
#
# Bulk Modulus (GPa) = 43.82905 66.50800 55.16853
# Shear Modulus (GPa) = 25.41479 32.99001 29.20240
#
# Velocity S-wave (km/s) = 3.72716 4.24645 3.99525
# Velocity P-wave (km/s) = 6.51761 7.77151 7.17201
#
# Compressibility (1/GPa) = 0.02281592
#
# Stress axis : x y z
#
# Youngs Moduli (GPa) = 68.59332 102.09738 89.36928
#
# Poissons Ratio (x) = 0.27664 -0.01685
# Poissons Ratio (y) = 0.18586 0.34429
# Poissons Ratio (z) = -0.01293 0.39332
#
# Static dielectric constant tensor:
#      x y z
#    x 3.550560 0.000000 0.142350 
#    y 0.000000 3.563040 0.000000 
#    z 0.142350 0.000000 3.463920 
# 
# 
# High freq. dielectric constant tensor:
#      x y z
#    x 1.709510 0.000000 0.011190 
#    y 0.000000 1.723980 0.000000 
#    z 0.011190 0.000000 1.725060 
# 
# From -- ./inp_files/67245.got.cif
#   From: 2010.06.25/outbox.ucp.g09.slc.cvg/sg11_34_cif.got.tgz:67245.got - 2010.06.28 13:43:20.
