data_PCOD8078637
_publ_section_title
;
Structure prediction by ZEFSAII (Michael W. Deem and Ramdas Pophale) SiO2 
 PCOD8078637
Probable space group: C 2/M
;
_chemical_formula_sum "Si O2"
_cell_formula_units_Z 64
_cell_length_a 16.684785
_cell_length_b 17.138059
_cell_length_c 14.217661
_cell_angle_alpha 90.000000
_cell_angle_beta 77.037547
_cell_angle_gamma 90.000000
_cell_volume 3961.867466
_symmetry_space_group_name_H-M "C 2/M"
_symmetry_group_IT_number 12
_symmetry_cell_setting 'monoclinic'
loop_
_space_group_symop_operation_xyz
x,y,z
-x,y,-z
-x,-y,-z
x,-y,z
1/2+x,1/2+y,z
1/2-x,1/2+y,-z
1/2-x,1/2-y,-z
1/2+x,1/2-y,z
loop_
_atom_site_type_symbol
_atom_site_label
_atom_site_fract_x
_atom_site_fract_y
_atom_site_fract_z
Si Si1 0.982184 0.907397 0.107270
Si Si2 0.665686 0.406712 0.406799
Si Si3 0.662070 0.089725 0.558384
Si Si4 0.075803 0.913713 0.256680
Si Si5 0.507055 0.182807 0.608230
Si Si6 0.172348 0.909020 0.735186
Si Si7 0.648295 0.910538 0.341724
Si Si8 0.931450 0.146799 0.395976
O O1 0.888539 0.887330 0.162361
O O2 0.048336 0.871402 0.165945
O O3 0.994062 0.000000 0.102067
O O4 0.000000 0.870777 0.000000
O O5 0.656483 0.500000 0.419531
O O6 0.755449 0.378250 0.413635
O O7 0.648395 0.377478 0.303327
O O8 0.596551 0.364894 0.489357
O O9 0.586573 0.136249 0.624298
O O10 0.669232 0.103308 0.445458
O O11 0.648468 0.000000 0.586858
O O12 0.994730 0.919316 0.344438
O O13 0.104541 0.000000 0.222231
O O14 0.500000 0.167661 0.500000
O O15 0.423723 0.147079 0.676119
O O16 0.518950 0.272551 0.630817
O O17 0.267359 0.891090 0.737313
O O18 0.148583 0.858090 0.649853
O O19 0.164575 0.000000 0.709611
O O20 0.620074 0.000000 0.332586
#
# Coordination Sequence:
#
# PCOD8078637 Si02
#       8
#     8   8   8   8   8   8   8   8
#     4   8  14  25  42  65  90 107 127 170 220 255
#     4  10  17  26  40  57  80 115 148 171 199 245
#     4   9  17  29  42  55  76 112 153 183 208 239
#     4   9  17  26  39  59  84 113 140 163 197 253
#     4  10  20  29  37  57  83 116 147 180 219 238
#     4   9  16  28  47  66  83 111 146 173 203 252
#     4   9  16  30  46  58  77 110 153 186 206 240
#     4  11  18  27  38  59  89 113 141 171 209 244
#
# _framework density 16.153998000000001
#
# number of rings (size 3 to 8) (size 9 to 14) (size 15 to 20)
#    0.000    2.625    1.250    3.375    0.000    3.000 
#    2.250    0.000    0.000    0.000    0.000    3.500 
#    0.000    0.125    0.000   11.625    0.000    0.000 
#
# Total GULP energy -396443.592387 kJ/mol
# GULP energy per Si atom -12388.862262 kJ/mol
# Density = 1.611723 g / cm^3
# Si number density = 16.153998 Si / 1000 Ang^3
#
#
#
# Elastic Constant Matrix: (Units=GPa)
#
#
# Indices 1 2 3 4 5 6 
#
# 1 105.7162 32.7304 41.7752 0.0000 0.4900 0.0000
# 2 32.7304 44.3274 13.5794 0.0000 -1.1000 0.0000
# 3 41.7752 13.5794 83.1046 0.0000 5.9189 0.0000
# 4 0.0000 0.0000 0.0000 5.6864 0.0000 -0.4243
# 5 0.4900 -1.1000 5.9189 0.0000 15.9352 0.0000
# 6 0.0000 0.0000 0.0000 -0.4243 0.0000 19.3393
#
#
#
# Elastic Compliance Matrix: (Units=1/GPa)
#
#
# Indices 1 2 3 4 5 6 
#
# 1 0.014559 -0.008900 -0.005946 0.000000 0.001146 0.000000
# 2 -0.008900 0.029345 -0.000498 0.000000 0.002484 0.000000
# 3 -0.005946 -0.000498 0.015503 0.000000 -0.005610 0.000000
# 4 0.000000 0.000000 0.000000 0.176146 0.000000 0.003865
# 5 0.001146 0.002484 -0.005610 0.000000 0.064974 0.000000
# 6 0.000000 0.000000 0.000000 0.003865 0.000000 0.051793
#
#
# Mechanical properties :
#
#
# Convention : Reuss Voigt Hill
#
# Bulk Modulus (GPa) = 34.82021 45.47980 40.15001
# Shear Modulus (GPa) = 12.73620 17.86306 15.29963
#
# Velocity S-wave (km/s) = 2.81093 3.32896 3.08086
# Velocity P-wave (km/s) = 5.66896 6.55675 6.12895
#
# Compressibility (1/GPa) = 0.02871895
#
# Stress axis : x y z
#
# Youngs Moduli (GPa) = 68.68520 34.07692 64.50404
#
# Poissons Ratio (x) = 0.30329 0.38354
# Poissons Ratio (y) = 0.61131 0.03213
# Poissons Ratio (z) = 0.40840 0.01697
#
# Static dielectric constant tensor:
#      x y z
#    x 3.341630 0.000000 0.080440 
#    y 0.000000 2.783650 0.000000 
#    z 0.080440 0.000000 2.887390 
# 
# 
# High freq. dielectric constant tensor:
#      x y z
#    x 1.632660 0.000000 0.004100 
#    y 0.000000 1.590940 0.000000 
#    z 0.004100 0.000000 1.564320 
# 
# From -- ./inp_files/215904.got.cif
#   From: 2010.06.25/outbox.cif.g09.slc.cpg/sg12_108_cif.got.tgz:215904.got - 2010.06.28 00:19:55.
