data_PCOD8078552
_publ_section_title
;
Structure prediction by ZEFSAII (Michael W. Deem and Ramdas Pophale) SiO2 
 PCOD8078552
Probable space group: C 2/M
;
_chemical_formula_sum "Si O2"
_cell_formula_units_Z 64
_cell_length_a 28.532604
_cell_length_b 9.116512
_cell_length_c 16.245384
_cell_angle_alpha 90.000000
_cell_angle_beta 81.926126
_cell_angle_gamma 90.000000
_cell_volume 4183.827874
_symmetry_space_group_name_H-M "C 2/M"
_symmetry_group_IT_number 12
_symmetry_cell_setting 'monoclinic'
loop_
_space_group_symop_operation_xyz
x,y,z
-x,y,-z
-x,-y,-z
x,-y,z
1/2+x,1/2+y,z
1/2-x,1/2+y,-z
1/2-x,1/2-y,-z
1/2+x,1/2-y,z
loop_
_atom_site_type_symbol
_atom_site_label
_atom_site_fract_x
_atom_site_fract_y
_atom_site_fract_z
Si Si1 0.774591 0.666164 0.612996
Si Si2 0.726544 0.172507 0.765831
Si Si3 0.977271 0.837513 0.915635
Si Si4 0.110194 0.829142 0.970385
Si Si5 0.939074 0.330833 0.164467
Si Si6 0.281663 0.672951 0.059738
Si Si7 0.178360 0.164863 0.534559
Si Si8 0.634531 0.167193 0.684583
O O1 0.788912 0.500000 0.632916
O O2 0.767186 0.762762 0.696501
O O3 0.816699 0.739547 0.549586
O O4 0.727229 0.666694 0.571408
O O5 0.730738 0.256733 0.850140
O O6 0.675209 0.206002 0.740410
O O7 0.735228 0.000000 0.776738
O O8 0.922795 0.784568 0.942652
O O9 0.007513 0.733009 0.848246
O O10 0.978779 0.000000 0.876626
O O11 0.000000 0.835877 0.000000
O O12 0.102094 0.000000 0.952369
O O13 0.095262 0.742809 0.893003
O O14 0.164171 0.794162 0.978734
O O15 0.942091 0.500000 0.140448
O O16 0.916229 0.306443 0.260100
O O17 0.271336 0.500000 0.065639
O O18 0.250000 0.750000 0.000000
O O19 0.137645 0.232245 0.602919
O O20 0.163780 0.000000 0.514034
O O21 0.640943 0.000000 0.653978
#
# Coordination Sequence:
#
# PCOD8078552 Si02
#       8
#     8   8   8   8   8   8   8   8
#     4   9  16  26  39  55  76 102 133 168 204 242
#     4  10  18  30  44  58  77 104 137 173 209 247
#     4   8  15  27  40  56  77 103 133 165 201 244
#     4   9  18  31  44  56  76 105 136 169 208 252
#     4  10  17  25  39  61  83 106 136 170 205 241
#     4  11  22  34  47  62  80 105 139 179 220 256
#     4   9  16  24  36  55  76 103 137 168 198 236
#     4   9  17  26  37  55  82 110 135 167 204 240
#
# _framework density 15.296996999999999
#
# number of rings (size 3 to 8) (size 9 to 14) (size 15 to 20)
#    0.000    2.625    1.250    2.625    0.000    7.250 
#    0.000    0.000    0.000    0.000    0.000    0.000 
#    0.000    0.000    0.000    1.125    0.000   21.750 
#
# Total GULP energy -396683.945755 kJ/mol
# GULP energy per Si atom -12396.373305 kJ/mol
# Density = 1.526218 g / cm^3
# Si number density = 15.296997 Si / 1000 Ang^3
#
#
#
# Elastic Constant Matrix: (Units=GPa)
#
#
# Indices 1 2 3 4 5 6 
#
# 1 66.7644 43.7584 47.4221 0.0000 -20.6935 0.0000
# 2 43.7584 102.8582 52.1458 0.0000 -18.9568 0.0000
# 3 47.4221 52.1458 80.7297 0.0000 -26.0551 0.0000
# 4 0.0000 0.0000 0.0000 28.2860 0.0000 -7.9318
# 5 -20.6935 -18.9568 -26.0551 0.0000 21.6642 0.0000
# 6 0.0000 0.0000 0.0000 -7.9318 0.0000 19.3763
#
#
#
# Elastic Compliance Matrix: (Units=1/GPa)
#
#
# Indices 1 2 3 4 5 6 
#
# 1 0.028958 -0.005159 -0.010146 0.000000 0.010944 0.000000
# 2 -0.005159 0.015447 -0.006824 0.000000 0.000382 0.000000
# 3 -0.010146 -0.006824 0.028929 0.000000 0.019129 0.000000
# 4 0.000000 0.000000 0.000000 0.039938 0.000000 0.016349
# 5 0.010944 0.000382 0.019129 0.000000 0.079953 0.000000
# 6 0.000000 0.000000 0.000000 0.016349 0.000000 0.058302
#
#
# Mechanical properties :
#
#
# Convention : Reuss Voigt Hill
#
# Bulk Modulus (GPa) = 34.39304 59.66721 47.03012
# Shear Modulus (GPa) = 16.36793 21.00036 18.68415
#
# Velocity S-wave (km/s) = 3.27465 3.70921 3.49868
# Velocity P-wave (km/s) = 6.06878 7.57858 6.86531
#
# Compressibility (1/GPa) = 0.02907565
#
# Stress axis : x y z
#
# Youngs Moduli (GPa) = 34.53296 64.73912 34.56766
#
# Poissons Ratio (x) = 0.33397 0.35073
# Poissons Ratio (y) = 0.17814 0.23589
# Poissons Ratio (z) = 0.35038 0.44178
#
# Static dielectric constant tensor:
#      x y z
#    x 2.912430 0.000000 -0.428840 
#    y 0.000000 3.098020 0.000000 
#    z -0.428840 0.000000 2.798200 
# 
# 
# High freq. dielectric constant tensor:
#      x y z
#    x 1.545320 0.000000 -0.048090 
#    y 0.000000 1.602230 0.000000 
#    z -0.048090 0.000000 1.560260 
# 
# From -- ./inp_files/248397.got.cif
#   From: 2010.06.25/outbox.cif.g09.slc.cpg/sg12_125_cif.got.tgz:248397.got - 2010.06.28 00:19:55.
