data_PCOD8078698
_publ_section_title
;
Structure prediction by ZEFSAII (Michael W. Deem and Ramdas Pophale) SiO2 
 PCOD8078698
Probable space group: C 2/M
;
_chemical_formula_sum "Si O2"
_cell_formula_units_Z 48
_cell_length_a 19.142906
_cell_length_b 8.732285
_cell_length_c 25.018500
_cell_angle_alpha 90.000000
_cell_angle_beta 38.652020
_cell_angle_gamma 90.000000
_cell_volume 2612.109005
_symmetry_space_group_name_H-M "C 2/M"
_symmetry_group_IT_number 12
_symmetry_cell_setting 'monoclinic'
loop_
_space_group_symop_operation_xyz
x,y,z
-x,y,-z
-x,-y,-z
x,-y,z
1/2+x,1/2+y,z
1/2-x,1/2+y,-z
1/2-x,1/2-y,-z
1/2+x,1/2-y,z
loop_
_atom_site_type_symbol
_atom_site_label
_atom_site_fract_x
_atom_site_fract_y
_atom_site_fract_z
Si Si1 0.506205 0.680966 0.577616
Si Si2 0.845489 0.680531 0.749645
Si Si3 0.281405 0.322801 0.897735
Si Si4 0.913736 0.820652 0.925596
Si Si5 0.157882 0.320098 0.411894
Si Si6 0.163341 0.179581 0.774820
O O1 0.510442 0.500000 0.576205
O O2 0.462876 0.743150 0.660607
O O3 0.629884 0.745563 0.486752
O O4 0.421875 0.743734 0.583948
O O5 0.857382 0.500000 0.735859
O O6 0.824709 0.723283 0.822876
O O7 0.742730 0.744350 0.774650
O O8 0.278925 0.500000 0.883095
O O9 0.365851 0.289297 0.895496
O O10 0.157038 0.269779 0.987872
O O11 0.039037 0.750685 0.852650
O O12 0.908912 0.000000 0.942394
O O13 0.134407 0.500000 0.428092
O O14 0.283856 0.285596 0.315676
O O15 0.151957 0.000000 0.789657
#
# Coordination Sequence:
#
# PCOD8078698 Si02
#       6
#     8   8   8   8   8   8
#     4  10  17  26  42  67  98 127 156 191 234 279
#     4  10  19  32  50  71  96 125 159 197 236 279
#     4  10  20  33  50  72  96 123 156 195 238 283
#     4   9  18  35  54  69  91 125 162 194 230 282
#     4   9  15  26  44  67  95 126 160 192 229 278
#     4   8  16  30  50  73  93 122 162 198 230 270
#
# _framework density 18.375955999999999
#
# number of rings (size 3 to 8) (size 9 to 14) (size 15 to 20)
#    0.000    2.667    0.000    5.000    0.000    1.333 
#    0.000    8.333    0.000    1.000    0.000    0.000 
#    0.000    0.000    0.000    0.000    0.000    0.000 
#
# Total GULP energy -297429.330479 kJ/mol
# GULP energy per Si atom -12392.888770 kJ/mol
# Density = 1.833413 g / cm^3
# Si number density = 18.375956 Si / 1000 Ang^3
#
#
#
# Elastic Constant Matrix: (Units=GPa)
#
#
# Indices 1 2 3 4 5 6 
#
# 1 20.2481 12.2131 18.4226 0.0000 10.6854 -0.0004
# 2 12.2131 94.0374 40.0431 0.0002 7.7666 -0.0013
# 3 18.4226 40.0431 121.2055 0.0000 21.1783 -0.0001
# 4 0.0000 0.0002 0.0000 33.4108 0.0001 7.1187
# 5 10.6854 7.7666 21.1783 0.0001 11.0632 0.0000
# 6 -0.0004 -0.0013 -0.0001 7.1187 0.0000 14.9898
#
#
#
# Elastic Compliance Matrix: (Units=1/GPa)
#
#
# Indices 1 2 3 4 5 6 
#
# 1 0.105016 -0.006955 0.004817 0.000000 -0.105768 0.000003
# 2 -0.006955 0.012848 -0.004185 0.000000 0.005709 0.000001
# 3 0.004817 -0.004185 0.013825 0.000000 -0.028179 0.000000
# 4 0.000000 0.000000 0.000000 0.033300 0.000000 -0.015814
# 5 -0.105768 0.005709 -0.028179 0.000000 0.242481 -0.000003
# 6 0.000003 0.000001 0.000000 -0.015814 -0.000003 0.074222
#
#
# Mechanical properties :
#
#
# Convention : Reuss Voigt Hill
#
# Bulk Modulus (GPa) = 8.40040 41.87209 25.13624
# Shear Modulus (GPa) = 9.36298 22.88022 16.12160
#
# Velocity S-wave (km/s) = 2.25971 3.53245 2.96517
# Velocity P-wave (km/s) = 3.37487 6.28279 5.04297
#
# Compressibility (1/GPa) = 0.11904201
#
# Stress axis : x y z
#
# Youngs Moduli (GPa) = 9.52240 77.83386 72.33419
#
# Poissons Ratio (x) = 0.54130 -0.34841
# Poissons Ratio (y) = 0.06622 0.30273
# Poissons Ratio (z) = -0.04587 0.32574
#
# Static dielectric constant tensor:
#      x y z
#    x 3.062920 0.000000 -0.182250 
#    y 0.000000 3.269340 0.000000 
#    z -0.182250 0.000000 4.299670 
# 
# 
# High freq. dielectric constant tensor:
#      x y z
#    x 1.655870 0.000000 -0.001440 
#    y 0.000000 1.706630 0.000000 
#    z -0.001440 0.000000 1.740810 
# 
# From -- ./inp_files/345397.got.cif
#   From: 2010.06.25/outbox.cif.g09.slc.cpg/sg12_173_cif.got.tgz:345397.got - 2010.06.28 00:19:55.
