data_PCOD8078951
_publ_section_title
;
Structure prediction by ZEFSAII (Michael W. Deem and Ramdas Pophale) SiO2 
 PCOD8078951
Probable space group: C 2/M
;
_chemical_formula_sum "Si O2"
_cell_formula_units_Z 64
_cell_length_a 27.669516
_cell_length_b 9.308730
_cell_length_c 16.999950
_cell_angle_alpha 90.000000
_cell_angle_beta 76.879725
_cell_angle_gamma 90.000000
_cell_volume 4264.342606
_symmetry_space_group_name_H-M "C 2/M"
_symmetry_group_IT_number 12
_symmetry_cell_setting 'monoclinic'
loop_
_space_group_symop_operation_xyz
x,y,z
-x,y,-z
-x,-y,-z
x,-y,z
1/2+x,1/2+y,z
1/2-x,1/2+y,-z
1/2-x,1/2-y,-z
1/2+x,1/2-y,z
loop_
_atom_site_type_symbol
_atom_site_label
_atom_site_fract_x
_atom_site_fract_y
_atom_site_fract_z
Si Si1 0.302290 0.169393 0.331050
Si Si2 0.134697 0.164925 0.331093
Si Si3 0.627295 0.162825 0.564056
Si Si4 0.301414 0.168699 0.993080
Si Si5 0.720110 0.833380 0.831300
Si Si6 0.291590 0.165595 0.595822
Si Si7 0.555502 0.668130 0.486523
Si Si8 0.827743 0.834221 0.844515
O O1 0.355539 0.201054 0.353095
O O2 0.303288 0.230356 0.240645
O O3 0.260033 0.251806 0.395524
O O4 0.291005 0.000000 0.340493
O O5 0.179129 0.265716 0.342101
O O6 0.083727 0.205985 0.394448
O O7 0.129834 0.185842 0.238212
O O8 0.149098 0.000000 0.344779
O O9 0.676372 0.186195 0.494168
O O10 0.582583 0.262853 0.551741
O O11 0.608033 0.000000 0.564577
O O12 0.340877 0.239645 0.917532
O O13 0.295753 0.000000 0.977440
O O14 0.250000 0.250000 0.000000
O O15 0.315948 0.194745 0.079771
O O16 0.775564 0.775519 0.828223
O O17 0.726136 0.000000 0.813319
O O18 0.281192 0.000000 0.618650
O O19 0.500000 0.730699 0.500000
O O20 0.554132 0.500000 0.503463
O O21 0.823342 0.000000 0.872366
#
# Coordination Sequence:
#
# PCOD8078951 Si02
#       8
#     8   8   8   8   8   8   8   8
#     4  10  17  28  42  55  78 113 145 166 193 239
#     4   9  16  28  44  59  79 109 140 167 202 249
#     4   9  19  30  42  60  81 107 137 168 203 243
#     4   9  16  25  36  52  75 105 138 171 202 232
#     4   8  14  24  37  52  73 105 141 165 190 232
#     4  10  18  26  36  58  85 106 136 173 204 230
#     4   9  18  32  49  65  81 104 134 169 210 253
#     4   9  15  25  39  55  75 104 139 169 199 236
#
# _framework density 15.008176000000001
#
# number of rings (size 3 to 8) (size 9 to 14) (size 15 to 20)
#    0.000    2.875    1.250    1.875    0.000    1.750 
#    0.000    0.625    0.000    0.000    0.000    0.000 
#    0.000    1.000    0.000   12.500    0.000    0.000 
#
# Total GULP energy -396470.675903 kJ/mol
# GULP energy per Si atom -12389.708622 kJ/mol
# Density = 1.497402 g / cm^3
# Si number density = 15.008176 Si / 1000 Ang^3
#
#
#
# Elastic Constant Matrix: (Units=GPa)
#
#
# Indices 1 2 3 4 5 6 
#
# 1 72.6905 30.6798 38.7003 0.0000 4.5817 0.0000
# 2 30.6798 54.4425 29.2104 0.0000 3.7941 0.0000
# 3 38.7003 29.2104 86.7602 0.0000 10.3378 0.0000
# 4 0.0000 0.0000 0.0000 20.6646 0.0000 1.7276
# 5 4.5817 3.7941 10.3378 0.0000 13.9549 0.0000
# 6 0.0000 0.0000 0.0000 1.7276 0.0000 15.3899
#
#
#
# Elastic Compliance Matrix: (Units=1/GPa)
#
#
# Indices 1 2 3 4 5 6 
#
# 1 0.020643 -0.008170 -0.006487 0.000000 0.000249 0.000000
# 2 -0.008170 0.025655 -0.004916 0.000000 -0.000651 0.000000
# 3 -0.006487 -0.004916 0.017178 0.000000 -0.009259 0.000000
# 4 0.000000 0.000000 0.000000 0.048850 0.000000 -0.005484
# 5 0.000249 -0.000651 -0.009259 0.000000 0.078614 0.000000
# 6 0.000000 0.000000 0.000000 -0.005484 0.000000 0.065593
#
#
# Mechanical properties :
#
#
# Convention : Reuss Voigt Hill
#
# Bulk Modulus (GPa) = 41.10043 45.67491 43.38767
# Shear Modulus (GPa) = 16.45882 17.68872 17.07377
#
# Velocity S-wave (km/s) = 3.31517 3.43681 3.37654
# Velocity P-wave (km/s) = 6.48835 6.80061 6.64631
#
# Compressibility (1/GPa) = 0.02433064
#
# Stress axis : x y z
#
# Youngs Moduli (GPa) = 48.44221 38.97926 58.21413
#
# Poissons Ratio (x) = 0.31845 0.37765
# Poissons Ratio (y) = 0.39576 0.28616
# Poissons Ratio (z) = 0.31425 0.19161
#
# Static dielectric constant tensor:
#      x y z
#    x 2.564020 0.000000 0.137460 
#    y 0.000000 2.910720 0.000000 
#    z 0.137460 0.000000 3.391770 
# 
# 
# High freq. dielectric constant tensor:
#      x y z
#    x 1.514080 0.000000 0.013060 
#    y 0.000000 1.570730 0.000000 
#    z 0.013060 0.000000 1.580550 
# 
# From -- ./inp_files/291611.got.cif
#   From: 2010.06.25/outbox.cif.g09.slc.cpg/sg12_146_cif.got.tgz:291611.got - 2010.06.28 00:19:55.
