data_PCOD8078705
_publ_section_title
;
Structure prediction by ZEFSAII (Michael W. Deem and Ramdas Pophale) SiO2 
 PCOD8078705
Probable space group: C 2/M
;
_chemical_formula_sum "Si O2"
_cell_formula_units_Z 52
_cell_length_a 17.214504
_cell_length_b 17.002557
_cell_length_c 17.577660
_cell_angle_alpha 90.000000
_cell_angle_beta 142.684875
_cell_angle_gamma 90.000000
_cell_volume 3118.778824
_symmetry_space_group_name_H-M "C 2/M"
_symmetry_group_IT_number 12
_symmetry_cell_setting 'monoclinic'
loop_
_space_group_symop_operation_xyz
x,y,z
-x,y,-z
-x,-y,-z
x,-y,z
1/2+x,1/2+y,z
1/2-x,1/2+y,-z
1/2-x,1/2-y,-z
1/2+x,1/2-y,z
loop_
_atom_site_type_symbol
_atom_site_label
_atom_site_fract_x
_atom_site_fract_y
_atom_site_fract_z
Si Si1 0.409037 0.087181 0.501339
Si Si2 0.108788 0.585764 0.149002
Si Si3 0.388348 0.092737 0.083088
Si Si4 0.886238 0.339580 0.247941
Si Si5 0.000000 0.805517 0.000000
Si Si6 0.701531 0.408716 0.227140
Si Si7 0.720173 0.804366 0.127306
O O1 0.500000 0.081743 0.500000
O O2 0.467290 0.147793 0.608666
O O3 0.270930 0.115065 0.361026
O O4 0.398386 0.000000 0.530310
O O5 0.174625 0.500000 0.207966
O O6 0.214992 0.649402 0.204930
O O7 0.035138 0.608071 0.169560
O O8 0.000000 0.582895 0.000000
O O9 0.371154 0.130942 0.151097
O O10 0.357503 0.000000 0.060038
O O11 0.285732 0.134541 0.947083
O O12 0.792479 0.392004 0.226077
O O13 0.850007 0.247034 0.225119
O O14 0.927848 0.858693 0.881158
O O15 0.902479 0.753155 0.972999
O O16 0.665865 0.500000 0.199711
#
# Coordination Sequence:
#
# PCOD8078705 Si02
#       7
#     8   8   8   8   4   8   8
#     4   8  14  27  42  59  85 116 151 182 210 256
#     4   8  14  26  43  58  84 120 152 180 216 264
#     4  10  17  27  43  63  92 119 150 188 222 260
#     4  10  18  25  43  68  90 113 143 189 228 254
#     4  10  17  26  43  64  88 114 144 178 223 270
#     4   9  17  28  43  63  89 118 147 179 215 269
#     4  10  17  28  40  64  94 118 141 182 227 266
#
# _framework density 16.673193000000001
#
# number of rings (size 3 to 8) (size 9 to 14) (size 15 to 20)
#    0.000    2.769    2.308    4.385    0.000    0.000 
#    0.000    0.000    0.000    0.923    0.000    0.000 
#    0.000   66.462    0.000    0.000    0.000    0.000 
#
# Total GULP energy -322158.506281 kJ/mol
# GULP energy per Si atom -12390.711780 kJ/mol
# Density = 1.663524 g / cm^3
# Si number density = 16.673193 Si / 1000 Ang^3
#
#
#
# Elastic Constant Matrix: (Units=GPa)
#
#
# Indices 1 2 3 4 5 6 
#
# 1 48.1989 32.9945 17.2548 -0.0001 -9.6302 -0.0001
# 2 32.9945 116.4773 46.4580 0.0000 0.8205 0.0000
# 3 17.2548 46.4580 71.3665 -0.0002 6.4555 -0.0001
# 4 -0.0001 0.0000 -0.0002 16.7540 -0.0001 0.2989
# 5 -9.6302 0.8205 6.4555 -0.0001 12.7346 -0.0001
# 6 -0.0001 0.0000 -0.0001 0.2989 -0.0001 23.6969
#
#
#
# Elastic Compliance Matrix: (Units=1/GPa)
#
#
# Indices 1 2 3 4 5 6 
#
# 1 0.033735 -0.007375 -0.005980 0.000000 0.029017 0.000000
# 2 -0.007375 0.013337 -0.006620 0.000000 -0.003081 0.000000
# 3 -0.005980 -0.006620 0.021106 0.000000 -0.014795 0.000000
# 4 0.000000 0.000000 0.000000 0.059701 0.000001 -0.000753
# 5 0.029017 -0.003081 -0.014795 0.000001 0.108168 0.000000
# 6 0.000000 0.000000 0.000000 -0.000753 0.000000 0.042209
#
#
# Mechanical properties :
#
#
# Convention : Reuss Voigt Hill
#
# Bulk Modulus (GPa) = 35.42763 47.71749 41.57256
# Shear Modulus (GPa) = 15.26186 19.92613 17.59400
#
# Velocity S-wave (km/s) = 3.02876 3.46077 3.25195
# Velocity P-wave (km/s) = 5.79013 6.68212 6.25205
#
# Compressibility (1/GPa) = 0.02822656
#
# Stress axis : x y z
#
# Youngs Moduli (GPa) = 29.64320 74.98098 47.38054
#
# Poissons Ratio (x) = 0.55300 0.28333
# Poissons Ratio (y) = 0.21863 0.31366
# Poissons Ratio (z) = 0.17726 0.49638
#
# Static dielectric constant tensor:
#      x y z
#    x 2.980730 0.000000 -0.053800 
#    y 0.000000 3.430670 0.000000 
#    z -0.053800 0.000000 3.200890 
# 
# 
# High freq. dielectric constant tensor:
#      x y z
#    x 1.609280 0.000000 -0.014510 
#    y 0.000000 1.652180 0.000000 
#    z -0.014510 0.000000 1.606510 
# 
# From -- ./inp_files/278445.got.cif
#   From: 2010.06.25/outbox.cif.g09.slc.cpg/sg12_140_cif.got.tgz:278445.got - 2010.06.28 00:19:55.
