data_PCOD8078724
_publ_section_title
;
Structure prediction by ZEFSAII (Michael W. Deem and Ramdas Pophale) SiO2 
 PCOD8078724
Probable space group: C 2/M
;
_chemical_formula_sum "Si O2"
_cell_formula_units_Z 48
_cell_length_a 30.422127
_cell_length_b 9.133741
_cell_length_c 12.053437
_cell_angle_alpha 90.000000
_cell_angle_beta 61.836766
_cell_angle_gamma 90.000000
_cell_volume 2952.731475
_symmetry_space_group_name_H-M "C 2/M"
_symmetry_group_IT_number 12
_symmetry_cell_setting 'monoclinic'
loop_
_space_group_symop_operation_xyz
x,y,z
-x,y,-z
-x,-y,-z
x,-y,z
1/2+x,1/2+y,z
1/2-x,1/2+y,-z
1/2-x,1/2-y,-z
1/2+x,1/2-y,z
loop_
_atom_site_type_symbol
_atom_site_label
_atom_site_fract_x
_atom_site_fract_y
_atom_site_fract_z
Si Si1 0.468718 0.330296 0.647139
Si Si2 0.263958 0.833144 0.874780
Si Si3 0.131217 0.672395 0.194152
Si Si4 0.160411 0.828784 0.931367
Si Si5 0.580858 0.168362 0.905966
Si Si6 0.504039 0.169056 0.814795
O O1 0.500000 0.303101 0.500000
O O2 0.457168 0.500000 0.681105
O O3 0.416999 0.244492 0.693974
O O4 0.501076 0.270239 0.710886
O O5 0.321903 0.797281 0.776419
O O6 0.220108 0.800664 0.836839
O O7 0.260970 0.000000 0.913832
O O8 0.250000 0.750000 0.000000
O O9 0.121442 0.500000 0.188688
O O10 0.142263 0.742855 0.061755
O O11 0.130059 0.767674 0.861971
O O12 0.148947 0.000000 0.960712
O O13 0.553444 0.213099 0.824650
O O14 0.597179 0.000000 0.881655
O O15 0.544339 0.196208 0.052611
O O16 0.506674 0.000000 0.775384
#
# Coordination Sequence:
#
# PCOD8078724 Si02
#       6
#     8   8   8   8   8   8
#     4  11  23  35  47  67  94 121 154 196 235 270
#     4   8  16  27  40  62  91 120 150 183 221 269
#     4  10  18  30  46  63  89 124 158 190 223 266
#     4  10  17  26  43  69  97 123 149 181 228 277
#     4   9  17  29  46  69  95 122 151 187 227 270
#     4   9  18  32  48  66  91 122 156 190 225 271
#
# _framework density 16.256133999999999
#
# number of rings (size 3 to 8) (size 9 to 14) (size 15 to 20)
#    0.000    2.500    1.667    2.500    0.000    3.333 
#    0.000    1.667    0.000    0.000    0.000    1.167 
#    0.000    0.000    0.000    0.000    0.000    0.000 
#
# Total GULP energy -297354.472100 kJ/mol
# GULP energy per Si atom -12389.769671 kJ/mol
# Density = 1.621913 g / cm^3
# Si number density = 16.256134 Si / 1000 Ang^3
#
#
#
# Elastic Constant Matrix: (Units=GPa)
#
#
# Indices 1 2 3 4 5 6 
#
# 1 177.0140 75.7486 43.3263 0.0000 -1.2043 0.0000
# 2 75.7486 94.0282 39.0197 0.0000 -0.2787 0.0000
# 3 43.3263 39.0197 49.4887 0.0000 3.7257 0.0000
# 4 0.0000 0.0000 0.0000 18.8654 0.0000 2.2525
# 5 -1.2043 -0.2787 3.7257 0.0000 15.4900 0.0000
# 6 0.0000 0.0000 0.0000 2.2525 0.0000 29.2126
#
#
#
# Elastic Compliance Matrix: (Units=1/GPa)
#
#
# Indices 1 2 3 4 5 6 
#
# 1 0.008979 -0.005831 -0.003369 0.000000 0.001403 0.000000
# 2 -0.005831 0.019766 -0.010665 0.000000 0.002467 0.000000
# 3 -0.003369 -0.010665 0.032182 0.000000 -0.008194 0.000000
# 4 0.000000 0.000000 0.000000 0.053500 0.000000 -0.004125
# 5 0.001403 0.002467 -0.008194 0.000000 0.066682 0.000000
# 6 0.000000 0.000000 0.000000 -0.004125 0.000000 0.034550
#
#
# Mechanical properties :
#
#
# Convention : Reuss Voigt Hill
#
# Bulk Modulus (GPa) = 47.17827 70.74668 58.96247
# Shear Modulus (GPa) = 19.05103 23.54270 21.29687
#
# Velocity S-wave (km/s) = 3.42706 3.80970 3.62343
# Velocity P-wave (km/s) = 6.68913 7.93512 7.33862
#
# Compressibility (1/GPa) = 0.02119620
#
# Stress axis : x y z
#
# Youngs Moduli (GPa) = 111.37635 50.59273 31.07341
#
# Poissons Ratio (x) = 0.29501 0.10468
# Poissons Ratio (y) = 0.64943 0.33141
# Poissons Ratio (z) = 0.37519 0.53958
#
# Static dielectric constant tensor:
#      x y z
#    x 3.843340 0.000000 -0.065880 
#    y 0.000000 3.066070 0.000000 
#    z -0.065880 0.000000 2.524710 
# 
# 
# High freq. dielectric constant tensor:
#      x y z
#    x 1.652350 0.000000 -0.000790 
#    y 0.000000 1.637020 0.000000 
#    z -0.000790 0.000000 1.553690 
# 
# From -- ./inp_files/179217.got.cif
#   From: 2010.06.25/outbox.cif.g09.slc.cpg/sg12_90_cif.got.tgz:179217.got - 2010.06.28 00:19:55.
