data_PCOD8078692
_publ_section_title
;
Structure prediction by ZEFSAII (Michael W. Deem and Ramdas Pophale) SiO2 
 PCOD8078692
Probable space group: C 2/M
;
_chemical_formula_sum "Si O2"
_cell_formula_units_Z 56
_cell_length_a 19.157112
_cell_length_b 8.813201
_cell_length_c 18.316021
_cell_angle_alpha 90.000000
_cell_angle_beta 90.565722
_cell_angle_gamma 90.000000
_cell_volume 3092.243434
_symmetry_space_group_name_H-M "C 2/M"
_symmetry_group_IT_number 12
_symmetry_cell_setting 'monoclinic'
loop_
_space_group_symop_operation_xyz
x,y,z
-x,y,-z
-x,-y,-z
x,-y,z
1/2+x,1/2+y,z
1/2-x,1/2+y,-z
1/2-x,1/2-y,-z
1/2+x,1/2-y,z
loop_
_atom_site_type_symbol
_atom_site_label
_atom_site_fract_x
_atom_site_fract_y
_atom_site_fract_z
Si Si1 0.094299 0.321545 0.714608
Si Si2 0.572939 0.821979 0.429248
Si Si3 0.682582 0.325741 0.837932
Si Si4 0.843956 0.678362 0.859439
Si Si5 0.675405 0.325042 0.998783
Si Si6 0.062817 0.321144 0.269762
Si Si7 0.421078 0.320795 0.429631
O O1 0.094253 0.500000 0.699094
O O2 0.145980 0.284839 0.780805
O O3 0.121953 0.234085 0.641958
O O4 0.016745 0.260048 0.734040
O O5 0.600252 0.781421 0.347859
O O6 0.614749 0.729417 0.493285
O O7 0.492533 0.772695 0.428351
O O8 0.579356 0.000000 0.445185
O O9 0.675210 0.500000 0.812310
O O10 0.763752 0.279023 0.842790
O O11 0.644857 0.302963 0.916629
O O12 0.853711 0.500000 0.865476
O O13 0.870102 0.748570 0.937120
O O14 0.891572 0.749453 0.795423
O O15 0.684107 0.500000 0.017703
O O16 0.750000 0.250000 0.000000
O O17 0.060279 0.500000 0.260109
O O18 0.433145 0.500000 0.428486
#
# Coordination Sequence:
#
# PCOD8078692 Si02
#       7
#     8   8   8   8   8   8   8
#     4  10  19  31  48  69  94 123 156 192 230 276
#     4   9  15  26  44  66  92 121 157 193 226 270
#     4   9  18  31  48  69  93 120 150 189 234 275
#     4   9  17  32  52  71  93 121 155 192 230 274
#     4   9  17  30  48  70  93 120 156 193 229 270
#     4   8  16  30  48  70  94 122 154 190 231 271
#     4  10  17  26  42  65  93 122 154 191 232 273
#
# _framework density 18.109829999999999
#
# number of rings (size 3 to 8) (size 9 to 14) (size 15 to 20)
#    0.000    2.857    0.000    5.143    0.000    2.857 
#    0.000    5.000    0.000    5.143    0.000    0.000 
#    0.000    0.000    0.000    0.000    0.000    0.000 
#
# Total GULP energy -346900.565337 kJ/mol
# GULP energy per Si atom -12389.305905 kJ/mol
# Density = 1.806861 g / cm^3
# Si number density = 18.109830 Si / 1000 Ang^3
#
#
#
# Elastic Constant Matrix: (Units=GPa)
#
#
# Indices 1 2 3 4 5 6 
#
# 1 20.0838 6.8695 4.7161 0.0000 5.4179 0.0000
# 2 6.8695 56.7181 28.0634 0.0000 6.6529 0.0000
# 3 4.7161 28.0634 84.5392 0.0000 14.0761 0.0000
# 4 0.0000 0.0000 0.0000 36.5175 0.0000 3.7723
# 5 5.4179 6.6529 14.0761 0.0000 16.4322 0.0000
# 6 0.0000 0.0000 0.0000 3.7723 0.0000 12.8815
#
#
#
# Elastic Compliance Matrix: (Units=1/GPa)
#
#
# Indices 1 2 3 4 5 6 
#
# 1 0.056060 -0.005535 0.001650 0.000000 -0.017656 0.000000
# 2 -0.005535 0.021767 -0.006711 0.000000 -0.001239 0.000000
# 3 0.001650 -0.006711 0.015866 0.000000 -0.011418 0.000000
# 4 0.000000 0.000000 0.000000 0.028238 0.000000 -0.008270
# 5 -0.017656 -0.001239 -0.011418 0.000000 0.076960 0.000000
# 6 0.000000 0.000000 0.000000 -0.008270 0.000000 0.080053
#
#
# Mechanical properties :
#
#
# Convention : Reuss Voigt Hill
#
# Bulk Modulus (GPa) = 13.79293 26.73769 20.26531
# Shear Modulus (GPa) = 15.41771 21.27905 18.34838
#
# Velocity S-wave (km/s) = 2.92095 3.43155 3.18649
# Velocity P-wave (km/s) = 4.35990 5.52240 4.97522
#
# Compressibility (1/GPa) = 0.07250091
#
# Stress axis : x y z
#
# Youngs Moduli (GPa) = 17.83802 45.94078 63.02971
#
# Poissons Ratio (x) = 0.25429 -0.10399
# Poissons Ratio (y) = 0.09874 0.42297
# Poissons Ratio (z) = -0.02943 0.30829
#
# Static dielectric constant tensor:
#      x y z
#    x 2.964770 0.000000 -0.331420 
#    y 0.000000 3.234550 0.000000 
#    z -0.331420 0.000000 4.402560 
# 
# 
# High freq. dielectric constant tensor:
#      x y z
#    x 1.632980 0.000000 -0.009940 
#    y 0.000000 1.695500 0.000000 
#    z -0.009940 0.000000 1.731440 
# 
# From -- ./inp_files/280322.got.cif
#   From: 2010.06.25/outbox.cif.g09.slc.cpg/sg12_141_cif.got.tgz:280322.got - 2010.06.28 00:19:55.
