data_PCOD8078784
_publ_section_title
;
Structure prediction by ZEFSAII (Michael W. Deem and Ramdas Pophale) SiO2 
 PCOD8078784
Probable space group: C 2/M
;
_chemical_formula_sum "Si O2"
_cell_formula_units_Z 64
_cell_length_a 30.309782
_cell_length_b 12.281949
_cell_length_c 12.659029
_cell_angle_alpha 90.000000
_cell_angle_beta 112.906466
_cell_angle_gamma 90.000000
_cell_volume 4340.870596
_symmetry_space_group_name_H-M "C 2/M"
_symmetry_group_IT_number 12
_symmetry_cell_setting 'monoclinic'
loop_
_space_group_symop_operation_xyz
x,y,z
-x,y,-z
-x,-y,-z
x,-y,z
1/2+x,1/2+y,z
1/2-x,1/2+y,-z
1/2-x,1/2-y,-z
1/2+x,1/2-y,z
loop_
_atom_site_type_symbol
_atom_site_label
_atom_site_fract_x
_atom_site_fract_y
_atom_site_fract_z
Si Si1 0.178238 0.261965 0.373941
Si Si2 0.738118 0.232230 0.834856
Si Si3 0.891292 0.800272 0.984627
Si Si4 0.593800 0.374562 0.235929
Si Si5 0.692081 0.377608 0.949925
Si Si6 0.325484 0.126061 0.844604
Si Si7 0.510511 0.379881 0.887716
Si Si8 0.769501 0.629741 0.391890
O O1 0.128251 0.198144 0.341152
O O2 0.173220 0.353531 0.279421
O O3 0.189940 0.322942 0.493230
O O4 0.217701 0.172044 0.379667
O O5 0.694516 0.292557 0.854473
O O6 0.777084 0.324298 0.845574
O O7 0.717678 0.173054 0.712494
O O8 0.762319 0.141267 0.931303
O O9 0.891635 0.863615 0.873516
O O10 0.871747 0.678747 0.945519
O O11 0.856984 0.863690 0.032364
O O12 0.944503 0.798236 0.086566
O O13 0.599353 0.500000 0.273289
O O14 0.539078 0.335069 0.209058
O O15 0.694507 0.500000 0.908148
O O16 0.326923 0.000000 0.871563
O O17 0.523418 0.500000 0.853856
O O18 0.500000 0.394026 0.000000
O O19 0.769424 0.500000 0.394497
#
# Coordination Sequence:
#
# PCOD8078784 Si02
#       8
#     8   8   8   8   8   8   8   8
#     4   9  18  27  42  64  80 104 137 164 199 242
#     4   9  19  28  39  59  78 108 143 166 197 237
#     4   9  16  24  40  62  82 109 140 163 195 242
#     4   9  15  25  41  62  88 110 130 160 199 244
#     4  10  17  27  41  58  83 107 133 168 201 235
#     4   9  16  27  39  54  82 112 136 165 200 235
#     4   8  13  22  38  60  84 107 130 161 200 239
#     4  10  18  30  44  59  83 108 136 170 199 235
#
# _framework density 14.743586000000001
#
# number of rings (size 3 to 8) (size 9 to 14) (size 15 to 20)
#    0.000    2.875    0.000    4.125    0.000    0.000 
#    0.000    2.500    0.000   10.125    0.000    0.875 
#    0.000    4.000    0.000    0.000    0.000    0.000 
#
# Total GULP energy -396632.030871 kJ/mol
# GULP energy per Si atom -12394.750965 kJ/mol
# Density = 1.471003 g / cm^3
# Si number density = 14.743586 Si / 1000 Ang^3
#
#
#
# Elastic Constant Matrix: (Units=GPa)
#
#
# Indices 1 2 3 4 5 6 
#
# 1 72.4047 33.5307 31.2739 0.0000 13.4169 0.0000
# 2 33.5307 95.7522 35.6701 0.0000 7.8046 0.0000
# 3 31.2739 35.6701 67.2838 0.0000 4.9094 0.0000
# 4 0.0000 0.0000 0.0000 15.0355 0.0000 1.7259
# 5 13.4169 7.8046 4.9094 0.0000 22.6977 0.0000
# 6 0.0000 0.0000 0.0000 1.7259 0.0000 14.6805
#
#
#
# Elastic Compliance Matrix: (Units=1/GPa)
#
#
# Indices 1 2 3 4 5 6 
#
# 1 0.020164 -0.003828 -0.006675 0.000000 -0.009159 0.000000
# 2 -0.003828 0.013949 -0.005518 0.000000 -0.001340 0.000000
# 3 -0.006675 -0.005518 0.020792 0.000000 0.001346 0.000000
# 4 0.000000 0.000000 0.000000 0.067419 0.000000 -0.007926
# 5 -0.009159 -0.001340 0.001346 0.000000 0.049641 0.000000
# 6 0.000000 0.000000 0.000000 -0.007926 0.000000 0.069049
#
#
# Mechanical properties :
#
#
# Convention : Reuss Voigt Hill
#
# Bulk Modulus (GPa) = 43.73718 48.48779 46.11248
# Shear Modulus (GPa) = 17.81404 19.48049 18.64726
#
# Velocity S-wave (km/s) = 3.47977 3.63889 3.56022
# Velocity P-wave (km/s) = 6.77309 7.11436 6.94582
#
# Compressibility (1/GPa) = 0.02286384
#
# Stress axis : x y z
#
# Youngs Moduli (GPa) = 49.59244 71.69014 48.09554
#
# Poissons Ratio (x) = 0.27444 0.32103
# Poissons Ratio (y) = 0.18985 0.26538
# Poissons Ratio (z) = 0.33102 0.39558
#
# Static dielectric constant tensor:
#      x y z
#    x 2.969850 0.000000 0.176970 
#    y 0.000000 2.739260 0.000000 
#    z 0.176970 0.000000 2.793920 
# 
# 
# High freq. dielectric constant tensor:
#      x y z
#    x 1.548650 0.000000 0.007390 
#    y 0.000000 1.558660 0.000000 
#    z 0.007390 0.000000 1.536920 
# 
# From -- ./inp_files/188368.got.cif
#   From: 2010.06.25/outbox.cif.g09.slc.cpg/sg12_95_cif.got.tgz:188368.got - 2010.06.28 00:19:55.
