data_PCOD8078933
_publ_section_title
;
Structure prediction by ZEFSAII (Michael W. Deem and Ramdas Pophale) SiO2 
 PCOD8078933
Probable space group: C 2/M
;
_chemical_formula_sum "Si O2"
_cell_formula_units_Z 64
_cell_length_a 28.962475
_cell_length_b 13.255349
_cell_length_c 9.964552
_cell_angle_alpha 90.000000
_cell_angle_beta 93.004195
_cell_angle_gamma 90.000000
_cell_volume 3820.211039
_symmetry_space_group_name_H-M "C 2/M"
_symmetry_group_IT_number 12
_symmetry_cell_setting 'monoclinic'
loop_
_space_group_symop_operation_xyz
x,y,z
-x,y,-z
-x,-y,-z
x,-y,z
1/2+x,1/2+y,z
1/2-x,1/2+y,-z
1/2-x,1/2-y,-z
1/2+x,1/2-y,z
loop_
_atom_site_type_symbol
_atom_site_label
_atom_site_fract_x
_atom_site_fract_y
_atom_site_fract_z
Si Si1 0.582873 0.382726 0.821375
Si Si2 0.763594 0.883314 0.113997
Si Si3 0.203222 0.766132 0.416121
Si Si4 0.664533 0.883529 0.216315
Si Si5 0.698983 0.615258 0.157690
Si Si6 0.832797 0.882942 0.350308
Si Si7 0.894642 0.210571 0.899199
Si Si8 0.516276 0.611132 0.155388
O O1 0.586680 0.500000 0.871857
O O2 0.616264 0.364128 0.701291
O O3 0.529882 0.358980 0.767082
O O4 0.596837 0.305685 0.941705
O O5 0.709201 0.870140 0.128412
O O6 0.793860 0.838732 0.241957
O O7 0.778154 0.000000 0.106935
O O8 0.778344 0.834869 0.973018
O O9 0.250000 0.750000 0.500000
O O10 0.177159 0.663716 0.364085
O O11 0.219344 0.828016 0.288370
O O12 0.168384 0.825759 0.508053
O O13 0.622492 0.824007 0.137807
O O14 0.650411 0.000000 0.232710
O O15 0.712841 0.500000 0.173229
O O16 0.643885 0.630048 0.150817
O O17 0.823218 0.000000 0.378019
O O18 0.941461 0.189431 0.820786
O O19 0.533763 0.500000 0.201344
O O20 0.500000 0.609020 0.000000
#
# Coordination Sequence:
#
# PCOD8078933 Si02
#       8
#     8   8   8   8   8   8   8   8
#     4   9  16  28  50  79 108 132 150 185 250 313
#     4   9  17  31  50  69  97 130 158 195 244 293
#     4  11  22  32  47  70  94 134 173 204 242 287
#     4  10  22  36  48  64  94 135 175 214 246 275
#     4  10  19  30  47  73  99 124 159 199 242 296
#     4  10  18  31  51  75 105 132 156 193 244 303
#     4  10  17  27  49  74  97 128 165 201 237 295
#     4   8  14  25  45  76 108 127 147 189 248 307
#
# _framework density 16.753001000000001
#
# number of rings (size 3 to 8) (size 9 to 14) (size 15 to 20)
#    0.000    2.375    2.500    2.250    0.000    3.500 
#    0.000    0.000    0.000    7.125    0.000   12.250 
#    0.000    0.000    0.000    0.000    0.000    0.000 
#
# Total GULP energy -396591.422427 kJ/mol
# GULP energy per Si atom -12393.481951 kJ/mol
# Density = 1.671487 g / cm^3
# Si number density = 16.753001 Si / 1000 Ang^3
#
#
#
# Elastic Constant Matrix: (Units=GPa)
#
#
# Indices 1 2 3 4 5 6 
#
# 1 108.5605 46.0687 34.7709 0.0000 -3.6500 0.0000
# 2 46.0687 97.5360 45.2915 0.0000 -1.7365 0.0000
# 3 34.7709 45.2915 92.3397 0.0000 -8.1370 0.0000
# 4 0.0000 0.0000 0.0000 20.5785 0.0000 5.3216
# 5 -3.6500 -1.7365 -8.1370 0.0000 18.1043 0.0000
# 6 0.0000 0.0000 0.0000 5.3216 0.0000 26.3989
#
#
#
# Elastic Compliance Matrix: (Units=1/GPa)
#
#
# Indices 1 2 3 4 5 6 
#
# 1 0.011881 -0.004606 -0.002126 0.000000 0.000998 0.000000
# 2 -0.004606 0.015114 -0.005865 0.000000 -0.002115 0.000000
# 3 -0.002126 -0.005865 0.015014 0.000000 0.005757 0.000000
# 4 0.000000 0.000000 0.000000 0.051267 0.000000 -0.010335
# 5 0.000998 -0.002115 0.005757 0.000000 0.057821 0.000000
# 6 0.000000 0.000000 0.000000 -0.010335 0.000000 0.039964
#
#
# Mechanical properties :
#
#
# Convention : Reuss Voigt Hill
#
# Bulk Modulus (GPa) = 59.47643 61.18870 60.33256
# Shear Modulus (GPa) = 22.53654 24.50334 23.51994
#
# Velocity S-wave (km/s) = 3.67171 3.82858 3.75096
# Velocity P-wave (km/s) = 7.31808 7.49315 7.40613
#
# Compressibility (1/GPa) = 0.01681338
#
# Stress axis : x y z
#
# Youngs Moduli (GPa) = 84.16891 66.16286 66.60273
#
# Poissons Ratio (x) = 0.30477 0.14163
# Poissons Ratio (y) = 0.38772 0.39063
# Poissons Ratio (z) = 0.17898 0.38805
#
# Static dielectric constant tensor:
#      x y z
#    x 3.358780 0.000000 -0.140650 
#    y 0.000000 3.063930 0.000000 
#    z -0.140650 0.000000 3.193620 
# 
# 
# High freq. dielectric constant tensor:
#      x y z
#    x 1.644260 0.000000 -0.007850 
#    y 0.000000 1.622820 0.000000 
#    z -0.007850 0.000000 1.627550 
# 
# From -- ./inp_files/111271.got.cif
#   From: 2010.06.25/outbox.cif.g09.slc.cpg/sg12_56_cif.got.tgz:111271.got - 2010.06.28 00:19:55.
