data_PCOD8078197
_publ_section_title
;
Structure prediction by ZEFSAII (Michael W. Deem and Ramdas Pophale) SiO2 
 PCOD8078197
Probable space group: C 2/M
;
_chemical_formula_sum "Si O2"
_cell_formula_units_Z 56
_cell_length_a 5.260787
_cell_length_b 24.737027
_cell_length_c 18.509144
_cell_angle_alpha 90.000000
_cell_angle_beta 111.082266
_cell_angle_gamma 90.000000
_cell_volume 2247.482999
_symmetry_space_group_name_H-M "C 2/M"
_symmetry_group_IT_number 12
_symmetry_cell_setting 'monoclinic'
loop_
_space_group_symop_operation_xyz
x,y,z
-x,y,-z
-x,-y,-z
x,-y,z
1/2+x,1/2+y,z
1/2-x,1/2+y,-z
1/2-x,1/2-y,-z
1/2+x,1/2-y,z
loop_
_atom_site_type_symbol
_atom_site_label
_atom_site_fract_x
_atom_site_fract_y
_atom_site_fract_z
Si Si1 0.378764 0.062565 0.690384
Si Si2 0.512155 0.561966 0.783881
Si Si3 0.222458 0.183968 0.752096
Si Si4 0.861540 0.694158 0.313149
Si Si5 0.813232 0.363811 0.547932
Si Si6 0.308971 0.564131 0.043728
Si Si7 0.355581 0.216223 0.917148
O O1 0.203062 0.089195 0.740155
O O2 0.303576 0.088745 0.605951
O O3 0.696791 0.068045 0.736418
O O4 0.290207 0.000000 0.675519
O O5 0.604310 0.500000 0.796063
O O6 0.586792 0.588252 0.869139
O O7 0.207583 0.246019 0.720489
O O8 0.919228 0.159928 0.710582
O O9 0.457082 0.158766 0.725339
O O10 0.311042 0.177982 0.844047
O O11 0.030628 0.690120 0.405207
O O12 0.500000 0.348090 0.500000
O O13 0.000000 0.383631 0.500000
O O14 0.336440 0.500000 0.045938
O O15 0.500000 0.588733 0.000000
O O16 0.000000 0.582752 0.000000
O O17 0.558563 0.263879 0.912324
O O18 0.500000 0.185771 0.000000
#
# Coordination Sequence:
#
# PCOD8078197 Si02
#       7
#     8   8   8   8   8   8   8
#     4  10  21  38  60  81 105 141 181 231 292 353
#     4   9  17  31  52  80 108 136 178 219 260 327
#     4  10  17  35  55  83 115 154 193 214 257 328
#     4  10  20  35  57  79 109 146 182 223 265 326
#     4  12  26  43  59  83 110 134 179 239 295 352
#     4   9  15  23  40  72 111 141 167 209 258 298
#     4  10  16  25  46  82 120 148 186 233 261 289
#
# _framework density 24.916761999999999
#
# number of rings (size 3 to 8) (size 9 to 14) (size 15 to 20)
#    0.000    2.000    2.857    2.571    0.000    4.000 
#    0.000    8.571    0.000    0.000    0.000   13.000 
#    0.000    0.000    0.000    0.000    0.000    0.000 
#
# Total GULP energy -347038.270997 kJ/mol
# GULP energy per Si atom -12394.223964 kJ/mol
# Density = 2.486005 g / cm^3
# Si number density = 24.916762 Si / 1000 Ang^3
#
#
#
# Elastic Constant Matrix: (Units=GPa)
#
#
# Indices 1 2 3 4 5 6 
#
# 1 178.6112 12.7568 49.6392 0.0000 -18.4428 0.0000
# 2 12.7568 46.0905 8.9475 0.0000 -13.9206 0.0000
# 3 49.6392 8.9475 175.4899 0.0000 -9.1989 0.0000
# 4 0.0000 0.0000 0.0000 -7.1763 0.0000 -24.4016
# 5 -18.4428 -13.9206 -9.1989 0.0000 56.1332 0.0000
# 6 0.0000 0.0000 0.0000 -24.4016 0.0000 12.3431
#
#
#
# Elastic Compliance Matrix: (Units=1/GPa)
#
#
# Indices 1 2 3 4 5 6 
#
# 1 0.006286 -0.000949 -0.001648 0.000000 0.001560 0.000000
# 2 -0.000949 0.023738 -0.000655 0.000000 0.005468 0.000000
# 3 -0.001648 -0.000655 0.006214 0.000000 0.000314 0.000000
# 4 0.000000 0.000000 0.000000 -0.018045 0.000000 -0.035674
# 5 0.001560 0.005468 0.000314 0.000000 0.019735 0.000000
# 6 0.000000 0.000000 0.000000 -0.035674 0.000000 0.010491
#
#
# Mechanical properties :
#
#
# Convention : Reuss Voigt Hill
#
# Bulk Modulus (GPa) = 33.63175 60.31985 46.97580
# Shear Modulus (GPa) = 77.12066 34.18321 55.65194
#
# Velocity S-wave (km/s) = 5.56943 3.70793 4.73113
# Velocity P-wave (km/s) = 7.40844 6.52631 6.98132
#
# Compressibility (1/GPa) = 0.02973381
#
# Stress axis : x y z
#
# Youngs Moduli (GPa) = 159.09575 42.12725 160.91846
#
# Poissons Ratio (x) = 0.03997 0.26516
# Poissons Ratio (y) = 0.15093 0.10545
# Poissons Ratio (z) = 0.26216 0.02761
#
# Static dielectric constant tensor:
#      x y z
#    x 6.490650 0.000000 -0.041780 
#    y 0.000000 4.541060 0.000000 
#    z -0.041780 0.000000 4.705100 
# 
# 
# High freq. dielectric constant tensor:
#      x y z
#    x 2.030120 0.000000 -0.003990 
#    y 0.000000 1.999250 0.000000 
#    z -0.003990 0.000000 1.990610 
# 
# From -- ./inp_files/254047.got.cif
#   From: 2010.06.25/outbox.cif.g09.slc.cpg/sg12_128_cif.got.tgz:254047.got - 2010.06.28 00:19:55.
