data_PCOD8078432
_publ_section_title
;
Structure prediction by ZEFSAII (Michael W. Deem and Ramdas Pophale) SiO2 
 PCOD8078432
Probable space group: C 2/M
;
_chemical_formula_sum "Si O2"
_cell_formula_units_Z 48
_cell_length_a 17.046436
_cell_length_b 14.878137
_cell_length_c 18.571737
_cell_angle_alpha 90.000000
_cell_angle_beta 148.243284
_cell_angle_gamma 90.000000
_cell_volume 2479.015596
_symmetry_space_group_name_H-M "C 2/M"
_symmetry_group_IT_number 12
_symmetry_cell_setting 'monoclinic'
loop_
_space_group_symop_operation_xyz
x,y,z
-x,y,-z
-x,-y,-z
x,-y,z
1/2+x,1/2+y,z
1/2-x,1/2+y,-z
1/2-x,1/2-y,-z
1/2+x,1/2-y,z
loop_
_atom_site_type_symbol
_atom_site_label
_atom_site_fract_x
_atom_site_fract_y
_atom_site_fract_z
Si Si1 0.151927 0.000000 0.399461
Si Si2 0.161802 0.813957 0.485407
Si Si3 0.490327 0.000000 0.658436
Si Si4 0.582410 0.327245 0.991743
Si Si5 0.051917 0.681115 0.211223
Si Si6 0.429347 0.000000 0.114339
Si Si7 0.392589 0.500000 0.084722
Si Si8 0.412007 0.191999 0.260086
O O1 0.121987 0.911014 0.422287
O O2 0.319269 0.000000 0.499298
O O3 0.044252 0.000000 0.247170
O O4 0.250000 0.750000 0.500000
O O5 0.269227 0.826423 0.638129
O O6 0.006989 0.762739 0.382329
O O7 0.568908 0.908826 0.691859
O O8 0.494474 0.000000 0.747702
O O9 0.739962 0.278961 0.131426
O O10 0.500000 0.355738 0.000000
O O11 0.475283 0.262803 0.863352
O O12 0.619804 0.414412 0.975267
O O13 0.990669 0.590487 0.124586
O O14 0.964981 0.696922 0.218446
O O15 0.250100 0.000000 0.974082
#
# Coordination Sequence:
#
# PCOD8078432 Si02
#       8
#     4   8   4   8   8   4   4   8
#     4  12  20  31  56  96 117 135 189 245 300 335
#     4  10  18  31  55  87 113 141 183 248 290 332
#     4  10  16  33  54  83 115 142 171 240 300 330
#     4  12  25  39  55  82 124 163 192 230 281 351
#     4  10  19  36  60  85 112 147 191 239 295 331
#     4  10  18  35  60  89 112 145 180 248 292 334
#     4  12  23  35  58  87 122 152 194 231 290 346
#     4  10  19  35  58  82 113 144 194 240 287 335
#
# _framework density 19.362525000000002
#
# number of rings (size 3 to 8) (size 9 to 14) (size 15 to 20)
#    0.000    1.333    8.333    2.750    2.333    0.000 
#    0.000    1.250    0.000    1.000    0.000    2.333 
#    0.000    0.000    0.000    0.000    0.000    0.000 
#
# Total GULP energy -297535.352000 kJ/mol
# GULP energy per Si atom -12397.306333 kJ/mol
# Density = 1.931846 g / cm^3
# Si number density = 19.362525 Si / 1000 Ang^3
#
#
#
# Elastic Constant Matrix: (Units=GPa)
#
#
# Indices 1 2 3 4 5 6 
#
# 1 23.4044 13.9585 29.6271 0.0000 6.2030 0.0010
# 2 13.9585 120.9045 20.6626 -0.0002 -2.4288 0.0004
# 3 29.6271 20.6626 125.9057 -0.0001 25.0286 0.0005
# 4 0.0000 -0.0002 -0.0001 25.5271 0.0000 9.5134
# 5 6.2030 -2.4288 25.0286 0.0000 13.6831 0.0010
# 6 0.0010 0.0004 0.0005 9.5134 0.0010 11.4944
#
#
#
# Elastic Compliance Matrix: (Units=1/GPa)
#
#
# Indices 1 2 3 4 5 6 
#
# 1 0.063905 -0.005296 -0.012921 0.000002 -0.006276 -0.000006
# 2 -0.005296 0.009319 -0.001712 0.000000 0.007186 -0.000001
# 3 -0.012921 -0.001712 0.015965 -0.000001 -0.023649 0.000003
# 4 0.000002 0.000000 -0.000001 0.056647 0.000005 -0.046884
# 5 -0.006276 0.007186 -0.023649 0.000005 0.120461 -0.000013
# 6 -0.000006 -0.000001 0.000003 -0.046884 -0.000013 0.125802
#
#
# Mechanical properties :
#
#
# Convention : Reuss Voigt Hill
#
# Bulk Modulus (GPa) = 20.27065 44.30122 32.28594
# Shear Modulus (GPa) = 11.15075 23.87201 17.51138
#
# Velocity S-wave (km/s) = 2.40238 3.51507 3.01058
# Velocity P-wave (km/s) = 4.26462 6.27725 5.36614
#
# Compressibility (1/GPa) = 0.04933241
#
# Stress axis : x y z
#
# Youngs Moduli (GPa) = 15.64821 107.30436 62.63731
#
# Poissons Ratio (x) = 0.56826 0.80933
# Poissons Ratio (y) = 0.08287 0.10722
# Poissons Ratio (z) = 0.20219 0.18368
#
# Static dielectric constant tensor:
#      x y z
#    x 2.877250 0.000000 0.299420 
#    y 0.000000 3.845740 0.000000 
#    z 0.299420 0.000000 3.910150 
# 
# 
# High freq. dielectric constant tensor:
#      x y z
#    x 1.673020 0.000000 0.028650 
#    y 0.000000 1.774080 0.000000 
#    z 0.028650 0.000000 1.771760 
# 
# From -- ./inp_files/278284.got.cif
#   From: 2010.06.25/outbox.cif.g09.slc.cpg/sg12_140_cif.got.tgz:278284.got - 2010.06.28 00:19:55.
