data_PCOD8078566
_publ_section_title
;
Structure prediction by ZEFSAII (Michael W. Deem and Ramdas Pophale) SiO2 
 PCOD8078566
Probable space group: C 2/M
;
_chemical_formula_sum "Si O2"
_cell_formula_units_Z 64
_cell_length_a 28.059474
_cell_length_b 8.921829
_cell_length_c 31.134136
_cell_angle_alpha 90.000000
_cell_angle_beta 31.422069
_cell_angle_gamma 90.000000
_cell_volume 4063.403226
_symmetry_space_group_name_H-M "C 2/M"
_symmetry_group_IT_number 12
_symmetry_cell_setting 'monoclinic'
loop_
_space_group_symop_operation_xyz
x,y,z
-x,y,-z
-x,-y,-z
x,-y,z
1/2+x,1/2+y,z
1/2-x,1/2+y,-z
1/2-x,1/2-y,-z
1/2+x,1/2-y,z
loop_
_atom_site_type_symbol
_atom_site_label
_atom_site_fract_x
_atom_site_fract_y
_atom_site_fract_z
Si Si1 0.122411 0.675305 0.280684
Si Si2 0.685780 0.671539 0.148327
Si Si3 0.968079 0.677371 0.070354
Si Si4 0.721637 0.328743 0.772085
Si Si5 0.107383 0.675798 0.034433
Si Si6 0.993713 0.822160 0.440371
Si Si7 0.653900 0.672454 0.079129
Si Si8 0.874099 0.325583 0.592491
O O1 0.102355 0.500000 0.299822
O O2 0.142636 0.719180 0.216392
O O3 0.208859 0.720216 0.243685
O O4 0.030632 0.762861 0.366194
O O5 0.681475 0.500000 0.167908
O O6 0.625666 0.691065 0.150891
O O7 0.791017 0.717739 0.059541
O O8 0.973878 0.500000 0.064720
O O9 0.865287 0.722946 0.159727
O O10 0.035752 0.740215 0.054921
O O11 0.000000 0.744177 0.000000
O O12 0.690800 0.500000 0.802523
O O13 0.769187 0.308118 0.688603
O O14 0.096569 0.500000 0.049183
O O15 0.084818 0.751796 0.098064
O O16 0.065654 0.766288 0.420105
O O17 0.895088 0.747739 0.529426
O O18 0.984485 0.000000 0.446702
O O19 0.664316 0.500000 0.058920
O O20 0.750000 0.750000 0.000000
O O21 0.902325 0.500000 0.571324
#
# Coordination Sequence:
#
# PCOD8078566 Si02
#       8
#     8   8   8   8   8   8   8   8
#     4  10  19  29  41  60  87 116 143 173 213 255
#     4   9  17  29  44  62  84 109 140 176 213 256
#     4  10  20  32  45  61  84 115 148 182 217 248
#     4   9  19  31  42  59  83 113 147 180 211 247
#     4   9  18  31  45  62  84 111 145 182 217 253
#     4  10  17  25  40  61  82 108 141 172 208 253
#     4   9  17  29  45  63  83 108 138 175 217 258
#     4   9  16  28  42  57  81 109 140 177 213 249
#
# _framework density 15.750344999999999
#
# number of rings (size 3 to 8) (size 9 to 14) (size 15 to 20)
#    0.000    2.625    0.000    5.250    0.000    7.250 
#    0.000    0.000    0.000    0.000    0.000    0.000 
#    0.000    1.000    0.000    3.250    0.000    5.000 
#
# Total GULP energy -396570.607071 kJ/mol
# GULP energy per Si atom -12392.831471 kJ/mol
# Density = 1.571450 g / cm^3
# Si number density = 15.750345 Si / 1000 Ang^3
#
#
#
# Elastic Constant Matrix: (Units=GPa)
#
#
# Indices 1 2 3 4 5 6 
#
# 1 87.1158 32.8909 41.2408 -0.0131 13.9315 0.0171
# 2 32.8909 66.2574 37.9857 -0.0149 10.0357 0.0299
# 3 41.2408 37.9857 95.5489 -0.0034 12.3745 0.0105
# 4 -0.0131 -0.0149 -0.0034 29.1589 -0.0012 3.9291
# 5 13.9315 10.0357 12.3745 -0.0012 15.3404 -0.0052
# 6 0.0171 0.0299 0.0105 3.9291 -0.0052 21.4192
#
#
#
# Elastic Compliance Matrix: (Units=1/GPa)
#
#
# Indices 1 2 3 4 5 6 
#
# 1 0.016569 -0.004473 -0.004247 0.000005 -0.008695 -0.000008
# 2 -0.004473 0.021512 -0.005946 0.000012 -0.005214 -0.000027
# 3 -0.004247 -0.005946 0.015253 -0.000004 -0.004557 0.000004
# 4 0.000005 0.000012 -0.000004 0.035164 -0.000009 -0.006450
# 5 -0.008695 -0.005214 -0.004557 -0.000009 0.080171 0.000038
# 6 -0.000008 -0.000027 0.000004 -0.006450 0.000038 0.047870
#
#
# Mechanical properties :
#
#
# Convention : Reuss Voigt Hill
#
# Bulk Modulus (GPa) = 41.66464 52.57298 47.11881
# Shear Modulus (GPa) = 19.69494 22.30401 20.99947
#
# Velocity S-wave (km/s) = 3.54000 3.76719 3.65536
# Velocity P-wave (km/s) = 6.57414 7.23697 6.91350
#
# Compressibility (1/GPa) = 0.02400117
#
# Stress axis : x y z
#
# Youngs Moduli (GPa) = 60.35417 46.48595 65.56075
#
# Poissons Ratio (x) = 0.20794 0.27844
# Poissons Ratio (y) = 0.26997 0.38983
# Poissons Ratio (z) = 0.25633 0.27641
#
# Static dielectric constant tensor:
#      x y z
#    x 3.001270 -0.000040 0.298710 
#    y -0.000040 3.029310 0.000000 
#    z 0.298710 0.000000 3.322010 
# 
# 
# High freq. dielectric constant tensor:
#      x y z
#    x 1.562440 0.000000 0.024670 
#    y 0.000000 1.613140 0.000000 
#    z 0.024670 0.000000 1.597380 
# 
# From -- ./inp_files/384526.got.cif
#   From: 2010.06.25/outbox.cif.g09.slc.cpg/sg12_193_cif.got.tgz:384526.got - 2010.06.28 00:19:55.
