data_PCOD8078163
_publ_section_title
;
Structure prediction by ZEFSAII (Michael W. Deem and Ramdas Pophale) SiO2 
 PCOD8078163
Probable space group: C 2/M
;
_chemical_formula_sum "Si O2"
_cell_formula_units_Z 56
_cell_length_a 29.866496
_cell_length_b 24.173957
_cell_length_c 5.379587
_cell_angle_alpha 90.000000
_cell_angle_beta 100.376774
_cell_angle_gamma 90.000000
_cell_volume 3820.490741
_symmetry_space_group_name_H-M "C 2/M"
_symmetry_group_IT_number 12
_symmetry_cell_setting 'monoclinic'
loop_
_space_group_symop_operation_xyz
x,y,z
-x,y,-z
-x,-y,-z
x,-y,z
1/2+x,1/2+y,z
1/2-x,1/2+y,-z
1/2-x,1/2-y,-z
1/2+x,1/2-y,z
loop_
_atom_site_type_symbol
_atom_site_label
_atom_site_fract_x
_atom_site_fract_y
_atom_site_fract_z
Si Si1 0.124379 0.325472 0.874380
Si Si2 0.604176 0.850895 0.354178
Si Si3 0.824213 0.561503 0.074210
Si Si4 0.219944 0.195160 0.469944
Si Si5 0.204872 0.396946 0.454874
Si Si6 0.973535 0.435328 0.723535
Si Si7 0.302099 0.267816 0.052099
O O1 0.094252 0.315218 0.595125
O O2 0.137059 0.391196 0.887063
O O3 0.168891 0.288024 0.918891
O O4 0.094252 0.315217 0.093382
O O5 0.658306 0.861812 0.408309
O O6 0.575527 0.906916 0.325527
O O7 0.846663 0.500000 0.096661
O O8 0.793273 0.566700 0.291617
O O9 0.793273 0.566700 0.794924
O O10 0.250000 0.250000 0.500000
O O11 0.251435 0.141856 0.501434
O O12 0.188500 0.196183 0.688290
O O13 0.188500 0.196183 0.188709
O O14 0.963872 0.500000 0.713872
O O15 0.000000 0.417176 0.500000
O O16 0.000000 0.417176 0.000000
O O17 0.250000 0.250000 0.000000
#
# Coordination Sequence:
#
# PCOD8078163 Si02
#       7
#     8   8   8   8   8   8   8
#     4  10  19  28  40  61  78  92 121 144 177 239
#     4  10  18  29  43  55  73  91 107 149 189 221
#     4  10  18  27  36  48  71  95 116 148 180 211
#     4  10  16  25  40  54  74  98 115 139 172 211
#     4  10  19  29  39  58  74  91 124 148 178 237
#     4  10  21  35  47  58  70  89 123 161 200 248
#     4  10  16  25  39  56  76  98 114 137 171 213
#
# _framework density 14.657802
#
# number of rings (size 3 to 8) (size 9 to 14) (size 15 to 20)
#    0.000    2.000    0.000    9.857    0.000    4.571 
#    0.000    1.429    0.000    0.000    0.000    0.000 
#    0.000    0.000    0.000    0.000    0.000    0.000 
#
# Total GULP energy -346868.025345 kJ/mol
# GULP energy per Si atom -12388.143762 kJ/mol
# Density = 1.462444 g / cm^3
# Si number density = 14.657802 Si / 1000 Ang^3
#
#
#
# Elastic Constant Matrix: (Units=GPa)
#
#
# Indices 1 2 3 4 5 6 
#
# 1 31.6470 12.6019 28.0411 0.0000 -6.8024 0.0000
# 2 12.6019 17.2110 13.6040 0.0000 -0.3131 0.0000
# 3 28.0411 13.6040 163.2457 0.0000 -34.3189 0.0000
# 4 0.0000 0.0000 0.0000 17.1512 0.0000 1.0856
# 5 -6.8024 -0.3131 -34.3189 0.0000 21.2860 0.0000
# 6 0.0000 0.0000 0.0000 1.0856 0.0000 20.6250
#
#
#
# Elastic Compliance Matrix: (Units=1/GPa)
#
#
# Indices 1 2 3 4 5 6 
#
# 1 0.050488 -0.033718 -0.003895 0.000000 0.009359 0.000000
# 2 -0.033718 0.086554 -0.005172 0.000000 -0.017840 0.000000
# 3 -0.003895 -0.005172 0.010511 0.000000 0.015625 0.000000
# 4 0.000000 0.000000 0.000000 0.058500 0.000000 -0.003079
# 5 0.009359 -0.017840 0.015625 0.000000 0.074900 0.000000
# 6 0.000000 0.000000 0.000000 -0.003079 0.000000 0.048647
#
#
# Mechanical properties :
#
#
# Convention : Reuss Voigt Hill
#
# Bulk Modulus (GPa) = 16.13352 35.62199 25.87776
# Shear Modulus (GPa) = 11.47234 22.33620 16.90427
#
# Velocity S-wave (km/s) = 2.80067 3.90788 3.39965
# Velocity P-wave (km/s) = 4.63563 6.68709 5.75353
#
# Compressibility (1/GPa) = 0.06198274
#
# Stress axis : x y z
#
# Youngs Moduli (GPa) = 19.80659 11.55346 95.14154
#
# Poissons Ratio (x) = 0.38956 0.37059
# Poissons Ratio (y) = 0.66785 0.49203
# Poissons Ratio (z) = 0.07715 0.05975
#
# Static dielectric constant tensor:
#      x y z
#    x 2.730500 0.000000 -1.281130 
#    y 0.000000 2.545480 0.000000 
#    z -1.281130 0.000000 6.830380 
# 
# 
# High freq. dielectric constant tensor:
#      x y z
#    x 1.501530 0.000000 -0.032580 
#    y 0.000000 1.512600 0.000000 
#    z -0.032580 0.000000 1.605790 
# 
# From -- ./inp_files/25948.got.cif
#   From: 2010.06.25/outbox.cif.g09.slc.cpg/sg12_13_cif.got.tgz:25948.got - 2010.06.28 00:19:55.
