data_PCOD8078608
_publ_section_title
;
Structure prediction by ZEFSAII (Michael W. Deem and Ramdas Pophale) SiO2 
 PCOD8078608
Probable space group: C 2/M
;
_chemical_formula_sum "Si O2"
_cell_formula_units_Z 64
_cell_length_a 23.463333
_cell_length_b 8.976141
_cell_length_c 18.041020
_cell_angle_alpha 90.000000
_cell_angle_beta 88.451216
_cell_angle_gamma 90.000000
_cell_volume 3798.234467
_symmetry_space_group_name_H-M "C 2/M"
_symmetry_group_IT_number 12
_symmetry_cell_setting 'monoclinic'
loop_
_space_group_symop_operation_xyz
x,y,z
-x,y,-z
-x,-y,-z
x,-y,z
1/2+x,1/2+y,z
1/2-x,1/2+y,-z
1/2-x,1/2-y,-z
1/2+x,1/2-y,z
loop_
_atom_site_type_symbol
_atom_site_label
_atom_site_fract_x
_atom_site_fract_y
_atom_site_fract_z
Si Si1 0.250457 0.672782 0.079149
Si Si2 0.572751 0.170620 0.724923
Si Si3 0.438818 0.322565 0.579525
Si Si4 0.634982 0.324136 0.851636
Si Si5 0.441862 0.175451 0.726696
Si Si6 0.375045 0.828147 0.875479
Si Si7 0.563533 0.676440 0.992835
Si Si8 0.561480 0.826259 0.561745
O O1 0.260251 0.500000 0.062042
O O2 0.302111 0.734084 0.128120
O O3 0.192541 0.701505 0.126782
O O4 0.250000 0.750000 0.000000
O O5 0.616617 0.261450 0.773176
O O6 0.507387 0.226143 0.737796
O O7 0.593970 0.191982 0.638993
O O8 0.576285 0.000000 0.749291
O O9 0.436319 0.500000 0.576212
O O10 0.413647 0.263045 0.658200
O O11 0.405512 0.251581 0.508958
O O12 0.502480 0.260569 0.572955
O O13 0.634230 0.500000 0.845184
O O14 0.590764 0.266738 0.915300
O O15 0.404130 0.222397 0.798181
O O16 0.439399 0.000000 0.709770
O O17 0.399314 0.731342 0.940625
O O18 0.388671 0.000000 0.891463
O O19 0.562843 0.500000 0.996171
O O20 0.500000 0.742927 0.000000
O O21 0.550425 0.000000 0.545331
#
# Coordination Sequence:
#
# PCOD8078608 Si02
#       8
#     8   8   8   8   8   8   8   8
#     4  10  20  35  52  70  89 118 160 204 245 285
#     4   9  18  30  46  68  94 124 158 190 228 279
#     4  10  17  25  42  69  96 126 161 190 224 279
#     4  10  20  32  46  66  94 123 153 194 242 283
#     4   9  18  32  46  66  97 127 155 194 238 280
#     4  10  20  33  51  70  89 120 163 202 236 279
#     4  10  20  32  46  67  96 127 154 185 236 293
#     4   9  16  28  44  64  95 131 160 191 229 271
#
# _framework density 16.849934000000001
#
# number of rings (size 3 to 8) (size 9 to 14) (size 15 to 20)
#    0.000    2.375    1.250    3.750    0.000    4.250 
#    0.000    0.000    0.000    0.000    0.000    0.875 
#    0.000    0.000    0.000    0.000    0.000    0.000 
#
# Total GULP energy -396654.220095 kJ/mol
# GULP energy per Si atom -12395.444378 kJ/mol
# Density = 1.681158 g / cm^3
# Si number density = 16.849934 Si / 1000 Ang^3
#
#
#
# Elastic Constant Matrix: (Units=GPa)
#
#
# Indices 1 2 3 4 5 6 
#
# 1 69.5468 22.1180 40.6329 0.0000 20.9047 0.0000
# 2 22.1180 52.5578 45.4467 0.0000 5.2598 0.0000
# 3 40.6329 45.4467 137.7323 0.0000 14.3946 0.0000
# 4 0.0000 0.0000 0.0000 29.1333 0.0000 7.5975
# 5 20.9047 5.2598 14.3946 0.0000 9.8781 0.0000
# 6 0.0000 0.0000 0.0000 7.5975 0.0000 12.5217
#
#
#
# Elastic Compliance Matrix: (Units=1/GPa)
#
#
# Indices 1 2 3 4 5 6 
#
# 1 0.043777 -0.008977 -0.000908 0.000000 -0.086540 0.000000
# 2 -0.008977 0.028485 -0.008436 0.000000 0.016122 0.000000
# 3 -0.000908 -0.008436 0.011374 0.000000 -0.010160 0.000000
# 4 0.000000 0.000000 0.000000 0.040777 0.000000 -0.024741
# 5 -0.086540 0.016122 -0.010160 0.000000 0.290596 0.000000
# 6 0.000000 0.000000 0.000000 -0.024741 0.000000 0.094873
#
#
# Mechanical properties :
#
#
# Convention : Reuss Voigt Hill
#
# Bulk Modulus (GPa) = 21.27914 52.91469 37.09691
# Shear Modulus (GPa) = 8.89379 20.41591 14.65485
#
# Velocity S-wave (km/s) = 2.29993 3.48463 2.95231
# Velocity P-wave (km/s) = 4.43948 6.90375 5.80391
#
# Compressibility (1/GPa) = 0.04699439
#
# Stress axis : x y z
#
# Youngs Moduli (GPa) = 22.84293 35.10567 87.92128
#
# Poissons Ratio (x) = 0.31513 0.07987
# Poissons Ratio (y) = 0.20505 0.74169
# Poissons Ratio (z) = 0.02075 0.29615
#
# Static dielectric constant tensor:
#      x y z
#    x 3.076520 0.000000 -0.121210 
#    y 0.000000 3.080920 0.000000 
#    z -0.121210 0.000000 3.725370 
# 
# 
# High freq. dielectric constant tensor:
#      x y z
#    x 1.607990 0.000000 -0.002360 
#    y 0.000000 1.647510 0.000000 
#    z -0.002360 0.000000 1.663470 
# 
# From -- ./inp_files/287714.got.cif
#   From: 2010.06.25/outbox.cif.g09.slc.cpg/sg12_144_cif.got.tgz:287714.got - 2010.06.28 00:19:55.
