data_PCOD8078456
_publ_section_title
;
Structure prediction by ZEFSAII (Michael W. Deem and Ramdas Pophale) SiO2 
 PCOD8078456
Probable space group: C 2/M
;
_chemical_formula_sum "Si O2"
_cell_formula_units_Z 44
_cell_length_a 17.045423
_cell_length_b 14.897333
_cell_length_c 26.729313
_cell_angle_alpha 90.000000
_cell_angle_beta 160.456550
_cell_angle_gamma 90.000000
_cell_volume 2270.535441
_symmetry_space_group_name_H-M "C 2/M"
_symmetry_group_IT_number 12
_symmetry_cell_setting 'monoclinic'
loop_
_space_group_symop_operation_xyz
x,y,z
-x,y,-z
-x,-y,-z
x,-y,z
1/2+x,1/2+y,z
1/2-x,1/2+y,-z
1/2-x,1/2-y,-z
1/2+x,1/2-y,z
loop_
_atom_site_type_symbol
_atom_site_label
_atom_site_fract_x
_atom_site_fract_y
_atom_site_fract_z
Si Si1 0.882327 0.898050 0.243150
Si Si2 0.000000 0.159027 0.500000
Si Si3 0.049836 0.597034 0.284036
Si Si4 0.144928 0.653383 0.448919
Si Si5 0.659388 0.742563 0.049694
Si Si6 0.276253 0.267938 0.269205
O O1 0.754957 0.840428 0.123576
O O2 0.844787 0.852651 0.275078
O O3 0.163799 0.898580 0.402050
O O4 0.785298 0.000000 0.183937
O O5 0.803087 0.102155 0.409915
O O6 0.850080 0.217055 0.370553
O O7 0.941051 0.500000 0.204020
O O8 0.094806 0.596172 0.369884
O O9 0.871316 0.676476 0.162712
O O10 0.250000 0.750000 0.500000
O O11 0.900148 0.673563 0.329191
O O12 0.500000 0.704514 0.000000
O O13 0.503035 0.753302 0.905676
#
# Coordination Sequence:
#
# PCOD8078456 Si02
#       6
#     8   4   8   8   8   8
#     4  10  18  32  58  86 113 148 193 247 289 330
#     4  12  23  38  58  88 121 156 193 236 298 356
#     4  12  23  37  59  89 122 155 193 241 294 347
#     4  10  16  36  56  81 115 149 201 236 275 340
#     4  10  20  39  58  85 120 148 200 243 289 343
#     4  10  21  36  58  83 120 155 189 242 288 350
#
# _framework density 19.378686999999999
#
# number of rings (size 3 to 8) (size 9 to 14) (size 15 to 20)
#    0.000    1.455    9.091    0.818    0.000    5.091 
#    0.000    0.000    0.000    0.000    0.000   17.818 
#    0.000    0.000    0.000    0.000    0.000    0.000 
#
# Total GULP energy -272559.034661 kJ/mol
# GULP energy per Si atom -12389.047030 kJ/mol
# Density = 1.933458 g / cm^3
# Si number density = 19.378687 Si / 1000 Ang^3
#
#
#
# Elastic Constant Matrix: (Units=GPa)
#
#
# Indices 1 2 3 4 5 6 
#
# 1 55.8577 31.6008 34.6053 -0.0433 -10.9563 0.0059
# 2 31.6008 97.2899 38.6486 0.0789 6.6173 0.0191
# 3 34.6053 38.6486 152.6576 0.0258 -15.3132 0.0669
# 4 -0.0433 0.0789 0.0258 10.9446 -0.0417 2.4427
# 5 -10.9563 6.6173 -15.3132 -0.0417 33.2896 0.0002
# 6 0.0059 0.0191 0.0669 2.4427 0.0002 -2.2659
#
#
#
# Elastic Compliance Matrix: (Units=1/GPa)
#
#
# Indices 1 2 3 4 5 6 
#
# 1 0.025891 -0.007799 -0.003024 0.000176 0.008681 0.000103
# 2 -0.007799 0.014249 -0.002496 -0.000128 -0.006548 -0.000112
# 3 -0.003024 -0.002496 0.008196 -0.000039 0.003271 0.000171
# 4 0.000176 -0.000128 -0.000039 0.073651 0.000157 0.079397
# 5 0.008681 -0.006548 0.003271 0.000157 0.035703 0.000237
# 6 0.000103 -0.000112 0.000171 0.079397 0.000237 -0.355739
#
#
# Mechanical properties :
#
#
# Convention : Reuss Voigt Hill
#
# Bulk Modulus (GPa) = 46.08786 57.27942 51.68364
# Shear Modulus (GPa) = -30.45482 21.79038 -4.33222
#
# Velocity S-wave (km/s) = -3.96859 3.35692 -1.49680
# Velocity P-wave (km/s) = 1.68366 6.68187 4.87248
#
# Compressibility (1/GPa) = 0.02169769
#
# Stress axis : x y z
#
# Youngs Moduli (GPa) = 38.62334 70.18096 122.00892
#
# Poissons Ratio (x) = 0.54734 0.36895
# Poissons Ratio (y) = 0.30123 0.30456
# Poissons Ratio (z) = 0.11679 0.17519
#
# Static dielectric constant tensor:
#      x y z
#    x 3.306180 -0.000040 0.200090 
#    y -0.000040 3.468660 -0.000120 
#    z 0.200090 -0.000120 4.036560 
# 
# 
# High freq. dielectric constant tensor:
#      x y z
#    x 1.706840 0.000000 0.005330 
#    y 0.000000 1.734110 -0.000020 
#    z 0.005330 -0.000020 1.778010 
# 
# From -- ./inp_files/156300.got.cif
#   From: 2010.06.25/outbox.cif.g09.slc.cpg/sg12_79_cif.got.tgz:156300.got - 2010.06.28 00:19:55.
