data_PCOD8078054
_publ_section_title
;
Structure prediction by ZEFSAII (Michael W. Deem and Ramdas Pophale) SiO2 
 PCOD8078054
Probable space group: C 2/M
;
_chemical_formula_sum "Si O2"
_cell_formula_units_Z 40
_cell_length_a 5.183023
_cell_length_b 32.164367
_cell_length_c 14.332662
_cell_angle_alpha 90.000000
_cell_angle_beta 60.004376
_cell_angle_gamma 90.000000
_cell_volume 2069.353970
_symmetry_space_group_name_H-M "C 2/M"
_symmetry_group_IT_number 12
_symmetry_cell_setting 'monoclinic'
loop_
_space_group_symop_operation_xyz
x,y,z
-x,y,-z
-x,-y,-z
x,-y,z
1/2+x,1/2+y,z
1/2-x,1/2+y,-z
1/2-x,1/2-y,-z
1/2+x,1/2-y,z
loop_
_atom_site_type_symbol
_atom_site_label
_atom_site_fract_x
_atom_site_fract_y
_atom_site_fract_z
Si Si1 0.747473 0.914576 0.884842
Si Si2 0.747959 0.411504 0.323963
Si Si3 0.016853 0.000000 0.833802
Si Si4 0.333887 0.775996 0.625236
Si Si5 0.287523 0.000000 0.304989
Si Si6 0.290519 0.633305 0.299338
O O1 0.610374 0.920299 0.805197
O O2 0.870378 0.958349 0.903912
O O3 0.016638 0.880939 0.826177
O O4 0.500000 0.896838 0.000000
O O5 0.720156 0.457506 0.375841
O O6 0.953768 0.382519 0.350224
O O7 0.432300 0.387608 0.367623
O O8 0.951373 0.000000 0.735561
O O9 0.367864 0.000000 0.789176
O O10 0.500000 0.788347 0.500000
O O11 0.562531 0.755225 0.655773
O O12 0.202614 0.817205 0.695753
#
# Coordination Sequence:
#
# PCOD8078054 Si02
#       6
#     8   8   4   8   4   8
#     4   9  19  30  46  72 104 143 178 213 240 283
#     4   9  18  29  47  71 102 140 173 205 242 284
#     4  10  17  28  42  68 101 138 182 220 243 268
#     4  10  21  38  62  85 101 118 151 208 274 325
#     4  10  14  30  41  66 101 138 177 209 242 275
#     4  10  19  33  50  75 103 130 164 206 257 303
#
# _framework density 19.329704
#
# number of rings (size 3 to 8) (size 9 to 14) (size 15 to 20)
#    1.200    1.200    2.000    1.500    0.000    0.800 
#    0.000    2.000    0.000    1.200    0.000    7.700 
#    0.000    0.000    0.000    0.000    0.000    0.000 
#
# Total GULP energy -247771.350224 kJ/mol
# GULP energy per Si atom -12388.567511 kJ/mol
# Density = 1.928571 g / cm^3
# Si number density = 19.329704 Si / 1000 Ang^3
#
#
#
# Elastic Constant Matrix: (Units=GPa)
#
#
# Indices 1 2 3 4 5 6 
#
# 1 114.9718 33.2743 9.4110 0.0000 -20.3007 0.0000
# 2 33.2743 149.2412 33.9424 0.0000 -12.7179 0.0000
# 3 9.4110 33.9424 37.7152 0.0000 -5.0764 0.0000
# 4 0.0000 0.0000 0.0000 26.6605 0.0000 -9.1886
# 5 -20.3007 -12.7179 -5.0764 0.0000 9.9073 0.0000
# 6 0.0000 0.0000 0.0000 -9.1886 0.0000 32.1148
#
#
#
# Elastic Compliance Matrix: (Units=1/GPa)
#
#
# Indices 1 2 3 4 5 6 
#
# 1 0.013741 -0.000985 0.001157 0.000000 0.027485 0.000000
# 2 -0.000985 0.009040 -0.007088 0.000000 0.005955 0.000000
# 3 0.001157 -0.007088 0.034047 0.000000 0.010716 0.000000
# 4 0.000000 0.000000 0.000000 0.041612 0.000000 0.011906
# 5 0.027485 0.005955 0.010716 0.000000 0.170390 0.000000
# 6 0.000000 0.000000 0.000000 0.011906 0.000000 0.034545
#
#
# Mechanical properties :
#
#
# Convention : Reuss Voigt Hill
#
# Bulk Modulus (GPa) = 23.25792 50.57595 36.91694
# Shear Modulus (GPa) = 15.08117 28.75656 21.91887
#
# Velocity S-wave (km/s) = 2.79625 3.86124 3.37107
# Velocity P-wave (km/s) = 4.74170 6.78974 5.85595
#
# Compressibility (1/GPa) = 0.04299611
#
# Stress axis : x y z
#
# Youngs Moduli (GPa) = 72.77412 110.62436 29.37087
#
# Poissons Ratio (x) = 0.10891 -0.03397
# Poissons Ratio (y) = 0.07165 0.20819
# Poissons Ratio (z) = -0.08418 0.78412
#
# Static dielectric constant tensor:
#      x y z
#    x 3.526760 0.000000 -0.113860 
#    y 0.000000 3.496020 0.000000 
#    z -0.113860 0.000000 2.902510 
# 
# 
# High freq. dielectric constant tensor:
#      x y z
#    x 1.764280 0.000000 -0.016060 
#    y 0.000000 1.751710 0.000000 
#    z -0.016060 0.000000 1.689580 
# 
# From -- ./inp_files/253775.got.cif
#   From: 2010.06.25/outbox.cif.g09.slc.cpg/sg12_127_cif.got.tgz:253775.got - 2010.06.28 00:19:55.
