data_PCOD8078185
_publ_section_title
;
Structure prediction by ZEFSAII (Michael W. Deem and Ramdas Pophale) SiO2 
 PCOD8078185
Probable space group: C 2/M
;
_chemical_formula_sum "Si O2"
_cell_formula_units_Z 56
_cell_length_a 23.537438
_cell_length_b 13.479736
_cell_length_c 14.067570
_cell_angle_alpha 90.000000
_cell_angle_beta 54.940166
_cell_angle_gamma 90.000000
_cell_volume 3653.476003
_symmetry_space_group_name_H-M "C 2/M"
_symmetry_group_IT_number 12
_symmetry_cell_setting 'monoclinic'
loop_
_space_group_symop_operation_xyz
x,y,z
-x,y,-z
-x,-y,-z
x,-y,z
1/2+x,1/2+y,z
1/2-x,1/2+y,-z
1/2-x,1/2-y,-z
1/2+x,1/2-y,z
loop_
_atom_site_type_symbol
_atom_site_label
_atom_site_fract_x
_atom_site_fract_y
_atom_site_fract_z
Si Si1 0.997091 0.698797 0.354154
Si Si2 0.609797 0.112323 0.672094
Si Si3 0.863487 0.204040 0.243120
Si Si4 0.404159 0.116109 0.607161
Si Si5 0.781942 0.612620 0.599506
Si Si6 0.986105 0.883996 0.244908
Si Si7 0.928821 0.108535 0.012709
O O1 0.967192 0.636543 0.293671
O O2 0.947508 0.680686 0.490853
O O3 0.996898 0.815887 0.327723
O O4 0.074425 0.658741 0.309005
O O5 0.624179 0.179819 0.750076
O O6 0.666504 0.135924 0.536865
O O7 0.613008 0.000000 0.704075
O O8 0.783743 0.183281 0.343675
O O9 0.912642 0.138390 0.264292
O O10 0.877950 0.183453 0.117371
O O11 0.322977 0.130642 0.660032
O O12 0.424123 0.000000 0.578242
O O13 0.755465 0.500000 0.619623
O O14 0.051151 0.857133 0.112944
O O15 0.987089 0.000000 0.272779
O O16 0.892781 0.000000 0.044893
O O17 0.000000 0.099681 0.000000
#
# Coordination Sequence:
#
# PCOD8078185 Si02
#       7
#     8   8   8   8   8   8   8
#     4   9  15  26  44  58  76 106 135 162 195 232
#     4   9  17  26  38  59  85 109 131 158 194 236
#     4  10  16  25  43  60  81 107 132 161 196 238
#     4   9  16  27  43  61  81 105 135 166 192 225
#     4   9  16  25  39  61  83 103 131 163 194 231
#     4   9  17  27  41  62  83 102 128 165 205 238
#     4   8  14  25  40  58  78 101 131 164 197 232
#
# _framework density 15.327869
#
# number of rings (size 3 to 8) (size 9 to 14) (size 15 to 20)
#    0.000    3.000    0.000    5.143    0.000    0.000 
#    0.000    1.429    0.000   14.143    0.000    0.000 
#    0.000    0.000    0.000    0.000    0.000    0.000 
#
# Total GULP energy -346905.369428 kJ/mol
# GULP energy per Si atom -12389.477480 kJ/mol
# Density = 1.529298 g / cm^3
# Si number density = 15.327869 Si / 1000 Ang^3
#
#
#
# Elastic Constant Matrix: (Units=GPa)
#
#
# Indices 1 2 3 4 5 6 
#
# 1 64.4408 43.5572 27.8370 0.0000 6.9087 0.0000
# 2 43.5572 119.8599 50.8022 0.0000 6.5720 0.0000
# 3 27.8370 50.8022 49.4148 0.0000 3.3991 0.0000
# 4 0.0000 0.0000 0.0000 19.0617 0.0000 3.2924
# 5 6.9087 6.5720 3.3991 0.0000 11.0776 0.0000
# 6 0.0000 0.0000 0.0000 3.2924 0.0000 18.3273
#
#
#
# Elastic Compliance Matrix: (Units=1/GPa)
#
#
# Indices 1 2 3 4 5 6 
#
# 1 0.022872 -0.004633 -0.007488 0.000000 -0.009219 0.000000
# 2 -0.004633 0.015918 -0.013591 0.000000 -0.002384 0.000000
# 3 -0.007488 -0.013591 0.038362 0.000000 0.000962 0.000000
# 4 0.000000 0.000000 0.000000 0.054141 0.000000 -0.009726
# 5 -0.009219 -0.002384 0.000962 0.000000 0.097141 0.000000
# 6 0.000000 0.000000 0.000000 -0.009726 0.000000 0.056311
#
#
# Mechanical properties :
#
#
# Convention : Reuss Voigt Hill
#
# Bulk Modulus (GPa) = 38.86737 53.12315 45.99526
# Shear Modulus (GPa) = 14.50351 17.12791 15.81571
#
# Velocity S-wave (km/s) = 3.07940 3.34643 3.21569
# Velocity P-wave (km/s) = 6.16895 7.04731 6.62271
#
# Compressibility (1/GPa) = 0.02572852
#
# Stress axis : x y z
#
# Youngs Moduli (GPa) = 43.72083 62.82269 26.06780
#
# Poissons Ratio (x) = 0.29104 0.19519
# Poissons Ratio (y) = 0.20254 0.35429
# Poissons Ratio (z) = 0.32738 0.85382
#
# Static dielectric constant tensor:
#      x y z
#    x 3.047710 0.000000 0.105100 
#    y 0.000000 2.905830 0.000000 
#    z 0.105100 0.000000 2.868700 
# 
# 
# High freq. dielectric constant tensor:
#      x y z
#    x 1.572080 0.000000 0.000350 
#    y 0.000000 1.582700 0.000000 
#    z 0.000350 0.000000 1.552620 
# 
# From -- ./inp_files/175716.got.cif
#   From: 2010.06.25/outbox.cif.g09.slc.cpg/sg12_88_cif.got.tgz:175716.got - 2010.06.28 00:19:55.
