data_PCOD8078550
_publ_section_title
;
Structure prediction by ZEFSAII (Michael W. Deem and Ramdas Pophale) SiO2 
 PCOD8078550
Probable space group: C 2/M
;
_chemical_formula_sum "Si O2"
_cell_formula_units_Z 64
_cell_length_a 24.121247
_cell_length_b 9.231332
_cell_length_c 18.495509
_cell_angle_alpha 90.000000
_cell_angle_beta 79.137010
_cell_angle_gamma 90.000000
_cell_volume 4044.618552
_symmetry_space_group_name_H-M "C 2/M"
_symmetry_group_IT_number 12
_symmetry_cell_setting 'monoclinic'
loop_
_space_group_symop_operation_xyz
x,y,z
-x,y,-z
-x,-y,-z
x,-y,z
1/2+x,1/2+y,z
1/2-x,1/2+y,-z
1/2-x,1/2-y,-z
1/2+x,1/2-y,z
loop_
_atom_site_type_symbol
_atom_site_label
_atom_site_fract_x
_atom_site_fract_y
_atom_site_fract_z
Si Si1 0.862159 0.160619 0.878134
Si Si2 0.479171 0.666631 0.618486
Si Si3 0.206832 0.332760 0.299319
Si Si4 0.588727 0.167812 0.254907
Si Si5 0.201826 0.670498 0.468029
Si Si6 0.088858 0.167612 0.506558
Si Si7 0.700285 0.329770 0.971021
Si Si8 0.259686 0.835531 0.165184
O O1 0.904213 0.271805 0.828428
O O2 0.800029 0.172284 0.859884
O O3 0.886537 0.000000 0.859443
O O4 0.856292 0.191827 0.965977
O O5 0.467664 0.500000 0.639523
O O6 0.464647 0.759785 0.692724
O O7 0.544493 0.691827 0.582375
O O8 0.439941 0.715087 0.561367
O O9 0.220476 0.500000 0.280857
O O10 0.143986 0.294966 0.288137
O O11 0.211249 0.292778 0.381890
O O12 0.253171 0.237474 0.245511
O O13 0.576306 0.000000 0.251635
O O14 0.203743 0.500000 0.482541
O O15 0.250000 0.750000 0.500000
O O16 0.141923 0.731047 0.509389
O O17 0.107725 0.000000 0.498656
O O18 0.714509 0.500000 0.958876
O O19 0.694374 0.254807 0.893613
O O20 0.750000 0.250000 0.000000
O O21 0.281001 0.000000 0.169096
#
# Coordination Sequence:
#
# PCOD8078550 Si02
#       8
#     8   8   8   8   8   8   8   8
#     4   8  15  24  33  49  74 106 139 168 204 249
#     4   9  17  29  46  65  87 112 141 177 219 263
#     4   9  18  30  41  57  81 107 140 178 215 256
#     4  10  17  25  39  60  83 109 141 178 216 251
#     4  11  22  35  49  66  87 114 146 184 226 266
#     4   9  18  32  48  66  85 111 143 178 219 264
#     4   9  15  23  34  49  71 101 137 172 207 246
#     4   9  16  24  37  54  72 100 136 173 212 249
#
# _framework density 15.823494
#
# number of rings (size 3 to 8) (size 9 to 14) (size 15 to 20)
#    0.000    2.750    1.250    3.000    0.000    5.500 
#    0.000    1.250    0.000    0.000    0.000    0.000 
#    0.000    0.000    0.000    1.125    0.000   21.875 
#
# Total GULP energy -396658.899484 kJ/mol
# GULP energy per Si atom -12395.590609 kJ/mol
# Density = 1.578748 g / cm^3
# Si number density = 15.823494 Si / 1000 Ang^3
#
#
#
# Elastic Constant Matrix: (Units=GPa)
#
#
# Indices 1 2 3 4 5 6 
#
# 1 49.6994 37.0164 32.9939 0.0000 -9.1534 0.0000
# 2 37.0164 107.4351 65.9665 0.0000 -20.6572 0.0000
# 3 32.9939 65.9665 105.4169 0.0000 -30.1055 0.0000
# 4 0.0000 0.0000 0.0000 30.9927 0.0000 -7.3993
# 5 -9.1534 -20.6572 -30.1055 0.0000 18.7361 0.0000
# 6 0.0000 0.0000 0.0000 -7.3993 0.0000 18.9378
#
#
#
# Elastic Compliance Matrix: (Units=1/GPa)
#
#
# Indices 1 2 3 4 5 6 
#
# 1 0.028352 -0.007071 -0.005026 0.000000 -0.002021 0.000000
# 2 -0.007071 0.016954 -0.007474 0.000000 0.003228 0.000000
# 3 -0.005026 -0.007474 0.023436 0.000000 0.026962 0.000000
# 4 0.000000 0.000000 0.000000 0.035585 0.000000 0.013904
# 5 -0.002021 0.003228 0.026962 0.000000 0.099268 0.000000
# 6 0.000000 0.000000 0.000000 0.013904 0.000000 0.058237
#
#
# Mechanical properties :
#
#
# Convention : Reuss Voigt Hill
#
# Bulk Modulus (GPa) = 33.78425 59.38945 46.58685
# Shear Modulus (GPa) = 16.08534 22.17161 19.12848
#
# Velocity S-wave (km/s) = 3.19179 3.74730 3.48065
# Velocity P-wave (km/s) = 5.91443 7.50579 6.75712
#
# Compressibility (1/GPa) = 0.02959959
#
# Stress axis : x y z
#
# Youngs Moduli (GPa) = 35.27088 58.98181 42.66878
#
# Poissons Ratio (x) = 0.41707 0.21446
# Poissons Ratio (y) = 0.24940 0.31892
# Poissons Ratio (z) = 0.17727 0.44085
#
# Static dielectric constant tensor:
#      x y z
#    x 2.492680 0.000000 -0.302030 
#    y 0.000000 3.103360 0.000000 
#    z -0.302030 0.000000 3.327710 
# 
# 
# High freq. dielectric constant tensor:
#      x y z
#    x 1.534740 0.000000 -0.034820 
#    y 0.000000 1.620220 0.000000 
#    z -0.034820 0.000000 1.613480 
# 
# From -- ./inp_files/287514.got.cif
#   From: 2010.06.25/outbox.cif.g09.slc.cpg/sg12_144_cif.got.tgz:287514.got - 2010.06.28 00:19:55.
