data_PCOD8078007
_publ_section_title
;
Structure prediction by ZEFSAII (Michael W. Deem and Ramdas Pophale) SiO2 
 PCOD8078007
Probable space group: P 21/M
;
_chemical_formula_sum "Si O2"
_cell_formula_units_Z 32
_cell_length_a 27.000000
_cell_length_b 9.000000
_cell_length_c 21.000000
_cell_angle_alpha 90.000000
_cell_angle_beta 20.000000
_cell_angle_gamma 90.000000
_cell_volume 1745.328791
_symmetry_space_group_name_H-M "P 21/M"
_symmetry_group_IT_number 11
_symmetry_cell_setting 'monoclinic'
loop_
_space_group_symop_operation_xyz
x,y,z
-x,1/2+y,-z
-x,-y,-z
x,1/2-y,z
loop_
_atom_site_type_symbol
_atom_site_label
_atom_site_fract_x
_atom_site_fract_y
_atom_site_fract_z
Si Si1 0.071687 0.922253 0.352983
Si Si2 0.132307 0.913992 0.897464
Si Si3 0.724586 0.926829 0.062733
Si Si4 0.386783 0.576641 0.926834
Si Si5 0.021906 0.426009 0.674904
Si Si6 0.153021 0.578182 0.732342
Si Si7 0.716331 0.924201 0.548310
Si Si8 0.392358 0.582974 0.676001
O O1 0.045098 0.750000 0.395281
O O2 0.988861 0.971630 0.387282
O O3 0.245725 0.956778 0.141834
O O4 0.000000 0.000000 0.500000
O O5 0.060608 0.750000 0.974828
O O6 0.210092 0.956731 0.735636
O O7 0.241957 0.906615 0.822048
O O8 0.014901 0.032934 0.061974
O O9 0.736753 0.750000 0.049731
O O10 0.636400 0.976380 0.106994
O O11 0.626213 0.985096 0.238811
O O12 0.886239 0.995046 0.873000
O O13 0.384397 0.750000 0.910025
O O14 0.544299 0.537081 0.769188
O O15 0.000075 0.250000 0.708156
O O16 0.174336 0.476111 0.525667
O O17 0.167033 0.750000 0.697315
O O18 0.239972 0.491560 0.572668
O O19 0.734871 0.750000 0.519059
O O20 0.500000 0.500000 0.500000
O O21 0.447059 0.750000 0.626749
#
# Coordination Sequence:
#
# PCOD8078007 Si02
#       8
#     4   4   4   4   4   4   4   4
#     4   9  18  35  59  84 114 148 183 220 262 317
#     4   9  20  37  51  68  98 136 178 222 273 330
#     4  11  22  36  55  79 108 144 186 232 279 331
#     4   9  20  38  58  83 112 147 186 225 272 329
#     4   9  19  37  59  83 111 145 183 223 267 324
#     4  10  20  33  52  76 103 134 172 222 274 326
#     4  10  20  35  57  81 107 142 183 224 274 326
#     4  11  23  37  52  72 101 138 183 232 281 330
#
# _framework density 18.334654
#
# number of rings (size 3 to 8) (size 9 to 14) (size 15 to 20)
#    0.000    2.250    0.000    3.375    1.750    7.500 
#    0.000    0.625    0.000    0.000    0.000    0.000 
#    0.000    0.000    0.000    0.000    0.000    0.000 
#
# Total GULP energy -396518.249085 kJ/mol
# GULP energy per Si atom -12391.195284 kJ/mol
# Density = 1.829292 g / cm^3
# Si number density = 18.334654 Si / 1000 Ang^3
#
#
#
# Elastic Constant Matrix: (Units=GPa)
#
#
# Indices 1 2 3 4 5 6 
#
# 1 95.3911 35.3258 62.4158 0.0000 3.6277 0.0000
# 2 35.3258 71.7071 39.8934 0.0000 4.7742 0.0000
# 3 62.4158 39.8934 127.7890 0.0000 5.2808 0.0000
# 4 0.0000 0.0000 0.0000 31.2456 0.0000 6.5135
# 5 3.6277 4.7742 5.2808 0.0000 41.3611 0.0000
# 6 0.0000 0.0000 0.0000 6.5135 0.0000 28.5611
#
#
#
# Elastic Compliance Matrix: (Units=1/GPa)
#
#
# Indices 1 2 3 4 5 6 
#
# 1 0.016483 -0.004402 -0.006673 0.000000 -0.000086 0.000000
# 2 -0.004402 0.018120 -0.003455 0.000000 -0.001264 0.000000
# 3 -0.006673 -0.003455 0.012187 0.000000 -0.000572 0.000000
# 4 0.000000 0.000000 0.000000 0.033602 0.000000 -0.007663
# 5 -0.000086 -0.001264 -0.000572 0.000000 0.024404 0.000000
# 6 0.000000 0.000000 0.000000 -0.007663 0.000000 0.036760
#
#
# Mechanical properties :
#
#
# Convention : Reuss Voigt Hill
#
# Bulk Modulus (GPa) = 56.39856 63.35082 59.87469
# Shear Modulus (GPa) = 28.32461 30.71702 29.52082
#
# Velocity S-wave (km/s) = 3.93474 4.09755 4.01697
# Velocity P-wave (km/s) = 7.17428 7.55076 7.36493
#
# Compressibility (1/GPa) = 0.01773095
#
# Stress axis : x y z
#
# Youngs Moduli (GPa) = 60.66942 55.18674 82.05665
#
# Poissons Ratio (x) = 0.24293 0.54756
# Poissons Ratio (y) = 0.26707 0.28347
# Poissons Ratio (z) = 0.40484 0.19064
#
# Static dielectric constant tensor:
#      x y z
#    x 3.709690 0.000000 -0.194130 
#    y 0.000000 3.538020 0.000000 
#    z -0.194130 0.000000 3.648290 
# 
# 
# High freq. dielectric constant tensor:
#      x y z
#    x 1.716430 0.000000 -0.007760 
#    y 0.000000 1.715240 0.000000 
#    z -0.007760 0.000000 1.712030 
# 
# From -- ./inp_files/67048.got.cif
#   From: 2010.06.25/outbox.ucp.g09.slc.cvg/sg11_34_cif.got.tgz:67048.got - 2010.06.28 13:43:20.
