data_PCOD8078301
_publ_section_title
;
Structure prediction by ZEFSAII (Michael W. Deem and Ramdas Pophale) SiO2 
 PCOD8078301
Probable space group: C 2/M
;
_chemical_formula_sum "Si O2"
_cell_formula_units_Z 48
_cell_length_a 23.881733
_cell_length_b 17.768827
_cell_length_c 14.099884
_cell_angle_alpha 90.000000
_cell_angle_beta 32.013733
_cell_angle_gamma 90.000000
_cell_volume 3171.877356
_symmetry_space_group_name_H-M "C 2/M"
_symmetry_group_IT_number 12
_symmetry_cell_setting 'monoclinic'
loop_
_space_group_symop_operation_xyz
x,y,z
-x,y,-z
-x,-y,-z
x,-y,z
1/2+x,1/2+y,z
1/2-x,1/2+y,-z
1/2-x,1/2-y,-z
1/2+x,1/2-y,z
loop_
_atom_site_type_symbol
_atom_site_label
_atom_site_fract_x
_atom_site_fract_y
_atom_site_fract_z
Si Si1 0.711200 0.583969 0.772990
Si Si2 0.210443 0.585109 0.548675
Si Si3 0.908612 0.228791 0.052850
Si Si4 0.450634 0.087152 0.471066
Si Si5 0.036332 0.313205 0.718142
Si Si6 0.778445 0.212138 0.558574
O O1 0.673425 0.500000 0.856000
O O2 0.721505 0.590608 0.644773
O O3 0.623432 0.643895 0.932926
O O4 0.825032 0.601759 0.655485
O O5 0.183660 0.500000 0.614757
O O6 0.100816 0.630272 0.694126
O O7 0.277950 0.622405 0.537857
O O8 0.805195 0.269168 0.240689
O O9 0.000000 0.225801 0.000000
O O10 0.941582 0.276408 0.913377
O O11 0.500000 0.110444 0.500000
O O12 0.505558 0.138737 0.311450
O O13 0.473296 0.000000 0.413480
O O14 0.107953 0.244429 0.574448
O O15 0.750000 0.250000 0.500000
#
# Coordination Sequence:
#
# PCOD8078301 Si02
#       6
#     8   8   8   8   8   8
#     4   9  17  29  45  67  93 119 154 198 229 263
#     4   9  15  27  44  62  88 124 158 188 220 259
#     4  12  18  27  46  69  98 132 154 179 232 276
#     4   9  17  33  55  71  87 116 154 201 249 273
#     4  10  18  29  46  67  95 123 152 191 234 275
#     4  10  16  29  41  63  95 129 159 182 219 277
#
# _framework density 15.132994
#
# number of rings (size 3 to 8) (size 9 to 14) (size 15 to 20)
#    0.000    2.167    8.333    1.500    0.000    0.333 
#    0.000    4.167    0.000    0.000    0.000    0.000 
#    0.000    1.333    0.000    0.000    0.000    0.000 
#
# Total GULP energy -297439.372532 kJ/mol
# GULP energy per Si atom -12393.307189 kJ/mol
# Density = 1.509855 g / cm^3
# Si number density = 15.132994 Si / 1000 Ang^3
#
#
#
# Elastic Constant Matrix: (Units=GPa)
#
#
# Indices 1 2 3 4 5 6 
#
# 1 69.1571 41.0734 26.6956 0.0000 7.6550 0.0000
# 2 41.0734 118.9771 44.8114 0.0000 9.8652 0.0000
# 3 26.6956 44.8114 88.0768 0.0000 13.8347 0.0000
# 4 0.0000 0.0000 0.0000 29.5146 0.0000 3.2633
# 5 7.6550 9.8652 13.8347 0.0000 10.2679 0.0000
# 6 0.0000 0.0000 0.0000 3.2633 0.0000 21.2762
#
#
#
# Elastic Compliance Matrix: (Units=1/GPa)
#
#
# Indices 1 2 3 4 5 6 
#
# 1 0.019110 -0.005276 -0.002113 0.000000 -0.006330 0.000000
# 2 -0.005276 0.011962 -0.004185 0.000000 -0.001920 0.000000
# 3 -0.002113 -0.004185 0.016800 0.000000 -0.017039 0.000000
# 4 0.000000 0.000000 0.000000 0.034466 0.000000 -0.005286
# 5 -0.006330 -0.001920 -0.017039 0.000000 0.126914 0.000000
# 6 0.000000 0.000000 0.000000 -0.005286 0.000000 0.047812
#
#
# Mechanical properties :
#
#
# Convention : Reuss Voigt Hill
#
# Bulk Modulus (GPa) = 40.44908 55.70798 48.07853
# Shear Modulus (GPa) = 17.33377 23.12045 20.22711
#
# Velocity S-wave (km/s) = 3.38809 3.91297 3.65995
# Velocity P-wave (km/s) = 6.48788 7.57016 7.04982
#
# Compressibility (1/GPa) = 0.02472244
#
# Stress axis : x y z
#
# Youngs Moduli (GPa) = 52.32867 83.59820 59.52361
#
# Poissons Ratio (x) = 0.44109 0.12579
# Poissons Ratio (y) = 0.27610 0.24911
# Poissons Ratio (z) = 0.11059 0.34987
#
# Static dielectric constant tensor:
#      x y z
#    x 2.727980 0.000000 -0.018460 
#    y 0.000000 3.442950 0.000000 
#    z -0.018460 0.000000 2.766900 
# 
# 
# High freq. dielectric constant tensor:
#      x y z
#    x 1.534940 0.000000 -0.000230 
#    y 0.000000 1.591330 0.000000 
#    z -0.000230 0.000000 1.557430 
# 
# From -- ./inp_files/241011.got.cif
#   From: 2010.06.25/outbox.cif.g09.slc.cpg/sg12_121_cif.got.tgz:241011.got - 2010.06.28 00:19:55.
