data_PCOD8078768
_publ_section_title
;
Structure prediction by ZEFSAII (Michael W. Deem and Ramdas Pophale) SiO2 
 PCOD8078768
Probable space group: C 2/M
;
_chemical_formula_sum "Si O2"
_cell_formula_units_Z 48
_cell_length_a 15.346810
_cell_length_b 13.522775
_cell_length_c 12.335450
_cell_angle_alpha 90.000000
_cell_angle_beta 93.286645
_cell_angle_gamma 90.000000
_cell_volume 2555.783271
_symmetry_space_group_name_H-M "C 2/M"
_symmetry_group_IT_number 12
_symmetry_cell_setting 'monoclinic'
loop_
_space_group_symop_operation_xyz
x,y,z
-x,y,-z
-x,-y,-z
x,-y,z
1/2+x,1/2+y,z
1/2-x,1/2+y,-z
1/2-x,1/2-y,-z
1/2+x,1/2-y,z
loop_
_atom_site_type_symbol
_atom_site_label
_atom_site_fract_x
_atom_site_fract_y
_atom_site_fract_z
Si Si1 0.436695 0.885271 0.895177
Si Si2 0.548855 0.290004 0.253658
Si Si3 0.902484 0.110095 0.536231
Si Si4 0.257429 0.616168 0.098053
Si Si5 0.631794 0.384173 0.697131
Si Si6 0.406733 0.616273 0.954624
O O1 0.459056 0.823619 0.787609
O O2 0.341393 0.848467 0.928483
O O3 0.439171 0.000000 0.861493
O O4 0.500000 0.862797 0.000000
O O5 0.602981 0.307180 0.369477
O O6 0.451171 0.328363 0.260363
O O7 0.603597 0.353613 0.170619
O O8 0.845985 0.144015 0.426655
O O9 0.000000 0.102408 0.500000
O O10 0.873614 0.000000 0.575364
O O11 0.260424 0.500000 0.081907
O O12 0.285464 0.644380 0.222980
O O13 0.325805 0.662910 0.016800
O O14 0.609173 0.500000 0.703444
O O15 0.407816 0.500000 0.970007
O O16 0.500000 0.661372 0.000000
#
# Coordination Sequence:
#
# PCOD8078768 Si02
#       6
#     8   8   8   8   8   8
#     4  10  23  40  51  65  95 142 192 220 241 282
#     4  11  18  29  49  76 103 135 166 203 250 302
#     4   8  15  27  48  79 112 135 152 188 253 327
#     4   9  18  33  52  74 103 136 167 206 255 304
#     4   9  16  30  54  83 110 130 154 197 262 326
#     4  10  17  26  46  80 113 127 147 200 267 325
#
# _framework density 18.780936000000001
#
# number of rings (size 3 to 8) (size 9 to 14) (size 15 to 20)
#    0.000    2.500    1.667    3.000    0.000    0.667 
#    0.000    0.833    0.000    4.500    0.000    0.000 
#    0.000    0.000    0.000    0.000    0.000    0.000 
#
# Total GULP energy -297344.468563 kJ/mol
# GULP energy per Si atom -12389.352857 kJ/mol
# Density = 1.873819 g / cm^3
# Si number density = 18.780936 Si / 1000 Ang^3
#
#
#
# Elastic Constant Matrix: (Units=GPa)
#
#
# Indices 1 2 3 4 5 6 
#
# 1 108.0569 23.9763 62.6685 0.0000 12.1031 0.0000
# 2 23.9763 74.7609 45.9900 0.0000 -4.2639 0.0000
# 3 62.6685 45.9900 153.9600 0.0000 7.8251 0.0000
# 4 0.0000 0.0000 0.0000 28.5632 0.0000 -9.5001
# 5 12.1031 -4.2639 7.8251 0.0000 17.9986 0.0000
# 6 0.0000 0.0000 0.0000 -9.5001 0.0000 -2.0001
#
#
#
# Elastic Compliance Matrix: (Units=1/GPa)
#
#
# Indices 1 2 3 4 5 6 
#
# 1 0.013027 -0.001914 -0.004359 0.000000 -0.007318 0.000000
# 2 -0.001914 0.017361 -0.004787 0.000000 0.007481 0.000000
# 3 -0.004359 -0.004787 0.009825 0.000000 -0.002475 0.000000
# 4 0.000000 0.000000 0.000000 0.013571 0.000000 -0.064460
# 5 -0.007318 0.007481 -0.002475 0.000000 0.063329 0.000000
# 6 0.000000 0.000000 0.000000 -0.064460 0.000000 -0.193805
#
#
# Mechanical properties :
#
#
# Convention : Reuss Voigt Hill
#
# Bulk Modulus (GPa) = 55.26851 66.89416 61.08133
# Shear Modulus (GPa) = -103.00615 22.52187 -40.24214
#
# Velocity S-wave (km/s) = -7.41385 3.46669 -4.63397
# Velocity P-wave (km/s) = 6.61778 7.19161 1.99051
#
# Compressibility (1/GPa) = 0.01809349
#
# Stress axis : x y z
#
# Youngs Moduli (GPa) = 76.76595 57.59903 101.77862
#
# Poissons Ratio (x) = 0.11023 0.44363
# Poissons Ratio (y) = 0.14691 0.48725
# Poissons Ratio (z) = 0.33461 0.27575
#
# Static dielectric constant tensor:
#      x y z
#    x 3.509790 0.000000 0.179470 
#    y 0.000000 3.256960 0.000000 
#    z 0.179470 0.000000 3.924360 
# 
# 
# High freq. dielectric constant tensor:
#      x y z
#    x 1.704270 0.000000 0.010520 
#    y 0.000000 1.711500 0.000000 
#    z 0.010520 0.000000 1.731640 
# 
# From -- ./inp_files/142992.got.cif
#   From: 2010.06.25/outbox.cif.g09.slc.cpg/sg12_72_cif.got.tgz:142992.got - 2010.06.28 00:19:55.
