data_PCOD8078717
_publ_section_title
;
Structure prediction by ZEFSAII (Michael W. Deem and Ramdas Pophale) SiO2 
 PCOD8078717
Probable space group: C 2/M
;
_chemical_formula_sum "Si O2"
_cell_formula_units_Z 64
_cell_length_a 19.393931
_cell_length_b 8.884256
_cell_length_c 26.777604
_cell_angle_alpha 90.000000
_cell_angle_beta 50.604449
_cell_angle_gamma 90.000000
_cell_volume 3565.464403
_symmetry_space_group_name_H-M "C 2/M"
_symmetry_group_IT_number 12
_symmetry_cell_setting 'monoclinic'
loop_
_space_group_symop_operation_xyz
x,y,z
-x,y,-z
-x,-y,-z
x,-y,z
1/2+x,1/2+y,z
1/2-x,1/2+y,-z
1/2-x,1/2-y,-z
1/2+x,1/2-y,z
loop_
_atom_site_type_symbol
_atom_site_label
_atom_site_fract_x
_atom_site_fract_y
_atom_site_fract_z
Si Si1 0.061023 0.176389 0.928868
Si Si2 0.733827 0.176605 0.384905
Si Si3 0.834813 0.326686 0.483521
Si Si4 0.066213 0.675091 0.206681
Si Si5 0.406699 0.825316 0.350527
Si Si6 0.769530 0.322227 0.270501
Si Si7 0.458196 0.676260 0.174234
Si Si8 0.257268 0.822208 0.819603
O O1 0.019683 0.213994 0.893656
O O2 0.162857 0.236454 0.885097
O O3 0.063558 0.000000 0.937259
O O4 0.000000 0.253361 0.000000
O O5 0.656949 0.221789 0.461699
O O6 0.831169 0.221809 0.360896
O O7 0.711769 0.266924 0.344484
O O8 0.733616 0.000000 0.372715
O O9 0.810984 0.500000 0.495887
O O10 0.750000 0.250000 0.500000
O O11 0.915513 0.294903 0.407052
O O12 0.060997 0.500000 0.195229
O O13 0.165755 0.722245 0.176924
O O14 0.001195 0.715213 0.282600
O O15 0.041515 0.770322 0.169041
O O16 0.381633 0.000000 0.352162
O O17 0.770280 0.500000 0.267380
O O18 0.870311 0.264089 0.231998
O O19 0.724313 0.256829 0.241652
O O20 0.440403 0.500000 0.189610
O O21 0.254889 0.000000 0.810441
#
# Coordination Sequence:
#
# PCOD8078717 Si02
#       8
#     8   8   8   8   8   8   8   8
#     4   8  15  31  54  75  96 128 167 201 234 277
#     4  10  17  26  43  67  93 122 160 206 247 289
#     4   8  15  25  38  60  90 121 157 199 242 288
#     4  10  19  31  49  73 103 132 159 198 245 291
#     4   9  16  27  43  65  94 128 160 195 244 294
#     4  11  20  31  48  70  96 127 164 207 251 292
#     4  10  19  31  51  76 100 127 163 201 237 286
#     4   9  19  34  51  73  99 129 164 200 241 290
#
# _framework density 17.949974999999998
#
# number of rings (size 3 to 8) (size 9 to 14) (size 15 to 20)
#    0.000    2.625    1.250    2.625    0.000    1.000 
#    0.000    0.625    0.000   10.125    0.000    5.250 
#    0.000    0.000    0.000    0.000    0.000    0.000 
#
# Total GULP energy -396506.974585 kJ/mol
# GULP energy per Si atom -12390.842956 kJ/mol
# Density = 1.790912 g / cm^3
# Si number density = 17.949975 Si / 1000 Ang^3
#
#
#
# Elastic Constant Matrix: (Units=GPa)
#
#
# Indices 1 2 3 4 5 6 
#
# 1 95.9376 31.0675 44.4425 0.0000 8.4845 0.0008
# 2 31.0675 57.3841 26.1187 0.0000 8.7268 0.0007
# 3 44.4425 26.1187 120.7567 0.0000 18.0411 0.0000
# 4 0.0000 0.0000 0.0000 14.7802 0.0000 4.8325
# 5 8.4845 8.7268 18.0411 0.0000 20.4214 0.0000
# 6 0.0008 0.0007 0.0000 4.8325 0.0000 22.9843
#
#
#
# Elastic Compliance Matrix: (Units=1/GPa)
#
#
# Indices 1 2 3 4 5 6 
#
# 1 0.014148 -0.005879 -0.003954 0.000000 0.000128 0.000000
# 2 -0.005879 0.022276 -0.001840 0.000000 -0.005451 0.000000
# 3 -0.003954 -0.001840 0.011257 0.000000 -0.007516 0.000000
# 4 0.000000 0.000000 0.000000 0.072652 0.000000 -0.015275
# 5 0.000128 -0.005451 -0.007516 0.000000 0.057884 0.000000
# 6 0.000000 0.000000 0.000000 -0.015275 0.000000 0.046720
#
#
# Mechanical properties :
#
#
# Convention : Reuss Voigt Hill
#
# Bulk Modulus (GPa) = 41.09476 53.03733 47.06604
# Shear Modulus (GPa) = 19.50112 23.13383 21.31748
#
# Velocity S-wave (km/s) = 3.29966 3.59387 3.44990
# Velocity P-wave (km/s) = 6.12052 6.84344 6.49205
#
# Compressibility (1/GPa) = 0.02433400
#
# Stress axis : x y z
#
# Youngs Moduli (GPa) = 70.68231 44.89171 88.83123
#
# Poissons Ratio (x) = 0.26393 0.35127
# Poissons Ratio (y) = 0.41555 0.16345
# Poissons Ratio (z) = 0.27950 0.08260
#
# Static dielectric constant tensor:
#      x y z
#    x 3.062180 0.000000 0.212720 
#    y 0.000000 3.164730 0.000000 
#    z 0.212720 0.000000 3.874490 
# 
# 
# High freq. dielectric constant tensor:
#      x y z
#    x 1.658700 0.000000 0.023560 
#    y 0.000000 1.683730 0.000000 
#    z 0.023560 0.000000 1.700190 
# 
# From -- ./inp_files/365162.got.cif
#   From: 2010.06.25/outbox.cif.g09.slc.cpg/sg12_183_cif.got.tgz:365162.got - 2010.06.28 00:19:55.
