data_PCOD8078350
_publ_section_title
;
Structure prediction by ZEFSAII (Michael W. Deem and Ramdas Pophale) SiO2 
 PCOD8078350
Probable space group: C 2/M
;
_chemical_formula_sum "Si O2"
_cell_formula_units_Z 56
_cell_length_a 5.286122
_cell_length_b 15.297049
_cell_length_c 32.175326
_cell_angle_alpha 90.000000
_cell_angle_beta 99.456044
_cell_angle_gamma 90.000000
_cell_volume 2566.410437
_symmetry_space_group_name_H-M "C 2/M"
_symmetry_group_IT_number 12
_symmetry_cell_setting 'monoclinic'
loop_
_space_group_symop_operation_xyz
x,y,z
-x,y,-z
-x,-y,-z
x,-y,z
1/2+x,1/2+y,z
1/2-x,1/2+y,-z
1/2-x,1/2-y,-z
1/2+x,1/2-y,z
loop_
_atom_site_type_symbol
_atom_site_label
_atom_site_fract_x
_atom_site_fract_y
_atom_site_fract_z
Si Si1 0.493911 0.104610 0.243915
Si Si2 0.267896 0.347775 0.517896
Si Si3 0.767866 0.848543 0.017866
Si Si4 0.137212 0.806802 0.887215
Si Si5 0.911020 0.603618 0.661015
Si Si6 0.862454 0.895944 0.612447
Si Si7 0.948607 0.897605 0.198611
O O1 0.541570 0.140517 0.291573
O O2 0.719197 0.142204 0.220425
O O3 0.221644 0.142204 0.220425
O O4 0.492949 0.000000 0.242955
O O5 0.500000 0.396712 0.500000
O O6 0.250000 0.250000 0.500000
O O7 0.318080 0.347065 0.568081
O O8 0.000000 0.396712 0.500000
O O9 0.818066 0.854906 0.068068
O O10 0.500000 0.896770 0.000000
O O11 0.750000 0.750000 0.000000
O O12 0.000000 0.896770 0.000000
O O13 0.382761 0.749998 0.882768
O O14 0.100988 0.879147 0.850984
O O15 0.912492 0.500000 0.662492
O O16 0.635375 0.636455 0.637444
O O17 0.139532 0.636453 0.637445
O O18 0.855605 0.000000 0.605596
O O19 0.955834 0.000000 0.205838
#
# Coordination Sequence:
#
# PCOD8078350 Si02
#       7
#     8   8   8   8   8   8   8
#     4   9  17  33  54  78 109 145 178 210 257 330
#     4  10  21  36  52  73  99 139 178 205 245 316
#     4  10  16  30  49  75 100 127 181 234 263 321
#     4  12  21  33  55  84 104 144 183 231 278 317
#     4   9  17  30  52  82 108 131 170 216 262 303
#     4  10  19  31  51  83 110 127 163 227 268 288
#     4  10  21  35  53  81 114 147 181 218 268 331
#
# _framework density 21.820360999999998
#
# number of rings (size 3 to 8) (size 9 to 14) (size 15 to 20)
#    0.000    2.000    2.857    2.571    0.000    4.000 
#    0.000    0.000    0.000    0.857   74.286    0.000 
#    0.000    0.000    0.000    0.000    0.000    0.000 
#
# Total GULP energy -347145.090183 kJ/mol
# GULP energy per Si atom -12398.038935 kJ/mol
# Density = 2.177070 g / cm^3
# Si number density = 21.820361 Si / 1000 Ang^3
#
#
#
# Elastic Constant Matrix: (Units=GPa)
#
#
# Indices 1 2 3 4 5 6 
#
# 1 259.7725 9.9773 104.1713 0.0000 2.9117 0.0000
# 2 9.9773 14.5566 16.0341 0.0000 -0.3201 0.0000
# 3 104.1713 16.0341 231.4568 0.0000 -1.4137 0.0000
# 4 0.0000 0.0000 0.0000 31.4811 0.0000 -0.4486
# 5 2.9117 -0.3201 -1.4137 0.0000 50.4897 0.0000
# 6 0.0000 0.0000 0.0000 -0.4486 0.0000 22.9657
#
#
#
# Elastic Compliance Matrix: (Units=1/GPa)
#
#
# Indices 1 2 3 4 5 6 
#
# 1 0.004716 -0.000974 -0.002057 0.000000 -0.000336 0.000000
# 2 -0.000974 0.074579 -0.004726 0.000000 0.000397 0.000000
# 3 -0.002057 -0.004726 0.005575 0.000000 0.000245 0.000000
# 4 0.000000 0.000000 0.000000 0.031774 0.000000 0.000621
# 5 -0.000336 0.000397 0.000245 0.000000 0.019835 0.000000
# 6 0.000000 0.000000 0.000000 0.000621 0.000000 0.043555
#
#
# Mechanical properties :
#
#
# Convention : Reuss Voigt Hill
#
# Bulk Modulus (GPa) = 14.41823 85.12793 49.77308
# Shear Modulus (GPa) = 22.86602 46.02752 34.44677
#
# Velocity S-wave (km/s) = 3.24067 4.59779 3.97754
# Velocity P-wave (km/s) = 4.54144 8.20268 6.62980
#
# Compressibility (1/GPa) = 0.06935662
#
# Stress axis : x y z
#
# Youngs Moduli (GPa) = 212.06559 13.40862 179.36984
#
# Poissons Ratio (x) = 0.01306 0.36895
# Poissons Ratio (y) = 0.20651 0.84765
# Poissons Ratio (z) = 0.43620 0.06337
#
# Static dielectric constant tensor:
#      x y z
#    x 7.689530 0.000000 0.189960 
#    y 0.000000 3.140340 0.000000 
#    z 0.189960 0.000000 4.093990 
# 
# 
# High freq. dielectric constant tensor:
#      x y z
#    x 1.892530 0.000000 0.001120 
#    y 0.000000 1.796630 0.000000 
#    z 0.001120 0.000000 1.871270 
# 
# From -- ./inp_files/354960.got.cif
#   From: 2010.06.25/outbox.cif.g09.slc.cpg/sg12_178_cif.got.tgz:354960.got - 2010.06.28 00:19:55.
