data_PCOD8078168
_publ_section_title
;
Structure prediction by ZEFSAII (Michael W. Deem and Ramdas Pophale) SiO2 
 PCOD8078168
Probable space group: C 2/M
;
_chemical_formula_sum "Si O2"
_cell_formula_units_Z 44
_cell_length_a 5.270695
_cell_length_b 23.731123
_cell_length_c 26.169742
_cell_angle_alpha 90.000000
_cell_angle_beta 127.446644
_cell_angle_gamma 90.000000
_cell_volume 2598.736844
_symmetry_space_group_name_H-M "C 2/M"
_symmetry_group_IT_number 12
_symmetry_cell_setting 'monoclinic'
loop_
_space_group_symop_operation_xyz
x,y,z
-x,y,-z
-x,-y,-z
x,-y,z
1/2+x,1/2+y,z
1/2-x,1/2+y,-z
1/2-x,1/2-y,-z
1/2+x,1/2-y,z
loop_
_atom_site_type_symbol
_atom_site_label
_atom_site_fract_x
_atom_site_fract_y
_atom_site_fract_z
Si Si1 0.000000 0.787172 0.500000
Si Si2 0.147509 0.626930 0.384545
Si Si3 0.272242 0.933405 0.425902
Si Si4 0.655576 0.215643 0.720369
Si Si5 0.725354 0.684530 0.074906
Si Si6 0.889993 0.808524 0.129437
O O1 0.250000 0.750000 0.500000
O O2 0.188979 0.824237 0.563357
O O3 0.412571 0.586133 0.392793
O O4 0.903057 0.591753 0.389231
O O5 0.948363 0.655339 0.314492
O O6 0.500000 0.913022 0.500000
O O7 0.275073 0.000000 0.421312
O O8 0.341742 0.249649 0.699537
O O9 0.883694 0.205068 0.795901
O O10 0.763528 0.751269 0.087859
O O11 0.578553 0.656995 0.108634
O O12 0.076243 0.657055 0.108970
O O13 0.500000 0.670732 0.000000
#
# Coordination Sequence:
#
# PCOD8078168 Si02
#       6
#     4   8   8   8   8   8
#     4  12  22  36  49  74 107 134 164 204 234 282
#     4  12  23  37  56  78 100 130 172 200 261 309
#     4  11  22  41  62  79  96 117 156 225 278 314
#     4  12  21  35  48  68 103 145 173 202 230 293
#     4  10  16  25  41  60  85 121 179 224 235 256
#     4  10  16  27  39  59  88 124 172 208 227 276
#
# _framework density 16.931301999999999
#
# number of rings (size 3 to 8) (size 9 to 14) (size 15 to 20)
#    0.000    0.909    5.455    6.545    0.000    1.455 
#    0.000    0.000    0.000    0.000    0.000    0.000 
#    0.000    0.000    0.000    0.000    0.000  105.455 
#
# Total GULP energy -272775.522888 kJ/mol
# GULP energy per Si atom -12398.887404 kJ/mol
# Density = 1.689277 g / cm^3
# Si number density = 16.931302 Si / 1000 Ang^3
#
#
#
# Elastic Constant Matrix: (Units=GPa)
#
#
# Indices 1 2 3 4 5 6 
#
# 1 167.0749 25.1967 26.8158 0.0000 -17.5489 0.0000
# 2 25.1967 43.6929 21.2228 0.0000 -7.8473 0.0000
# 3 26.8158 21.2228 54.9826 0.0000 -5.9114 0.0000
# 4 0.0000 0.0000 0.0000 -10.3898 0.0000 -1.6063
# 5 -17.5489 -7.8473 -5.9114 0.0000 16.2677 0.0000
# 6 0.0000 0.0000 0.0000 -1.6063 0.0000 26.5012
#
#
#
# Elastic Compliance Matrix: (Units=1/GPa)
#
#
# Indices 1 2 3 4 5 6 
#
# 1 0.007274 -0.002089 -0.002088 0.000000 0.006081 0.000000
# 2 -0.002089 0.030433 -0.009774 0.000000 0.008876 0.000000
# 3 -0.002088 -0.009774 0.023133 0.000000 0.001439 0.000000
# 4 0.000000 0.000000 0.000000 -0.095354 0.000000 -0.005780
# 5 0.006081 0.008876 0.001439 0.000000 0.072836 0.000000
# 6 0.000000 0.000000 0.000000 -0.005780 0.000000 0.037384
#
#
# Mechanical properties :
#
#
# Convention : Reuss Voigt Hill
#
# Bulk Modulus (GPa) = 30.35850 45.80233 38.08042
# Shear Modulus (GPa) = 43.63522 19.31015 31.47268
#
# Velocity S-wave (km/s) = 5.08211 3.38079 4.31611
# Velocity P-wave (km/s) = 7.23923 6.50771 6.88320
#
# Compressibility (1/GPa) = 0.03293970
#
# Stress axis : x y z
#
# Youngs Moduli (GPa) = 137.47362 32.85900 43.22792
#
# Poissons Ratio (x) = 0.06863 0.09025
# Poissons Ratio (y) = 0.28713 0.42251
# Poissons Ratio (z) = 0.28701 0.32116
#
# Static dielectric constant tensor:
#      x y z
#    x 9.808540 0.000000 -0.084630 
#    y 0.000000 2.712130 0.000000 
#    z -0.084630 0.000000 3.221580 
# 
# 
# High freq. dielectric constant tensor:
#      x y z
#    x 1.695260 0.000000 -0.001350 
#    y 0.000000 1.583900 0.000000 
#    z -0.001350 0.000000 1.654360 
# 
# From -- ./inp_files/355034.got.cif
#   From: 2010.06.25/outbox.cif.g09.slc.cpg/sg12_178_cif.got.tgz:355034.got - 2010.06.28 00:19:55.
