data_PCOD8078801
_publ_section_title
;
Structure prediction by ZEFSAII (Michael W. Deem and Ramdas Pophale) SiO2 
 PCOD8078801
Probable space group: C 2/M
;
_chemical_formula_sum "Si O2"
_cell_formula_units_Z 64
_cell_length_a 28.947562
_cell_length_b 9.152069
_cell_length_c 28.517157
_cell_angle_alpha 90.000000
_cell_angle_beta 150.456000
_cell_angle_gamma 90.000000
_cell_volume 3725.334596
_symmetry_space_group_name_H-M "C 2/M"
_symmetry_group_IT_number 12
_symmetry_cell_setting 'monoclinic'
loop_
_space_group_symop_operation_xyz
x,y,z
-x,y,-z
-x,-y,-z
x,-y,z
1/2+x,1/2+y,z
1/2-x,1/2+y,-z
1/2-x,1/2-y,-z
1/2+x,1/2-y,z
loop_
_atom_site_type_symbol
_atom_site_label
_atom_site_fract_x
_atom_site_fract_y
_atom_site_fract_z
Si Si1 0.390322 0.336452 0.286198
Si Si2 0.097060 0.836303 0.440046
Si Si3 0.618363 0.828754 0.910053
Si Si4 0.152928 0.672253 0.405351
Si Si5 0.818246 0.172313 0.124889
Si Si6 0.918523 0.327547 0.758064
Si Si7 0.263808 0.326424 0.357472
Si Si8 0.896655 0.824641 0.393824
O O1 0.349517 0.500000 0.249434
O O2 0.502303 0.337525 0.385620
O O3 0.347631 0.260214 0.201686
O O4 0.365763 0.263674 0.314892
O O5 0.082680 0.728183 0.383605
O O6 0.180180 0.778077 0.546610
O O7 0.120925 0.000000 0.443167
O O8 0.621773 0.747314 0.863178
O O9 0.526942 0.776558 0.859449
O O10 0.611452 0.000000 0.892289
O O11 0.708610 0.792108 0.021101
O O12 0.164488 0.500000 0.418107
O O13 0.250000 0.750000 0.500000
O O14 0.113183 0.725667 0.320917
O O15 0.839960 0.000000 0.141583
O O16 0.913103 0.500000 0.756357
O O17 0.844150 0.267641 0.731653
O O18 0.266257 0.500000 0.355705
O O19 0.316589 0.262801 0.358365
O O20 0.000000 0.766854 0.500000
O O21 0.899200 0.000000 0.395047
#
# Coordination Sequence:
#
# PCOD8078801 Si02
#       8
#     8   8   8   8   8   8   8   8
#     4   9  16  25  41  65  91 113 139 184 230 255
#     4  10  17  27  42  61  87 114 141 175 213 253
#     4   9  17  30  47  63  85 118 149 172 207 267
#     4  11  20  29  41  59  86 115 145 176 208 252
#     4   9  17  29  45  67  91 111 137 182 227 253
#     4   9  17  28  41  58  83 116 147 172 205 254
#     4   9  15  24  39  59  84 112 144 177 206 247
#     4   9  14  22  38  62  88 114 145 179 218 260
#
# _framework density 17.179665
#
# number of rings (size 3 to 8) (size 9 to 14) (size 15 to 20)
#    0.000    2.625    2.500    1.125    0.000    0.000 
#    0.000    0.625    0.000    0.750    0.000    7.875 
#    0.000    0.000    0.000    6.250    0.000    6.500 
#
# Total GULP energy -396436.779475 kJ/mol
# GULP energy per Si atom -12388.649359 kJ/mol
# Density = 1.714056 g / cm^3
# Si number density = 17.179665 Si / 1000 Ang^3
#
#
#
# Elastic Constant Matrix: (Units=GPa)
#
#
# Indices 1 2 3 4 5 6 
#
# 1 142.6809 13.6546 58.8928 0.0000 9.2516 0.0000
# 2 13.6546 19.4078 7.4445 0.0001 -1.2690 0.0000
# 3 58.8928 7.4445 89.3372 0.0000 8.4713 0.0000
# 4 0.0000 0.0001 0.0000 12.3397 0.0000 -0.5724
# 5 9.2516 -1.2690 8.4713 0.0000 29.1850 0.0000
# 6 0.0000 0.0000 0.0000 -0.5724 0.0000 14.1061
#
#
#
# Elastic Compliance Matrix: (Units=1/GPa)
#
#
# Indices 1 2 3 4 5 6 
#
# 1 0.010097 -0.004874 -0.006094 0.000000 -0.001644 0.000000
# 2 -0.004874 0.055972 -0.001880 0.000000 0.004525 0.000000
# 3 -0.006094 -0.001880 0.015622 0.000000 -0.002684 0.000000
# 4 0.000000 0.000000 0.000000 0.081192 0.000000 0.003294
# 5 -0.001644 0.004525 -0.002684 0.000000 0.035761 0.000000
# 6 0.000000 0.000000 0.000000 0.003294 0.000000 0.071025
#
#
# Mechanical properties :
#
#
# Convention : Reuss Voigt Hill
#
# Bulk Modulus (GPa) = 17.85891 45.71220 31.78556
# Shear Modulus (GPa) = 15.92202 22.55510 19.23856
#
# Velocity S-wave (km/s) = 3.04763 3.62732 3.35004
# Velocity P-wave (km/s) = 4.77515 6.64901 5.78841
#
# Compressibility (1/GPa) = 0.05599445
#
# Stress axis : x y z
#
# Youngs Moduli (GPa) = 99.03853 17.86618 64.01150
#
# Poissons Ratio (x) = 0.08708 0.39010
# Poissons Ratio (y) = 0.48269 0.12036
# Poissons Ratio (z) = 0.60356 0.03359
#
# Static dielectric constant tensor:
#      x y z
#    x 3.633210 0.000000 0.116140 
#    y 0.000000 2.881180 0.000000 
#    z 0.116140 0.000000 3.327290 
# 
# 
# High freq. dielectric constant tensor:
#      x y z
#    x 1.667300 0.000000 0.010320 
#    y 0.000000 1.604790 0.000000 
#    z 0.010320 0.000000 1.653220 
# 
# From -- ./inp_files/384612.got.cif
#   From: 2010.06.25/outbox.cif.g09.slc.cpg/sg12_193_cif.got.tgz:384612.got - 2010.06.28 00:19:55.
