data_PCOD8078298
_publ_section_title
;
Structure prediction by ZEFSAII (Michael W. Deem and Ramdas Pophale) SiO2 
 PCOD8078298
Probable space group: C 2/M
;
_chemical_formula_sum "Si O2"
_cell_formula_units_Z 56
_cell_length_a 24.347880
_cell_length_b 18.872106
_cell_length_c 9.888878
_cell_angle_alpha 90.000000
_cell_angle_beta 43.858552
_cell_angle_gamma 90.000000
_cell_volume 3148.377597
_symmetry_space_group_name_H-M "C 2/M"
_symmetry_group_IT_number 12
_symmetry_cell_setting 'monoclinic'
loop_
_space_group_symop_operation_xyz
x,y,z
-x,y,-z
-x,-y,-z
x,-y,z
1/2+x,1/2+y,z
1/2-x,1/2+y,-z
1/2-x,1/2-y,-z
1/2+x,1/2-y,z
loop_
_atom_site_type_symbol
_atom_site_label
_atom_site_fract_x
_atom_site_fract_y
_atom_site_fract_z
Si Si1 0.304886 0.173902 0.097253
Si Si2 0.647077 0.673366 0.082979
Si Si3 0.061389 0.652567 0.507557
Si Si4 0.707048 0.081678 0.135250
Si Si5 0.371258 0.305381 0.577430
Si Si6 0.995552 0.174408 0.855379
Si Si7 0.966373 0.339115 0.924971
O O1 0.218789 0.184869 0.316361
O O2 0.331236 0.243785 0.968046
O O3 0.302273 0.108017 0.001008
O O4 0.370626 0.155636 0.093682
O O5 0.618200 0.662738 0.289580
O O6 0.581320 0.648433 0.091627
O O7 0.723422 0.625704 0.914860
O O8 0.123468 0.591552 0.359581
O O9 0.110029 0.722528 0.458369
O O10 0.000000 0.673034 0.500000
O O11 0.008001 0.622351 0.724839
O O12 0.730960 0.000000 0.093139
O O13 0.427578 0.346833 0.370985
O O14 0.993428 0.258209 0.872516
O O15 0.000000 0.140908 0.000000
O O16 0.000000 0.375891 0.000000
#
# Coordination Sequence:
#
# PCOD8078298 Si02
#       7
#     8   8   8   8   8   8   8
#     4  10  17  33  53  75 103 135 168 209 257 296
#     4  10  17  33  54  74 103 133 168 207 254 303
#     4  11  17  31  50  74 102 135 168 205 250 298
#     4  11  21  32  51  80 103 128 172 218 248 291
#     4  10  16  28  54  77 100 132 169 204 253 303
#     4   9  18  30  47  80 108 128 160 213 259 297
#     4   9  18  31  47  75 109 134 167 209 246 298
#
# _framework density 17.786940000000001
#
# number of rings (size 3 to 8) (size 9 to 14) (size 15 to 20)
#    0.000    2.000    4.286    3.000    0.000    0.286 
#    2.571    2.857    0.000    9.000    0.000    0.000 
#    0.000    0.000    0.000    0.000    0.000    0.000 
#
# Total GULP energy -347070.102913 kJ/mol
# GULP energy per Si atom -12395.360818 kJ/mol
# Density = 1.774646 g / cm^3
# Si number density = 17.786940 Si / 1000 Ang^3
#
#
#
# Elastic Constant Matrix: (Units=GPa)
#
#
# Indices 1 2 3 4 5 6 
#
# 1 137.2786 10.1358 66.5758 0.0000 -8.4392 0.0000
# 2 10.1358 42.8908 6.3539 0.0000 -4.3298 0.0000
# 3 66.5758 6.3539 106.4983 0.0000 -10.3361 0.0000
# 4 0.0000 0.0000 0.0000 10.6293 0.0000 -2.2447
# 5 -8.4392 -4.3298 -10.3361 0.0000 30.8972 0.0000
# 6 0.0000 0.0000 0.0000 -2.2447 0.0000 4.1722
#
#
#
# Elastic Compliance Matrix: (Units=1/GPa)
#
#
# Indices 1 2 3 4 5 6 
#
# 1 0.010560 -0.001486 -0.006463 0.000000 0.000514 0.000000
# 2 -0.001486 0.023990 -0.000223 0.000000 0.002881 0.000000
# 3 -0.006463 -0.000223 0.013714 0.000000 0.002791 0.000000
# 4 0.000000 0.000000 0.000000 0.106139 0.000000 0.057106
# 5 0.000514 0.002881 0.002791 0.000000 0.033843 0.000000
# 6 0.000000 0.000000 0.000000 0.057106 0.000000 0.270408
#
#
# Mechanical properties :
#
#
# Convention : Reuss Voigt Hill
#
# Bulk Modulus (GPa) = 31.32731 50.31096 40.81914
# Shear Modulus (GPa) = 10.29572 22.71321 16.50447
#
# Velocity S-wave (km/s) = 2.40851 3.57733 3.04945
# Velocity P-wave (km/s) = 5.03839 6.73868 5.94959
#
# Compressibility (1/GPa) = 0.03192103
#
# Stress axis : x y z
#
# Youngs Moduli (GPa) = 94.69601 41.68385 72.91706
#
# Poissons Ratio (x) = 0.06195 0.47126
# Poissons Ratio (y) = 0.14074 0.01623
# Poissons Ratio (z) = 0.61201 0.00928
#
# Static dielectric constant tensor:
#      x y z
#    x 3.541230 0.000000 -0.063140 
#    y 0.000000 2.689300 0.000000 
#    z -0.063140 0.000000 3.634500 
# 
# 
# High freq. dielectric constant tensor:
#      x y z
#    x 1.696120 0.000000 -0.017260 
#    y 0.000000 1.621800 0.000000 
#    z -0.017260 0.000000 1.689950 
# 
# From -- ./inp_files/98796.got.cif
#   From: 2010.06.25/outbox.cif.g09.slc.cpg/sg12_50_cif.got.tgz:98796.got - 2010.06.28 00:19:55.
