data_PCOD8078439
_publ_section_title
;
Structure prediction by ZEFSAII (Michael W. Deem and Ramdas Pophale) SiO2 
 PCOD8078439
Probable space group: C 2/M
;
_chemical_formula_sum "Si O2"
_cell_formula_units_Z 44
_cell_length_a 8.453210
_cell_length_b 17.911480
_cell_length_c 20.951663
_cell_angle_alpha 90.000000
_cell_angle_beta 50.200225
_cell_angle_gamma 90.000000
_cell_volume 2437.219089
_symmetry_space_group_name_H-M "C 2/M"
_symmetry_group_IT_number 12
_symmetry_cell_setting 'monoclinic'
loop_
_space_group_symop_operation_xyz
x,y,z
-x,y,-z
-x,-y,-z
x,-y,z
1/2+x,1/2+y,z
1/2-x,1/2+y,-z
1/2-x,1/2-y,-z
1/2+x,1/2-y,z
loop_
_atom_site_type_symbol
_atom_site_label
_atom_site_fract_x
_atom_site_fract_y
_atom_site_fract_z
Si Si1 0.389028 0.786085 0.851513
Si Si2 0.569519 0.298461 0.617552
Si Si3 0.723611 0.818582 0.254964
Si Si4 0.106149 0.649996 0.910746
Si Si5 0.491316 0.414674 0.743518
Si Si6 0.500000 0.738171 0.500000
O O1 0.328474 0.836309 0.805569
O O2 0.597012 0.742213 0.782011
O O3 0.202340 0.728309 0.910346
O O4 0.428257 0.837514 0.903189
O O5 0.474596 0.217498 0.660079
O O6 0.472741 0.364133 0.685029
O O7 0.537191 0.315521 0.551041
O O8 0.812442 0.292980 0.565848
O O9 0.804574 0.893628 0.268245
O O10 0.284319 0.596339 0.838256
O O11 0.000000 0.612069 0.000000
O O12 0.510366 0.500000 0.717497
#
# Coordination Sequence:
#
# PCOD8078439 Si02
#       6
#     8   8   8   8   8   4
#     4   9  16  29  54  84 102 141 194 236 268 310
#     4  11  18  37  58  86 108 143 185 230 271 338
#     4  10  16  33  60  77 108 143 190 227 264 334
#     4  10  19  32  54  84 115 147 188 236 279 323
#     4  11  23  37  56  82 117 154 181 227 288 337
#     4  10  22  30  64  90 104 134 196 232 274 316
#
# _framework density 18.053363000000001
#
# number of rings (size 3 to 8) (size 9 to 14) (size 15 to 20)
#    0.000    1.818    7.273    0.545    0.000    0.364 
#    0.000    1.818    0.000    1.091    0.000    0.000 
#    0.000    0.000    0.000    0.000    0.000    0.000 
#
# Total GULP energy -272713.780051 kJ/mol
# GULP energy per Si atom -12396.080911 kJ/mol
# Density = 1.801227 g / cm^3
# Si number density = 18.053363 Si / 1000 Ang^3
#
#
#
# Elastic Constant Matrix: (Units=GPa)
#
#
# Indices 1 2 3 4 5 6 
#
# 1 108.6050 29.7196 33.3060 0.0001 12.1216 0.0005
# 2 29.7196 74.6426 34.7866 0.0001 6.0256 0.0000
# 3 33.3060 34.7866 110.3366 0.0001 -0.3122 -0.0002
# 4 0.0001 0.0001 0.0001 7.9596 0.0000 2.2207
# 5 12.1216 6.0256 -0.3122 0.0000 28.2613 0.0002
# 6 0.0005 0.0000 -0.0002 2.2207 0.0002 15.3553
#
#
#
# Elastic Compliance Matrix: (Units=1/GPa)
#
#
# Indices 1 2 3 4 5 6 
#
# 1 0.011253 -0.002991 -0.002466 0.000000 -0.004216 0.000000
# 2 -0.002991 0.016834 -0.004411 0.000000 -0.002355 0.000000
# 3 -0.002466 -0.004411 0.011204 0.000000 0.002122 0.000000
# 4 0.000000 0.000000 0.000000 0.130916 0.000000 -0.018934
# 5 -0.004216 -0.002355 0.002122 0.000000 0.037718 0.000000
# 6 0.000000 0.000000 0.000000 -0.018934 0.000000 0.067863
#
#
# Mechanical properties :
#
#
# Convention : Reuss Voigt Hill
#
# Bulk Modulus (GPa) = 51.13695 54.35652 52.74674
# Shear Modulus (GPa) = 16.55400 23.36671 19.96035
#
# Velocity S-wave (km/s) = 3.03140 3.60156 3.32871
# Velocity P-wave (km/s) = 6.37491 6.88979 6.63734
#
# Compressibility (1/GPa) = 0.01955533
#
# Stress axis : x y z
#
# Youngs Moduli (GPa) = 88.86616 59.40368 89.25203
#
# Poissons Ratio (x) = 0.17767 0.22007
# Poissons Ratio (y) = 0.26580 0.39371
# Poissons Ratio (z) = 0.21912 0.26204
#
# Static dielectric constant tensor:
#      x y z
#    x 3.836120 0.000000 0.090240 
#    y 0.000000 2.790450 0.000000 
#    z 0.090240 0.000000 3.408320 
# 
# 
# High freq. dielectric constant tensor:
#      x y z
#    x 1.719880 0.000000 0.005310 
#    y 0.000000 1.625090 0.000000 
#    z 0.005310 0.000000 1.710650 
# 
# From -- ./inp_files/300380.got.cif
#   From: 2010.06.25/outbox.cif.g09.slc.cpg/sg12_151_cif.got.tgz:300380.got - 2010.06.28 00:19:55.
