data_PCOD8078731
_publ_section_title
;
Structure prediction by ZEFSAII (Michael W. Deem and Ramdas Pophale) SiO2 
 PCOD8078731
Probable space group: C 2/M
;
_chemical_formula_sum "Si O2"
_cell_formula_units_Z 60
_cell_length_a 22.753735
_cell_length_b 13.470418
_cell_length_c 20.139346
_cell_angle_alpha 90.000000
_cell_angle_beta 35.814797
_cell_angle_gamma 90.000000
_cell_volume 3612.094015
_symmetry_space_group_name_H-M "C 2/M"
_symmetry_group_IT_number 12
_symmetry_cell_setting 'monoclinic'
loop_
_space_group_symop_operation_xyz
x,y,z
-x,y,-z
-x,-y,-z
x,-y,z
1/2+x,1/2+y,z
1/2-x,1/2+y,-z
1/2-x,1/2-y,-z
1/2+x,1/2-y,z
loop_
_atom_site_type_symbol
_atom_site_label
_atom_site_fract_x
_atom_site_fract_y
_atom_site_fract_z
Si Si1 0.820795 0.610104 0.574722
Si Si2 0.320164 0.756626 0.082440
Si Si3 0.402733 0.386630 0.898326
Si Si4 0.368781 0.384366 0.776650
Si Si5 0.500000 0.264629 0.000000
Si Si6 0.600122 0.613164 0.793074
Si Si7 0.818741 0.607251 0.730047
Si Si8 0.503102 0.762829 0.418107
O O1 0.836273 0.500000 0.526674
O O2 0.707789 0.651829 0.666842
O O3 0.843313 0.595142 0.631017
O O4 0.899379 0.695941 0.480386
O O5 0.241719 0.844372 0.141770
O O6 0.277201 0.676686 0.173424
O O7 0.341773 0.695760 0.995298
O O8 0.421226 0.798994 0.026725
O O9 0.366498 0.500000 0.947080
O O10 0.387589 0.360149 0.835915
O O11 0.520733 0.376963 0.806369
O O12 0.368869 0.500000 0.760911
O O13 0.460529 0.338273 0.650377
O O14 0.436367 0.331273 0.108334
O O15 0.617057 0.500000 0.800386
O O16 0.798315 0.500000 0.781530
O O17 0.915407 0.654378 0.676795
O O18 0.500000 0.742508 0.500000
#
# Coordination Sequence:
#
# PCOD8078731 Si02
#       8
#     8   8   8   8   4   8   8   8
#     4   9  15  25  42  69 100 125 143 174 223 278
#     4  10  18  29  48  72  96 122 149 181 226 280
#     4   9  18  31  48  71  97 124 150 180 222 279
#     4  10  21  36  49  63  87 121 164 203 231 259
#     4  10  17  26  43  72 100 122 144 180 220 280
#     4   9  16  25  43  71 103 128 144 168 218 283
#     4   9  15  24  41  69 101 124 141 172 222 281
#     4   9  18  30  46  65  88 118 159 199 233 263
#
# _framework density 16.610862999999998
#
# number of rings (size 3 to 8) (size 9 to 14) (size 15 to 20)
#    0.000    2.667    1.333    1.400    0.000    2.933 
#    0.000    1.000    0.000    0.800    0.000    0.000 
#    0.000    0.000    0.000    0.000    0.000    0.000 
#
# Total GULP energy -371679.489883 kJ/mol
# GULP energy per Si atom -12389.316329 kJ/mol
# Density = 1.657306 g / cm^3
# Si number density = 16.610863 Si / 1000 Ang^3
#
#
#
# Elastic Constant Matrix: (Units=GPa)
#
#
# Indices 1 2 3 4 5 6 
#
# 1 81.6484 36.0284 38.8540 0.0000 -12.5297 0.0000
# 2 36.0284 81.1908 42.5971 0.0000 -7.2528 0.0000
# 3 38.8540 42.5971 82.7982 0.0000 -19.6819 0.0000
# 4 0.0000 0.0000 0.0000 22.3433 0.0000 -0.8546
# 5 -12.5297 -7.2528 -19.6819 0.0000 26.2159 0.0000
# 6 0.0000 0.0000 0.0000 -0.8546 0.0000 20.0939
#
#
#
# Elastic Compliance Matrix: (Units=1/GPa)
#
#
# Indices 1 2 3 4 5 6 
#
# 1 0.017152 -0.004799 -0.004804 0.000000 0.003263 0.000000
# 2 -0.004799 0.018323 -0.007930 0.000000 -0.003178 0.000000
# 3 -0.004804 -0.007930 0.021112 0.000000 0.011360 0.000000
# 4 0.000000 0.000000 0.000000 0.044829 0.000000 0.001907
# 5 0.003263 -0.003178 0.011360 0.000000 0.047354 0.000000
# 6 0.000000 0.000000 0.000000 0.001907 0.000000 0.049847
#
#
# Mechanical properties :
#
#
# Convention : Reuss Voigt Hill
#
# Bulk Modulus (GPa) = 46.46705 53.39961 49.93333
# Shear Modulus (GPa) = 20.75912 22.27449 21.51680
#
# Velocity S-wave (km/s) = 3.53899 3.66588 3.60300
# Velocity P-wave (km/s) = 6.68834 7.08064 6.88728
#
# Compressibility (1/GPa) = 0.02152063
#
# Stress axis : x y z
#
# Youngs Moduli (GPa) = 58.30120 54.57640 47.36626
#
# Poissons Ratio (x) = 0.26193 0.22755
# Poissons Ratio (y) = 0.27981 0.37561
# Poissons Ratio (z) = 0.28008 0.43279
#
# Static dielectric constant tensor:
#      x y z
#    x 3.071550 0.000000 -0.283600 
#    y 0.000000 2.981420 0.000000 
#    z -0.283600 0.000000 3.248630 
# 
# 
# High freq. dielectric constant tensor:
#      x y z
#    x 1.628460 0.000000 -0.022800 
#    y 0.000000 1.611660 0.000000 
#    z -0.022800 0.000000 1.637620 
# 
# From -- ./inp_files/321827.got.cif
#   From: 2010.06.25/outbox.cif.g09.slc.cpg/sg12_161_cif.got.tgz:321827.got - 2010.06.28 00:19:55.
