data_PCOD8078326
_publ_section_title
;
Structure prediction by ZEFSAII (Michael W. Deem and Ramdas Pophale) SiO2 
 PCOD8078326
Probable space group: C 2/M
;
_chemical_formula_sum "Si O2"
_cell_formula_units_Z 48
_cell_length_a 13.879999
_cell_length_b 19.792092
_cell_length_c 17.086819
_cell_angle_alpha 90.000000
_cell_angle_beta 31.890945
_cell_angle_gamma 90.000000
_cell_volume 2479.855542
_symmetry_space_group_name_H-M "C 2/M"
_symmetry_group_IT_number 12
_symmetry_cell_setting 'monoclinic'
loop_
_space_group_symop_operation_xyz
x,y,z
-x,y,-z
-x,-y,-z
x,-y,z
1/2+x,1/2+y,z
1/2-x,1/2+y,-z
1/2-x,1/2-y,-z
1/2+x,1/2-y,z
loop_
_atom_site_type_symbol
_atom_site_label
_atom_site_fract_x
_atom_site_fract_y
_atom_site_fract_z
Si Si1 0.864894 0.771472 0.698239
Si Si2 0.111048 0.207586 0.146870
Si Si3 0.234862 0.698512 0.626002
Si Si4 0.933170 0.075288 0.238424
Si Si5 0.865632 0.623491 0.663125
Si Si6 0.835843 0.575551 0.433649
O O1 0.809854 0.801957 0.820088
O O2 0.766249 0.813589 0.697294
O O3 0.793374 0.694509 0.746155
O O4 0.083561 0.771739 0.538324
O O5 0.918304 0.245652 0.283446
O O6 0.088644 0.132676 0.125428
O O7 0.250000 0.250000 0.000000
O O8 0.180443 0.626857 0.627003
O O9 0.801885 0.079286 0.253382
O O10 0.822555 0.089471 0.394368
O O11 0.019754 0.000000 0.179677
O O12 0.000000 0.641762 0.500000
O O13 0.967549 0.582101 0.660560
O O14 0.819185 0.500000 0.411036
#
# Coordination Sequence:
#
# PCOD8078326 Si02
#       6
#     8   8   8   8   8   8
#     4  11  20  35  62  88 114 147 204 250 291 342
#     4  12  24  38  59  87 119 163 201 240 293 357
#     4  11  20  37  60  86 117 153 197 252 288 344
#     4  10  20  36  57  88 124 154 191 241 303 360
#     4  10  16  29  57  89 116 146 188 244 297 348
#     4  10  19  32  57  91 123 153 191 247 305 352
#
# _framework density 19.355967
#
# number of rings (size 3 to 8) (size 9 to 14) (size 15 to 20)
#    0.000    1.333    6.667    2.000    0.000    2.667 
#    0.000    3.333    0.000    1.000    0.000    2.333 
#    0.000    0.000    0.000    0.000    0.000    0.000 
#
# Total GULP energy -297610.364424 kJ/mol
# GULP energy per Si atom -12400.431851 kJ/mol
# Density = 1.931191 g / cm^3
# Si number density = 19.355967 Si / 1000 Ang^3
#
#
#
# Elastic Constant Matrix: (Units=GPa)
#
#
# Indices 1 2 3 4 5 6 
#
# 1 117.0751 54.3451 37.7364 -0.0343 13.7167 0.0438
# 2 54.3451 158.7716 33.9526 0.0027 -3.8192 0.0355
# 3 37.7364 33.9526 41.0937 -0.0408 8.1598 0.0523
# 4 -0.0343 0.0027 -0.0408 22.0683 0.0455 -0.4404
# 5 13.7167 -3.8192 8.1598 0.0455 13.8843 -0.0329
# 6 0.0438 0.0355 0.0523 -0.4404 -0.0329 33.8764
#
#
#
# Elastic Compliance Matrix: (Units=1/GPa)
#
#
# Indices 1 2 3 4 5 6 
#
# 1 0.013779 -0.003232 -0.008042 0.000027 -0.009776 -0.000011
# 2 -0.003232 0.008980 -0.006313 -0.000037 0.009373 0.000013
# 3 -0.008042 -0.006313 0.040420 0.000098 -0.017547 -0.000061
# 4 0.000027 -0.000037 0.000098 0.045326 -0.000242 0.000589
# 5 -0.009776 0.009373 -0.017547 -0.000242 0.094573 0.000118
# 6 -0.000011 0.000013 -0.000061 0.000589 0.000118 0.029527
#
#
# Mechanical properties :
#
#
# Convention : Reuss Voigt Hill
#
# Bulk Modulus (GPa) = 35.70735 63.22317 49.46526
# Shear Modulus (GPa) = 18.04305 26.69289 22.36797
#
# Velocity S-wave (km/s) = 3.05646 3.71759 3.40312
# Velocity P-wave (km/s) = 5.56270 7.15273 6.40723
#
# Compressibility (1/GPa) = 0.02800544
#
# Stress axis : x y z
#
# Youngs Moduli (GPa) = 72.57300 111.35821 24.74017
#
# Poissons Ratio (x) = 0.35989 0.19896
# Poissons Ratio (y) = 0.23454 0.15619
# Poissons Ratio (z) = 0.58364 0.70301
#
# Static dielectric constant tensor:
#      x y z
#    x 3.821580 -0.000040 0.027200 
#    y -0.000040 3.468640 0.000080 
#    z 0.027200 0.000080 3.080500 
# 
# 
# High freq. dielectric constant tensor:
#      x y z
#    x 1.762910 0.000000 0.002700 
#    y 0.000000 1.750190 0.000010 
#    z 0.002700 0.000010 1.700310 
# 
# From -- ./inp_files/89431.got.cif
#   From: 2010.06.25/outbox.cif.g09.slc.cpg/sg12_45_cif.got.tgz:89431.got - 2010.06.28 00:19:55.
