data_PCOD8078834
_publ_section_title
;
Structure prediction by ZEFSAII (Michael W. Deem and Ramdas Pophale) SiO2 
 PCOD8078834
Probable space group: C 2/M
;
_chemical_formula_sum "Si O2"
_cell_formula_units_Z 64
_cell_length_a 27.276051
_cell_length_b 8.816533
_cell_length_c 17.022681
_cell_angle_alpha 90.000000
_cell_angle_beta 77.405979
_cell_angle_gamma 90.000000
_cell_volume 3995.123389
_symmetry_space_group_name_H-M "C 2/M"
_symmetry_group_IT_number 12
_symmetry_cell_setting 'monoclinic'
loop_
_space_group_symop_operation_xyz
x,y,z
-x,y,-z
-x,-y,-z
x,-y,z
1/2+x,1/2+y,z
1/2-x,1/2+y,-z
1/2-x,1/2-y,-z
1/2+x,1/2-y,z
loop_
_atom_site_type_symbol
_atom_site_label
_atom_site_fract_x
_atom_site_fract_y
_atom_site_fract_z
Si Si1 0.938906 0.822010 0.690740
Si Si2 0.441174 0.670412 0.005650
Si Si3 0.425159 0.178846 0.168838
Si Si4 0.871608 0.828285 0.324811
Si Si5 0.117883 0.821785 0.439474
Si Si6 0.960465 0.321433 0.842552
Si Si7 0.039964 0.830609 0.588032
Si Si8 0.304550 0.179704 0.477952
O O1 0.890783 0.795376 0.650543
O O2 0.931725 0.735053 0.774765
O O3 0.987732 0.750208 0.629515
O O4 0.946559 0.000000 0.706017
O O5 0.419561 0.500000 0.011983
O O6 0.414539 0.764160 0.084286
O O7 0.500000 0.670448 0.000000
O O8 0.430495 0.749287 0.926041
O O9 0.381449 0.251201 0.237449
O O10 0.480955 0.229126 0.178062
O O11 0.419616 0.000000 0.173755
O O12 0.924822 0.826310 0.348845
O O13 0.831141 0.735231 0.389036
O O14 0.851954 0.000000 0.320286
O O15 0.068975 0.757002 0.503680
O O16 0.166523 0.733252 0.453274
O O17 0.124982 0.000000 0.457383
O O18 0.955872 0.500000 0.851246
O O19 0.025470 0.000000 0.567937
O O20 0.250000 0.250000 0.500000
O O21 0.301383 0.000000 0.478225
#
# Coordination Sequence:
#
# PCOD8078834 Si02
#       8
#     8   8   8   8   8   8   8   8
#     4  10  17  27  44  64  90 124 160 191 221 267
#     4   9  17  28  42  58  80 117 163 199 230 271
#     4  10  18  28  42  63  92 122 154 194 236 272
#     4  10  18  30  49  70  92 120 157 192 228 274
#     4   9  18  31  47  68  90 117 154 191 229 273
#     4  10  19  28  39  59  91 125 158 195 235 270
#     4   8  14  25  42  62  87 118 153 188 220 258
#     4  11  22  37  54  70  92 118 149 190 239 285
#
# _framework density 16.019528999999999
#
# number of rings (size 3 to 8) (size 9 to 14) (size 15 to 20)
#    0.000    2.375    1.250    3.750    0.000    4.500 
#    0.000    0.000    0.000    2.250    0.000    0.000 
#    0.000    1.000    0.000    3.750    0.000    5.750 
#
# Total GULP energy -396663.273239 kJ/mol
# GULP energy per Si atom -12395.727289 kJ/mol
# Density = 1.598307 g / cm^3
# Si number density = 16.019529 Si / 1000 Ang^3
#
#
#
# Elastic Constant Matrix: (Units=GPa)
#
#
# Indices 1 2 3 4 5 6 
#
# 1 57.9472 33.2243 47.5618 0.0000 1.2914 0.0000
# 2 33.2243 92.3249 48.6744 0.0000 2.0542 0.0000
# 3 47.5618 48.6744 117.8524 0.0000 14.0354 0.0000
# 4 0.0000 0.0000 0.0000 28.5086 0.0000 0.8575
# 5 1.2914 2.0542 14.0354 0.0000 16.3898 0.0000
# 6 0.0000 0.0000 0.0000 0.8575 0.0000 17.7253
#
#
#
# Elastic Compliance Matrix: (Units=1/GPa)
#
#
# Indices 1 2 3 4 5 6 
#
# 1 0.028351 -0.004960 -0.010246 0.000000 0.007162 0.000000
# 2 -0.004960 0.014899 -0.004427 0.000000 0.002315 0.000000
# 3 -0.010246 -0.004427 0.015909 0.000000 -0.012261 0.000000
# 4 0.000000 0.000000 0.000000 0.035128 0.000000 -0.001699
# 5 0.007162 0.002315 -0.012261 0.000000 0.070659 0.000000
# 6 0.000000 0.000000 0.000000 -0.001699 0.000000 0.056499
#
#
# Mechanical properties :
#
#
# Convention : Reuss Voigt Hill
#
# Bulk Modulus (GPa) = 50.27136 58.56060 54.41598
# Shear Modulus (GPa) = 18.70257 21.76901 20.23579
#
# Velocity S-wave (km/s) = 3.42056 3.69033 3.55800
# Velocity P-wave (km/s) = 6.85928 7.40224 7.13593
#
# Compressibility (1/GPa) = 0.01989204
#
# Stress axis : x y z
#
# Youngs Moduli (GPa) = 35.27196 67.11917 62.85734
#
# Poissons Ratio (x) = 0.33291 0.64404
# Poissons Ratio (y) = 0.17495 0.27829
# Poissons Ratio (z) = 0.36140 0.29716
#
# Static dielectric constant tensor:
#      x y z
#    x 2.677270 0.000000 0.092740 
#    y 0.000000 3.002630 0.000000 
#    z 0.092740 0.000000 3.124580 
# 
# 
# High freq. dielectric constant tensor:
#      x y z
#    x 1.558790 0.000000 0.012540 
#    y 0.000000 1.613930 0.000000 
#    z 0.012540 0.000000 1.619060 
# 
# From -- ./inp_files/294575.got.cif
#   From: 2010.06.25/outbox.cif.g09.slc.cpg/sg12_148_cif.got.tgz:294575.got - 2010.06.28 00:19:55.
