data_PCOD8078437
_publ_section_title
;
Structure prediction by ZEFSAII (Michael W. Deem and Ramdas Pophale) SiO2 
 PCOD8078437
Probable space group: C 2/M
;
_chemical_formula_sum "Si O2"
_cell_formula_units_Z 32
_cell_length_a 13.934110
_cell_length_b 16.054030
_cell_length_c 12.540847
_cell_angle_alpha 90.000000
_cell_angle_beta 140.952147
_cell_angle_gamma 90.000000
_cell_volume 1767.296906
_symmetry_space_group_name_H-M "C 2/M"
_symmetry_group_IT_number 12
_symmetry_cell_setting 'monoclinic'
loop_
_space_group_symop_operation_xyz
x,y,z
-x,y,-z
-x,-y,-z
x,-y,z
1/2+x,1/2+y,z
1/2-x,1/2+y,-z
1/2-x,1/2-y,-z
1/2+x,1/2-y,z
loop_
_atom_site_type_symbol
_atom_site_label
_atom_site_fract_x
_atom_site_fract_y
_atom_site_fract_z
Si Si1 0.265077 0.500000 0.729450
Si Si2 0.967673 0.907545 0.590520
Si Si3 0.649881 0.000000 0.856405
Si Si4 0.194483 0.500000 0.426966
Si Si5 0.661115 0.666029 0.936803
Si Si6 0.000000 0.868123 0.000000
O O1 0.143737 0.500000 0.721796
O O2 0.183944 0.500000 0.545857
O O3 0.373934 0.420986 0.829503
O O4 0.000000 0.871937 0.500000
O O5 0.042510 0.844030 0.737879
O O6 0.043971 0.000000 0.666267
O O7 0.786037 0.918382 0.460944
O O8 0.480869 0.000000 0.762213
O O9 0.736199 0.083001 0.969425
O O10 0.750000 0.750000 0.000000
O O11 0.576061 0.686054 0.973824
#
# Coordination Sequence:
#
# PCOD8078437 Si02
#       6
#     4   8   4   4   8   4
#     4   9  15  29  61  79 111 145 189 230 288 333
#     4   9  18  37  60  79 113 162 194 222 288 346
#     4  10  21  34  56  91 114 144 197 243 291 334
#     4  10  16  33  58  86 114 151 186 238 292 342
#     4  11  21  39  60  85 117 151 196 239 285 350
#     4   9  16  34  56  83 104 152 188 235 278 339
#
# _framework density 18.106748
#
# number of rings (size 3 to 8) (size 9 to 14) (size 15 to 20)
#    0.750    1.500    3.750    1.125    0.000    0.000 
#    4.500    7.500    0.000    0.000    0.000    0.000 
#    0.000    0.000    0.000    0.000    0.000    0.000 
#
# Total GULP energy -198215.861532 kJ/mol
# GULP energy per Si atom -12388.491346 kJ/mol
# Density = 1.806554 g / cm^3
# Si number density = 18.106748 Si / 1000 Ang^3
#
#
#
# Elastic Constant Matrix: (Units=GPa)
#
#
# Indices 1 2 3 4 5 6 
#
# 1 148.0261 52.6775 60.6610 0.0000 3.0763 0.0000
# 2 52.6775 88.9346 26.5606 0.0000 0.4819 0.0000
# 3 60.6610 26.5606 70.4716 0.0000 0.0522 0.0000
# 4 0.0000 0.0000 0.0000 12.9946 0.0000 3.8822
# 5 3.0763 0.4819 0.0522 0.0000 33.7717 0.0000
# 6 0.0000 0.0000 0.0000 3.8822 0.0000 23.4061
#
#
#
# Elastic Compliance Matrix: (Units=1/GPa)
#
#
# Indices 1 2 3 4 5 6 
#
# 1 0.011862 -0.004475 -0.008523 0.000000 -0.001003 0.000000
# 2 -0.004475 0.014360 -0.001560 0.000000 0.000205 0.000000
# 3 -0.008523 -0.001560 0.022114 0.000000 0.000764 0.000000
# 4 0.000000 0.000000 0.000000 0.080967 0.000000 -0.013429
# 5 -0.001003 0.000205 0.000764 0.000000 0.029698 0.000000
# 6 0.000000 0.000000 0.000000 -0.013429 0.000000 0.044951
#
#
# Mechanical properties :
#
#
# Convention : Reuss Voigt Hill
#
# Bulk Modulus (GPa) = 52.03205 65.24782 58.63993
# Shear Modulus (GPa) = 20.87904 25.20336 23.04120
#
# Velocity S-wave (km/s) = 3.39943 3.73491 3.57111
# Velocity P-wave (km/s) = 6.64882 7.39680 7.03276
#
# Compressibility (1/GPa) = 0.01921892
#
# Stress axis : x y z
#
# Youngs Moduli (GPa) = 84.30547 69.63930 45.22006
#
# Poissons Ratio (x) = 0.31164 0.38541
# Poissons Ratio (y) = 0.37727 0.07056
# Poissons Ratio (z) = 0.71853 0.10866
#
# Static dielectric constant tensor:
#      x y z
#    x 3.559950 0.000000 -0.086710 
#    y 0.000000 2.726250 0.000000 
#    z -0.086710 0.000000 3.126660 
# 
# 
# High freq. dielectric constant tensor:
#      x y z
#    x 1.716550 0.000000 -0.009940 
#    y 0.000000 1.659300 0.000000 
#    z -0.009940 0.000000 1.690050 
# 
# From -- ./inp_files/58301.got.cif
#   From: 2010.06.25/outbox.cif.g09.slc.cpg/sg12_30_cif.got.tgz:58301.got - 2010.06.28 00:19:55.
