data_PCOD8078468
_publ_section_title
;
Structure prediction by ZEFSAII (Michael W. Deem and Ramdas Pophale) SiO2 
 PCOD8078468
Probable space group: C 2/M
;
_chemical_formula_sum "Si O2"
_cell_formula_units_Z 64
_cell_length_a 24.477287
_cell_length_b 8.850611
_cell_length_c 18.807292
_cell_angle_alpha 90.000000
_cell_angle_beta 79.523142
_cell_angle_gamma 90.000000
_cell_volume 4006.465410
_symmetry_space_group_name_H-M "C 2/M"
_symmetry_group_IT_number 12
_symmetry_cell_setting 'monoclinic'
loop_
_space_group_symop_operation_xyz
x,y,z
-x,y,-z
-x,-y,-z
x,-y,z
1/2+x,1/2+y,z
1/2-x,1/2+y,-z
1/2-x,1/2-y,-z
1/2+x,1/2-y,z
loop_
_atom_site_type_symbol
_atom_site_label
_atom_site_fract_x
_atom_site_fract_y
_atom_site_fract_z
Si Si1 0.650501 0.678016 0.741263
Si Si2 0.061914 0.831180 0.016251
Si Si3 0.957804 0.679316 0.302182
Si Si4 0.762539 0.175969 0.392488
Si Si5 0.168608 0.177314 0.488439
Si Si6 0.497591 0.321170 0.836404
Si Si7 0.545759 0.676366 0.547937
Si Si8 0.605447 0.822900 0.879420
O O1 0.638474 0.500000 0.744151
O O2 0.601698 0.757438 0.708243
O O3 0.709177 0.715336 0.689726
O O4 0.653735 0.741879 0.821373
O O5 0.057138 0.788937 0.101713
O O6 0.084980 0.000000 0.001527
O O7 0.104785 0.724092 0.963133
O O8 0.000000 0.819059 0.000000
O O9 0.959023 0.500000 0.293780
O O10 0.007230 0.754182 0.242051
O O11 0.970098 0.726548 0.379639
O O12 0.803621 0.234902 0.444866
O O13 0.702337 0.254294 0.413484
O O14 0.752632 0.000000 0.403198
O O15 0.104857 0.231412 0.502614
O O16 0.171873 0.000000 0.480447
O O17 0.510543 0.500000 0.832632
O O18 0.548305 0.230811 0.858803
O O19 0.500000 0.710243 0.500000
O O20 0.548162 0.500000 0.568582
O O21 0.613464 0.000000 0.871523
#
# Coordination Sequence:
#
# PCOD8078468 Si02
#       8
#     8   8   8   8   8   8   8   8
#     4  10  17  28  42  56  80 111 144 173 203 249
#     4   8  14  24  35  48  68 101 138 168 200 240
#     4  11  20  28  41  61  83 104 135 177 219 252
#     4   9  17  28  44  63  83 108 137 173 214 251
#     4   9  17  30  45  64  83 103 136 174 213 253
#     4   9  16  26  39  51  70 102 139 172 203 244
#     4  10  20  35  51  63  81 112 145 175 210 256
#     4  10  17  22  32  53  78 103 134 170 209 244
#
# _framework density 15.974181
#
# number of rings (size 3 to 8) (size 9 to 14) (size 15 to 20)
#    0.000    2.500    1.250    5.250    0.000    4.500 
#    0.000    0.000    0.000    0.000    0.000    0.000 
#    0.000    0.000    0.000    1.125    0.000   13.625 
#
# Total GULP energy -396528.166716 kJ/mol
# GULP energy per Si atom -12391.505210 kJ/mol
# Density = 1.593782 g / cm^3
# Si number density = 15.974181 Si / 1000 Ang^3
#
#
#
# Elastic Constant Matrix: (Units=GPa)
#
#
# Indices 1 2 3 4 5 6 
#
# 1 58.1333 24.7823 50.1372 0.0000 -17.2349 0.0000
# 2 24.7823 77.2707 53.8643 0.0000 -16.3666 0.0000
# 3 50.1372 53.8643 123.6822 0.0000 -40.3836 0.0000
# 4 0.0000 0.0000 0.0000 25.9255 0.0000 -7.7367
# 5 -17.2349 -16.3666 -40.3836 0.0000 24.3863 0.0000
# 6 0.0000 0.0000 0.0000 -7.7367 0.0000 14.1258
#
#
#
# Elastic Compliance Matrix: (Units=1/GPa)
#
#
# Indices 1 2 3 4 5 6 
#
# 1 0.026617 -0.001508 -0.009409 0.000000 0.002219 0.000000
# 2 -0.001508 0.018715 -0.008243 0.000000 -0.002156 0.000000
# 3 -0.009409 -0.008243 0.025063 0.000000 0.029323 0.000000
# 4 0.000000 0.000000 0.000000 0.046108 0.000000 0.025254
# 5 0.002219 -0.002156 0.029323 0.000000 0.089687 0.000000
# 6 0.000000 0.000000 0.000000 0.025254 0.000000 0.084624
#
#
# Mechanical properties :
#
#
# Convention : Reuss Voigt Hill
#
# Bulk Modulus (GPa) = 31.17604 57.40598 44.29101
# Shear Modulus (GPa) = 14.71344 21.57433 18.14388
#
# Velocity S-wave (km/s) = 3.03822 3.67900 3.37386
# Velocity P-wave (km/s) = 5.64505 7.35265 6.55470
#
# Compressibility (1/GPa) = 0.03207591
#
# Stress axis : x y z
#
# Youngs Moduli (GPa) = 37.57006 53.43430 39.89878
#
# Poissons Ratio (x) = 0.08058 0.37539
# Poissons Ratio (y) = 0.05666 0.32888
# Poissons Ratio (z) = 0.35348 0.44045
#
# Static dielectric constant tensor:
#      x y z
#    x 2.668290 0.000000 -0.553980 
#    y 0.000000 3.030860 0.000000 
#    z -0.553980 0.000000 3.638150 
# 
# 
# High freq. dielectric constant tensor:
#      x y z
#    x 1.544910 0.000000 -0.048880 
#    y 0.000000 1.619720 0.000000 
#    z -0.048880 0.000000 1.617690 
# 
# From -- ./inp_files/291583.got.cif
#   From: 2010.06.25/outbox.cif.g09.slc.cpg/sg12_146_cif.got.tgz:291583.got - 2010.06.28 00:19:55.
