data_PCOD8078042
_publ_section_title
;
Structure prediction by ZEFSAII (Michael W. Deem and Ramdas Pophale) SiO2 
 PCOD8078042
Probable space group: C 2/M
;
_chemical_formula_sum "Si O2"
_cell_formula_units_Z 56
_cell_length_a 5.264803
_cell_length_b 18.756423
_cell_length_c 31.111488
_cell_angle_alpha 90.000000
_cell_angle_beta 103.850759
_cell_angle_gamma 90.000000
_cell_volume 2982.891989
_symmetry_space_group_name_H-M "C 2/M"
_symmetry_group_IT_number 12
_symmetry_cell_setting 'monoclinic'
loop_
_space_group_symop_operation_xyz
x,y,z
-x,y,-z
-x,-y,-z
x,-y,z
1/2+x,1/2+y,z
1/2-x,1/2+y,-z
1/2-x,1/2-y,-z
1/2+x,1/2-y,z
loop_
_atom_site_type_symbol
_atom_site_label
_atom_site_fract_x
_atom_site_fract_y
_atom_site_fract_z
Si Si1 0.540852 0.420086 0.407833
Si Si2 0.576622 0.823666 0.051726
Si Si3 0.628846 0.334961 0.088658
Si Si4 0.961860 0.418986 0.351535
Si Si5 0.169631 0.220035 0.450455
Si Si6 0.104152 0.703113 0.719312
Si Si7 0.786005 0.206162 0.818064
O O1 0.582778 0.500000 0.427306
O O2 0.237456 0.404971 0.386173
O O3 0.635325 0.365400 0.448782
O O4 0.717478 0.406430 0.373195
O O5 0.613333 0.749780 0.078640
O O6 0.349770 0.868918 0.066601
O O7 0.846207 0.868674 0.065545
O O8 0.500000 0.806677 0.000000
O O9 0.702063 0.349299 0.141650
O O10 0.956931 0.500000 0.333810
O O11 0.933577 0.366217 0.310850
O O12 0.250000 0.250000 0.500000
O O13 0.393990 0.243440 0.425672
O O14 0.333100 0.753307 0.710011
O O15 0.180497 0.672194 0.769463
O O16 0.582310 0.267801 0.822977
#
# Coordination Sequence:
#
# PCOD8078042 Si02
#       7
#     8   8   8   8   8   8   8
#     4  10  21  37  58  79 105 140 176 207 250 307
#     4  10  16  20  29  45  65  96 147 187 220 271
#     4  10  14  22  31  42  65  99 136 181 224 268
#     4  10  21  37  55  79 107 137 171 212 259 303
#     4  10  21  37  55  82 112 141 175 213 255 296
#     4  10  21  32  50  75 101 127 167 212 249 298
#     4  10  16  27  38  54  79 112 147 188 231 290
#
# _framework density 18.773727000000001
#
# number of rings (size 3 to 8) (size 9 to 14) (size 15 to 20)
#    0.000    2.000    2.857    3.857    0.000    3.429 
#    0.000    2.857    0.000    0.000    0.000    0.000 
#    0.000    0.000    0.000    0.000    0.000    7.857 
#
# Total GULP energy -346915.847159 kJ/mol
# GULP energy per Si atom -12389.851684 kJ/mol
# Density = 1.873100 g / cm^3
# Si number density = 18.773727 Si / 1000 Ang^3
#
#
#
# Elastic Constant Matrix: (Units=GPa)
#
#
# Indices 1 2 3 4 5 6 
#
# 1 153.9983 17.7809 13.9417 0.0000 9.0783 0.0000
# 2 17.7809 72.0068 47.1079 0.0000 10.1707 0.0000
# 3 13.9417 47.1079 85.6005 0.0000 6.5071 0.0000
# 4 0.0000 0.0000 0.0000 3.3024 0.0000 -1.3019
# 5 9.0783 10.1707 6.5071 0.0000 16.2726 0.0000
# 6 0.0000 0.0000 0.0000 -1.3019 0.0000 15.4306
#
#
#
# Elastic Compliance Matrix: (Units=1/GPa)
#
#
# Indices 1 2 3 4 5 6 
#
# 1 0.006821 -0.001064 -0.000296 0.000000 -0.003022 0.000000
# 2 -0.001064 0.023245 -0.011922 0.000000 -0.009167 0.000000
# 3 -0.000296 -0.011922 0.018268 0.000000 0.000311 0.000000
# 4 0.000000 0.000000 0.000000 0.313228 0.000000 0.026427
# 5 -0.003022 -0.009167 0.000311 0.000000 0.068744 0.000000
# 6 0.000000 0.000000 0.000000 0.026427 0.000000 0.067036
#
#
# Mechanical properties :
#
#
# Convention : Reuss Voigt Hill
#
# Bulk Modulus (GPa) = 45.93418 52.14073 49.03746
# Shear Modulus (GPa) = 9.41333 22.51947 15.96640
#
# Velocity S-wave (km/s) = 2.24165 3.46717 2.91944
# Velocity P-wave (km/s) = 5.58752 6.62283 6.12708
#
# Compressibility (1/GPa) = 0.02177028
#
# Stress axis : x y z
#
# Youngs Moduli (GPa) = 146.59803 43.02065 54.74196
#
# Poissons Ratio (x) = 0.04578 0.01618
# Poissons Ratio (y) = 0.15600 0.65263
# Poissons Ratio (z) = 0.04334 0.51289
#
# Static dielectric constant tensor:
#      x y z
#    x 4.951250 0.000000 0.178790 
#    y 0.000000 2.938990 0.000000 
#    z 0.178790 0.000000 3.407710 
# 
# 
# High freq. dielectric constant tensor:
#      x y z
#    x 1.775050 0.000000 0.001390 
#    y 0.000000 1.653710 0.000000 
#    z 0.001390 0.000000 1.724230 
# 
# From -- ./inp_files/371567.got.cif
#   From: 2010.06.25/outbox.cif.g09.slc.cpg/sg12_186_cif.got.tgz:371567.got - 2010.06.28 00:19:55.
