data_PCOD8078973
_publ_section_title
;
Structure prediction by ZEFSAII (Michael W. Deem and Ramdas Pophale) SiO2 
 PCOD8078973
Probable space group: C 2/M
;
_chemical_formula_sum "Si O2"
_cell_formula_units_Z 48
_cell_length_a 24.363260
_cell_length_b 8.787582
_cell_length_c 15.187691
_cell_angle_alpha 90.000000
_cell_angle_beta 120.990898
_cell_angle_gamma 90.000000
_cell_volume 2787.427533
_symmetry_space_group_name_H-M "C 2/M"
_symmetry_group_IT_number 12
_symmetry_cell_setting 'monoclinic'
loop_
_space_group_symop_operation_xyz
x,y,z
-x,y,-z
-x,-y,-z
x,-y,z
1/2+x,1/2+y,z
1/2-x,1/2+y,-z
1/2-x,1/2-y,-z
1/2+x,1/2-y,z
loop_
_atom_site_type_symbol
_atom_site_label
_atom_site_fract_x
_atom_site_fract_y
_atom_site_fract_z
Si Si1 0.555019 0.818605 0.612515
Si Si2 0.641677 0.173993 0.416505
Si Si3 0.989372 0.820956 0.715544
Si Si4 0.539102 0.319750 0.113800
Si Si5 0.185341 0.672709 0.644970
Si Si6 0.678992 0.318888 0.272679
O O1 0.500000 0.758498 0.500000
O O2 0.543522 0.761382 0.702360
O O3 0.624169 0.747175 0.640539
O O4 0.555269 0.000000 0.610263
O O5 0.578966 0.275459 0.380183
O O6 0.683597 0.187478 0.538395
O O7 0.682745 0.237139 0.369832
O O8 0.620668 0.000000 0.381884
O O9 0.992392 0.765416 0.820032
O O10 0.999224 0.000000 0.716508
O O11 0.535306 0.500000 0.105881
O O12 0.613726 0.268765 0.168995
O O13 0.500000 0.246328 0.000000
O O14 0.180644 0.500000 0.672136
O O15 0.257159 0.733061 0.729539
O O16 0.679565 0.500000 0.289278
#
# Coordination Sequence:
#
# PCOD8078973 Si02
#       6
#     8   8   8   8   8   8
#     4  10  18  31  47  63  91 130 158 179 215 269
#     4  10  17  28  44  63  92 125 151 178 223 274
#     4  10  19  30  46  70  93 116 155 196 223 257
#     4   8  15  29  49  69  88 112 145 190 238 272
#     4   9  17  28  43  63  90 124 154 179 215 268
#     4   9  17  29  45  67  90 113 151 193 223 263
#
# _framework density 17.220178000000001
#
# number of rings (size 3 to 8) (size 9 to 14) (size 15 to 20)
#    0.000    2.667    1.667    2.500    0.000    0.333 
#    0.000    1.667    0.000   13.500    0.000    0.000 
#    0.000    0.000    0.000    0.000    0.000    0.667 
#
# Total GULP energy -297340.572608 kJ/mol
# GULP energy per Si atom -12389.190525 kJ/mol
# Density = 1.718098 g / cm^3
# Si number density = 17.220178 Si / 1000 Ang^3
#
#
#
# Elastic Constant Matrix: (Units=GPa)
#
#
# Indices 1 2 3 4 5 6 
#
# 1 173.9971 15.8162 70.2901 0.0000 4.6601 0.0000
# 2 15.8162 14.5701 12.2579 0.0000 -1.9314 0.0000
# 3 70.2901 12.2579 79.8055 0.0000 2.2912 0.0000
# 4 0.0000 0.0000 0.0000 13.9116 0.0000 -4.9600
# 5 4.6601 -1.9314 2.2912 0.0000 15.6618 0.0000
# 6 0.0000 0.0000 0.0000 -4.9600 0.0000 17.4967
#
#
#
# Elastic Compliance Matrix: (Units=1/GPa)
#
#
# Indices 1 2 3 4 5 6 
#
# 1 0.009151 -0.004005 -0.007384 0.000000 -0.002137 0.000000
# 2 -0.004005 0.082705 -0.009543 0.000000 0.012787 0.000000
# 3 -0.007384 -0.009543 0.020556 0.000000 -0.001987 0.000000
# 4 0.000000 0.000000 0.000000 0.079965 0.000000 0.022668
# 5 -0.002137 0.012787 -0.001987 0.000000 0.066353 0.000000
# 6 0.000000 0.000000 0.000000 0.022668 0.000000 0.063580
#
#
# Mechanical properties :
#
#
# Convention : Reuss Voigt Hill
#
# Bulk Modulus (GPa) = 14.17439 51.67790 32.92615
# Shear Modulus (GPa) = 12.89691 20.74791 16.82241
#
# Velocity S-wave (km/s) = 2.73965 3.47488 3.12893
# Velocity P-wave (km/s) = 4.27279 6.79521 5.67590
#
# Compressibility (1/GPa) = 0.07054976
#
# Stress axis : x y z
#
# Youngs Moduli (GPa) = 109.27383 12.09116 48.64642
#
# Poissons Ratio (x) = 0.04843 0.35919
# Poissons Ratio (y) = 0.43768 0.46421
# Poissons Ratio (z) = 0.80684 0.11538
#
# Static dielectric constant tensor:
#      x y z
#    x 3.551940 0.000000 0.052620 
#    y 0.000000 2.971290 0.000000 
#    z 0.052620 0.000000 3.215540 
# 
# 
# High freq. dielectric constant tensor:
#      x y z
#    x 1.676750 0.000000 0.001880 
#    y 0.000000 1.635030 0.000000 
#    z 0.001880 0.000000 1.627270 
# 
# From -- ./inp_files/236841.got.cif
#   From: 2010.06.25/outbox.cif.g09.slc.cpg/sg12_119_cif.got.tgz:236841.got - 2010.06.28 00:19:55.
