data_PCOD8078865
_publ_section_title
;
Structure prediction by ZEFSAII (Michael W. Deem and Ramdas Pophale) SiO2 
 PCOD8078865
Probable space group: C 2/M
;
_chemical_formula_sum "Si O2"
_cell_formula_units_Z 56
_cell_length_a 17.867522
_cell_length_b 12.720317
_cell_length_c 14.887664
_cell_angle_alpha 90.000000
_cell_angle_beta 76.669079
_cell_angle_gamma 90.000000
_cell_volume 3292.501787
_symmetry_space_group_name_H-M "C 2/M"
_symmetry_group_IT_number 12
_symmetry_cell_setting 'monoclinic'
loop_
_space_group_symop_operation_xyz
x,y,z
-x,y,-z
-x,-y,-z
x,-y,z
1/2+x,1/2+y,z
1/2-x,1/2+y,-z
1/2-x,1/2-y,-z
1/2+x,1/2-y,z
loop_
_atom_site_type_symbol
_atom_site_label
_atom_site_fract_x
_atom_site_fract_y
_atom_site_fract_z
Si Si1 0.827070 0.376853 0.743114
Si Si2 0.587768 0.809100 0.108231
Si Si3 0.178274 0.234076 0.813114
Si Si4 0.718158 0.116715 0.952154
Si Si5 0.525998 0.877697 0.398913
Si Si6 0.941706 0.377192 0.243957
Si Si7 0.627170 0.379060 0.990870
O O1 0.825105 0.500000 0.770614
O O2 0.862010 0.310757 0.815525
O O3 0.741336 0.336830 0.743082
O O4 0.882942 0.358285 0.642111
O O5 0.505160 0.862091 0.147936
O O6 0.575237 0.689741 0.073810
O O7 0.633733 0.872475 0.018997
O O8 0.226601 0.311088 0.863399
O O9 0.130810 0.302784 0.755073
O O10 0.121840 0.159833 0.888888
O O11 0.783762 0.142872 0.007214
O O12 0.729485 0.000000 0.912883
O O13 0.500000 0.823206 0.500000
O O14 0.476179 0.835478 0.328738
O O15 0.507914 0.000000 0.409468
O O16 0.917656 0.500000 0.252957
O O17 0.601420 0.500000 0.005902
#
# Coordination Sequence:
#
# PCOD8078865 Si02
#       7
#     8   8   8   8   8   8   8
#     4  10  17  29  52  74  95 126 164 198 234 285
#     4  10  17  32  48  69  91 128 173 206 234 273
#     4  11  19  30  42  71 101 130 160 198 242 279
#     4  10  17  27  45  65  94 130 169 205 232 267
#     4   8  16  33  56  77  94 116 149 193 244 295
#     4  10  21  33  49  72 100 124 153 203 251 288
#     4  10  19  30  45  66  97 134 173 205 230 270
#
# _framework density 17.008343
#
# number of rings (size 3 to 8) (size 9 to 14) (size 15 to 20)
#    0.000    2.143    2.857    3.857    0.000    2.286 
#    0.000    6.429    0.000    0.000    0.000    0.000 
#    0.000   27.429    0.000    0.000    0.000    0.000 
#
# Total GULP energy -347036.526745 kJ/mol
# GULP energy per Si atom -12394.161669 kJ/mol
# Density = 1.696963 g / cm^3
# Si number density = 17.008343 Si / 1000 Ang^3
#
#
#
# Elastic Constant Matrix: (Units=GPa)
#
#
# Indices 1 2 3 4 5 6 
#
# 1 68.3329 30.3264 34.1027 0.0000 -3.7565 0.0000
# 2 30.3264 63.9691 37.5444 0.0000 4.1761 0.0000
# 3 34.1027 37.5444 84.9190 0.0000 -9.6155 0.0000
# 4 0.0000 0.0000 0.0000 13.6129 0.0000 0.1201
# 5 -3.7565 4.1761 -9.6155 0.0000 16.4581 0.0000
# 6 0.0000 0.0000 0.0000 0.1201 0.0000 28.8430
#
#
#
# Elastic Compliance Matrix: (Units=1/GPa)
#
#
# Indices 1 2 3 4 5 6 
#
# 1 0.020309 -0.007217 -0.004533 0.000000 0.003818 0.000000
# 2 -0.007217 0.025957 -0.010184 0.000000 -0.014183 0.000000
# 3 -0.004533 -0.010184 0.019569 0.000000 0.012982 0.000000
# 4 0.000000 0.000000 0.000000 0.073462 0.000000 -0.000306
# 5 0.003818 -0.014183 0.012982 0.000000 0.072815 0.000000
# 6 0.000000 0.000000 0.000000 -0.000306 0.000000 0.034672
#
#
# Mechanical properties :
#
#
# Convention : Reuss Voigt Hill
#
# Bulk Modulus (GPa) = 45.52167 46.79646 46.15907
# Shear Modulus (GPa) = 16.77997 19.46598 18.12298
#
# Velocity S-wave (km/s) = 3.14438 3.38671 3.26779
# Velocity P-wave (km/s) = 6.32497 6.54726 6.43708
#
# Compressibility (1/GPa) = 0.02196756
#
# Stress axis : x y z
#
# Youngs Moduli (GPa) = 49.23841 38.52531 51.10196
#
# Poissons Ratio (x) = 0.27804 0.23164
# Poissons Ratio (y) = 0.35536 0.52041
# Poissons Ratio (z) = 0.22319 0.39233
#
# Static dielectric constant tensor:
#      x y z
#    x 3.097510 0.000000 -0.072660 
#    y 0.000000 3.210190 0.000000 
#    z -0.072660 0.000000 3.197450 
# 
# 
# High freq. dielectric constant tensor:
#      x y z
#    x 1.645060 0.000000 -0.006410 
#    y 0.000000 1.648360 0.000000 
#    z -0.006410 0.000000 1.621430 
# 
# From -- ./inp_files/224311.got.cif
#   From: 2010.06.25/outbox.cif.g09.slc.cpg/sg12_113_cif.got.tgz:224311.got - 2010.06.28 00:19:55.
