data_PCOD8078648
_publ_section_title
;
Structure prediction by ZEFSAII (Michael W. Deem and Ramdas Pophale) SiO2 
 PCOD8078648
Probable space group: C 2/M
;
_chemical_formula_sum "Si O2"
_cell_formula_units_Z 64
_cell_length_a 24.121014
_cell_length_b 9.138103
_cell_length_c 18.612192
_cell_angle_alpha 90.000000
_cell_angle_beta 79.235498
_cell_angle_gamma 90.000000
_cell_volume 4030.313993
_symmetry_space_group_name_H-M "C 2/M"
_symmetry_group_IT_number 12
_symmetry_cell_setting 'monoclinic'
loop_
_space_group_symop_operation_xyz
x,y,z
-x,y,-z
-x,-y,-z
x,-y,z
1/2+x,1/2+y,z
1/2-x,1/2+y,-z
1/2-x,1/2-y,-z
1/2+x,1/2-y,z
loop_
_atom_site_type_symbol
_atom_site_label
_atom_site_fract_x
_atom_site_fract_y
_atom_site_fract_z
Si Si1 0.862912 0.832728 0.884906
Si Si2 0.479487 0.668378 0.618306
Si Si3 0.204168 0.329349 0.302161
Si Si4 0.588592 0.172417 0.253675
Si Si5 0.202194 0.673972 0.465660
Si Si6 0.088933 0.168723 0.506503
Si Si7 0.805395 0.327331 0.015240
Si Si8 0.254698 0.837343 0.169647
O O1 0.909156 0.751525 0.824251
O O2 0.802897 0.821726 0.860796
O O3 0.881397 0.000000 0.893626
O O4 0.858878 0.748141 0.962762
O O5 0.468562 0.500000 0.641503
O O6 0.465740 0.769837 0.689899
O O7 0.544596 0.693298 0.581667
O O8 0.439942 0.713714 0.561336
O O9 0.212027 0.500000 0.297655
O O10 0.143226 0.282338 0.287076
O O11 0.210282 0.272079 0.381708
O O12 0.253900 0.265480 0.239693
O O13 0.584037 0.000000 0.242610
O O14 0.205999 0.500000 0.472080
O O15 0.250000 0.750000 0.500000
O O16 0.141702 0.726981 0.509054
O O17 0.108511 0.000000 0.499588
O O18 0.803321 0.500000 0.997754
O O19 0.806222 0.301665 0.101843
O O20 0.750000 0.250000 0.000000
O O21 0.261335 0.000000 0.198404
#
# Coordination Sequence:
#
# PCOD8078648 Si02
#       8
#     8   8   8   8   8   8   8   8
#     4   9  16  24  34  51  75 106 140 172 207 249
#     4   9  17  29  46  66  88 112 142 177 218 263
#     4   9  18  29  40  57  80 104 138 178 215 256
#     4  10  17  26  40  60  84 111 141 178 217 252
#     4  11  22  35  48  65  86 113 147 185 226 268
#     4   9  18  32  48  66  86 112 142 178 220 264
#     4   9  15  23  33  49  72 101 136 171 205 246
#     4   8  15  24  36  52  71  99 135 171 208 247
#
# _framework density 15.879657
#
# number of rings (size 3 to 8) (size 9 to 14) (size 15 to 20)
#    0.000    2.750    1.250    3.000    0.000    5.500 
#    0.000    1.250    0.000    0.000    0.000    0.000 
#    0.000    0.000    0.000    1.125    0.000   21.125 
#
# Total GULP energy -396629.817980 kJ/mol
# GULP energy per Si atom -12394.681812 kJ/mol
# Density = 1.584351 g / cm^3
# Si number density = 15.879657 Si / 1000 Ang^3
#
#
#
# Elastic Constant Matrix: (Units=GPa)
#
#
# Indices 1 2 3 4 5 6 
#
# 1 47.3517 28.7480 31.5900 0.0000 -8.4669 0.0000
# 2 28.7480 79.2668 52.1216 0.0000 -15.6025 0.0000
# 3 31.5900 52.1216 109.8521 0.0000 -31.5526 0.0000
# 4 0.0000 0.0000 0.0000 32.8269 0.0000 -8.0784
# 5 -8.4669 -15.6025 -31.5526 0.0000 19.7768 0.0000
# 6 0.0000 0.0000 0.0000 -8.0784 0.0000 18.7394
#
#
#
# Elastic Compliance Matrix: (Units=1/GPa)
#
#
# Indices 1 2 3 4 5 6 
#
# 1 0.028784 -0.007286 -0.005412 0.000000 -0.002059 0.000000
# 2 -0.007286 0.020193 -0.007025 0.000000 0.001603 0.000000
# 3 -0.005412 -0.007025 0.021662 0.000000 0.026701 0.000000
# 4 0.000000 0.000000 0.000000 0.034078 0.000000 0.014691
# 5 -0.002059 0.001603 0.026701 0.000000 0.093547 0.000000
# 6 0.000000 0.000000 0.000000 0.014691 0.000000 0.059697
#
#
# Mechanical properties :
#
#
# Convention : Reuss Voigt Hill
#
# Bulk Modulus (GPa) = 32.05866 51.26552 41.66209
# Shear Modulus (GPa) = 16.24404 22.53602 19.39003
#
# Velocity S-wave (km/s) = 3.20182 3.77128 3.49816
# Velocity P-wave (km/s) = 5.82248 7.16361 6.52758
#
# Compressibility (1/GPa) = 0.03119282
#
# Stress axis : x y z
#
# Youngs Moduli (GPa) = 34.74118 49.52182 46.16386
#
# Poissons Ratio (x) = 0.36082 0.24983
# Poissons Ratio (y) = 0.25313 0.32432
# Poissons Ratio (z) = 0.18802 0.34791
#
# Static dielectric constant tensor:
#      x y z
#    x 2.520330 0.000000 -0.334460 
#    y 0.000000 3.059820 0.000000 
#    z -0.334460 0.000000 3.441390 
# 
# 
# High freq. dielectric constant tensor:
#      x y z
#    x 1.537100 0.000000 -0.037050 
#    y 0.000000 1.620550 0.000000 
#    z -0.037050 0.000000 1.616660 
# 
# From -- ./inp_files/287515.got.cif
#   From: 2010.06.25/outbox.cif.g09.slc.cpg/sg12_144_cif.got.tgz:287515.got - 2010.06.28 00:19:55.
