data_PCOD8078644
_publ_section_title
;
Structure prediction by ZEFSAII (Michael W. Deem and Ramdas Pophale) SiO2 
 PCOD8078644
Probable space group: C 2/M
;
_chemical_formula_sum "Si O2"
_cell_formula_units_Z 56
_cell_length_a 28.832884
_cell_length_b 8.929899
_cell_length_c 29.105384
_cell_angle_alpha 90.000000
_cell_angle_beta 151.602181
_cell_angle_gamma 90.000000
_cell_volume 3564.029917
_symmetry_space_group_name_H-M "C 2/M"
_symmetry_group_IT_number 12
_symmetry_cell_setting 'monoclinic'
loop_
_space_group_symop_operation_xyz
x,y,z
-x,y,-z
-x,-y,-z
x,-y,z
1/2+x,1/2+y,z
1/2-x,1/2+y,-z
1/2-x,1/2-y,-z
1/2+x,1/2-y,z
loop_
_atom_site_type_symbol
_atom_site_label
_atom_site_fract_x
_atom_site_fract_y
_atom_site_fract_z
Si Si1 0.198926 0.826226 0.716868
Si Si2 0.043319 0.677368 0.646081
Si Si3 0.402205 0.175678 0.936091
Si Si4 0.327080 0.825237 0.965357
Si Si5 0.392548 0.322440 0.209831
Si Si6 0.905052 0.334726 0.448608
Si Si7 0.854713 0.324412 0.088757
O O1 0.137315 0.736082 0.700597
O O2 0.312578 0.791817 0.823808
O O3 0.173142 0.777703 0.642129
O O4 0.174529 0.000000 0.702283
O O5 0.053891 0.500000 0.660535
O O6 0.035898 0.755901 0.689174
O O7 0.942718 0.718991 0.531557
O O8 0.380464 0.247321 0.967622
O O9 0.419687 0.000000 0.957389
O O10 0.500000 0.249761 0.000000
O O11 0.216749 0.763601 0.874134
O O12 0.314515 0.000000 0.945043
O O13 0.390435 0.796402 0.067120
O O14 0.402156 0.500000 0.216406
O O15 0.423378 0.255004 0.186688
O O16 0.857510 0.500000 0.410216
O O17 0.000000 0.341931 0.500000
O O18 0.847120 0.500000 0.092686
O O19 0.750000 0.250000 0.000000
#
# Coordination Sequence:
#
# PCOD8078644 Si02
#       7
#     8   8   8   8   8   8   8
#     4  10  17  26  41  59  79 106 140 175 206 237
#     4  10  18  27  40  58  81 110 138 164 202 250
#     4   9  16  26  41  61  83 108 140 176 208 234
#     4   8  14  25  38  54  78 106 136 170 200 234
#     4  10  17  26  40  59  83 106 136 170 201 245
#     4   8  16  28  39  54  78 107 136 164 200 249
#     4   9  16  25  38  56  79 107 138 169 203 243
#
# _framework density 15.712550999999999
#
# number of rings (size 3 to 8) (size 9 to 14) (size 15 to 20)
#    0.000    2.857    1.429    3.429    0.000    3.143 
#    0.000    0.000    0.000    1.714    0.000    0.000 
#    0.000    1.143    0.000    2.286    0.000    3.000 
#
# Total GULP energy -346920.482391 kJ/mol
# GULP energy per Si atom -12390.017228 kJ/mol
# Density = 1.567679 g / cm^3
# Si number density = 15.712551 Si / 1000 Ang^3
#
#
#
# Elastic Constant Matrix: (Units=GPa)
#
#
# Indices 1 2 3 4 5 6 
#
# 1 71.2260 27.8125 52.3376 0.0000 -24.7848 0.0000
# 2 27.8125 68.6771 41.5608 0.0000 -16.9897 0.0000
# 3 52.3376 41.5608 92.7455 0.0000 -33.0218 0.0000
# 4 0.0000 0.0000 0.0000 20.1132 0.0000 -11.0377
# 5 -24.7848 -16.9897 -33.0218 0.0000 32.8098 0.0000
# 6 0.0000 0.0000 0.0000 -11.0377 0.0000 14.7022
#
#
#
# Elastic Compliance Matrix: (Units=1/GPa)
#
#
# Indices 1 2 3 4 5 6 
#
# 1 0.025242 -0.001884 -0.010844 0.000000 0.007178 0.000000
# 2 -0.001884 0.020211 -0.007440 0.000000 0.001554 0.000000
# 3 -0.010844 -0.007440 0.024854 0.000000 0.012970 0.000000
# 4 0.000000 0.000000 0.000000 0.084555 0.000000 0.063480
# 5 0.007178 0.001554 0.012970 0.000000 0.049759 0.000000
# 6 0.000000 0.000000 0.000000 0.063480 0.000000 0.115675
#
#
# Mechanical properties :
#
#
# Convention : Reuss Voigt Hill
#
# Bulk Modulus (GPa) = 33.36786 52.89671 43.13229
# Shear Modulus (GPa) = 13.49081 20.92089 17.20585
#
# Velocity S-wave (km/s) = 2.93337 3.65290 3.31273
# Velocity P-wave (km/s) = 5.72323 7.17843 6.49174
#
# Compressibility (1/GPa) = 0.02996895
#
# Stress axis : x y z
#
# Youngs Moduli (GPa) = 39.61698 49.47815 40.23530
#
# Poissons Ratio (x) = 0.09322 0.43633
# Poissons Ratio (y) = 0.07464 0.29937
# Poissons Ratio (z) = 0.42962 0.36814
#
# Static dielectric constant tensor:
#      x y z
#    x 3.147650 0.000000 -0.529220 
#    y 0.000000 2.929400 0.000000 
#    z -0.529220 0.000000 3.143160 
# 
# 
# High freq. dielectric constant tensor:
#      x y z
#    x 1.565680 0.000000 -0.050440 
#    y 0.000000 1.593610 0.000000 
#    z -0.050440 0.000000 1.585800 
# 
# From -- ./inp_files/384438.got.cif
#   From: 2010.06.25/outbox.cif.g09.slc.cpg/sg12_193_cif.got.tgz:384438.got - 2010.06.28 00:19:55.
