data_PCOD8078699
_publ_section_title
;
Structure prediction by ZEFSAII (Michael W. Deem and Ramdas Pophale) SiO2 
 PCOD8078699
Probable space group: C 2/M
;
_chemical_formula_sum "Si O2"
_cell_formula_units_Z 48
_cell_length_a 13.094682
_cell_length_b 25.604739
_cell_length_c 9.902519
_cell_angle_alpha 90.000000
_cell_angle_beta 82.439338
_cell_angle_gamma 90.000000
_cell_volume 3291.309908
_symmetry_space_group_name_H-M "C 2/M"
_symmetry_group_IT_number 12
_symmetry_cell_setting 'monoclinic'
loop_
_space_group_symop_operation_xyz
x,y,z
-x,y,-z
-x,-y,-z
x,-y,z
1/2+x,1/2+y,z
1/2-x,1/2+y,-z
1/2-x,1/2-y,-z
1/2+x,1/2-y,z
loop_
_atom_site_type_symbol
_atom_site_label
_atom_site_fract_x
_atom_site_fract_y
_atom_site_fract_z
Si Si1 0.516770 0.779541 0.848352
Si Si2 0.626233 0.123737 0.750529
Si Si3 0.910402 0.771269 0.419494
Si Si4 0.204794 0.667467 0.480126
Si Si5 0.622147 0.940616 0.996246
Si Si6 0.899388 0.630523 0.761857
O O1 0.544465 0.733345 0.739845
O O2 0.413255 0.810454 0.818495
O O3 0.500000 0.755369 0.000000
O O4 0.389057 0.821502 0.165245
O O5 0.705412 0.130720 0.612884
O O6 0.671694 0.081561 0.848539
O O7 0.513625 0.107030 0.709811
O O8 0.874526 0.714948 0.481576
O O9 0.819194 0.812758 0.433105
O O10 0.000000 0.792970 0.500000
O O11 0.168996 0.632651 0.360309
O O12 0.657651 0.000000 0.011116
O O13 0.500000 0.934448 0.000000
O O14 0.657749 0.906726 0.119241
#
# Coordination Sequence:
#
# PCOD8078699 Si02
#       6
#     8   8   8   8   8   8
#     4   9  14  26  39  55  79 115 136 169 196 232
#     4   8  14  25  40  58  81 110 137 164 200 252
#     4  10  18  28  40  59  82 106 150 179 194 238
#     4  10  17  26  43  58  78 117 141 167 212 241
#     4   9  15  25  42  63  86 114 139 165 201 248
#     4   9  14  26  40  58  84 114 137 167 202 249
#
# _framework density 14.583859
#
# number of rings (size 3 to 8) (size 9 to 14) (size 15 to 20)
#    1.000    1.833    3.333    0.500    0.000    0.000 
#    0.000    3.333    0.000    4.000    0.000    0.000 
#    0.000    4.000    0.000    0.000    0.000    0.000 
#
# Total GULP energy -297378.365683 kJ/mol
# GULP energy per Si atom -12390.765237 kJ/mol
# Density = 1.455067 g / cm^3
# Si number density = 14.583859 Si / 1000 Ang^3
#
#
#
# Elastic Constant Matrix: (Units=GPa)
#
#
# Indices 1 2 3 4 5 6 
#
# 1 39.4851 22.1725 42.4223 0.0000 0.8332 0.0000
# 2 22.1725 53.7667 56.2361 0.0000 1.0975 0.0000
# 3 42.4223 56.2361 150.2997 0.0000 8.5404 0.0000
# 4 0.0000 0.0000 0.0000 18.2774 0.0000 0.7317
# 5 0.8332 1.0975 8.5404 0.0000 8.7763 0.0000
# 6 0.0000 0.0000 0.0000 0.7317 0.0000 9.4950
#
#
#
# Elastic Compliance Matrix: (Units=1/GPa)
#
#
# Indices 1 2 3 4 5 6 
#
# 1 0.038270 -0.007014 -0.008490 0.000000 0.005506 0.000000
# 2 -0.007014 0.032347 -0.010512 0.000000 0.006851 0.000000
# 3 -0.008490 -0.010512 0.013615 0.000000 -0.011129 0.000000
# 4 0.000000 0.000000 0.000000 0.054882 0.000000 -0.004229
# 5 0.005506 0.006851 -0.011129 0.000000 0.123393 0.000000
# 6 0.000000 0.000000 0.000000 -0.004229 0.000000 0.105645
#
#
# Mechanical properties :
#
#
# Convention : Reuss Voigt Hill
#
# Bulk Modulus (GPa) = 31.05702 53.91262 42.48482
# Shear Modulus (GPa) = 11.60311 15.49112 13.54711
#
# Velocity S-wave (km/s) = 2.82372 3.26269 3.05111
# Velocity P-wave (km/s) = 5.65446 7.15829 6.45035
#
# Compressibility (1/GPa) = 0.03219884
#
# Stress axis : x y z
#
# Youngs Moduli (GPa) = 26.12982 30.91501 73.44612
#
# Poissons Ratio (x) = 0.21685 0.62358
# Poissons Ratio (y) = 0.18328 0.77209
# Poissons Ratio (z) = 0.22185 0.32499
#
# Static dielectric constant tensor:
#      x y z
#    x 2.368090 0.000000 0.031560 
#    y 0.000000 2.504040 0.000000 
#    z 0.031560 0.000000 2.887970 
# 
# 
# High freq. dielectric constant tensor:
#      x y z
#    x 1.500510 0.000000 0.011990 
#    y 0.000000 1.510760 0.000000 
#    z 0.011990 0.000000 1.570670 
# 
# From -- ./inp_files/53733.got.cif
#   From: 2010.06.25/outbox.cif.g09.slc.cpg/sg12_27_cif.got.tgz:53733.got - 2010.06.28 00:19:55.
