data_PCOD8078094
_publ_section_title
;
Structure prediction by ZEFSAII (Michael W. Deem and Ramdas Pophale) SiO2 
 PCOD8078094
Probable space group: C 2/M
;
_chemical_formula_sum "Si O2"
_cell_formula_units_Z 64
_cell_length_a 13.692086
_cell_length_b 21.436826
_cell_length_c 13.139763
_cell_angle_alpha 90.000000
_cell_angle_beta 98.374584
_cell_angle_gamma 90.000000
_cell_volume 3815.591748
_symmetry_space_group_name_H-M "C 2/M"
_symmetry_group_IT_number 12
_symmetry_cell_setting 'monoclinic'
loop_
_space_group_symop_operation_xyz
x,y,z
-x,y,-z
-x,-y,-z
x,-y,z
1/2+x,1/2+y,z
1/2-x,1/2+y,-z
1/2-x,1/2-y,-z
1/2+x,1/2-y,z
loop_
_atom_site_type_symbol
_atom_site_label
_atom_site_fract_x
_atom_site_fract_y
_atom_site_fract_z
Si Si1 0.831146 0.231032 0.268819
Si Si2 0.443504 0.162938 0.591995
Si Si3 0.107943 0.570347 0.969166
Si Si4 0.206951 0.429219 0.375827
Si Si5 0.960441 0.334394 0.197752
Si Si6 0.671923 0.139186 0.166248
Si Si7 0.187295 0.775239 0.398683
Si Si8 0.891805 0.860397 0.457876
O O1 0.905432 0.267481 0.204749
O O2 0.764564 0.185733 0.189093
O O3 0.757627 0.281763 0.310775
O O4 0.887740 0.193129 0.368477
O O5 0.500000 0.183043 0.500000
O O6 0.358157 0.112370 0.555787
O O7 0.520873 0.136992 0.686718
O O8 0.396870 0.224048 0.638310
O O9 0.143814 0.500000 0.945947
O O10 0.107899 0.615467 0.870789
O O11 0.182022 0.601307 0.062479
O O12 0.000000 0.565947 0.000000
O O13 0.180946 0.500000 0.393161
O O14 0.175944 0.411240 0.257239
O O15 0.322757 0.417162 0.412041
O O16 0.065452 0.325260 0.154659
O O17 0.250000 0.750000 0.500000
O O18 0.141577 0.838767 0.433709
O O19 0.000000 0.885801 0.500000
#
# Coordination Sequence:
#
# PCOD8078094 Si02
#       8
#     8   8   8   8   8   8   8   8
#     4  10  18  29  46  74 100 124 156 199 243 288
#     4  11  19  31  48  70  98 131 159 193 237 285
#     4   9  18  33  52  70  93 129 164 195 237 288
#     4  10  20  33  46  68  96 126 167 203 234 281
#     4  10  19  29  48  75 101 123 155 201 236 288
#     4   9  18  34  50  71  96 128 157 199 248 285
#     4  10  15  29  46  66  93 125 159 189 228 286
#     4  10  19  29  48  69  93 132 165 196 237 284
#
# _framework density 16.773282999999999
#
# number of rings (size 3 to 8) (size 9 to 14) (size 15 to 20)
#    0.000    2.125    5.000    3.000    0.000    4.000 
#    0.000    0.000    0.000    0.000    0.000    0.000 
#    0.000    1.000    0.000    0.000    0.000    0.000 
#
# Total GULP energy -396452.070661 kJ/mol
# GULP energy per Si atom -12389.127208 kJ/mol
# Density = 1.673511 g / cm^3
# Si number density = 16.773283 Si / 1000 Ang^3
#
#
#
# Elastic Constant Matrix: (Units=GPa)
#
#
# Indices 1 2 3 4 5 6 
#
# 1 65.7553 24.6409 22.8768 0.0000 13.0183 0.0000
# 2 24.6409 71.3058 23.3468 0.0000 4.8009 0.0000
# 3 22.8768 23.3468 71.8123 0.0000 13.2285 0.0000
# 4 0.0000 0.0000 0.0000 18.9662 0.0000 -0.3596
# 5 13.0183 4.8009 13.2285 0.0000 20.3156 0.0000
# 6 0.0000 0.0000 0.0000 -0.3596 0.0000 14.8585
#
#
#
# Elastic Compliance Matrix: (Units=1/GPa)
#
#
# Indices 1 2 3 4 5 6 
#
# 1 0.020154 -0.005365 -0.002876 0.000000 -0.009774 0.000000
# 2 -0.005365 0.017126 -0.004257 0.000000 0.002163 0.000000
# 3 -0.002876 -0.004257 0.017840 0.000000 -0.008768 0.000000
# 4 0.000000 0.000000 0.000000 0.052750 0.000000 0.001276
# 5 -0.009774 0.002163 -0.008768 0.000000 0.060685 0.000000
# 6 0.000000 0.000000 0.000000 0.001276 0.000000 0.067332
#
#
# Mechanical properties :
#
#
# Convention : Reuss Voigt Hill
#
# Bulk Modulus (GPa) = 33.19472 38.95582 36.07527
# Shear Modulus (GPa) = 18.45530 20.02866 19.24198
#
# Velocity S-wave (km/s) = 3.32064 3.45930 3.39068
# Velocity P-wave (km/s) = 5.87669 6.26346 6.07316
#
# Compressibility (1/GPa) = 0.03012527
#
# Stress axis : x y z
#
# Youngs Moduli (GPa) = 49.61813 58.38972 56.05231
#
# Poissons Ratio (x) = 0.31325 0.16118
# Poissons Ratio (y) = 0.26620 0.23863
# Poissons Ratio (z) = 0.14268 0.24858
#
# Static dielectric constant tensor:
#      x y z
#    x 3.231680 0.000000 0.162860 
#    y 0.000000 2.844920 0.000000 
#    z 0.162860 0.000000 3.180050 
# 
# 
# High freq. dielectric constant tensor:
#      x y z
#    x 1.630370 0.000000 0.019440 
#    y 0.000000 1.617430 0.000000 
#    z 0.019440 0.000000 1.637090 
# 
# From -- ./inp_files/217218.got.cif
#   From: 2010.06.25/outbox.cif.g09.slc.cpg/sg12_109_cif.got.tgz:217218.got - 2010.06.28 00:19:55.
