data_PCOD8078401
_publ_section_title
;
Structure prediction by ZEFSAII (Michael W. Deem and Ramdas Pophale) SiO2 
 PCOD8078401
Probable space group: C 2/M
;
_chemical_formula_sum "Si O2"
_cell_formula_units_Z 52
_cell_length_a 14.722027
_cell_length_b 22.912159
_cell_length_c 12.827047
_cell_angle_alpha 90.000000
_cell_angle_beta 43.436608
_cell_angle_gamma 90.000000
_cell_volume 2974.853670
_symmetry_space_group_name_H-M "C 2/M"
_symmetry_group_IT_number 12
_symmetry_cell_setting 'monoclinic'
loop_
_space_group_symop_operation_xyz
x,y,z
-x,y,-z
-x,-y,-z
x,-y,z
1/2+x,1/2+y,z
1/2-x,1/2+y,-z
1/2-x,1/2-y,-z
1/2+x,1/2-y,z
loop_
_atom_site_type_symbol
_atom_site_label
_atom_site_fract_x
_atom_site_fract_y
_atom_site_fract_z
Si Si1 0.824829 0.677715 0.968221
Si Si2 0.852126 0.934567 0.582582
Si Si3 0.500000 0.258659 0.500000
Si Si4 0.141793 0.433375 0.933040
Si Si5 0.333791 0.325069 0.477238
Si Si6 0.741698 0.769388 0.180344
Si Si7 0.402861 0.751552 0.240883
O O1 0.756702 0.680132 0.910098
O O2 0.952712 0.720562 0.868101
O O3 0.851356 0.610355 0.973956
O O4 0.726094 0.706623 0.135050
O O5 0.753534 0.915473 0.757293
O O6 0.828234 0.894643 0.500597
O O7 0.000000 0.929401 0.500000
O O8 0.818686 0.000000 0.574307
O O9 0.446261 0.300286 0.456818
O O10 0.385457 0.217706 0.641850
O O11 0.161461 0.500000 0.956069
O O12 0.000000 0.424825 0.000000
O O13 0.379852 0.309400 0.321931
O O14 0.192448 0.298940 0.626361
O O15 0.870486 0.764763 0.147435
#
# Coordination Sequence:
#
# PCOD8078401 Si02
#       7
#     8   8   4   8   8   8   8
#     4  11  20  34  50  76 102 135 167 215 251 307
#     4  10  20  32  50  76 102 134 171 210 253 308
#     4  10  16  32  45  70  97 132 156 200 246 306
#     4  10  20  34  52  74 103 136 171 212 260 305
#     4  10  18  30  51  70 102 132 164 204 255 303
#     4  10  21  30  49  72 103 129 167 204 255 301
#     4  10  20  32  48  76 100 134 168 206 258 304
#
# _framework density 17.479852000000001
#
# number of rings (size 3 to 8) (size 9 to 14) (size 15 to 20)
#    0.000    1.846    2.308    4.154    0.000    0.000 
#    0.000    0.000    0.000    0.923    0.000    0.538 
#    0.000    7.692    0.000    0.000    0.000    0.000 
#
# Total GULP energy -322189.721060 kJ/mol
# GULP energy per Si atom -12391.912348 kJ/mol
# Density = 1.744007 g / cm^3
# Si number density = 17.479852 Si / 1000 Ang^3
#
#
#
# Elastic Constant Matrix: (Units=GPa)
#
#
# Indices 1 2 3 4 5 6 
#
# 1 58.2998 20.5780 36.1593 0.0000 11.9774 -0.0006
# 2 20.5780 110.9467 36.3063 0.0001 18.4717 -0.0003
# 3 36.1593 36.3063 78.6865 0.0000 0.6080 -0.0008
# 4 0.0000 0.0001 0.0000 16.9747 0.0000 5.9209
# 5 11.9774 18.4717 0.6080 0.0000 38.9297 0.0006
# 6 -0.0006 -0.0003 -0.0008 5.9209 0.0006 41.0848
#
#
#
# Elastic Compliance Matrix: (Units=1/GPa)
#
#
# Indices 1 2 3 4 5 6 
#
# 1 0.026220 0.000481 -0.012208 0.000000 -0.008105 0.000000
# 2 0.000481 0.011678 -0.005566 0.000000 -0.005602 0.000000
# 3 -0.012208 -0.005566 0.020840 0.000000 0.006072 0.000000
# 4 0.000000 0.000000 0.000000 0.062029 0.000000 -0.008939
# 5 -0.008105 -0.005602 0.006072 0.000000 0.030744 -0.000001
# 6 0.000000 0.000000 0.000000 -0.008939 -0.000001 0.025628
#
#
# Mechanical properties :
#
#
# Convention : Reuss Voigt Hill
#
# Bulk Modulus (GPa) = 41.40505 48.22444 44.81474
# Shear Modulus (GPa) = 22.75022 29.72379 26.23700
#
# Velocity S-wave (km/s) = 3.61156 4.12814 3.87846
# Velocity P-wave (km/s) = 6.41326 7.09722 6.76389
#
# Compressibility (1/GPa) = 0.02415164
#
# Stress axis : x y z
#
# Youngs Moduli (GPa) = 38.13884 85.62859 47.98397
#
# Poissons Ratio (x) = -0.04121 0.58581
# Poissons Ratio (y) = -0.01836 0.26709
# Poissons Ratio (z) = 0.46562 0.47664
#
# Static dielectric constant tensor:
#      x y z
#    x 3.387180 0.000000 0.035390 
#    y 0.000000 3.197300 0.000000 
#    z 0.035390 0.000000 3.615570 
# 
# 
# High freq. dielectric constant tensor:
#      x y z
#    x 1.671450 0.000000 -0.018850 
#    y 0.000000 1.641320 0.000000 
#    z -0.018850 0.000000 1.686990 
# 
# From -- ./inp_files/148575.got.cif
#   From: 2010.06.25/outbox.cif.g09.slc.cpg/sg12_75_cif.got.tgz:148575.got - 2010.06.28 00:19:55.
