data_PCOD8078562
_publ_section_title
;
Structure prediction by ZEFSAII (Michael W. Deem and Ramdas Pophale) SiO2 
 PCOD8078562
Probable space group: C 2/M
;
_chemical_formula_sum "Si O2"
_cell_formula_units_Z 64
_cell_length_a 23.474090
_cell_length_b 8.676740
_cell_length_c 21.421352
_cell_angle_alpha 90.000000
_cell_angle_beta 121.475508
_cell_angle_gamma 90.000000
_cell_volume 3721.103271
_symmetry_space_group_name_H-M "C 2/M"
_symmetry_group_IT_number 12
_symmetry_cell_setting 'monoclinic'
loop_
_space_group_symop_operation_xyz
x,y,z
-x,y,-z
-x,-y,-z
x,-y,z
1/2+x,1/2+y,z
1/2-x,1/2+y,-z
1/2-x,1/2-y,-z
1/2+x,1/2-y,z
loop_
_atom_site_type_symbol
_atom_site_label
_atom_site_fract_x
_atom_site_fract_y
_atom_site_fract_z
Si Si1 0.681225 0.316736 0.216644
Si Si2 0.441717 0.317334 0.627380
Si Si3 0.061593 0.179431 0.234804
Si Si4 0.962368 0.682172 0.414837
Si Si5 0.601743 0.180790 0.067443
Si Si6 0.981038 0.819868 0.074775
Si Si7 0.685801 0.817348 0.642527
Si Si8 0.690650 0.817606 0.505653
O O1 0.677094 0.500000 0.209399
O O2 0.626769 0.253975 0.235905
O O3 0.667124 0.247038 0.139772
O O4 0.754528 0.258109 0.278930
O O5 0.432515 0.500000 0.620948
O O6 0.447429 0.250526 0.701350
O O7 0.507389 0.270107 0.627032
O O8 0.379501 0.236368 0.560318
O O9 0.993599 0.210515 0.155759
O O10 0.074387 0.000000 0.250165
O O11 0.968594 0.500000 0.407946
O O12 0.885844 0.739774 0.373891
O O13 0.000000 0.730217 0.500000
O O14 0.538233 0.225716 0.072243
O O15 0.609173 0.000000 0.063597
O O16 0.590380 0.256653 0.991631
O O17 0.988746 0.000000 0.063771
O O18 0.698407 0.753977 0.580253
O O19 0.685794 0.000000 0.640024
O O20 0.750000 0.750000 0.500000
O O21 0.693956 0.000000 0.505484
#
# Coordination Sequence:
#
# PCOD8078562 Si02
#       8
#     8   8   8   8   8   8   8   8
#     4   9  16  30  49  67  89 127 168 195 227 287
#     4  11  21  34  51  74  99 127 162 205 250 292
#     4   8  16  29  46  68  97 126 159 199 236 279
#     4  10  19  36  55  71  93 126 167 210 250 291
#     4  10  17  25  39  66 100 126 148 190 242 280
#     4   9  15  27  45  63  87 128 169 191 215 276
#     4   9  18  33  53  69  91 128 168 203 241 286
#     4  11  21  35  51  72  98 130 162 199 243 293
#
# _framework density 17.199199
#
# number of rings (size 3 to 8) (size 9 to 14) (size 15 to 20)
#    0.000    2.375    1.250    4.500    0.000    2.250 
#    0.000   10.625    0.000    0.000    0.000    0.875 
#    0.000    0.000    0.000    0.000    0.000    0.000 
#
# Total GULP energy -396593.342777 kJ/mol
# GULP energy per Si atom -12393.541962 kJ/mol
# Density = 1.716005 g / cm^3
# Si number density = 17.199199 Si / 1000 Ang^3
#
#
#
# Elastic Constant Matrix: (Units=GPa)
#
#
# Indices 1 2 3 4 5 6 
#
# 1 88.5041 17.2590 51.9779 0.0000 14.2793 0.0000
# 2 17.2590 44.3190 29.1702 0.0000 3.3378 0.0000
# 3 51.9779 29.1702 152.2007 0.0000 28.9704 0.0000
# 4 0.0000 0.0000 0.0000 20.4121 0.0000 0.1427
# 5 14.2793 3.3378 28.9704 0.0000 12.9601 0.0000
# 6 0.0000 0.0000 0.0000 0.1427 0.0000 19.9031
#
#
#
# Elastic Compliance Matrix: (Units=1/GPa)
#
#
# Indices 1 2 3 4 5 6 
#
# 1 0.015100 -0.003412 -0.002617 0.000000 -0.009909 0.000000
# 2 -0.003412 0.027038 -0.005930 0.000000 0.010051 0.000000
# 3 -0.002617 -0.005930 0.013509 0.000000 -0.025786 0.000000
# 4 0.000000 0.000000 0.000000 0.048993 0.000000 -0.000351
# 5 -0.009909 0.010051 -0.025786 0.000000 0.143130 0.000000
# 6 0.000000 0.000000 0.000000 -0.000351 0.000000 0.050246
#
#
# Mechanical properties :
#
#
# Convention : Reuss Voigt Hill
#
# Bulk Modulus (GPa) = 31.51629 53.53756 42.52693
# Shear Modulus (GPa) = 15.03714 23.09617 19.06666
#
# Velocity S-wave (km/s) = 2.96005 3.66849 3.33314
# Velocity P-wave (km/s) = 5.48148 7.00994 6.29229
#
# Compressibility (1/GPa) = 0.03172962
#
# Stress axis : x y z
#
# Youngs Moduli (GPa) = 66.22657 36.98433 74.02602
#
# Poissons Ratio (x) = 0.12618 0.19371
# Poissons Ratio (y) = 0.22594 0.43899
# Poissons Ratio (z) = 0.17330 0.21933
#
# Static dielectric constant tensor:
#      x y z
#    x 3.111210 0.000000 0.049600 
#    y 0.000000 2.994090 0.000000 
#    z 0.049600 0.000000 3.916260 
# 
# 
# High freq. dielectric constant tensor:
#      x y z
#    x 1.620940 0.000000 0.008020 
#    y 0.000000 1.648040 0.000000 
#    z 0.008020 0.000000 1.683070 
# 
# From -- ./inp_files/323734.got.cif
#   From: 2010.06.25/outbox.cif.g09.slc.cpg/sg12_162_cif.got.tgz:323734.got - 2010.06.28 00:19:55.
