data_PCOD8078253
_publ_section_title
;
Structure prediction by ZEFSAII (Michael W. Deem and Ramdas Pophale) SiO2 
 PCOD8078253
Probable space group: C 2/M
;
_chemical_formula_sum "Si O2"
_cell_formula_units_Z 64
_cell_length_a 14.893415
_cell_length_b 17.317454
_cell_length_c 27.832308
_cell_angle_alpha 90.000000
_cell_angle_beta 149.680404
_cell_angle_gamma 90.000000
_cell_volume 3623.819794
_symmetry_space_group_name_H-M "C 2/M"
_symmetry_group_IT_number 12
_symmetry_cell_setting 'monoclinic'
loop_
_space_group_symop_operation_xyz
x,y,z
-x,y,-z
-x,-y,-z
x,-y,z
1/2+x,1/2+y,z
1/2-x,1/2+y,-z
1/2-x,1/2-y,-z
1/2+x,1/2-y,z
loop_
_atom_site_type_symbol
_atom_site_label
_atom_site_fract_x
_atom_site_fract_y
_atom_site_fract_z
Si Si1 0.007233 0.910893 0.397253
Si Si2 0.202477 0.914841 0.575086
Si Si3 0.634167 0.413185 0.944632
Si Si4 0.399701 0.726340 0.003706
Si Si5 0.115766 0.085928 0.760376
Si Si6 0.320873 0.173094 0.714709
Si Si7 0.958741 0.185190 0.182497
Si Si8 0.480727 0.867288 0.883238
O O1 0.191322 0.896350 0.512232
O O2 0.025976 0.900382 0.348587
O O3 0.872392 0.845462 0.353618
O O4 0.941876 0.000000 0.377835
O O5 0.333473 0.859083 0.665733
O O6 0.000000 0.909009 0.500000
O O7 0.280503 0.000000 0.619200
O O8 0.572329 0.500000 0.928135
O O9 0.516732 0.381038 0.846103
O O10 0.607134 0.360278 0.978964
O O11 0.839822 0.413882 0.022182
O O12 0.201031 0.757756 0.905730
O O13 0.500000 0.725783 0.000000
O O14 0.504103 0.779617 0.090119
O O15 0.079304 0.148596 0.783602
O O16 0.316206 0.091461 0.833031
O O17 0.090969 0.000000 0.770274
O O18 0.360525 0.264621 0.730719
O O19 0.458448 0.132877 0.815174
#
# Coordination Sequence:
#
# PCOD8078253 Si02
#       8
#     8   8   8   8   8   8   8   8
#     4   8  16  30  49  75 102 122 149 196 247 289
#     4   8  14  26  46  73 101 123 148 193 245 285
#     4  11  22  34  49  67  93 124 165 204 235 281
#     4  11  20  36  51  63  96 129 159 196 246 279
#     4  10  19  30  49  73  96 126 159 193 241 288
#     4  10  16  27  48  69  97 126 155 187 240 289
#     4  11  20  33  45  70  98 127 158 202 239 278
#     4  10  18  33  50  71  93 121 158 204 243 284
#
# _framework density 17.660921999999999
#
# number of rings (size 3 to 8) (size 9 to 14) (size 15 to 20)
#    0.000    2.125    3.750    2.625    0.000    1.750 
#    0.000    2.500    0.000    0.000    0.000    0.000 
#    0.000   18.000    0.000    0.000    0.000    0.375 
#
# Total GULP energy -396503.778940 kJ/mol
# GULP energy per Si atom -12390.743092 kJ/mol
# Density = 1.762072 g / cm^3
# Si number density = 17.660922 Si / 1000 Ang^3
#
#
#
# Elastic Constant Matrix: (Units=GPa)
#
#
# Indices 1 2 3 4 5 6 
#
# 1 43.0827 25.6034 35.3327 -0.0002 -18.4538 0.0006
# 2 25.6034 111.1216 47.6080 -0.0017 -17.7338 0.0007
# 3 35.3327 47.6080 71.5643 -0.0041 -34.1863 0.0011
# 4 -0.0002 -0.0017 -0.0041 22.9010 -0.0013 -1.3852
# 5 -18.4538 -17.7338 -34.1863 -0.0013 29.1088 0.0006
# 6 0.0006 0.0007 0.0011 -1.3852 0.0006 18.1777
#
#
#
# Elastic Compliance Matrix: (Units=1/GPa)
#
#
# Indices 1 2 3 4 5 6 
#
# 1 0.039450 -0.001383 -0.015975 -0.000002 0.005406 -0.000001
# 2 -0.001383 0.012954 -0.010442 -0.000001 -0.005248 0.000000
# 3 -0.015975 -0.010442 0.047680 0.000010 0.039508 -0.000003
# 4 -0.000002 -0.000001 0.000010 0.043868 0.000011 0.003343
# 5 0.005406 -0.005248 0.039508 0.000011 0.080983 -0.000004
# 6 -0.000001 0.000000 -0.000003 0.003343 -0.000004 0.055267
#
#
# Mechanical properties :
#
#
# Convention : Reuss Voigt Hill
#
# Bulk Modulus (GPa) = 22.47977 49.20632 35.84305
# Shear Modulus (GPa) = 14.26009 21.85246 18.05627
#
# Velocity S-wave (km/s) = 2.84463 3.52139 3.20095
# Velocity P-wave (km/s) = 4.85236 6.66752 5.83100
#
# Compressibility (1/GPa) = 0.04448443
#
# Stress axis : x y z
#
# Youngs Moduli (GPa) = 25.34878 77.19738 20.97318
#
# Poissons Ratio (x) = 0.10674 0.33505
# Poissons Ratio (y) = 0.03505 0.21900
# Poissons Ratio (z) = 0.40495 0.80608
#
# Static dielectric constant tensor:
#      x y z
#    x 3.155560 0.000000 -0.516820 
#    y 0.000000 3.258110 0.000000 
#    z -0.516820 0.000000 3.455860 
# 
# 
# High freq. dielectric constant tensor:
#      x y z
#    x 1.658490 0.000000 -0.046910 
#    y 0.000000 1.675920 0.000000 
#    z -0.046910 0.000000 1.663440 
# 
# From -- ./inp_files/296700.got.cif
#   From: 2010.06.25/outbox.cif.g09.slc.cpg/sg12_149_cif.got.tgz:296700.got - 2010.06.28 00:19:55.
