data_PCOD8078328
_publ_section_title
;
Structure prediction by ZEFSAII (Michael W. Deem and Ramdas Pophale) SiO2 
 PCOD8078328
Probable space group: C 2/M
;
_chemical_formula_sum "Si O2"
_cell_formula_units_Z 64
_cell_length_a 22.387777
_cell_length_b 26.070153
_cell_length_c 9.012617
_cell_angle_alpha 90.000000
_cell_angle_beta 128.324105
_cell_angle_gamma 90.000000
_cell_volume 4126.739223
_symmetry_space_group_name_H-M "C 2/M"
_symmetry_group_IT_number 12
_symmetry_cell_setting 'monoclinic'
loop_
_space_group_symop_operation_xyz
x,y,z
-x,y,-z
-x,-y,-z
x,-y,z
1/2+x,1/2+y,z
1/2-x,1/2+y,-z
1/2-x,1/2-y,-z
1/2+x,1/2-y,z
loop_
_atom_site_type_symbol
_atom_site_label
_atom_site_fract_x
_atom_site_fract_y
_atom_site_fract_z
Si Si1 0.848029 0.648982 0.911387
Si Si2 0.817210 0.646528 0.516371
Si Si3 0.402138 0.941161 0.497138
Si Si4 0.823052 0.208009 0.749830
Si Si5 0.455811 0.243620 0.082497
Si Si6 0.925399 0.559014 0.192405
Si Si7 0.232797 0.779132 0.822683
Si Si8 0.609573 0.750632 0.447206
O O1 0.832388 0.646571 0.713751
O O2 0.769529 0.663878 0.878787
O O3 0.909098 0.692525 0.050966
O O4 0.876467 0.593681 0.006497
O O5 0.838353 0.591822 0.481322
O O6 0.727135 0.656214 0.339825
O O7 0.870773 0.688937 0.521232
O O8 0.485177 0.930279 0.694568
O O9 0.402545 0.927487 0.324578
O O10 0.379515 0.000000 0.486327
O O11 0.768630 0.251736 0.732638
O O12 0.851059 0.224245 0.632389
O O13 0.898372 0.207271 0.972743
O O14 0.517916 0.256326 0.305054
O O15 0.500000 0.230917 0.000000
O O16 0.906556 0.500000 0.126714
O O17 0.142119 0.777174 0.647029
O O18 0.250000 0.750000 0.000000
#
# Coordination Sequence:
#
# PCOD8078328 Si02
#       8
#     8   8   8   8   8   8   8   8
#     4  11  19  29  43  67  89 116 155 188 219 256
#     4  11  17  28  48  64  87 116 151 184 221 265
#     4   9  20  35  47  62  85 117 151 190 229 267
#     4   9  17  30  42  63  90 116 144 184 218 255
#     4   9  16  27  45  64  89 118 152 179 212 268
#     4   9  20  35  45  61  90 115 149 192 228 262
#     4  10  19  29  41  63  92 118 150 184 219 266
#     4  10  16  30  45  63  89 124 146 178 219 259
#
# _framework density 15.508613
#
# number of rings (size 3 to 8) (size 9 to 14) (size 15 to 20)
#    0.000    2.250    5.000    2.250    3.500    0.500 
#    0.000    3.125    0.000    0.000    0.000    0.000 
#    0.000    5.500    0.000    2.750    1.000    0.000 
#
# Total GULP energy -396494.508765 kJ/mol
# GULP energy per Si atom -12390.453399 kJ/mol
# Density = 1.547332 g / cm^3
# Si number density = 15.508613 Si / 1000 Ang^3
#
#
#
# Elastic Constant Matrix: (Units=GPa)
#
#
# Indices 1 2 3 4 5 6 
#
# 1 43.7068 36.5016 35.3329 0.0000 13.4904 0.0000
# 2 36.5016 76.7018 44.0132 0.0000 10.4275 0.0000
# 3 35.3329 44.0132 115.0339 0.0000 29.3576 0.0000
# 4 0.0000 0.0000 0.0000 25.4391 0.0000 2.7260
# 5 13.4904 10.4275 29.3576 0.0000 21.3884 0.0000
# 6 0.0000 0.0000 0.0000 2.7260 0.0000 27.0062
#
#
#
# Elastic Compliance Matrix: (Units=1/GPa)
#
#
# Indices 1 2 3 4 5 6 
#
# 1 0.044676 -0.017360 -0.003154 0.000000 -0.015387 0.000000
# 2 -0.017360 0.023463 -0.005418 0.000000 0.006947 0.000000
# 3 -0.003154 -0.005418 0.016243 0.000000 -0.017664 0.000000
# 4 0.000000 0.000000 0.000000 0.039739 0.000000 -0.004011
# 5 -0.015387 0.006947 -0.017664 0.000000 0.077318 0.000000
# 6 0.000000 0.000000 0.000000 -0.004011 0.000000 0.037433
#
#
# Mechanical properties :
#
#
# Convention : Reuss Voigt Hill
#
# Bulk Modulus (GPa) = 30.75067 51.90421 41.32744
# Shear Modulus (GPa) = 16.57957 22.73974 19.65965
#
# Velocity S-wave (km/s) = 3.27319 3.83334 3.56428
# Velocity P-wave (km/s) = 5.84433 7.28926 6.60642
#
# Compressibility (1/GPa) = 0.03251962
#
# Stress axis : x y z
#
# Youngs Moduli (GPa) = 22.38329 42.61953 61.56548
#
# Poissons Ratio (x) = 0.73985 0.19415
# Poissons Ratio (y) = 0.38856 0.33359
# Poissons Ratio (z) = 0.07059 0.23093
#
# Static dielectric constant tensor:
#      x y z
#    x 3.026260 0.000000 0.341700 
#    y 0.000000 2.775990 0.000000 
#    z 0.341700 0.000000 3.306660 
# 
# 
# High freq. dielectric constant tensor:
#      x y z
#    x 1.579900 0.000000 0.003180 
#    y 0.000000 1.552840 0.000000 
#    z 0.003180 0.000000 1.606080 
# 
# From -- ./inp_files/90433.got.cif
#   From: 2010.06.25/outbox.cif.g09.slc.cpg/sg12_46_cif.got.tgz:90433.got - 2010.06.28 00:19:55.
