data_PCOD8078896
_publ_section_title
;
Structure prediction by ZEFSAII (Michael W. Deem and Ramdas Pophale) SiO2 
 PCOD8078896
Probable space group: C 2/M
;
_chemical_formula_sum "Si O2"
_cell_formula_units_Z 64
_cell_length_a 25.123208
_cell_length_b 8.980881
_cell_length_c 17.519781
_cell_angle_alpha 90.000000
_cell_angle_beta 77.442888
_cell_angle_gamma 90.000000
_cell_volume 3858.406884
_symmetry_space_group_name_H-M "C 2/M"
_symmetry_group_IT_number 12
_symmetry_cell_setting 'monoclinic'
loop_
_space_group_symop_operation_xyz
x,y,z
-x,y,-z
-x,-y,-z
x,-y,z
1/2+x,1/2+y,z
1/2-x,1/2+y,-z
1/2-x,1/2-y,-z
1/2+x,1/2-y,z
loop_
_atom_site_type_symbol
_atom_site_label
_atom_site_fract_x
_atom_site_fract_y
_atom_site_fract_z
Si Si1 0.626772 0.673151 0.416012
Si Si2 0.738005 0.822669 0.422933
Si Si3 0.152621 0.825153 0.686477
Si Si4 0.065738 0.173425 0.592476
Si Si5 0.936516 0.335128 0.999623
Si Si6 0.545303 0.825606 0.332780
Si Si7 0.976779 0.673599 0.832298
Si Si8 0.914135 0.825786 0.152131
O O1 0.639985 0.500000 0.399940
O O2 0.682622 0.762824 0.404895
O O3 0.590019 0.698725 0.501504
O O4 0.595465 0.736912 0.352905
O O5 0.750000 0.750000 0.500000
O O6 0.786535 0.770096 0.351064
O O7 0.735482 0.000000 0.432999
O O8 0.108592 0.759643 0.640298
O O9 0.137009 0.780899 0.778108
O O10 0.150032 0.000000 0.675030
O O11 0.010952 0.267873 0.614640
O O12 0.052114 0.000000 0.611326
O O13 0.911911 0.500000 0.015420
O O14 0.933145 0.279547 0.912365
O O15 0.903591 0.233371 0.069638
O O16 0.000000 0.332381 0.000000
O O17 0.549045 0.792420 0.241394
O O18 0.550577 0.000000 0.348996
O O19 0.991382 0.500000 0.838234
O O20 0.032447 0.763056 0.823746
O O21 0.921659 0.000000 0.144000
#
# Coordination Sequence:
#
# PCOD8078896 Si02
#       8
#     8   8   8   8   8   8   8   8
#     4  11  23  38  53  71  97 133 171 208 253 296
#     4  11  21  37  56  74  97 129 168 210 251 294
#     4   9  18  32  50  72 100 132 162 197 249 296
#     4  10  19  35  52  69  99 137 166 197 248 300
#     4   8  15  28  43  62  95 132 158 188 237 291
#     4  11  22  34  50  75 101 130 171 209 242 290
#     4   9  18  31  45  65  98 134 161 191 239 293
#     4  10  17  27  46  71  97 125 162 199 235 286
#
# _framework density 16.587157999999999
#
# number of rings (size 3 to 8) (size 9 to 14) (size 15 to 20)
#    0.000    2.125    2.500    2.625    0.000    5.250 
#    0.000    2.500    0.000    0.000    0.000    0.875 
#    0.000    0.000    0.000    0.000    0.000    0.000 
#
# Total GULP energy -396713.827268 kJ/mol
# GULP energy per Si atom -12397.307102 kJ/mol
# Density = 1.654940 g / cm^3
# Si number density = 16.587158 Si / 1000 Ang^3
#
#
#
# Elastic Constant Matrix: (Units=GPa)
#
#
# Indices 1 2 3 4 5 6 
#
# 1 94.6513 38.7672 58.1982 0.0000 -2.5596 0.0000
# 2 38.7672 74.7423 56.7606 0.0000 -5.8827 0.0000
# 3 58.1982 56.7606 135.2698 0.0000 -10.3890 0.0000
# 4 0.0000 0.0000 0.0000 28.0241 0.0000 0.7494
# 5 -2.5596 -5.8827 -10.3890 0.0000 16.6995 0.0000
# 6 0.0000 0.0000 0.0000 0.7494 0.0000 22.5515
#
#
#
# Elastic Compliance Matrix: (Units=1/GPa)
#
#
# Indices 1 2 3 4 5 6 
#
# 1 0.015331 -0.004387 -0.004929 0.000000 -0.002262 0.000000
# 2 -0.004387 0.020948 -0.006708 0.000000 0.002534 0.000000
# 3 -0.004929 -0.006708 0.012695 0.000000 0.004779 0.000000
# 4 0.000000 0.000000 0.000000 0.035715 0.000000 -0.001187
# 5 -0.002262 0.002534 0.004779 0.000000 0.063401 0.000000
# 6 0.000000 0.000000 0.000000 -0.001187 0.000000 0.044382
#
#
# Mechanical properties :
#
#
# Convention : Reuss Voigt Hill
#
# Bulk Modulus (GPa) = 59.07806 68.01283 63.54545
# Shear Modulus (GPa) = 21.72362 23.51754 22.62058
#
# Velocity S-wave (km/s) = 3.62286 3.76947 3.69689
# Velocity P-wave (km/s) = 7.29343 7.74839 7.52435
#
# Compressibility (1/GPa) = 0.01692676
#
# Stress axis : x y z
#
# Youngs Moduli (GPa) = 65.22535 47.73637 78.76984
#
# Poissons Ratio (x) = 0.20941 0.38827
# Poissons Ratio (y) = 0.28613 0.52840
# Poissons Ratio (z) = 0.32150 0.32022
#
# Static dielectric constant tensor:
#      x y z
#    x 3.002080 0.000000 -0.063480 
#    y 0.000000 3.109000 0.000000 
#    z -0.063480 0.000000 3.543880 
# 
# 
# High freq. dielectric constant tensor:
#      x y z
#    x 1.601790 0.000000 -0.003730 
#    y 0.000000 1.638820 0.000000 
#    z -0.003730 0.000000 1.650520 
# 
# From -- ./inp_files/287583.got.cif
#   From: 2010.06.25/outbox.cif.g09.slc.cpg/sg12_144_cif.got.tgz:287583.got - 2010.06.28 00:19:55.
