data_PCOD8078954
_publ_section_title
;
Structure prediction by ZEFSAII (Michael W. Deem and Ramdas Pophale) SiO2 
 PCOD8078954
Probable space group: C 2/M
;
_chemical_formula_sum "Si O2"
_cell_formula_units_Z 64
_cell_length_a 9.440599
_cell_length_b 20.915392
_cell_length_c 23.568755
_cell_angle_alpha 90.000000
_cell_angle_beta 127.532099
_cell_angle_gamma 90.000000
_cell_volume 3690.473169
_symmetry_space_group_name_H-M "C 2/M"
_symmetry_group_IT_number 12
_symmetry_cell_setting 'monoclinic'
loop_
_space_group_symop_operation_xyz
x,y,z
-x,y,-z
-x,-y,-z
x,-y,z
1/2+x,1/2+y,z
1/2-x,1/2+y,-z
1/2-x,1/2-y,-z
1/2+x,1/2-y,z
loop_
_atom_site_type_symbol
_atom_site_label
_atom_site_fract_x
_atom_site_fract_y
_atom_site_fract_z
Si Si1 0.660316 0.315894 0.496532
Si Si2 0.832184 0.142596 0.725663
Si Si3 0.334403 0.855553 0.745314
Si Si4 0.481952 0.253450 0.843764
Si Si5 0.158869 0.313513 0.082246
Si Si6 0.961698 0.202506 0.649609
Si Si7 0.936741 0.353757 0.644303
Si Si8 0.305116 0.427038 0.188215
O O1 0.500000 0.300136 0.500000
O O2 0.750000 0.250000 0.500000
O O3 0.582792 0.340243 0.417364
O O4 0.793840 0.368637 0.558605
O O5 0.873445 0.188840 0.788291
O O6 0.827655 0.182795 0.666654
O O7 0.631335 0.113888 0.683285
O O8 0.981933 0.087422 0.756531
O O9 0.495783 0.809506 0.806080
O O10 0.363094 0.876999 0.687428
O O11 0.297989 0.916881 0.776621
O O12 0.164665 0.810346 0.715494
O O13 0.676851 0.278879 0.908498
O O14 0.387019 0.234004 0.878189
O O15 0.213261 0.383176 0.118352
O O16 0.000000 0.323498 0.000000
O O17 0.944213 0.277851 0.640175
O O18 0.280077 0.500000 0.163757
#
# Coordination Sequence:
#
# PCOD8078954 Si02
#       8
#     8   8   8   8   8   8   8   8
#     4  10  21  27  36  64 109 150 168 194 245 316
#     4  10  19  29  51  74  96 140 164 212 264 290
#     4  10  17  29  51  71  96 138 165 206 258 294
#     4  10  17  30  46  75 107 126 162 201 242 306
#     4  10  20  32  53  78 105 136 159 195 254 307
#     4  10  17  28  42  68 109 140 164 193 254 317
#     4  11  17  27  45  70 105 129 171 202 252 312
#     4   9  21  38  52  71  99 130 177 215 247 297
#
# _framework density 17.341950000000001
#
# number of rings (size 3 to 8) (size 9 to 14) (size 15 to 20)
#    0.000    2.000    3.750    1.875    5.250    0.250 
#    0.000    0.625    0.000    0.000    0.000   14.000 
#    0.000   12.000    0.000    0.000    0.000    0.000 
#
# Total GULP energy -396511.717913 kJ/mol
# GULP energy per Si atom -12390.991185 kJ/mol
# Density = 1.730248 g / cm^3
# Si number density = 17.341950 Si / 1000 Ang^3
#
#
#
# Elastic Constant Matrix: (Units=GPa)
#
#
# Indices 1 2 3 4 5 6 
#
# 1 86.3115 20.4166 29.9618 0.0000 6.7728 0.0000
# 2 20.4166 63.3716 19.8197 0.0000 4.1449 0.0000
# 3 29.9618 19.8197 92.6222 0.0000 5.4988 0.0000
# 4 0.0000 0.0000 0.0000 8.4098 0.0000 -1.5660
# 5 6.7728 4.1449 5.4988 0.0000 27.9120 0.0000
# 6 0.0000 0.0000 0.0000 -1.5660 0.0000 9.4899
#
#
#
# Elastic Compliance Matrix: (Units=1/GPa)
#
#
# Indices 1 2 3 4 5 6 
#
# 1 0.013768 -0.003153 -0.003651 0.000000 -0.002153 0.000000
# 2 -0.003153 0.017726 -0.002694 0.000000 -0.001337 0.000000
# 3 -0.003651 -0.002694 0.012625 0.000000 -0.001201 0.000000
# 4 0.000000 0.000000 0.000000 0.122679 0.000000 0.020244
# 5 -0.002153 -0.001337 -0.001201 0.000000 0.036785 0.000000
# 6 0.000000 0.000000 0.000000 0.020244 0.000000 0.108716
#
#
# Mechanical properties :
#
#
# Convention : Reuss Voigt Hill
#
# Bulk Modulus (GPa) = 39.80364 42.52239 41.16302
# Shear Modulus (GPa) = 14.72022 20.63615 17.67818
#
# Velocity S-wave (km/s) = 2.91661 3.45332 3.19625
# Velocity P-wave (km/s) = 5.86040 6.36190 6.11629
#
# Compressibility (1/GPa) = 0.02512333
#
# Stress axis : x y z
#
# Youngs Moduli (GPa) = 72.63108 56.41552 79.20537
#
# Poissons Ratio (x) = 0.17788 0.28920
# Poissons Ratio (y) = 0.22900 0.21336
# Poissons Ratio (z) = 0.26520 0.15197
#
# Static dielectric constant tensor:
#      x y z
#    x 3.373870 0.000000 -0.099810 
#    y 0.000000 2.662500 0.000000 
#    z -0.099810 0.000000 4.243500 
# 
# 
# High freq. dielectric constant tensor:
#      x y z
#    x 1.680630 0.000000 0.001040 
#    y 0.000000 1.603260 0.000000 
#    z 0.001040 0.000000 1.677620 
# 
# From -- ./inp_files/333588.got.cif
#   From: 2010.06.25/outbox.cif.g09.slc.cpg/sg12_167_cif.got.tgz:333588.got - 2010.06.28 00:19:55.
