data_PCOD8078113
_publ_section_title
;
Structure prediction by ZEFSAII (Michael W. Deem and Ramdas Pophale) SiO2 
 PCOD8078113
Probable space group: C 2/M
;
_chemical_formula_sum "Si O2"
_cell_formula_units_Z 44
_cell_length_a 20.611129
_cell_length_b 15.086921
_cell_length_c 8.558330
_cell_angle_alpha 90.000000
_cell_angle_beta 120.713292
_cell_angle_gamma 90.000000
_cell_volume 2287.996898
_symmetry_space_group_name_H-M "C 2/M"
_symmetry_group_IT_number 12
_symmetry_cell_setting 'monoclinic'
loop_
_space_group_symop_operation_xyz
x,y,z
-x,y,-z
-x,-y,-z
x,-y,z
1/2+x,1/2+y,z
1/2-x,1/2+y,-z
1/2-x,1/2-y,-z
1/2+x,1/2-y,z
loop_
_atom_site_type_symbol
_atom_site_label
_atom_site_fract_x
_atom_site_fract_y
_atom_site_fract_z
Si Si1 0.774664 0.853982 0.892697
Si Si2 0.203217 0.000000 0.331300
Si Si3 0.000000 0.151113 0.500000
Si Si4 0.423047 0.500000 0.556955
Si Si5 0.683348 0.000000 0.278806
Si Si6 0.063184 0.598769 0.970919
Si Si7 0.698666 0.500000 0.828441
Si Si8 0.125472 0.272484 0.807494
O O1 0.690201 0.813355 0.772952
O O2 0.800827 0.910679 0.776007
O O3 0.835620 0.777274 0.997833
O O4 0.776336 0.913474 0.049131
O O5 0.132247 0.000000 0.361924
O O6 0.287945 0.000000 0.507807
O O7 0.026504 0.089868 0.384731
O O8 0.070590 0.211240 0.638705
O O9 0.387431 0.500000 0.335768
O O10 0.761680 0.000000 0.287718
O O11 0.637238 0.088418 0.172915
O O12 0.034521 0.500000 0.885448
O O13 0.076674 0.650278 0.827176
O O14 0.000000 0.646748 0.000000
#
# Coordination Sequence:
#
# PCOD8078113 Si02
#       8
#     8   4   4   4   4   8   4   8
#     4  10  21  37  60  92 117 152 206 257 298 349
#     4  10  23  36  64  94 116 156 210 260 293 358
#     4  11  24  40  63  90 126 166 203 244 306 375
#     4  10  22  42  62  90 122 165 197 249 309 362
#     4   9  17  35  59  80 110 152 195 241 296 351
#     4   9  19  36  57  78 116 164 195 233 310 367
#     4  10  15  37  67  76 114 158 203 234 298 365
#     4  11  22  38  60  90 120 162 203 252 302 363
#
# _framework density 19.230793999999999
#
# number of rings (size 3 to 8) (size 9 to 14) (size 15 to 20)
#    0.545    1.455    3.636    0.000    1.273    2.909 
#    0.000    3.182    0.000    0.000    0.000    0.000 
#    0.000    0.000    0.000    0.000    0.000    0.000 
#
# Total GULP energy -272581.275674 kJ/mol
# GULP energy per Si atom -12390.057985 kJ/mol
# Density = 1.918702 g / cm^3
# Si number density = 19.230794 Si / 1000 Ang^3
#
#
#
# Elastic Constant Matrix: (Units=GPa)
#
#
# Indices 1 2 3 4 5 6 
#
# 1 120.6796 47.1367 32.1788 0.0000 -6.6216 0.0000
# 2 47.1367 90.7110 26.0440 0.0000 -6.9193 0.0000
# 3 32.1788 26.0440 57.4338 0.0000 -3.5053 0.0000
# 4 0.0000 0.0000 0.0000 25.8789 0.0000 10.1257
# 5 -6.6216 -6.9193 -3.5053 0.0000 24.6471 0.0000
# 6 0.0000 0.0000 0.0000 10.1257 0.0000 28.5772
#
#
#
# Elastic Compliance Matrix: (Units=1/GPa)
#
#
# Indices 1 2 3 4 5 6 
#
# 1 0.011239 -0.004558 -0.004160 0.000000 0.001148 0.000000
# 2 -0.004558 0.014712 -0.003975 0.000000 0.002340 0.000000
# 3 -0.004160 -0.003975 0.021596 0.000000 0.000838 0.000000
# 4 0.000000 0.000000 0.000000 0.044861 0.000000 -0.015896
# 5 0.001148 0.002340 0.000838 0.000000 0.041657 0.000000
# 6 0.000000 0.000000 0.000000 -0.015896 0.000000 0.040625
#
#
# Mechanical properties :
#
#
# Convention : Reuss Voigt Hill
#
# Bulk Modulus (GPa) = 45.12406 53.28261 49.20333
# Shear Modulus (GPa) = 24.10061 26.71830 25.40945
#
# Velocity S-wave (km/s) = 3.54394 3.73144 3.63890
# Velocity P-wave (km/s) = 6.34519 6.80676 6.58002
#
# Compressibility (1/GPa) = 0.02216113
#
# Stress axis : x y z
#
# Youngs Moduli (GPa) = 88.97534 67.96987 46.30576
#
# Poissons Ratio (x) = 0.30983 0.19263
# Poissons Ratio (y) = 0.40558 0.18405
# Poissons Ratio (z) = 0.37013 0.27016
#
# Static dielectric constant tensor:
#      x y z
#    x 3.478460 0.000000 0.194900 
#    y 0.000000 3.624250 0.000000 
#    z 0.194900 0.000000 3.250750 
# 
# 
# High freq. dielectric constant tensor:
#      x y z
#    x 1.754870 0.000000 0.016130 
#    y 0.000000 1.747900 0.000000 
#    z 0.016130 0.000000 1.721670 
# 
# From -- ./inp_files/86074.got.cif
#   From: 2010.06.25/outbox.cif.g09.slc.cpg/sg12_44_cif.got.tgz:86074.got - 2010.06.28 00:19:55.
