data_PCOD8078647
_publ_section_title
;
Structure prediction by ZEFSAII (Michael W. Deem and Ramdas Pophale) SiO2 
 PCOD8078647
Probable space group: C 2/M
;
_chemical_formula_sum "Si O2"
_cell_formula_units_Z 64
_cell_length_a 10.480072
_cell_length_b 25.742523
_cell_length_c 18.906409
_cell_angle_alpha 90.000000
_cell_angle_beta 124.625778
_cell_angle_gamma 90.000000
_cell_volume 4197.216359
_symmetry_space_group_name_H-M "C 2/M"
_symmetry_group_IT_number 12
_symmetry_cell_setting 'monoclinic'
loop_
_space_group_symop_operation_xyz
x,y,z
-x,y,-z
-x,-y,-z
x,-y,z
1/2+x,1/2+y,z
1/2-x,1/2+y,-z
1/2-x,1/2-y,-z
1/2+x,1/2-y,z
loop_
_atom_site_type_symbol
_atom_site_label
_atom_site_fract_x
_atom_site_fract_y
_atom_site_fract_z
Si Si1 0.994836 0.365361 0.352102
Si Si2 0.120118 0.284671 0.489588
Si Si3 0.537904 0.308718 0.798707
Si Si4 0.347328 0.941562 0.499761
Si Si5 0.954838 0.685835 0.196974
Si Si6 0.904007 0.191374 0.905632
Si Si7 0.281357 0.633122 0.640005
Si Si8 0.400541 0.812897 0.903932
O O1 0.014407 0.354614 0.274968
O O2 0.817647 0.379293 0.319652
O O3 0.032687 0.309341 0.396221
O O4 0.116907 0.409307 0.416889
O O5 0.250000 0.250000 0.500000
O O6 0.181390 0.328596 0.560750
O O7 0.000000 0.251007 0.500000
O O8 0.510146 0.247057 0.776566
O O9 0.467297 0.328575 0.850535
O O10 0.448252 0.341950 0.710307
O O11 0.718049 0.324612 0.853567
O O12 0.500000 0.939417 0.500000
O O13 0.206708 0.917861 0.407189
O O14 0.302034 0.000000 0.507199
O O15 0.772157 0.677275 0.135200
O O16 0.035507 0.665951 0.150572
O O17 0.933071 0.252318 0.915119
O O18 0.000000 0.165465 0.000000
O O19 0.500000 0.838161 0.000000
#
# Coordination Sequence:
#
# PCOD8078647 Si02
#       8
#     8   8   8   8   8   8   8   8
#     4   9  16  27  42  61  85 111 141 174 211 251
#     4   9  17  28  39  55  85 118 142 166 198 244
#     4  10  17  26  40  59  87 117 150 179 207 243
#     4   8  15  28  47  67  87 108 133 175 223 263
#     4  10  17  26  40  59  87 117 150 179 207 243
#     4   9  16  26  40  55  79 118 152 179 213 246
#     4   9  16  27  42  61  85 111 141 174 211 251
#     4   9  18  28  38  57  85 118 150 181 207 240
#
# _framework density 15.248201
#
# number of rings (size 3 to 8) (size 9 to 14) (size 15 to 20)
#    0.000    2.875    1.250    3.000    0.000    3.000 
#    2.250    0.000    0.000    0.000    0.000    1.750 
#    0.000    6.000    0.000    0.000    0.000    0.000 
#
# Total GULP energy -396423.938943 kJ/mol
# GULP energy per Si atom -12388.248092 kJ/mol
# Density = 1.521350 g / cm^3
# Si number density = 15.248201 Si / 1000 Ang^3
#
#
#
# Elastic Constant Matrix: (Units=GPa)
#
#
# Indices 1 2 3 4 5 6 
#
# 1 80.3654 23.0955 31.1862 0.0000 -6.5907 0.0000
# 2 23.0955 52.7497 31.7479 0.0000 -2.3270 0.0000
# 3 31.1862 31.7479 103.3024 0.0000 -4.7060 0.0000
# 4 0.0000 0.0000 0.0000 10.9192 0.0000 -0.8730
# 5 -6.5907 -2.3270 -4.7060 0.0000 25.1140 0.0000
# 6 0.0000 0.0000 0.0000 -0.8730 0.0000 7.9956
#
#
#
# Elastic Compliance Matrix: (Units=1/GPa)
#
#
# Indices 1 2 3 4 5 6 
#
# 1 0.015211 -0.004719 -0.003005 0.000000 0.002991 0.000000
# 2 -0.004719 0.024741 -0.006184 0.000000 -0.000105 0.000000
# 3 -0.003005 -0.006184 0.012533 0.000000 0.000987 0.000000
# 4 0.000000 0.000000 0.000000 0.092389 0.000000 0.010088
# 5 0.002991 -0.000105 0.000987 0.000000 0.040779 0.000000
# 6 0.000000 0.000000 0.000000 0.010088 0.000000 0.126171
#
#
# Mechanical properties :
#
#
# Convention : Reuss Voigt Hill
#
# Bulk Modulus (GPa) = 40.53789 45.38631 42.96210
# Shear Modulus (GPa) = 14.37352 18.83161 16.60257
#
# Velocity S-wave (km/s) = 3.07357 3.51808 3.30331
# Velocity P-wave (km/s) = 6.26409 6.80677 6.54106
#
# Compressibility (1/GPa) = 0.02466828
#
# Stress axis : x y z
#
# Youngs Moduli (GPa) = 65.74223 40.41929 79.78910
#
# Poissons Ratio (x) = 0.19074 0.23981
# Poissons Ratio (y) = 0.31024 0.49339
# Poissons Ratio (z) = 0.19759 0.24994
#
# Static dielectric constant tensor:
#      x y z
#    x 2.836890 0.000000 -0.174630 
#    y 0.000000 2.533510 0.000000 
#    z -0.174630 0.000000 2.883060 
# 
# 
# High freq. dielectric constant tensor:
#      x y z
#    x 1.575280 0.000000 -0.003840 
#    y 0.000000 1.520200 0.000000 
#    z -0.003840 0.000000 1.594810 
# 
# From -- ./inp_files/265798.got.cif
#   From: 2010.06.25/outbox.cif.g09.slc.cpg/sg12_133_cif.got.tgz:265798.got - 2010.06.28 00:19:55.
