data_PCOD8078738
_publ_section_title
;
Structure prediction by ZEFSAII (Michael W. Deem and Ramdas Pophale) SiO2 
 PCOD8078738
Probable space group: C 2/M
;
_chemical_formula_sum "Si O2"
_cell_formula_units_Z 48
_cell_length_a 24.171368
_cell_length_b 9.025642
_cell_length_c 14.268484
_cell_angle_alpha 90.000000
_cell_angle_beta 69.398895
_cell_angle_gamma 90.000000
_cell_volume 2913.784910
_symmetry_space_group_name_H-M "C 2/M"
_symmetry_group_IT_number 12
_symmetry_cell_setting 'monoclinic'
loop_
_space_group_symop_operation_xyz
x,y,z
-x,y,-z
-x,-y,-z
x,-y,z
1/2+x,1/2+y,z
1/2-x,1/2+y,-z
1/2-x,1/2-y,-z
1/2+x,1/2-y,z
loop_
_atom_site_type_symbol
_atom_site_label
_atom_site_fract_x
_atom_site_fract_y
_atom_site_fract_z
Si Si1 0.162239 0.328550 0.496938
Si Si2 0.559797 0.164190 0.023777
Si Si3 0.457847 0.328145 0.437943
Si Si4 0.385662 0.669310 0.164896
Si Si5 0.981483 0.675812 0.233423
Si Si6 0.213046 0.168145 0.641287
O O1 0.143805 0.500000 0.511252
O O2 0.106339 0.234555 0.496488
O O3 0.182186 0.280726 0.588523
O O4 0.216772 0.299376 0.392705
O O5 0.541514 0.216027 0.139589
O O6 0.587396 0.000000 0.009757
O O7 0.500000 0.164843 0.000000
O O8 0.607575 0.270621 0.945518
O O9 0.500000 0.300471 0.500000
O O10 0.451778 0.500000 0.415814
O O11 0.486721 0.243693 0.333100
O O12 0.406772 0.500000 0.153605
O O13 0.424495 0.759323 0.215719
O O14 0.317393 0.686038 0.238512
O O15 0.973397 0.500000 0.244064
O O16 0.203643 0.000000 0.609309
#
# Coordination Sequence:
#
# PCOD8078738 Si02
#       6
#     8   8   8   8   8   8
#     4  10  19  31  48  68  92 125 160 192 231 277
#     4   8  16  28  41  62  93 122 152 189 227 275
#     4  11  23  36  49  67  93 124 159 200 241 280
#     4  10  17  26  44  69  97 126 153 183 228 281
#     4  10  19  31  46  65  91 123 158 195 232 274
#     4   9  18  30  45  69  99 126 153 189 231 277
#
# _framework density 16.473419
#
# number of rings (size 3 to 8) (size 9 to 14) (size 15 to 20)
#    0.000    2.333    1.667    3.000    0.000    6.333 
#    0.000    0.000    0.000    0.000    0.000    1.167 
#    0.000    0.000    0.000    0.000    0.000    0.000 
#
# Total GULP energy -297482.445816 kJ/mol
# GULP energy per Si atom -12395.101909 kJ/mol
# Density = 1.643593 g / cm^3
# Si number density = 16.473419 Si / 1000 Ang^3
#
#
#
# Elastic Constant Matrix: (Units=GPa)
#
#
# Indices 1 2 3 4 5 6 
#
# 1 63.1996 40.9124 49.2992 0.0000 -13.0598 0.0000
# 2 40.9124 102.8476 68.3231 0.0000 -10.0419 0.0000
# 3 49.2992 68.3231 138.2632 0.0000 -28.3818 0.0000
# 4 0.0000 0.0000 0.0000 29.0712 0.0000 -3.3210
# 5 -13.0598 -10.0419 -28.3818 0.0000 23.0145 0.0000
# 6 0.0000 0.0000 0.0000 -3.3210 0.0000 18.3301
#
#
#
# Elastic Compliance Matrix: (Units=1/GPa)
#
#
# Indices 1 2 3 4 5 6 
#
# 1 0.024533 -0.006202 -0.004526 0.000000 0.005633 0.000000
# 2 -0.006202 0.016239 -0.006803 0.000000 -0.004824 0.000000
# 3 -0.004526 -0.006803 0.014824 0.000000 0.012745 0.000000
# 4 0.000000 0.000000 0.000000 0.035125 0.000000 0.006364
# 5 0.005633 -0.004824 0.012745 0.000000 0.060260 0.000000
# 6 0.000000 0.000000 0.000000 0.006364 0.000000 0.055708
#
#
# Mechanical properties :
#
#
# Convention : Reuss Voigt Hill
#
# Bulk Modulus (GPa) = 48.70259 69.04219 58.87239
# Shear Modulus (GPa) = 20.11292 23.80154 21.95723
#
# Velocity S-wave (km/s) = 3.49797 3.80524 3.65484
# Velocity P-wave (km/s) = 6.77812 7.82999 7.32297
#
# Compressibility (1/GPa) = 0.02053279
#
# Stress axis : x y z
#
# Youngs Moduli (GPa) = 40.76206 61.58100 67.45616
#
# Poissons Ratio (x) = 0.38193 0.30532
# Poissons Ratio (y) = 0.25281 0.45892
# Poissons Ratio (z) = 0.18450 0.41895
#
# Static dielectric constant tensor:
#      x y z
#    x 2.751570 0.000000 -0.400900 
#    y 0.000000 3.280240 0.000000 
#    z -0.400900 0.000000 3.506440 
# 
# 
# High freq. dielectric constant tensor:
#      x y z
#    x 1.577300 0.000000 -0.035400 
#    y 0.000000 1.650730 0.000000 
#    z -0.035400 0.000000 1.639270 
# 
# From -- ./inp_files/236631.got.cif
#   From: 2010.06.25/outbox.cif.g09.slc.cpg/sg12_119_cif.got.tgz:236631.got - 2010.06.28 00:19:55.
