data_PCOD8078619
_publ_section_title
;
Structure prediction by ZEFSAII (Michael W. Deem and Ramdas Pophale) SiO2 
 PCOD8078619
Probable space group: C 2/M
;
_chemical_formula_sum "Si O2"
_cell_formula_units_Z 56
_cell_length_a 24.138586
_cell_length_b 13.051136
_cell_length_c 12.614700
_cell_angle_alpha 90.000000
_cell_angle_beta 111.411235
_cell_angle_gamma 90.000000
_cell_volume 3699.809831
_symmetry_space_group_name_H-M "C 2/M"
_symmetry_group_IT_number 12
_symmetry_cell_setting 'monoclinic'
loop_
_space_group_symop_operation_xyz
x,y,z
-x,y,-z
-x,-y,-z
x,-y,z
1/2+x,1/2+y,z
1/2-x,1/2+y,-z
1/2-x,1/2-y,-z
1/2+x,1/2-y,z
loop_
_atom_site_type_symbol
_atom_site_label
_atom_site_fract_x
_atom_site_fract_y
_atom_site_fract_z
Si Si1 0.092030 0.621345 0.369454
Si Si2 0.627141 0.884169 0.969435
Si Si3 0.960015 0.620602 0.263429
Si Si4 0.833612 0.377783 0.780295
Si Si5 0.633237 0.880019 0.627314
Si Si6 0.734729 0.748152 0.806125
Si Si7 0.763856 0.115304 0.003190
O O1 0.086558 0.500000 0.364314
O O2 0.132637 0.659414 0.300905
O O3 0.122622 0.656276 0.499731
O O4 0.025944 0.669837 0.312317
O O5 0.578897 0.828244 0.859540
O O6 0.605789 0.000000 0.959097
O O7 0.627077 0.843473 0.090158
O O8 0.692452 0.878070 0.964365
O O9 0.965615 0.500000 0.249948
O O10 0.927437 0.642050 0.351880
O O11 0.820694 0.500000 0.772665
O O12 0.771449 0.316649 0.744672
O O13 0.685744 0.811896 0.710247
O O14 0.651137 0.000000 0.648097
O O15 0.706248 0.669661 0.873438
O O16 0.778370 0.824892 0.903911
O O17 0.787768 0.000000 0.012787
#
# Coordination Sequence:
#
# PCOD8078619 Si02
#       7
#     8   8   8   8   8   8   8
#     4   9  18  29  40  56  86 123 148 168 200 247
#     4   8  13  23  40  58  81 107 133 168 204 244
#     4   9  15  25  42  61  82 112 143 171 207 250
#     4   9  18  30  40  59  90 119 144 170 205 250
#     4  10  18  28  42  63  88 114 145 176 205 244
#     4  10  17  25  44  62  84 119 137 171 215 248
#     4   9  16  27  41  64  90 110 134 171 216 257
#
# _framework density 15.135914
#
# number of rings (size 3 to 8) (size 9 to 14) (size 15 to 20)
#    0.000    2.857    1.429    2.143    0.000    2.857 
#    0.000    2.857    0.000    0.000    0.000    0.000 
#    0.000   14.857    0.000    0.000    0.000    0.000 
#
# Total GULP energy -346903.176286 kJ/mol
# GULP energy per Si atom -12389.399153 kJ/mol
# Density = 1.510146 g / cm^3
# Si number density = 15.135914 Si / 1000 Ang^3
#
#
#
# Elastic Constant Matrix: (Units=GPa)
#
#
# Indices 1 2 3 4 5 6 
#
# 1 77.8281 24.4162 50.9602 0.0000 -6.6834 0.0000
# 2 24.4162 54.9539 24.8042 0.0000 -1.9284 0.0000
# 3 50.9602 24.8042 104.0584 0.0000 -4.8797 0.0000
# 4 0.0000 0.0000 0.0000 19.2922 0.0000 1.0152
# 5 -6.6834 -1.9284 -4.8797 0.0000 22.5631 0.0000
# 6 0.0000 0.0000 0.0000 1.0152 0.0000 13.6044
#
#
#
# Elastic Compliance Matrix: (Units=1/GPa)
#
#
# Indices 1 2 3 4 5 6 
#
# 1 0.020388 -0.005042 -0.008607 0.000000 0.003747 0.000000
# 2 -0.005042 0.021649 -0.002702 0.000000 -0.000228 0.000000
# 3 -0.008607 -0.002702 0.014486 0.000000 0.000352 0.000000
# 4 0.000000 0.000000 0.000000 0.052039 0.000000 -0.003883
# 5 0.003747 -0.000228 0.000352 0.000000 0.045487 0.000000
# 6 0.000000 0.000000 0.000000 -0.003883 0.000000 0.073795
#
#
# Mechanical properties :
#
#
# Convention : Reuss Voigt Hill
#
# Bulk Modulus (GPa) = 41.98036 48.57794 45.27915
# Shear Modulus (GPa) = 18.62296 20.20258 19.41277
#
# Velocity S-wave (km/s) = 3.51149 3.65738 3.58517
# Velocity P-wave (km/s) = 6.65105 7.07102 6.86425
#
# Compressibility (1/GPa) = 0.02382066
#
# Stress axis : x y z
#
# Youngs Moduli (GPa) = 49.04827 46.19189 69.03398
#
# Poissons Ratio (x) = 0.23291 0.59418
# Poissons Ratio (y) = 0.24731 0.18652
# Poissons Ratio (z) = 0.42216 0.12480
#
# Static dielectric constant tensor:
#      x y z
#    x 2.863870 0.000000 -0.029880 
#    y 0.000000 2.707830 0.000000 
#    z -0.029880 0.000000 3.180130 
# 
# 
# High freq. dielectric constant tensor:
#      x y z
#    x 1.554420 0.000000 -0.006810 
#    y 0.000000 1.533900 0.000000 
#    z -0.006810 0.000000 1.592050 
# 
# From -- ./inp_files/175801.got.cif
#   From: 2010.06.25/outbox.cif.g09.slc.cpg/sg12_88_cif.got.tgz:175801.got - 2010.06.28 00:19:55.
