data_PCOD8078515
_publ_section_title
;
Structure prediction by ZEFSAII (Michael W. Deem and Ramdas Pophale) SiO2 
 PCOD8078515
Probable space group: C 2/M
;
_chemical_formula_sum "Si O2"
_cell_formula_units_Z 56
_cell_length_a 28.345688
_cell_length_b 9.168047
_cell_length_c 14.411449
_cell_angle_alpha 90.000000
_cell_angle_beta 103.481104
_cell_angle_gamma 90.000000
_cell_volume 3641.978351
_symmetry_space_group_name_H-M "C 2/M"
_symmetry_group_IT_number 12
_symmetry_cell_setting 'monoclinic'
loop_
_space_group_symop_operation_xyz
x,y,z
-x,y,-z
-x,-y,-z
x,-y,z
1/2+x,1/2+y,z
1/2-x,1/2+y,-z
1/2-x,1/2-y,-z
1/2+x,1/2-y,z
loop_
_atom_site_type_symbol
_atom_site_label
_atom_site_fract_x
_atom_site_fract_y
_atom_site_fract_z
Si Si1 0.719035 0.829591 0.062422
Si Si2 0.645624 0.671573 0.343956
Si Si3 0.768853 0.330089 0.724832
Si Si4 0.566297 0.829825 0.202247
Si Si5 0.391969 0.831262 0.980486
Si Si6 0.291069 0.665807 0.467317
Si Si7 0.021706 0.164620 0.907739
O O1 0.739158 0.783285 0.172689
O O2 0.663063 0.782541 0.027801
O O3 0.724876 0.000000 0.048940
O O4 0.750000 0.750000 0.000000
O O5 0.639283 0.500000 0.320625
O O6 0.688974 0.732886 0.300334
O O7 0.595875 0.754538 0.298967
O O8 0.657367 0.703256 0.459649
O O9 0.785475 0.500000 0.727750
O O10 0.716923 0.305362 0.646891
O O11 0.595250 0.800334 0.120595
O O12 0.513141 0.757300 0.175321
O O13 0.560088 0.000000 0.220055
O O14 0.400816 0.000000 0.007804
O O15 0.425234 0.737504 0.065262
O O16 0.279692 0.500000 0.484707
O O17 0.250000 0.750000 0.500000
O O18 0.026183 0.000000 0.871915
O O19 0.000000 0.167271 0.000000
#
# Coordination Sequence:
#
# PCOD8078515 Si02
#       7
#     8   8   8   8   8   8   8
#     4  10  20  32  45  62  82 110 149 185 214 246
#     4  10  17  24  38  63  87 108 138 175 209 243
#     4   9  16  30  44  55  78 113 145 172 210 257
#     4  10  17  27  42  59  83 116 144 166 201 253
#     4   9  17  30  43  56  78 111 145 173 207 252
#     4   8  15  25  39  57  79 107 138 170 205 248
#     4   9  17  27  40  61  83 105 136 174 211 246
#
# _framework density 15.376258999999999
#
# number of rings (size 3 to 8) (size 9 to 14) (size 15 to 20)
#    0.000    2.714    1.429    1.286    0.000    4.000 
#    0.000    0.000    0.000    0.000    0.000    0.000 
#    0.000    1.143    0.000   13.143    0.000    3.286 
#
# Total GULP energy -346944.587416 kJ/mol
# GULP energy per Si atom -12390.878122 kJ/mol
# Density = 1.534126 g / cm^3
# Si number density = 15.376259 Si / 1000 Ang^3
#
#
#
# Elastic Constant Matrix: (Units=GPa)
#
#
# Indices 1 2 3 4 5 6 
#
# 1 77.8270 43.3846 60.9457 0.0000 24.2411 0.0000
# 2 43.3846 80.2336 50.4624 0.0000 22.7898 0.0000
# 3 60.9457 50.4624 108.6063 0.0000 33.1035 0.0000
# 4 0.0000 0.0000 0.0000 20.2087 0.0000 6.5420
# 5 24.2411 22.7898 33.1035 0.0000 29.1588 0.0000
# 6 0.0000 0.0000 0.0000 6.5420 0.0000 25.4100
#
#
#
# Elastic Compliance Matrix: (Units=1/GPa)
#
#
# Indices 1 2 3 4 5 6 
#
# 1 0.025725 -0.006140 -0.009981 0.000000 -0.005257 0.000000
# 2 -0.006140 0.020015 -0.004040 0.000000 -0.005953 0.000000
# 3 -0.009981 -0.004040 0.020176 0.000000 -0.011450 0.000000
# 4 0.000000 0.000000 0.000000 0.053983 0.000000 -0.013898
# 5 -0.005257 -0.005953 -0.011450 0.000000 0.056316 0.000000
# 6 0.000000 0.000000 0.000000 -0.013898 0.000000 0.042933
#
#
# Mechanical properties :
#
#
# Convention : Reuss Voigt Hill
#
# Bulk Modulus (GPa) = 39.07116 64.02803 51.54960
# Shear Modulus (GPa) = 18.65673 22.41379 20.53526
#
# Velocity S-wave (km/s) = 3.48709 3.82211 3.65844
# Velocity P-wave (km/s) = 6.45587 7.82364 7.17243
#
# Compressibility (1/GPa) = 0.02559432
#
# Stress axis : x y z
#
# Youngs Moduli (GPa) = 38.87313 49.96186 49.56502
#
# Poissons Ratio (x) = 0.30675 0.49470
# Poissons Ratio (y) = 0.23867 0.20025
# Poissons Ratio (z) = 0.38799 0.20185
#
# Static dielectric constant tensor:
#      x y z
#    x 2.721830 0.000000 0.515310 
#    y 0.000000 3.045720 0.000000 
#    z 0.515310 0.000000 3.230570 
# 
# 
# High freq. dielectric constant tensor:
#      x y z
#    x 1.549340 0.000000 0.048430 
#    y 0.000000 1.601060 0.000000 
#    z 0.048430 0.000000 1.574170 
# 
# From -- ./inp_files/243249.got.cif
#   From: 2010.06.25/outbox.cif.g09.slc.cpg/sg12_122_cif.got.tgz:243249.got - 2010.06.28 00:19:55.
