data_PCOD8078968
_publ_section_title
;
Structure prediction by ZEFSAII (Michael W. Deem and Ramdas Pophale) SiO2 
 PCOD8078968
Probable space group: C 2/M
;
_chemical_formula_sum "Si O2"
_cell_formula_units_Z 56
_cell_length_a 34.749129
_cell_length_b 9.054858
_cell_length_c 14.607394
_cell_angle_alpha 90.000000
_cell_angle_beta 49.366974
_cell_angle_gamma 90.000000
_cell_volume 3488.033223
_symmetry_space_group_name_H-M "C 2/M"
_symmetry_group_IT_number 12
_symmetry_cell_setting 'monoclinic'
loop_
_space_group_symop_operation_xyz
x,y,z
-x,y,-z
-x,-y,-z
x,-y,z
1/2+x,1/2+y,z
1/2-x,1/2+y,-z
1/2-x,1/2-y,-z
1/2+x,1/2-y,z
loop_
_atom_site_type_symbol
_atom_site_label
_atom_site_fract_x
_atom_site_fract_y
_atom_site_fract_z
Si Si1 0.109390 0.330282 0.837629
Si Si2 0.439119 0.828965 0.907917
Si Si3 0.696668 0.174344 0.567792
Si Si4 0.956653 0.325850 0.683563
Si Si5 0.929722 0.675124 0.529236
Si Si6 0.126252 0.170614 0.537249
Si Si7 0.538446 0.668883 0.816507
O O1 0.097584 0.500000 0.832000
O O2 0.163092 0.285900 0.709753
O O3 0.064050 0.233670 0.867476
O O4 0.108969 0.304558 0.949086
O O5 0.428853 0.769881 0.820118
O O6 0.486839 0.750900 0.877623
O O7 0.453285 0.000000 0.878368
O O8 0.750000 0.250000 0.500000
O O9 0.671717 0.240876 0.515011
O O10 0.703385 0.000000 0.544696
O O11 0.956791 0.500000 0.674547
O O12 0.926794 0.269409 0.639769
O O13 0.015272 0.274370 0.594169
O O14 0.921513 0.500000 0.531181
O O15 0.885099 0.759177 0.544337
O O16 0.075529 0.190439 0.673873
O O17 0.142296 0.000000 0.502220
O O18 0.525960 0.500000 0.855222
#
# Coordination Sequence:
#
# PCOD8078968 Si02
#       7
#     8   8   8   8   8   8   8
#     4   9  19  31  45  64  86 115 150 182 218 267
#     4  10  17  28  44  62  87 122 156 183 213 256
#     4  10  20  35  52  70  90 113 144 186 231 276
#     4   8  15  25  42  64  89 121 158 191 218 252
#     4   9  15  27  44  64  88 121 159 191 220 254
#     4  10  19  30  45  67  93 122 153 186 225 267
#     4  10  19  28  39  60  91 123 153 184 217 254
#
# _framework density 16.054893
#
# number of rings (size 3 to 8) (size 9 to 14) (size 15 to 20)
#    0.000    2.571    1.429    2.571    0.000    4.000 
#    0.000    2.143    0.000    0.000    0.000    1.000 
#    0.000    0.000    0.000    0.000    0.000    0.000 
#
# Total GULP energy -347011.929959 kJ/mol
# GULP energy per Si atom -12393.283213 kJ/mol
# Density = 1.601835 g / cm^3
# Si number density = 16.054893 Si / 1000 Ang^3
#
#
#
# Elastic Constant Matrix: (Units=GPa)
#
#
# Indices 1 2 3 4 5 6 
#
# 1 110.0969 43.5800 67.6167 0.0000 14.8453 0.0000
# 2 43.5800 60.0393 34.9628 0.0000 6.0302 -0.0001
# 3 67.6167 34.9628 93.7441 0.0000 23.6981 0.0000
# 4 0.0000 0.0000 0.0000 13.8797 0.0000 -2.7285
# 5 14.8453 6.0302 23.6981 0.0000 24.6466 0.0000
# 6 0.0000 -0.0001 0.0000 -2.7285 0.0000 23.3357
#
#
#
# Elastic Compliance Matrix: (Units=1/GPa)
#
#
# Indices 1 2 3 4 5 6 
#
# 1 0.018491 -0.007155 -0.010960 0.000000 0.001151 0.000000
# 2 -0.007155 0.024239 -0.004583 0.000000 0.002786 0.000000
# 3 -0.010960 -0.004583 0.024216 0.000000 -0.015561 0.000000
# 4 0.000000 0.000000 0.000000 0.073743 0.000000 0.008622
# 5 0.001151 0.002786 -0.015561 0.000000 0.054161 0.000000
# 6 0.000000 0.000000 0.000000 0.008622 0.000000 0.043861
#
#
# Mechanical properties :
#
#
# Convention : Reuss Voigt Hill
#
# Bulk Modulus (GPa) = 46.40691 61.79994 54.10343
# Shear Modulus (GPa) = 17.16507 20.22045 18.69276
#
# Velocity S-wave (km/s) = 3.27333 3.55273 3.41589
# Velocity P-wave (km/s) = 6.57679 7.44350 7.02353
#
# Compressibility (1/GPa) = 0.02154851
#
# Stress axis : x y z
#
# Youngs Moduli (GPa) = 54.08054 41.25641 41.29559
#
# Poissons Ratio (x) = 0.29520 0.45259
# Poissons Ratio (y) = 0.38696 0.18928
# Poissons Ratio (z) = 0.59271 0.18910
#
# Static dielectric constant tensor:
#      x y z
#    x 2.969830 0.000000 0.332020 
#    y 0.000000 2.980780 0.000000 
#    z 0.332020 0.000000 3.252880 
# 
# 
# High freq. dielectric constant tensor:
#      x y z
#    x 1.590950 0.000000 0.027820 
#    y 0.000000 1.611610 0.000000 
#    z 0.027820 0.000000 1.604400 
# 
# From -- ./inp_files/242993.got.cif
#   From: 2010.06.25/outbox.cif.g09.slc.cpg/sg12_122_cif.got.tgz:242993.got - 2010.06.28 00:19:55.
