data_PCOD8078564
_publ_section_title
;
Structure prediction by ZEFSAII (Michael W. Deem and Ramdas Pophale) SiO2 
 PCOD8078564
Probable space group: C 2/M
;
_chemical_formula_sum "Si O2"
_cell_formula_units_Z 64
_cell_length_a 22.259999
_cell_length_b 24.626740
_cell_length_c 9.318767
_cell_angle_alpha 90.000000
_cell_angle_beta 122.053551
_cell_angle_gamma 90.000000
_cell_volume 4329.692946
_symmetry_space_group_name_H-M "C 2/M"
_symmetry_group_IT_number 12
_symmetry_cell_setting 'monoclinic'
loop_
_space_group_symop_operation_xyz
x,y,z
-x,y,-z
-x,-y,-z
x,-y,z
1/2+x,1/2+y,z
1/2-x,1/2+y,-z
1/2-x,1/2-y,-z
1/2+x,1/2-y,z
loop_
_atom_site_type_symbol
_atom_site_label
_atom_site_fract_x
_atom_site_fract_y
_atom_site_fract_z
Si Si1 0.612948 0.562223 0.851098
Si Si2 0.645332 0.387302 0.160828
Si Si3 0.564978 0.713774 0.988080
Si Si4 0.454394 0.562234 0.740805
Si Si5 0.029663 0.233572 0.393813
Si Si6 0.139392 0.270788 0.318061
Si Si7 0.727703 0.664151 0.496402
Si Si8 0.120705 0.127236 0.578938
O O1 0.618555 0.500000 0.802886
O O2 0.535499 0.577089 0.813207
O O3 0.632629 0.606484 0.755501
O O4 0.663638 0.570562 0.055343
O O5 0.576381 0.403922 0.165936
O O6 0.712990 0.380568 0.352740
O O7 0.626169 0.331108 0.057135
O O8 0.538629 0.725752 0.794556
O O9 0.500000 0.691319 0.000000
O O10 0.597041 0.766696 0.113030
O O11 0.444998 0.500000 0.769757
O O12 0.410764 0.575184 0.542126
O O13 0.085279 0.272890 0.383985
O O14 0.065527 0.176746 0.488299
O O15 0.000000 0.262417 0.500000
O O16 0.188457 0.324520 0.381316
O O17 0.186903 0.217596 0.394600
O O18 0.697023 0.643755 0.609934
#
# Coordination Sequence:
#
# PCOD8078564 Si02
#       8
#     8   8   8   8   8   8   8   8
#     4  11  20  27  36  54  79 104 135 175 208 224
#     4  10  17  26  39  53  73 102 138 168 195 230
#     4   9  15  24  40  57  74  99 128 160 195 230
#     4  10  18  26  36  51  73 102 136 172 205 229
#     4  10  17  25  40  60  79  98 124 159 199 235
#     4   8  15  28  42  56  74  95 129 166 196 232
#     4   8  16  29  42  53  69 101 135 166 194 227
#     4  10  18  27  39  52  75 105 137 167 196 229
#
# _framework density 14.781648000000001
#
# number of rings (size 3 to 8) (size 9 to 14) (size 15 to 20)
#    0.000    2.500    0.000    6.750    0.000    2.000 
#    0.000    1.250    0.000    6.000    0.000    0.000 
#    0.000    0.000    0.000    0.000    0.000  282.500 
#
# Total GULP energy -396507.528636 kJ/mol
# GULP energy per Si atom -12390.860270 kJ/mol
# Density = 1.474800 g / cm^3
# Si number density = 14.781648 Si / 1000 Ang^3
#
#
#
# Elastic Constant Matrix: (Units=GPa)
#
#
# Indices 1 2 3 4 5 6 
#
# 1 61.9624 32.0396 46.2802 0.0000 -7.1233 0.0000
# 2 32.0396 41.8250 31.5962 0.0000 0.2112 0.0000
# 3 46.2802 31.5962 82.9907 0.0000 -16.7686 0.0000
# 4 0.0000 0.0000 0.0000 17.2111 0.0000 2.5804
# 5 -7.1233 0.2112 -16.7686 0.0000 21.1164 0.0000
# 6 0.0000 0.0000 0.0000 2.5804 0.0000 16.8423
#
#
#
# Elastic Compliance Matrix: (Units=1/GPa)
#
#
# Indices 1 2 3 4 5 6 
#
# 1 0.034343 -0.017071 -0.012241 0.000000 0.002035 0.000000
# 2 -0.017071 0.045059 -0.010589 0.000000 -0.014618 0.000000
# 3 -0.012241 -0.010589 0.026317 0.000000 0.016875 0.000000
# 4 0.000000 0.000000 0.000000 0.059468 0.000000 -0.009111
# 5 0.002035 -0.014618 0.016875 0.000000 0.061590 0.000000
# 6 0.000000 0.000000 0.000000 -0.009111 0.000000 0.060770
#
#
# Mechanical properties :
#
#
# Convention : Reuss Voigt Hill
#
# Bulk Modulus (GPa) = 38.58429 45.17890 41.88159
# Shear Modulus (GPa) = 13.29834 16.15809 14.72821
#
# Velocity S-wave (km/s) = 3.00267 3.30982 3.15998
# Velocity P-wave (km/s) = 6.17907 6.72585 6.45825
#
# Compressibility (1/GPa) = 0.02591729
#
# Stress axis : x y z
#
# Youngs Moduli (GPa) = 29.11825 22.19311 37.99861
#
# Poissons Ratio (x) = 0.37886 0.46514
# Poissons Ratio (y) = 0.49707 0.40236
# Poissons Ratio (z) = 0.35644 0.23500
#
# Static dielectric constant tensor:
#      x y z
#    x 2.766230 0.000000 -0.067870 
#    y 0.000000 2.654670 0.000000 
#    z -0.067870 0.000000 3.058770 
# 
# 
# High freq. dielectric constant tensor:
#      x y z
#    x 1.534420 0.000000 -0.025550 
#    y 0.000000 1.523410 0.000000 
#    z -0.025550 0.000000 1.567870 
# 
# From -- ./inp_files/90964.got.cif
#   From: 2010.06.25/outbox.cif.g09.slc.cpg/sg12_46_cif.got.tgz:90964.got - 2010.06.28 00:19:55.
