data_PCOD8078921
_publ_section_title
;
Structure prediction by ZEFSAII (Michael W. Deem and Ramdas Pophale) SiO2 
 PCOD8078921
Probable space group: C 2/M
;
_chemical_formula_sum "Si O2"
_cell_formula_units_Z 48
_cell_length_a 15.649329
_cell_length_b 8.772581
_cell_length_c 18.763139
_cell_angle_alpha 90.000000
_cell_angle_beta 90.221045
_cell_angle_gamma 90.000000
_cell_volume 2575.878485
_symmetry_space_group_name_H-M "C 2/M"
_symmetry_group_IT_number 12
_symmetry_cell_setting 'monoclinic'
loop_
_space_group_symop_operation_xyz
x,y,z
-x,y,-z
-x,-y,-z
x,-y,z
1/2+x,1/2+y,z
1/2-x,1/2+y,-z
1/2-x,1/2-y,-z
1/2+x,1/2-y,z
loop_
_atom_site_type_symbol
_atom_site_label
_atom_site_fract_x
_atom_site_fract_y
_atom_site_fract_z
Si Si1 0.087419 0.820554 0.832869
Si Si2 0.655013 0.331441 0.690072
Si Si3 0.753331 0.820914 0.577323
Si Si4 0.843853 0.330984 0.697066
Si Si5 0.753327 0.819619 0.077555
Si Si6 0.602461 0.321902 0.165596
O O1 0.095657 0.756351 0.751339
O O2 0.160659 0.753313 0.884695
O O3 0.993267 0.785046 0.863442
O O4 0.102036 0.000000 0.825454
O O5 0.622901 0.500000 0.665586
O O6 0.665853 0.224066 0.620150
O O7 0.748059 0.347485 0.728308
O O8 0.750000 0.750000 0.500000
O O9 0.835946 0.752204 0.619677
O O10 0.762122 0.000000 0.571362
O O11 0.885071 0.500000 0.688484
O O12 0.897384 0.227921 0.751671
O O13 0.668506 0.773483 0.119639
O O14 0.757031 0.000000 0.071121
O O15 0.750000 0.750000 0.000000
O O16 0.624204 0.500000 0.159638
#
# Coordination Sequence:
#
# PCOD8078921 Si02
#       6
#     8   8   8   8   8   8
#     4   9  19  36  58  79 107 144 180 217 268 328
#     4   8  15  31  52  73 101 139 179 217 264 318
#     4  10  17  27  47  77 108 143 184 225 269 323
#     4   9  17  31  51  75 105 139 176 219 267 314
#     4  11  22  40  59  79 111 146 178 221 271 323
#     4  11  21  35  58  85 106 138 184 224 265 322
#
# _framework density 18.634419000000001
#
# number of rings (size 3 to 8) (size 9 to 14) (size 15 to 20)
#    1.000    1.333    1.667    2.500    0.000    0.667 
#    0.000    8.333    0.000    1.000    0.000    7.000 
#    0.000    0.000    0.000    0.000    0.000    0.000 
#
# Total GULP energy -297314.954898 kJ/mol
# GULP energy per Si atom -12388.123121 kJ/mol
# Density = 1.859201 g / cm^3
# Si number density = 18.634419 Si / 1000 Ang^3
#
#
#
# Elastic Constant Matrix: (Units=GPa)
#
#
# Indices 1 2 3 4 5 6 
#
# 1 88.9941 24.7446 48.7243 0.0000 1.1299 0.0000
# 2 24.7446 93.9014 42.2458 0.0000 0.4554 0.0000
# 3 48.7243 42.2458 137.7766 0.0000 3.0401 0.0000
# 4 0.0000 0.0000 0.0000 35.4667 0.0000 -0.9672
# 5 1.1299 0.4554 3.0401 0.0000 11.8818 0.0000
# 6 0.0000 0.0000 0.0000 -0.9672 0.0000 20.1807
#
#
#
# Elastic Compliance Matrix: (Units=1/GPa)
#
#
# Indices 1 2 3 4 5 6 
#
# 1 0.014169 -0.001717 -0.004482 0.000000 -0.000135 0.000000
# 2 -0.001717 0.012565 -0.003257 0.000000 0.000515 0.000000
# 3 -0.004482 -0.003257 0.009885 0.000000 -0.001978 0.000000
# 4 0.000000 0.000000 0.000000 0.028232 0.000000 0.001353
# 5 -0.000135 0.000515 -0.001978 0.000000 0.084662 0.000000
# 6 0.000000 0.000000 0.000000 0.001353 0.000000 0.049617
#
#
# Mechanical properties :
#
#
# Convention : Reuss Voigt Hill
#
# Bulk Modulus (GPa) = 56.46936 61.34461 58.90699
# Shear Modulus (GPa) = 22.32702 27.16968 24.74835
#
# Velocity S-wave (km/s) = 3.46520 3.82257 3.64826
# Velocity P-wave (km/s) = 6.81027 7.24391 7.03043
#
# Compressibility (1/GPa) = 0.01770872
#
# Stress axis : x y z
#
# Youngs Moduli (GPa) = 70.57433 79.58839 101.16059
#
# Poissons Ratio (x) = 0.13665 0.45335
# Poissons Ratio (y) = 0.12118 0.32946
# Poissons Ratio (z) = 0.31628 0.25920
#
# Static dielectric constant tensor:
#      x y z
#    x 3.285290 0.000000 0.013510 
#    y 0.000000 3.290050 0.000000 
#    z 0.013510 0.000000 3.408790 
# 
# 
# High freq. dielectric constant tensor:
#      x y z
#    x 1.695490 0.000000 -0.001340 
#    y 0.000000 1.716440 0.000000 
#    z -0.001340 0.000000 1.718360 
# 
# From -- ./inp_files/273654.got.cif
#   From: 2010.06.25/outbox.cif.g09.slc.cpg/sg12_137_cif.got.tgz:273654.got - 2010.06.28 00:19:55.
