data_PCOD8078376
_publ_section_title
;
Structure prediction by ZEFSAII (Michael W. Deem and Ramdas Pophale) SiO2 
 PCOD8078376
Probable space group: C 2/M
;
_chemical_formula_sum "Si O2"
_cell_formula_units_Z 48
_cell_length_a 18.778037
_cell_length_b 24.199834
_cell_length_c 5.241201
_cell_angle_alpha 90.000000
_cell_angle_beta 99.717411
_cell_angle_gamma 90.000000
_cell_volume 2347.562148
_symmetry_space_group_name_H-M "C 2/M"
_symmetry_group_IT_number 12
_symmetry_cell_setting 'monoclinic'
loop_
_space_group_symop_operation_xyz
x,y,z
-x,y,-z
-x,-y,-z
x,-y,z
1/2+x,1/2+y,z
1/2-x,1/2+y,-z
1/2-x,1/2-y,-z
1/2+x,1/2-y,z
loop_
_atom_site_type_symbol
_atom_site_label
_atom_site_fract_x
_atom_site_fract_y
_atom_site_fract_z
Si Si1 0.307359 0.794039 0.130781
Si Si2 0.029454 0.263766 0.766766
Si Si3 0.967184 0.387614 0.727093
Si Si4 0.164707 0.065473 0.582707
Si Si5 0.580998 0.434398 0.030390
Si Si6 0.694998 0.135699 0.367250
O O1 0.384587 0.764632 0.190678
O O2 0.288953 0.819516 0.398677
O O3 0.250000 0.750000 0.000000
O O4 0.308957 0.840398 0.918242
O O5 0.000000 0.231443 0.500000
O O6 0.991593 0.323798 0.744380
O O7 0.000000 0.231981 0.000000
O O8 0.881651 0.393608 0.639796
O O9 0.000000 0.418074 0.500000
O O10 0.000000 0.416669 0.000000
O O11 0.120867 0.085064 0.309215
O O12 0.244327 0.089347 0.601122
O O13 0.171820 0.000000 0.602027
O O14 0.123417 0.088973 0.808137
O O15 0.578042 0.500000 0.006468
O O16 0.500000 0.410355 0.000000
#
# Coordination Sequence:
#
# PCOD8078376 Si02
#       6
#     8   8   8   8   8   8
#     4  12  23  35  55  85 111 141 186 238 281 331
#     4  10  16  32  54  76  98 134 190 233 250 308
#     4  10  16  30  54  79  97 135 196 225 250 311
#     4  10  21  35  56  87 117 145 185 233 288 333
#     4   9  17  33  57  84 106 142 194 234 261 327
#     4  12  21  36  57  82 115 149 178 235 282 331
#
# _framework density 20.446743999999999
#
# number of rings (size 3 to 8) (size 9 to 14) (size 15 to 20)
#    0.000    1.500    6.667    2.000    0.000    2.000 
#    0.000    0.000    0.000   11.000    0.000    0.000 
#    0.000    0.000    0.000    0.000    0.000    0.000 
#
# Total GULP energy -297462.565110 kJ/mol
# GULP energy per Si atom -12394.273546 kJ/mol
# Density = 2.040021 g / cm^3
# Si number density = 20.446744 Si / 1000 Ang^3
#
#
#
# Elastic Constant Matrix: (Units=GPa)
#
#
# Indices 1 2 3 4 5 6 
#
# 1 190.3908 27.6461 78.5216 0.0000 17.7672 0.0000
# 2 27.6461 12.3772 21.3400 0.0000 4.8686 0.0000
# 3 78.5216 21.3400 195.6549 0.0000 -3.9201 0.0000
# 4 0.0000 0.0000 0.0000 -44.7213 0.0000 36.9756
# 5 17.7672 4.8686 -3.9201 0.0000 46.9169 0.0000
# 6 0.0000 0.0000 0.0000 36.9756 0.0000 1.5706
#
#
#
# Elastic Compliance Matrix: (Units=1/GPa)
#
#
# Indices 1 2 3 4 5 6 
#
# 1 0.008286 -0.014812 -0.001745 0.000000 -0.001746 0.000000
# 2 -0.014812 0.132291 -0.008661 0.000000 -0.008842 0.000000
# 3 -0.001745 -0.008661 0.006799 0.000000 0.002128 0.000000
# 4 0.000000 0.000000 0.000000 -0.001093 0.000000 0.025723
# 5 -0.001746 -0.008842 0.002128 0.000000 0.023071 0.000000
# 6 0.000000 0.000000 0.000000 0.025723 0.000000 0.031112
#
#
# Mechanical properties :
#
#
# Convention : Reuss Voigt Hill
#
# Bulk Modulus (GPa) = 10.31587 72.60423 41.46005
# Shear Modulus (GPa) = 17.65445 18.81424 18.23435
#
# Velocity S-wave (km/s) = 2.94162 3.03670 2.98954
# Velocity P-wave (km/s) = 4.07353 6.91964 5.67781
#
# Compressibility (1/GPa) = 0.09693805
#
# Stress axis : x y z
#
# Youngs Moduli (GPa) = 120.68935 7.55912 147.08965
#
# Poissons Ratio (x) = 0.11197 0.25663
# Poissons Ratio (y) = 1.78767 1.27401
# Poissons Ratio (z) = 0.21057 0.06547
#
# Static dielectric constant tensor:
#      x y z
#    x 4.045980 0.000000 -1.074180 
#    y 0.000000 2.933910 0.000000 
#    z -1.074180 0.000000 8.558270 
# 
# 
# High freq. dielectric constant tensor:
#      x y z
#    x 1.818230 0.000000 -0.003870 
#    y 0.000000 1.722700 0.000000 
#    z -0.003870 0.000000 1.837080 
# 
# From -- ./inp_files/16946.got.cif
#   From: 2010.06.25/outbox.cif.g09.slc.cpg/sg12_9_cif.got.tgz:16946.got - 2010.06.28 00:19:55.
