data_PCOD8078625
_publ_section_title
;
Structure prediction by ZEFSAII (Michael W. Deem and Ramdas Pophale) SiO2 
 PCOD8078625
Probable space group: C 2/M
;
_chemical_formula_sum "Si O2"
_cell_formula_units_Z 64
_cell_length_a 28.584378
_cell_length_b 9.198328
_cell_length_c 20.051529
_cell_angle_alpha 90.000000
_cell_angle_beta 54.517553
_cell_angle_gamma 90.000000
_cell_volume 4293.050909
_symmetry_space_group_name_H-M "C 2/M"
_symmetry_group_IT_number 12
_symmetry_cell_setting 'monoclinic'
loop_
_space_group_symop_operation_xyz
x,y,z
-x,y,-z
-x,-y,-z
x,-y,z
1/2+x,1/2+y,z
1/2-x,1/2+y,-z
1/2-x,1/2-y,-z
1/2+x,1/2-y,z
loop_
_atom_site_type_symbol
_atom_site_label
_atom_site_fract_x
_atom_site_fract_y
_atom_site_fract_z
Si Si1 0.018437 0.827034 0.833759
Si Si2 0.391996 0.831072 0.762376
Si Si3 0.095448 0.669550 0.027559
Si Si4 0.062058 0.339693 0.915263
Si Si5 0.549668 0.664601 0.550454
Si Si6 0.478858 0.170241 0.302037
Si Si7 0.309807 0.170144 0.946938
Si Si8 0.917965 0.162923 0.617662
O O1 0.062979 0.777542 0.855023
O O2 0.041194 0.758718 0.746206
O O3 0.954914 0.768123 0.900919
O O4 0.017616 0.000000 0.830001
O O5 0.454377 0.794387 0.740523
O O6 0.344985 0.773032 0.853559
O O7 0.380857 0.758915 0.699460
O O8 0.385308 0.000000 0.756094
O O9 0.078283 0.500000 0.053484
O O10 0.154358 0.707476 0.016142
O O11 0.105134 0.701997 0.940505
O O12 0.077121 0.500000 0.874056
O O13 0.000000 0.343735 0.000000
O O14 0.566901 0.500000 0.556224
O O15 0.559744 0.772851 0.604085
O O16 0.483655 0.668711 0.584776
O O17 0.587011 0.717349 0.455250
O O18 0.467634 0.000000 0.301162
O O19 0.298260 0.000000 0.950680
O O20 0.250000 0.250000 0.000000
O O21 0.894047 0.000000 0.642157
#
# Coordination Sequence:
#
# PCOD8078625 Si02
#       8
#     8   8   8   8   8   8   8   8
#     4  11  19  25  38  60  83 104 131 168 202 238
#     4   9  17  28  41  54  73 100 134 172 202 235
#     4   9  17  32  46  55  75 104 134 167 204 246
#     4   8  15  27  43  57  73 102 132 160 198 242
#     4   8  14  24  35  53  77 100 127 162 197 230
#     4  10  17  26  39  54  77 108 138 165 194 236
#     4  10  20  33  45  60  80 103 136 177 214 245
#     4   8  14  24  38  53  74  99 127 161 198 239
#
# _framework density 14.907813000000001
#
# number of rings (size 3 to 8) (size 9 to 14) (size 15 to 20)
#    0.000    2.875    1.250    3.000    0.000    4.250 
#    0.000    2.500    0.000    0.000    0.000    0.000 
#    0.000    0.000    0.000    1.125    0.000   14.250 
#
# Total GULP energy -396574.029397 kJ/mol
# GULP energy per Si atom -12392.938419 kJ/mol
# Density = 1.487388 g / cm^3
# Si number density = 14.907813 Si / 1000 Ang^3
#
#
#
# Elastic Constant Matrix: (Units=GPa)
#
#
# Indices 1 2 3 4 5 6 
#
# 1 63.6399 36.7276 50.9380 -0.0001 19.4963 -0.0001
# 2 36.7276 80.9804 53.5177 -0.0035 22.4769 0.0018
# 3 50.9380 53.5177 102.4691 -0.0002 29.5596 0.0004
# 4 -0.0001 -0.0035 -0.0002 27.6203 0.0002 6.1910
# 5 19.4963 22.4769 29.5596 0.0002 23.1521 -0.0001
# 6 -0.0001 0.0018 0.0004 6.1910 -0.0001 15.7419
#
#
#
# Elastic Compliance Matrix: (Units=1/GPa)
#
#
# Indices 1 2 3 4 5 6 
#
# 1 0.028159 -0.004432 -0.009632 -0.000001 -0.007113 0.000001
# 2 -0.004432 0.020842 -0.006209 0.000004 -0.008575 -0.000004
# 3 -0.009632 -0.006209 0.021705 -0.000001 -0.013574 0.000000
# 4 -0.000001 0.000004 -0.000001 0.039705 -0.000002 -0.015615
# 5 -0.007113 -0.008575 -0.013574 -0.000002 0.074839 0.000003
# 6 0.000001 -0.000004 0.000000 -0.015615 0.000003 0.069666
#
#
# Mechanical properties :
#
#
# Convention : Reuss Voigt Hill
#
# Bulk Modulus (GPa) = 33.15337 58.82845 45.99091
# Shear Modulus (GPa) = 16.36582 20.36326 18.36454
#
# Velocity S-wave (km/s) = 3.31690 3.69988 3.51361
# Velocity P-wave (km/s) = 6.07917 7.60259 6.88315
#
# Compressibility (1/GPa) = 0.03016285
#
# Stress axis : x y z
#
# Youngs Moduli (GPa) = 35.51211 47.98044 46.07151
#
# Poissons Ratio (x) = 0.21264 0.44374
# Poissons Ratio (y) = 0.15738 0.28604
# Poissons Ratio (z) = 0.34204 0.29789
#
# Static dielectric constant tensor:
#      x y z
#    x 2.729000 0.000000 0.484560 
#    y 0.000000 2.897070 0.000000 
#    z 0.484560 0.000000 3.053810 
# 
# 
# High freq. dielectric constant tensor:
#      x y z
#    x 1.521580 0.000000 0.044920 
#    y 0.000000 1.571590 0.000000 
#    z 0.044920 0.000000 1.557650 
# 
# From -- ./inp_files/326567.got.cif
#   From: 2010.06.25/outbox.cif.g09.slc.cpg/sg12_164_cif.got.tgz:326567.got - 2010.06.28 00:19:55.
