data_PCOD8078114
_publ_section_title
;
Structure prediction by ZEFSAII (Michael W. Deem and Ramdas Pophale) SiO2 
 PCOD8078114
Probable space group: C 2/M
;
_chemical_formula_sum "Si O2"
_cell_formula_units_Z 56
_cell_length_a 18.574804
_cell_length_b 9.163675
_cell_length_c 23.151944
_cell_angle_alpha 90.000000
_cell_angle_beta 127.166005
_cell_angle_gamma 90.000000
_cell_volume 3140.356417
_symmetry_space_group_name_H-M "C 2/M"
_symmetry_group_IT_number 12
_symmetry_cell_setting 'monoclinic'
loop_
_space_group_symop_operation_xyz
x,y,z
-x,y,-z
-x,-y,-z
x,-y,z
1/2+x,1/2+y,z
1/2-x,1/2+y,-z
1/2-x,1/2-y,-z
1/2+x,1/2-y,z
loop_
_atom_site_type_symbol
_atom_site_label
_atom_site_fract_x
_atom_site_fract_y
_atom_site_fract_z
Si Si1 0.635709 0.161477 0.298061
Si Si2 0.758807 0.831399 0.564023
Si Si3 0.035565 0.330209 0.143768
Si Si4 0.299711 0.665022 0.288129
Si Si5 0.406181 0.161965 0.989225
Si Si6 0.312827 0.327787 0.852305
Si Si7 0.904254 0.669448 0.429440
O O1 0.653324 0.274574 0.358211
O O2 0.543384 0.196692 0.217101
O O3 0.714137 0.169908 0.288611
O O4 0.631330 0.000000 0.323611
O O5 0.750000 0.750000 0.500000
O O6 0.669315 0.798594 0.557076
O O7 0.773595 0.000000 0.558603
O O8 0.064059 0.500000 0.144240
O O9 0.101627 0.217556 0.144294
O O10 0.933896 0.302281 0.069718
O O11 0.326964 0.500000 0.285580
O O12 0.276575 0.752284 0.217980
O O13 0.383543 0.741466 0.361132
O O14 0.364478 0.000000 0.964342
O O15 0.500000 0.170762 0.000000
O O16 0.331941 0.273378 0.927400
O O17 0.299056 0.500000 0.845271
O O18 0.906047 0.500000 0.413542
O O19 0.000000 0.723186 0.500000
#
# Coordination Sequence:
#
# PCOD8078114 Si02
#       7
#     8   8   8   8   8   8   8
#     4   8  14  25  39  54  73  99 133 170 205 245
#     4  10  19  30  45  64  86 113 142 174 212 253
#     4   8  14  23  33  45  65  95 128 163 203 246
#     4   9  16  26  39  54  74 102 135 168 204 249
#     4   8  13  21  30  41  62  93 127 161 199 242
#     4  10  16  20  29  46  68  95 129 167 203 239
#     4   9  18  32  48  66  87 110 139 177 219 257
#
# _framework density 17.832370000000001
#
# number of rings (size 3 to 8) (size 9 to 14) (size 15 to 20)
#    0.000    3.143    0.000    3.857    0.000    6.857 
#    0.000    0.000    0.000    0.000    0.000    0.000 
#    0.000    0.000    0.000    1.286    0.000   15.714 
#
# Total GULP energy -346906.404467 kJ/mol
# GULP energy per Si atom -12389.514445 kJ/mol
# Density = 1.779178 g / cm^3
# Si number density = 17.832370 Si / 1000 Ang^3
#
#
#
# Elastic Constant Matrix: (Units=GPa)
#
#
# Indices 1 2 3 4 5 6 
#
# 1 7.9822 16.5467 21.7151 0.0000 2.8913 0.0000
# 2 16.5467 127.8289 97.3309 0.0000 5.2695 0.0000
# 3 21.7151 97.3309 212.1890 0.0000 9.9809 0.0000
# 4 0.0000 0.0000 0.0000 38.1649 0.0000 1.5980
# 5 2.8913 5.2695 9.9809 0.0000 14.8954 0.0000
# 6 0.0000 0.0000 0.0000 1.5980 0.0000 8.0924
#
#
#
# Elastic Compliance Matrix: (Units=1/GPa)
#
#
# Indices 1 2 3 4 5 6 
#
# 1 0.199600 -0.015594 -0.012092 0.000000 -0.025125 0.000000
# 2 -0.015594 0.013245 -0.004545 0.000000 0.001387 0.000000
# 3 -0.012092 -0.004545 0.008104 0.000000 -0.001476 0.000000
# 4 0.000000 0.000000 0.000000 0.026421 0.000000 -0.005217
# 5 -0.025125 0.001387 -0.001476 0.000000 0.072510 0.000000
# 6 0.000000 0.000000 0.000000 -0.005217 0.000000 0.124603
#
#
# Mechanical properties :
#
#
# Convention : Reuss Voigt Hill
#
# Bulk Modulus (GPa) = 6.39030 68.79837 37.59434
# Shear Modulus (GPa) = 8.91097 26.39104 17.65101
#
# Velocity S-wave (km/s) = 2.23784 3.85119 3.14957
# Velocity P-wave (km/s) = 3.20446 7.64460 5.86125
#
# Compressibility (1/GPa) = 0.15648717
#
# Stress axis : x y z
#
# Youngs Moduli (GPa) = 5.01003 75.50134 123.39157
#
# Poissons Ratio (x) = 1.17740 1.49202
# Poissons Ratio (y) = 0.07813 0.56078
# Poissons Ratio (z) = 0.06058 0.34313
#
# Static dielectric constant tensor:
#      x y z
#    x 2.500710 0.000000 0.146620 
#    y 0.000000 3.319030 0.000000 
#    z 0.146620 0.000000 4.153390 
# 
# 
# High freq. dielectric constant tensor:
#      x y z
#    x 1.583140 0.000000 0.007610 
#    y 0.000000 1.691860 0.000000 
#    z 0.007610 0.000000 1.725900 
# 
# From -- ./inp_files/348340.got.cif
#   From: 2010.06.25/outbox.cif.g09.slc.cpg/sg12_175_cif.got.tgz:348340.got - 2010.06.28 00:19:55.
