data_PCOD8078202
_publ_section_title
;
Structure prediction by ZEFSAII (Michael W. Deem and Ramdas Pophale) SiO2 
 PCOD8078202
Probable space group: C 2/M
;
_chemical_formula_sum "Si O2"
_cell_formula_units_Z 64
_cell_length_a 18.968946
_cell_length_b 27.516301
_cell_length_c 11.800866
_cell_angle_alpha 90.000000
_cell_angle_beta 43.386387
_cell_angle_gamma 90.000000
_cell_volume 4231.068381
_symmetry_space_group_name_H-M "C 2/M"
_symmetry_group_IT_number 12
_symmetry_cell_setting 'monoclinic'
loop_
_space_group_symop_operation_xyz
x,y,z
-x,y,-z
-x,-y,-z
x,-y,z
1/2+x,1/2+y,z
1/2-x,1/2+y,-z
1/2-x,1/2-y,-z
1/2+x,1/2-y,z
loop_
_atom_site_type_symbol
_atom_site_label
_atom_site_fract_x
_atom_site_fract_y
_atom_site_fract_z
Si Si1 0.819207 0.137738 0.658864
Si Si2 0.543860 0.446766 0.572851
Si Si3 0.576022 0.294222 0.625757
Si Si4 0.100250 0.329901 0.939268
Si Si5 0.905962 0.723332 0.826394
Si Si6 0.774532 0.191803 0.096060
Si Si7 0.114085 0.224501 0.830202
Si Si8 0.595933 0.370615 0.191320
O O1 0.859356 0.090259 0.543852
O O2 0.845134 0.188075 0.562742
O O3 0.696660 0.133578 0.816627
O O4 0.873968 0.142720 0.715502
O O5 0.500000 0.453400 0.500000
O O6 0.576884 0.500000 0.581759
O O7 0.450524 0.425230 0.759218
O O8 0.516161 0.244700 0.658567
O O9 0.636341 0.285284 0.672611
O O10 0.495126 0.336374 0.743058
O O11 0.125503 0.281463 0.839605
O O12 0.078356 0.317831 0.096419
O O13 0.000000 0.355134 0.000000
O O14 0.845989 0.700402 0.788768
O O15 0.840210 0.766950 0.956288
O O16 0.799618 0.194452 0.200229
O O17 0.808219 0.139027 0.004955
O O18 0.000000 0.207178 0.000000
#
# Coordination Sequence:
#
# PCOD8078202 Si02
#       8
#     8   8   8   8   8   8   8   8
#     4  10  19  27  43  62  81 103 139 174 204 248
#     4   8  15  27  41  61  85 103 123 165 219 256
#     4  10  17  27  39  59  80 107 139 173 202 231
#     4  10  17  28  40  55  80 111 143 169 198 235
#     4   9  15  25  38  52  75 108 142 172 190 230
#     4   9  15  23  41  55  74 108 145 163 196 231
#     4  10  16  26  37  53  79 113 144 166 190 231
#     4   9  15  26  42  63  79 104 137 168 200 247
#
# _framework density 15.126203
#
# number of rings (size 3 to 8) (size 9 to 14) (size 15 to 20)
#    0.000    2.625    6.250    1.125    1.750    0.500 
#    0.000    0.000    0.000    0.375    0.000    7.000 
#    0.000    0.000    0.000    0.000    0.000    5.000 
#
# Total GULP energy -396446.617526 kJ/mol
# GULP energy per Si atom -12388.956798 kJ/mol
# Density = 1.509177 g / cm^3
# Si number density = 15.126203 Si / 1000 Ang^3
#
#
#
# Elastic Constant Matrix: (Units=GPa)
#
#
# Indices 1 2 3 4 5 6 
#
# 1 98.8243 28.2440 22.7637 0.0000 0.8734 0.0000
# 2 28.2440 55.7577 25.9481 0.0000 -5.9088 0.0000
# 3 22.7637 25.9481 35.3458 0.0000 -8.8696 0.0000
# 4 0.0000 0.0000 0.0000 10.5523 0.0000 -1.4113
# 5 0.8734 -5.9088 -8.8696 0.0000 17.6436 0.0000
# 6 0.0000 0.0000 0.0000 -1.4113 0.0000 5.4647
#
#
#
# Elastic Compliance Matrix: (Units=1/GPa)
#
#
# Indices 1 2 3 4 5 6 
#
# 1 0.012839 -0.003946 -0.006709 0.000000 -0.005330 0.000000
# 2 -0.003946 0.028472 -0.018217 0.000000 0.000573 0.000000
# 3 -0.006709 -0.018217 0.050968 0.000000 0.019853 0.000000
# 4 0.000000 0.000000 0.000000 0.098157 0.000000 0.025350
# 5 -0.005330 0.000573 0.019853 0.000000 0.067114 0.000000
# 6 0.000000 0.000000 0.000000 0.025350 0.000000 0.189538
#
#
# Mechanical properties :
#
#
# Convention : Reuss Voigt Hill
#
# Bulk Modulus (GPa) = 28.95623 38.20438 33.58030
# Shear Modulus (GPa) = 9.68346 14.26359 11.97353
#
# Velocity S-wave (km/s) = 2.53292 3.07412 2.81655
# Velocity P-wave (km/s) = 5.26677 6.15729 5.72936
#
# Compressibility (1/GPa) = 0.03453489
#
# Stress axis : x y z
#
# Youngs Moduli (GPa) = 77.88536 35.12226 19.62015
#
# Poissons Ratio (x) = 0.13860 0.13164
# Poissons Ratio (y) = 0.30736 0.35741
# Poissons Ratio (z) = 0.52256 0.63981
#
# Static dielectric constant tensor:
#      x y z
#    x 3.125150 0.000000 -0.066990 
#    y 0.000000 2.820620 0.000000 
#    z -0.066990 0.000000 2.798190 
# 
# 
# High freq. dielectric constant tensor:
#      x y z
#    x 1.585510 0.000000 -0.002340 
#    y 0.000000 1.523100 0.000000 
#    z -0.002340 0.000000 1.549080 
# 
# From -- ./inp_files/160630.got.cif
#   From: 2010.06.25/outbox.cif.g09.slc.cpg/sg12_81_cif.got.tgz:160630.got - 2010.06.28 00:19:55.
