data_PCOD8078267
_publ_section_title
;
Structure prediction by ZEFSAII (Michael W. Deem and Ramdas Pophale) SiO2 
 PCOD8078267
Probable space group: C 2/M
;
_chemical_formula_sum "Si O2"
_cell_formula_units_Z 48
_cell_length_a 13.984098
_cell_length_b 22.040710
_cell_length_c 15.211351
_cell_angle_alpha 90.000000
_cell_angle_beta 140.603757
_cell_angle_gamma 90.000000
_cell_volume 2975.654689
_symmetry_space_group_name_H-M "C 2/M"
_symmetry_group_IT_number 12
_symmetry_cell_setting 'monoclinic'
loop_
_space_group_symop_operation_xyz
x,y,z
-x,y,-z
-x,-y,-z
x,-y,z
1/2+x,1/2+y,z
1/2-x,1/2+y,-z
1/2-x,1/2-y,-z
1/2+x,1/2-y,z
loop_
_atom_site_type_symbol
_atom_site_label
_atom_site_fract_x
_atom_site_fract_y
_atom_site_fract_z
Si Si1 0.258238 0.873093 0.700374
Si Si2 0.307417 0.000000 0.945617
Si Si3 0.168203 0.875505 0.829487
Si Si4 0.937163 0.787470 0.716644
Si Si5 0.638761 0.000000 0.223707
Si Si6 0.044480 0.702181 0.938990
Si Si7 0.876233 0.241616 0.481789
O O1 0.154456 0.876173 0.713719
O O2 0.278791 0.941021 0.675636
O O3 0.426672 0.852808 0.844525
O O4 0.181949 0.827269 0.577205
O O5 0.209203 0.059299 0.898950
O O6 0.343812 0.000000 0.868732
O O7 0.458676 0.000000 0.112591
O O8 0.007876 0.854671 0.756825
O O9 0.289443 0.825054 0.943040
O O10 0.946379 0.754159 0.628421
O O11 0.763606 0.788647 0.625637
O O12 0.037905 0.750154 0.856260
O O13 0.000000 0.734489 0.000000
O O14 0.000000 0.262887 0.500000
#
# Coordination Sequence:
#
# PCOD8078267 Si02
#       7
#     8   4   8   8   4   8   8
#     4   9  16  27  46  66  97 132 154 183 219 284
#     4   9  16  24  45  68  99 125 147 182 231 291
#     4  10  16  28  44  72  98 120 153 191 233 282
#     4  10  20  30  48  67  93 129 160 197 232 277
#     4   9  14  26  42  69  94 132 158 163 224 297
#     4   9  17  28  46  70  99 124 152 190 239 278
#     4  10  19  34  46  63  95 134 165 191 232 266
#
# _framework density 16.130904000000001
#
# number of rings (size 3 to 8) (size 9 to 14) (size 15 to 20)
#    0.000    2.500    3.333    0.500    0.000    0.000 
#    0.000    1.250    0.000    0.000    0.000    1.167 
#    0.000    0.000    0.000    0.333    0.000    0.000 
#
# Total GULP energy -297480.554503 kJ/mol
# GULP energy per Si atom -12395.023104 kJ/mol
# Density = 1.609419 g / cm^3
# Si number density = 16.130904 Si / 1000 Ang^3
#
#
#
# Elastic Constant Matrix: (Units=GPa)
#
#
# Indices 1 2 3 4 5 6 
#
# 1 90.3877 49.0480 31.1954 0.0000 13.3958 0.0000
# 2 49.0480 91.7517 29.2449 0.0000 8.7910 0.0000
# 3 31.1954 29.2449 60.1773 0.0000 -4.0574 0.0000
# 4 0.0000 0.0000 0.0000 15.4141 0.0000 3.0692
# 5 13.3958 8.7910 -4.0574 0.0000 25.6537 0.0000
# 6 0.0000 0.0000 0.0000 3.0692 0.0000 22.4857
#
#
#
# Elastic Compliance Matrix: (Units=1/GPa)
#
#
# Indices 1 2 3 4 5 6 
#
# 1 0.018340 -0.006865 -0.006730 0.000000 -0.008289 0.000000
# 2 -0.006865 0.016273 -0.004532 0.000000 -0.002709 0.000000
# 3 -0.006730 -0.004532 0.022895 0.000000 0.008688 0.000000
# 4 0.000000 0.000000 0.000000 0.066688 0.000000 -0.009103
# 5 -0.008289 -0.002709 0.008688 0.000000 0.045611 0.000000
# 6 0.000000 0.000000 0.000000 -0.009103 0.000000 0.045715
#
#
# Mechanical properties :
#
#
# Convention : Reuss Voigt Hill
#
# Bulk Modulus (GPa) = 47.05117 51.25481 49.15299
# Shear Modulus (GPa) = 19.31551 21.56592 20.44071
#
# Velocity S-wave (km/s) = 3.46413 3.66037 3.56360
# Velocity P-wave (km/s) = 6.72547 7.05037 6.88984
#
# Compressibility (1/GPa) = 0.02125346
#
# Stress axis : x y z
#
# Youngs Moduli (GPa) = 54.52706 61.45243 43.67823
#
# Poissons Ratio (x) = 0.42184 0.29395
# Poissons Ratio (y) = 0.37431 0.19796
# Poissons Ratio (z) = 0.36696 0.27852
#
# Static dielectric constant tensor:
#      x y z
#    x 2.945510 0.000000 0.114480 
#    y 0.000000 2.972510 0.000000 
#    z 0.114480 0.000000 3.042780 
# 
# 
# High freq. dielectric constant tensor:
#      x y z
#    x 1.592990 0.000000 0.017550 
#    y 0.000000 1.594360 0.000000 
#    z 0.017550 0.000000 1.622280 
# 
# From -- ./inp_files/64742.got.cif
#   From: 2010.06.25/outbox.cif.g09.slc.cpg/sg12_33_cif.got.tgz:64742.got - 2010.06.28 00:19:55.
