data_PCOD8078984
_publ_section_title
;
Structure prediction by ZEFSAII (Michael W. Deem and Ramdas Pophale) SiO2 
 PCOD8078984
Probable space group: C 2/M
;
_chemical_formula_sum "Si O2"
_cell_formula_units_Z 64
_cell_length_a 29.664628
_cell_length_b 9.028957
_cell_length_c 14.095622
_cell_angle_alpha 90.000000
_cell_angle_beta 89.407703
_cell_angle_gamma 90.000000
_cell_volume 3775.178842
_symmetry_space_group_name_H-M "C 2/M"
_symmetry_group_IT_number 12
_symmetry_cell_setting 'monoclinic'
loop_
_space_group_symop_operation_xyz
x,y,z
-x,y,-z
-x,-y,-z
x,-y,z
1/2+x,1/2+y,z
1/2-x,1/2+y,-z
1/2-x,1/2-y,-z
1/2+x,1/2-y,z
loop_
_atom_site_type_symbol
_atom_site_label
_atom_site_fract_x
_atom_site_fract_y
_atom_site_fract_z
Si Si1 0.947718 0.323178 0.490053
Si Si2 0.703031 0.825968 0.020574
Si Si3 0.583074 0.675183 0.326671
Si Si4 0.622072 0.824496 0.890657
Si Si5 0.062792 0.834217 0.035434
Si Si6 0.148157 0.836147 0.169238
Si Si7 0.984621 0.331057 0.810840
Si Si8 0.421138 0.833139 0.288753
O O1 0.943120 0.500000 0.498680
O O2 0.916473 0.244274 0.568545
O O3 0.929352 0.255228 0.389979
O O4 0.000000 0.277317 0.500000
O O5 0.668945 0.773838 0.937692
O O6 0.709890 0.000000 0.021277
O O7 0.750000 0.750000 0.000000
O O8 0.684106 0.777590 0.124099
O O9 0.574097 0.500000 0.330100
O O10 0.631863 0.708393 0.275894
O O11 0.542829 0.752530 0.271637
O O12 0.619737 0.774344 0.778809
O O13 0.616326 0.000000 0.900205
O O14 0.579278 0.751935 0.942845
O O15 0.102696 0.836517 0.110373
O O16 0.020892 0.751625 0.087505
O O17 0.048134 0.000000 0.007478
O O18 0.170238 0.000000 0.168088
O O19 0.967496 0.500000 0.821192
O O20 0.036104 0.324049 0.780479
O O21 0.410229 0.000000 0.317473
#
# Coordination Sequence:
#
# PCOD8078984 Si02
#       8
#     8   8   8   8   8   8   8   8
#     4  10  18  31  48  67  90 125 170 209 243 273
#     4  10  19  31  52  77  98 120 148 182 229 286
#     4  10  19  30  45  68  97 127 159 204 247 277
#     4   9  18  33  49  66  89 123 160 190 226 280
#     4   9  17  29  43  63  92 123 155 195 236 274
#     4   8  16  30  46  66  95 124 152 187 230 275
#     4  10  17  28  45  63  86 123 165 201 234 272
#     4   9  18  31  46  64  89 121 164 207 233 266
#
# _framework density 16.952839000000001
#
# number of rings (size 3 to 8) (size 9 to 14) (size 15 to 20)
#    0.000    2.625    1.250    2.250    0.000    4.750 
#    0.000    4.375    0.000    0.000    0.000    0.875 
#    0.000    0.000    0.000    0.000    0.000    0.000 
#
# Total GULP energy -396530.934841 kJ/mol
# GULP energy per Si atom -12391.591714 kJ/mol
# Density = 1.691425 g / cm^3
# Si number density = 16.952839 Si / 1000 Ang^3
#
#
#
# Elastic Constant Matrix: (Units=GPa)
#
#
# Indices 1 2 3 4 5 6 
#
# 1 54.3100 21.1699 44.4714 0.0000 -3.5662 0.0000
# 2 21.1699 60.9199 38.2074 0.0000 -1.6202 0.0000
# 3 44.4714 38.2074 131.5085 0.0000 3.6879 0.0000
# 4 0.0000 0.0000 0.0000 24.2917 0.0000 -9.0437
# 5 -3.5662 -1.6202 3.6879 0.0000 19.2972 0.0000
# 6 0.0000 0.0000 0.0000 -9.0437 0.0000 17.3978
#
#
#
# Elastic Compliance Matrix: (Units=1/GPa)
#
#
# Indices 1 2 3 4 5 6 
#
# 1 0.027097 -0.004151 -0.008132 0.000000 0.006213 0.000000
# 2 -0.004151 0.020862 -0.004710 0.000000 0.001884 0.000000
# 3 -0.008132 -0.004710 0.011839 0.000000 -0.004161 0.000000
# 4 0.000000 0.000000 0.000000 0.051045 0.000000 0.026534
# 5 0.006213 0.001884 -0.004161 0.000000 0.053922 0.000000
# 6 0.000000 0.000000 0.000000 0.026534 0.000000 0.071272
#
#
# Mechanical properties :
#
#
# Convention : Reuss Voigt Hill
#
# Bulk Modulus (GPa) = 38.74112 50.49288 44.61700
# Shear Modulus (GPa) = 17.94514 21.72331 19.83423
#
# Velocity S-wave (km/s) = 3.25704 3.58354 3.42419
# Velocity P-wave (km/s) = 6.08657 6.85357 6.48142
#
# Compressibility (1/GPa) = 0.02581237
#
# Stress axis : x y z
#
# Youngs Moduli (GPa) = 36.90386 47.93468 84.46699
#
# Poissons Ratio (x) = 0.19899 0.68684
# Poissons Ratio (y) = 0.15320 0.39784
# Poissons Ratio (z) = 0.30008 0.22577
#
# Static dielectric constant tensor:
#      x y z
#    x 2.919730 0.000000 0.006130 
#    y 0.000000 3.208950 0.000000 
#    z 0.006130 0.000000 3.490060 
# 
# 
# High freq. dielectric constant tensor:
#      x y z
#    x 1.611560 0.000000 -0.001300 
#    y 0.000000 1.649660 0.000000 
#    z -0.001300 0.000000 1.656990 
# 
# From -- ./inp_files/248293.got.cif
#   From: 2010.06.25/outbox.cif.g09.slc.cpg/sg12_125_cif.got.tgz:248293.got - 2010.06.28 00:19:55.
