data_PCOD8078092
_publ_section_title
;
Structure prediction by ZEFSAII (Michael W. Deem and Ramdas Pophale) SiO2 
 PCOD8078092
Probable space group: C 2/M
;
_chemical_formula_sum "Si O2"
_cell_formula_units_Z 56
_cell_length_a 9.378762
_cell_length_b 28.493012
_cell_length_c 13.433691
_cell_angle_alpha 90.000000
_cell_angle_beta 70.809100
_cell_angle_gamma 90.000000
_cell_volume 3390.379837
_symmetry_space_group_name_H-M "C 2/M"
_symmetry_group_IT_number 12
_symmetry_cell_setting 'monoclinic'
loop_
_space_group_symop_operation_xyz
x,y,z
-x,y,-z
-x,-y,-z
x,-y,z
1/2+x,1/2+y,z
1/2-x,1/2+y,-z
1/2-x,1/2-y,-z
1/2+x,1/2-y,z
loop_
_atom_site_type_symbol
_atom_site_label
_atom_site_fract_x
_atom_site_fract_y
_atom_site_fract_z
Si Si1 0.366509 0.097911 0.917953
Si Si2 0.160509 0.554132 0.858629
Si Si3 0.565247 0.811176 0.887182
Si Si4 0.899878 0.144975 0.117726
Si Si5 0.530800 0.290654 0.377177
Si Si6 0.647530 0.366845 0.219071
Si Si7 0.189812 0.231216 0.736728
O O1 0.491842 0.060071 0.850627
O O2 0.443764 0.148607 0.892857
O O3 0.215852 0.102697 0.885894
O O4 0.326477 0.080557 0.037947
O O5 0.204749 0.500000 0.856663
O O6 0.282782 0.582551 0.764626
O O7 0.729906 0.834506 0.867352
O O8 0.577984 0.772829 0.797847
O O9 0.500000 0.785092 0.000000
O O10 0.810237 0.190174 0.180476
O O11 0.005590 0.124690 0.180053
O O12 0.000000 0.160020 0.000000
O O13 0.500000 0.289440 0.500000
O O14 0.602605 0.340854 0.331544
O O15 0.640396 0.248297 0.319598
O O16 0.373803 0.285752 0.354561
#
# Coordination Sequence:
#
# PCOD8078092 Si02
#       7
#     8   8   8   8   8   8   8
#     4  10  17  28  46  65  95 130 156 183 223 263
#     4  10  18  33  50  66  89 121 161 190 220 284
#     4  10  15  29  45  64  98 128 161 186 212 267
#     4  11  18  29  43  68 105 129 153 189 219 270
#     4  10  20  35  49  65  95 124 162 206 234 266
#     4   9  19  31  46  69  92 124 155 188 241 276
#     4  10  21  29  47  72  91 131 168 189 226 264
#
# _framework density 16.517323000000001
#
# number of rings (size 3 to 8) (size 9 to 14) (size 15 to 20)
#    0.000    2.000    4.286    2.571    0.000    0.000 
#    0.000    7.857    0.000    0.429    0.000    0.000 
#    0.000    4.571    0.000    0.000    0.000    0.143 
#
# Total GULP energy -346905.017838 kJ/mol
# GULP energy per Si atom -12389.464923 kJ/mol
# Density = 1.647973 g / cm^3
# Si number density = 16.517323 Si / 1000 Ang^3
#
#
#
# Elastic Constant Matrix: (Units=GPa)
#
#
# Indices 1 2 3 4 5 6 
#
# 1 86.5323 29.4512 25.6722 0.0000 2.0317 0.0000
# 2 29.4512 90.3284 27.3287 0.0000 -1.0056 0.0000
# 3 25.6722 27.3287 71.7562 0.0000 0.1974 0.0000
# 4 0.0000 0.0000 0.0000 8.3252 0.0000 -2.1654
# 5 2.0317 -1.0056 0.1974 0.0000 17.5133 0.0000
# 6 0.0000 0.0000 0.0000 -2.1654 0.0000 16.0172
#
#
#
# Elastic Compliance Matrix: (Units=1/GPa)
#
#
# Indices 1 2 3 4 5 6 
#
# 1 0.013846 -0.003432 -0.003642 0.000000 -0.001762 0.000000
# 2 -0.003432 0.013374 -0.003869 0.000000 0.001210 0.000000
# 3 -0.003642 -0.003869 0.016712 0.000000 0.000012 0.000000
# 4 0.000000 0.000000 0.000000 0.124495 0.000000 0.016831
# 5 -0.001762 0.001210 0.000012 0.000000 0.057373 0.000000
# 6 0.000000 0.000000 0.000000 0.016831 0.000000 0.064708
#
#
# Mechanical properties :
#
#
# Convention : Reuss Voigt Hill
#
# Bulk Modulus (GPa) = 45.35817 45.94682 45.65249
# Shear Modulus (GPa) = 15.63754 19.44879 17.54316
#
# Velocity S-wave (km/s) = 3.08024 3.43516 3.26253
# Velocity P-wave (km/s) = 6.33807 6.60390 6.47235
#
# Compressibility (1/GPa) = 0.02204674
#
# Stress axis : x y z
#
# Youngs Moduli (GPa) = 72.22099 74.77309 59.83575
#
# Poissons Ratio (x) = 0.25665 0.21791
# Poissons Ratio (y) = 0.24789 0.23149
# Poissons Ratio (z) = 0.26301 0.28928
#
# Static dielectric constant tensor:
#      x y z
#    x 3.246170 0.000000 -0.167160 
#    y 0.000000 3.012790 0.000000 
#    z -0.167160 0.000000 2.851630 
# 
# 
# High freq. dielectric constant tensor:
#      x y z
#    x 1.644590 0.000000 -0.010840 
#    y 0.000000 1.615510 0.000000 
#    z -0.010840 0.000000 1.597540 
# 
# From -- ./inp_files/125211.got.cif
#   From: 2010.06.25/outbox.cif.g09.slc.cpg/sg12_63_cif.got.tgz:125211.got - 2010.06.28 00:19:55.
