data_PCOD8078496
_publ_section_title
;
Structure prediction by ZEFSAII (Michael W. Deem and Ramdas Pophale) SiO2 
 PCOD8078496
Probable space group: C 2/M
;
_chemical_formula_sum "Si O2"
_cell_formula_units_Z 48
_cell_length_a 19.425749
_cell_length_b 9.166855
_cell_length_c 16.528434
_cell_angle_alpha 90.000000
_cell_angle_beta 107.655852
_cell_angle_gamma 90.000000
_cell_volume 2804.626947
_symmetry_space_group_name_H-M "C 2/M"
_symmetry_group_IT_number 12
_symmetry_cell_setting 'monoclinic'
loop_
_space_group_symop_operation_xyz
x,y,z
-x,y,-z
-x,-y,-z
x,-y,z
1/2+x,1/2+y,z
1/2-x,1/2+y,-z
1/2-x,1/2-y,-z
1/2+x,1/2-y,z
loop_
_atom_site_type_symbol
_atom_site_label
_atom_site_fract_x
_atom_site_fract_y
_atom_site_fract_z
Si Si1 0.646717 0.164471 0.411257
Si Si2 0.933863 0.671550 0.920160
Si Si3 0.754249 0.832305 0.249423
Si Si4 0.684585 0.661708 0.570239
Si Si5 0.887002 0.172911 0.753122
Si Si6 0.279988 0.834374 0.935073
O O1 0.638133 0.227706 0.499376
O O2 0.730330 0.173575 0.417279
O O3 0.599196 0.258824 0.331174
O O4 0.617470 0.000000 0.401066
O O5 0.933961 0.500000 0.900763
O O6 0.942143 0.758602 0.838460
O O7 0.860084 0.718550 0.938910
O O8 0.000000 0.718299 0.000000
O O9 0.822024 0.805245 0.334925
O O10 0.693153 0.715153 0.247848
O O11 0.774011 0.813193 0.161649
O O12 0.725158 0.000000 0.252350
O O13 0.656277 0.500000 0.539666
O O14 0.896560 0.000000 0.752214
O O15 0.283280 0.000000 0.964298
O O16 0.250000 0.750000 0.000000
#
# Coordination Sequence:
#
# PCOD8078496 Si02
#       6
#     8   8   8   8   8   8
#     4   9  15  22  32  48  74 106 136 165 203 254
#     4   9  18  33  49  62  82 115 150 180 213 255
#     4   8  15  27  39  52  76 110 143 171 206 254
#     4   8  13  21  33  49  70  99 136 174 205 238
#     4  10  17  24  37  57  80 105 136 174 213 251
#     4   9  17  29  45  65  87 113 144 177 215 255
#
# _framework density 17.114574999999999
#
# number of rings (size 3 to 8) (size 9 to 14) (size 15 to 20)
#    0.000    3.167    0.000    4.000    0.000    7.000 
#    0.000    0.000    0.000    0.000    0.000    0.000 
#    0.000    1.333    0.000   15.333    0.000   16.667 
#
# Total GULP energy -297321.605136 kJ/mol
# GULP energy per Si atom -12388.400214 kJ/mol
# Density = 1.707562 g / cm^3
# Si number density = 17.114575 Si / 1000 Ang^3
#
#
#
# Elastic Constant Matrix: (Units=GPa)
#
#
# Indices 1 2 3 4 5 6 
#
# 1 22.4131 16.1105 34.3768 0.0000 -6.2926 0.0000
# 2 16.1105 106.3163 81.7177 0.0000 -2.4676 0.0000
# 3 34.3768 81.7177 192.3332 0.0000 -13.1632 0.0000
# 4 0.0000 0.0000 0.0000 36.0319 0.0000 -5.0243
# 5 -6.2926 -2.4676 -13.1632 0.0000 16.1300 0.0000
# 6 0.0000 0.0000 0.0000 -5.0243 0.0000 12.0727
#
#
#
# Elastic Compliance Matrix: (Units=1/GPa)
#
#
# Indices 1 2 3 4 5 6 
#
# 1 0.065902 -0.002148 -0.009669 0.000000 0.017490 0.000000
# 2 -0.002148 0.014163 -0.005871 0.000000 -0.003462 0.000000
# 3 -0.009669 -0.005871 0.009641 0.000000 0.003197 0.000000
# 4 0.000000 0.000000 0.000000 0.029463 0.000000 0.012262
# 5 0.017490 -0.003462 0.003197 0.000000 0.070899 0.000000
# 6 0.000000 0.000000 0.000000 0.012262 0.000000 0.087935
#
#
# Mechanical properties :
#
#
# Convention : Reuss Voigt Hill
#
# Bulk Modulus (GPa) = 18.40626 65.05250 41.72938
# Shear Modulus (GPa) = 15.08347 25.43743 20.26045
#
# Velocity S-wave (km/s) = 2.97193 3.85944 3.44439
# Velocity P-wave (km/s) = 4.74916 7.61268 6.34458
#
# Compressibility (1/GPa) = 0.05432935
#
# Stress axis : x y z
#
# Youngs Moduli (GPa) = 15.17413 70.60427 103.72737
#
# Poissons Ratio (x) = 0.15169 1.00296
# Poissons Ratio (y) = 0.03260 0.60895
# Poissons Ratio (z) = 0.14672 0.41449
#
# Static dielectric constant tensor:
#      x y z
#    x 2.441190 0.000000 -0.135840 
#    y 0.000000 3.172260 0.000000 
#    z -0.135840 0.000000 3.845980 
# 
# 
# High freq. dielectric constant tensor:
#      x y z
#    x 1.560490 0.000000 -0.014370 
#    y 0.000000 1.660800 0.000000 
#    z -0.014370 0.000000 1.692220 
# 
# From -- ./inp_files/280525.got.cif
#   From: 2010.06.25/outbox.cif.g09.slc.cpg/sg12_141_cif.got.tgz:280525.got - 2010.06.28 00:19:55.
