data_PCOD8078353
_publ_section_title
;
Structure prediction by ZEFSAII (Michael W. Deem and Ramdas Pophale) SiO2 
 PCOD8078353
Probable space group: C 2/M
;
_chemical_formula_sum "Si O2"
_cell_formula_units_Z 48
_cell_length_a 5.163489
_cell_length_b 34.468904
_cell_length_c 15.333775
_cell_angle_alpha 90.000000
_cell_angle_beta 65.093007
_cell_angle_gamma 90.000000
_cell_volume 2475.275653
_symmetry_space_group_name_H-M "C 2/M"
_symmetry_group_IT_number 12
_symmetry_cell_setting 'monoclinic'
loop_
_space_group_symop_operation_xyz
x,y,z
-x,y,-z
-x,-y,-z
x,-y,z
1/2+x,1/2+y,z
1/2-x,1/2+y,-z
1/2-x,1/2-y,-z
1/2+x,1/2-y,z
loop_
_atom_site_type_symbol
_atom_site_label
_atom_site_fract_x
_atom_site_fract_y
_atom_site_fract_z
Si Si1 0.154205 0.652330 0.888873
Si Si2 0.609848 0.274713 0.238893
Si Si3 0.194320 0.206744 0.542345
Si Si4 0.237150 0.954943 0.725211
Si Si5 0.150167 0.103466 0.888388
Si Si6 0.101542 0.045068 0.393842
O O1 0.207102 0.692398 0.833156
O O2 0.462108 0.634404 0.863342
O O3 0.960314 0.622483 0.860780
O O4 0.000000 0.663245 0.000000
O O5 0.338760 0.259422 0.222952
O O6 0.477348 0.293168 0.344156
O O7 0.500000 0.184893 0.500000
O O8 0.250000 0.250000 0.500000
O O9 0.000000 0.183967 0.500000
O O10 0.167555 0.934530 0.826446
O O11 0.564969 0.947568 0.658201
O O12 0.056011 0.937250 0.669464
O O13 0.164459 0.000000 0.749642
O O14 0.000000 0.090946 0.000000
O O15 0.000000 0.064089 0.500000
O O16 0.018247 0.000000 0.406823
#
# Coordination Sequence:
#
# PCOD8078353 Si02
#       6
#     8   8   8   8   8   8
#     4  10  23  40  56  77 109 149 184 219 283 347
#     4  12  21  33  58  85 104 136 181 232 268 311
#     4  10  16  30  49  77 107 132 165 209 257 328
#     4  10  19  32  57  88 110 140 193 240 270 320
#     4  10  21  40  59  76 110 154 184 222 287 349
#     4   9  17  30  50  82 115 145 178 221 278 329
#
# _framework density 19.391779
#
# number of rings (size 3 to 8) (size 9 to 14) (size 15 to 20)
#    0.000    1.833    3.333    2.500    0.000    3.000 
#    0.000    0.000    0.000   16.000    0.000    0.000 
#    0.000    0.000    0.000    0.000    0.000    0.000 
#
# Total GULP energy -297503.882059 kJ/mol
# GULP energy per Si atom -12395.995086 kJ/mol
# Density = 1.934764 g / cm^3
# Si number density = 19.391779 Si / 1000 Ang^3
#
#
#
# Elastic Constant Matrix: (Units=GPa)
#
#
# Indices 1 2 3 4 5 6 
#
# 1 137.8594 21.2554 41.9007 0.0000 12.8871 0.0000
# 2 21.2554 47.5841 53.3236 0.0000 4.3827 0.0000
# 3 41.9007 53.3236 106.3227 0.0000 8.5087 0.0000
# 4 0.0000 0.0000 0.0000 1.3539 0.0000 3.1232
# 5 12.8871 4.3827 8.5087 0.0000 28.7935 0.0000
# 6 0.0000 0.0000 0.0000 3.1232 0.0000 1.9873
#
#
#
# Elastic Compliance Matrix: (Units=1/GPa)
#
#
# Indices 1 2 3 4 5 6 
#
# 1 0.008467 -0.000082 -0.003066 0.000000 -0.002871 0.000000
# 2 -0.000082 0.047984 -0.024020 0.000000 -0.000169 0.000000
# 3 -0.003066 -0.024020 0.022797 0.000000 -0.001708 0.000000
# 4 0.000000 0.000000 0.000000 -0.281329 0.000000 0.442142
# 5 -0.002871 -0.000169 -0.001708 0.000000 0.036546 0.000000
# 6 0.000000 0.000000 0.000000 0.442142 0.000000 -0.191672
#
#
# Mechanical properties :
#
#
# Convention : Reuss Voigt Hill
#
# Bulk Modulus (GPa) = 40.13966 58.30286 49.22126
# Shear Modulus (GPa) = -16.97398 18.11270 0.56936
#
# Velocity S-wave (km/s) = -2.96179 3.05952 0.54244
# Velocity P-wave (km/s) = 3.00799 6.52778 5.08232
#
# Compressibility (1/GPa) = 0.02491301
#
# Stress axis : x y z
#
# Youngs Moduli (GPa) = 118.11153 20.84008 43.86605
#
# Poissons Ratio (x) = 0.00171 0.13448
# Poissons Ratio (y) = 0.00969 1.05364
# Poissons Ratio (z) = 0.36209 0.50057
#
# Static dielectric constant tensor:
#      x y z
#    x 3.469860 0.000000 0.006900 
#    y 0.000000 3.020930 0.000000 
#    z 0.006900 0.000000 3.550490 
# 
# 
# High freq. dielectric constant tensor:
#      x y z
#    x 1.786040 0.000000 0.002110 
#    y 0.000000 1.704390 0.000000 
#    z 0.002110 0.000000 1.763180 
# 
# From -- ./inp_files/192521.got.cif
#   From: 2010.06.25/outbox.cif.g09.slc.cpg/sg12_97_cif.got.tgz:192521.got - 2010.06.28 00:19:55.
