data_PCOD8078069
_publ_section_title
;
Structure prediction by ZEFSAII (Michael W. Deem and Ramdas Pophale) SiO2 
 PCOD8078069
Probable space group: C 2/M
;
_chemical_formula_sum "Si O2"
_cell_formula_units_Z 60
_cell_length_a 23.674844
_cell_length_b 20.621325
_cell_length_c 8.112048
_cell_angle_alpha 90.000000
_cell_angle_beta 106.291349
_cell_angle_gamma 90.000000
_cell_volume 3801.338240
_symmetry_space_group_name_H-M "C 2/M"
_symmetry_group_IT_number 12
_symmetry_cell_setting 'monoclinic'
loop_
_space_group_symop_operation_xyz
x,y,z
-x,y,-z
-x,-y,-z
x,-y,z
1/2+x,1/2+y,z
1/2-x,1/2+y,-z
1/2-x,1/2-y,-z
1/2+x,1/2-y,z
loop_
_atom_site_type_symbol
_atom_site_label
_atom_site_fract_x
_atom_site_fract_y
_atom_site_fract_z
Si Si1 0.570691 0.427506 0.336298
Si Si2 0.794158 0.304085 0.113902
Si Si3 0.318028 0.608517 0.378255
Si Si4 0.635641 0.635697 0.103156
Si Si5 0.500000 0.666742 0.500000
Si Si6 0.762263 0.929078 0.015594
Si Si7 0.611110 0.291373 0.766625
Si Si8 0.268073 0.313366 0.610034
O O1 0.543970 0.500000 0.305335
O O2 0.627456 0.429679 0.499976
O O3 0.588261 0.405373 0.166760
O O4 0.522610 0.378870 0.371144
O O5 0.861450 0.278758 0.163180
O O6 0.780747 0.323339 0.291244
O O7 0.750000 0.250000 0.000000
O O8 0.787452 0.372627 0.013083
O O9 0.288460 0.562481 0.220017
O O10 0.339926 0.674374 0.306969
O O11 0.270941 0.627473 0.481606
O O12 0.667303 0.689383 0.247683
O O13 0.686915 0.589509 0.073325
O O14 0.600260 0.669437 0.926441
O O15 0.449870 0.713637 0.383499
O O16 0.736498 0.000000 0.945009
O O17 0.250000 0.250000 0.500000
#
# Coordination Sequence:
#
# PCOD8078069 Si02
#       8
#     8   8   8   8   4   8   8   8
#     4  10  19  33  46  64  90 130 169 200 238 276
#     4  11  17  30  51  71  94 124 158 193 240 293
#     4   9  17  27  45  68  96 123 154 191 234 283
#     4   9  19  29  48  67  94 126 160 203 234 283
#     4  10  23  34  48  62  89 126 168 218 238 274
#     4  10  18  29  45  73 102 127 155 192 243 294
#     4  10  18  34  46  67  90 121 162 199 242 276
#     4  10  15  24  45  73  93 118 157 189 236 286
#
# _framework density 15.783915
#
# number of rings (size 3 to 8) (size 9 to 14) (size 15 to 20)
#    0.000    2.133    5.333    1.000    0.000    0.533 
#    0.000    3.333    0.000    0.000    0.000    0.467 
#    0.000    0.000    0.000    2.800    0.000    0.000 
#
# Total GULP energy -371745.513504 kJ/mol
# GULP energy per Si atom -12391.517117 kJ/mol
# Density = 1.574799 g / cm^3
# Si number density = 15.783915 Si / 1000 Ang^3
#
#
#
# Elastic Constant Matrix: (Units=GPa)
#
#
# Indices 1 2 3 4 5 6 
#
# 1 58.2834 33.9848 30.0123 0.0000 1.3511 0.0000
# 2 33.9848 83.2016 26.5753 0.0000 11.0452 0.0000
# 3 30.0123 26.5753 83.5367 0.0000 -3.7245 0.0000
# 4 0.0000 0.0000 0.0000 13.5857 0.0000 -0.3942
# 5 1.3511 11.0452 -3.7245 0.0000 28.3914 0.0000
# 6 0.0000 0.0000 0.0000 -0.3942 0.0000 15.2691
#
#
#
# Elastic Compliance Matrix: (Units=1/GPa)
#
#
# Indices 1 2 3 4 5 6 
#
# 1 0.025351 -0.008495 -0.006349 0.000000 0.001266 0.000000
# 2 -0.008495 0.017246 -0.002731 0.000000 -0.006663 0.000000
# 3 -0.006349 -0.002731 0.015271 0.000000 0.003368 0.000000
# 4 0.000000 0.000000 0.000000 0.073662 0.000000 0.001902
# 5 0.001266 -0.006663 0.003368 0.000000 0.038196 0.000000
# 6 0.000000 0.000000 0.000000 0.001902 0.000000 0.065541
#
#
# Mechanical properties :
#
#
# Convention : Reuss Voigt Hill
#
# Bulk Modulus (GPa) = 44.02007 45.12960 44.57484
# Shear Modulus (GPa) = 17.98627 20.41251 19.19939
#
# Velocity S-wave (km/s) = 3.37936 3.60008 3.49146
# Velocity P-wave (km/s) = 6.57088 6.77753 6.67501
#
# Compressibility (1/GPa) = 0.02271691
#
# Stress axis : x y z
#
# Youngs Moduli (GPa) = 39.44626 57.98471 65.48412
#
# Poissons Ratio (x) = 0.49258 0.41575
# Poissons Ratio (y) = 0.33510 0.17887
# Poissons Ratio (z) = 0.25044 0.15838
#
# Static dielectric constant tensor:
#      x y z
#    x 2.799970 0.000000 -0.177960 
#    y 0.000000 2.894440 0.000000 
#    z -0.177960 0.000000 3.317930 
# 
# 
# High freq. dielectric constant tensor:
#      x y z
#    x 1.563670 0.000000 -0.018130 
#    y 0.000000 1.580120 0.000000 
#    z -0.018130 0.000000 1.626430 
# 
# From -- ./inp_files/98655.got.cif
#   From: 2010.06.25/outbox.cif.g09.slc.cpg/sg12_50_cif.got.tgz:98655.got - 2010.06.28 00:19:55.
