data_PCOD8078745
_publ_section_title
;
Structure prediction by ZEFSAII (Michael W. Deem and Ramdas Pophale) SiO2 
 PCOD8078745
Probable space group: C 2/M
;
_chemical_formula_sum "Si O2"
_cell_formula_units_Z 64
_cell_length_a 22.970529
_cell_length_b 8.834592
_cell_length_c 20.496745
_cell_angle_alpha 90.000000
_cell_angle_beta 59.962011
_cell_angle_gamma 90.000000
_cell_volume 3600.863413
_symmetry_space_group_name_H-M "C 2/M"
_symmetry_group_IT_number 12
_symmetry_cell_setting 'monoclinic'
loop_
_space_group_symop_operation_xyz
x,y,z
-x,y,-z
-x,-y,-z
x,-y,z
1/2+x,1/2+y,z
1/2-x,1/2+y,-z
1/2-x,1/2-y,-z
1/2+x,1/2-y,z
loop_
_atom_site_type_symbol
_atom_site_label
_atom_site_fract_x
_atom_site_fract_y
_atom_site_fract_z
Si Si1 0.535681 0.677890 0.413113
Si Si2 0.093262 0.176395 0.943848
Si Si3 0.188136 0.176756 0.349073
Si Si4 0.563250 0.175702 0.626372
Si Si5 0.515620 0.821140 0.088673
Si Si6 0.800393 0.675005 0.521381
Si Si7 0.194419 0.173544 0.782192
Si Si8 0.930310 0.177801 0.238847
O O1 0.500000 0.729180 0.500000
O O2 0.525922 0.500000 0.407055
O O3 0.613358 0.726699 0.371306
O O4 0.504510 0.766683 0.369661
O O5 0.167715 0.197411 0.871571
O O6 0.043454 0.271430 0.926376
O O7 0.072977 0.000000 0.953578
O O8 0.085043 0.244488 0.021827
O O9 0.212510 0.258760 0.400382
O O10 0.239783 0.222996 0.263034
O O11 0.190845 0.000000 0.360732
O O12 0.623368 0.207135 0.542358
O O13 0.578593 0.269224 0.682513
O O14 0.556553 0.000000 0.648161
O O15 0.496176 0.759552 0.171213
O O16 0.524607 0.000000 0.086005
O O17 0.783025 0.500000 0.533197
O O18 0.750000 0.750000 0.500000
O O19 0.136812 0.222508 0.763079
O O20 0.214828 0.000000 0.758943
O O21 0.943093 0.000000 0.228420
#
# Coordination Sequence:
#
# PCOD8078745 Si02
#       8
#     8   8   8   8   8   8   8   8
#     4  10  21  39  58  74  96 130 171 212 258 310
#     4   9  16  28  45  67  99 139 175 202 244 304
#     4  11  22  35  54  76  99 131 170 212 255 301
#     4  11  23  36  53  77 100 128 169 217 259 296
#     4  10  17  26  44  71 102 134 170 211 249 290
#     4  11  23  36  52  74 102 133 166 203 251 306
#     4   9  19  33  50  74 105 140 172 208 252 301
#     4  10  20  34  51  72 104 142 172 204 252 310
#
# _framework density 17.773513999999999
#
# number of rings (size 3 to 8) (size 9 to 14) (size 15 to 20)
#    0.000    1.875    1.250    5.250    0.000    7.750 
#    0.000    0.000    0.000    0.000    0.000    0.875 
#    0.000    0.000    0.000    0.000    0.000    0.000 
#
# Total GULP energy -396780.184236 kJ/mol
# GULP energy per Si atom -12399.380757 kJ/mol
# Density = 1.773306 g / cm^3
# Si number density = 17.773514 Si / 1000 Ang^3
#
#
#
# Elastic Constant Matrix: (Units=GPa)
#
#
# Indices 1 2 3 4 5 6 
#
# 1 62.6007 32.9639 19.4728 0.0001 -18.9226 0.0002
# 2 32.9639 84.6525 41.1131 0.0002 -13.0793 0.0008
# 3 19.4728 41.1131 96.4735 0.0001 -25.5026 -0.0002
# 4 0.0001 0.0002 0.0001 34.9519 0.0000 -0.3866
# 5 -18.9226 -13.0793 -25.5026 0.0000 17.2723 0.0000
# 6 0.0002 0.0008 -0.0002 -0.3866 0.0000 23.9829
#
#
#
# Elastic Compliance Matrix: (Units=1/GPa)
#
#
# Indices 1 2 3 4 5 6 
#
# 1 0.029815 -0.009737 0.007901 0.000000 0.036955 0.000000
# 2 -0.009737 0.018180 -0.008140 0.000000 -0.008920 -0.000001
# 3 0.007901 -0.008140 0.021156 0.000000 0.033728 0.000000
# 4 0.000000 0.000000 0.000000 0.028616 0.000000 0.000461
# 5 0.036955 -0.008920 0.033728 0.000000 0.141427 0.000000
# 6 0.000000 -0.000001 0.000000 0.000461 0.000000 0.041704
#
#
# Mechanical properties :
#
#
# Convention : Reuss Voigt Hill
#
# Bulk Modulus (GPa) = 20.32641 47.86958 34.09800
# Shear Modulus (GPa) = 15.76048 25.25322 20.50685
#
# Velocity S-wave (km/s) = 2.98105 3.77349 3.40043
# Velocity P-wave (km/s) = 4.82805 6.78065 5.88588
#
# Compressibility (1/GPa) = 0.04919708
#
# Stress axis : x y z
#
# Youngs Moduli (GPa) = 33.54055 55.00579 47.26862
#
# Poissons Ratio (x) = 0.53560 -0.37345
# Poissons Ratio (y) = 0.32659 0.38477
# Poissons Ratio (z) = -0.26499 0.44775
#
# Static dielectric constant tensor:
#      x y z
#    x 2.937030 0.000000 -0.141700 
#    y 0.000000 3.315440 0.000000 
#    z -0.141700 0.000000 3.853040 
# 
# 
# High freq. dielectric constant tensor:
#      x y z
#    x 1.637110 0.000000 -0.009430 
#    y 0.000000 1.699520 0.000000 
#    z -0.009430 0.000000 1.703490 
# 
# From -- ./inp_files/324161.got.cif
#   From: 2010.06.25/outbox.cif.g09.slc.cpg/sg12_163_cif.got.tgz:324161.got - 2010.06.28 00:19:55.
