data_PCOD8078981
_publ_section_title
;
Structure prediction by ZEFSAII (Michael W. Deem and Ramdas Pophale) SiO2 
 PCOD8078981
Probable space group: C 2/M
;
_chemical_formula_sum "Si O2"
_cell_formula_units_Z 48
_cell_length_a 21.865767
_cell_length_b 18.936676
_cell_length_c 8.560858
_cell_angle_alpha 90.000000
_cell_angle_beta 48.579512
_cell_angle_gamma 90.000000
_cell_volume 2658.118702
_symmetry_space_group_name_H-M "C 2/M"
_symmetry_group_IT_number 12
_symmetry_cell_setting 'monoclinic'
loop_
_space_group_symop_operation_xyz
x,y,z
-x,y,-z
-x,-y,-z
x,-y,z
1/2+x,1/2+y,z
1/2-x,1/2+y,-z
1/2-x,1/2-y,-z
1/2+x,1/2-y,z
loop_
_atom_site_type_symbol
_atom_site_label
_atom_site_fract_x
_atom_site_fract_y
_atom_site_fract_z
Si Si1 0.119278 0.165783 0.612810
Si Si2 0.740406 0.918847 0.458788
Si Si3 0.975611 0.080551 0.719908
Si Si4 0.253110 0.307763 0.861853
Si Si5 0.669226 0.788201 0.701436
Si Si6 0.706889 0.580000 0.976095
O O1 0.176444 0.107812 0.600883
O O2 0.162829 0.192246 0.379386
O O3 0.099356 0.234894 0.756846
O O4 0.033275 0.129637 0.726403
O O5 0.665382 0.868245 0.639659
O O6 0.724165 0.000000 0.535797
O O7 0.744170 0.911748 0.266462
O O8 0.884241 0.110541 0.894608
O O9 0.000000 0.085211 0.500000
O O10 0.982039 0.000000 0.770357
O O11 0.175563 0.294406 0.878843
O O12 0.245127 0.381988 0.964970
O O13 0.250000 0.250000 0.000000
O O14 0.750000 0.750000 0.500000
O O15 0.699201 0.500000 0.045077
#
# Coordination Sequence:
#
# PCOD8078981 Si02
#       6
#     8   8   8   8   8   8
#     4  10  18  30  44  59  88 122 151 185 221 263
#     4   9  17  29  44  65  90 118 149 184 225 265
#     4  10  19  30  43  65  93 123 155 181 213 264
#     4  10  17  28  45  61  83 114 151 189 225 256
#     4   8  17  29  43  61  83 117 150 187 226 265
#     4  10  19  29  44  67  93 120 152 182 216 262
#
# _framework density 18.057884000000001
#
# number of rings (size 3 to 8) (size 9 to 14) (size 15 to 20)
#    0.000    2.833    1.667    3.500    0.000    3.333 
#    0.000    2.500    0.000    0.000    0.000    0.000 
#    0.000    2.000    0.000   38.167    0.000   13.167 
#
# Total GULP energy -297376.515900 kJ/mol
# GULP energy per Si atom -12390.688162 kJ/mol
# Density = 1.801678 g / cm^3
# Si number density = 18.057884 Si / 1000 Ang^3
#
#
#
# Elastic Constant Matrix: (Units=GPa)
#
#
# Indices 1 2 3 4 5 6 
#
# 1 81.5738 61.3262 23.9244 0.0000 25.1144 0.0000
# 2 61.3262 139.2459 32.2819 0.0000 21.1179 0.0000
# 3 23.9244 32.2819 44.0659 0.0000 24.5617 0.0000
# 4 0.0000 0.0000 0.0000 21.0822 0.0000 6.4973
# 5 25.1144 21.1179 24.5617 0.0000 23.1202 0.0000
# 6 0.0000 0.0000 0.0000 6.4973 0.0000 39.8017
#
#
#
# Elastic Compliance Matrix: (Units=1/GPa)
#
#
# Indices 1 2 3 4 5 6 
#
# 1 0.025015 -0.008712 0.008609 0.000000 -0.028361 0.000000
# 2 -0.008712 0.011763 -0.007781 0.000000 0.006985 0.000000
# 3 0.008609 -0.007781 0.061223 0.000000 -0.067284 0.000000
# 4 0.000000 0.000000 0.000000 0.049946 0.000000 -0.008153
# 5 -0.028361 0.006985 -0.067284 0.000000 0.139159 0.000000
# 6 0.000000 0.000000 0.000000 -0.008153 0.000000 0.026455
#
#
# Mechanical properties :
#
#
# Convention : Reuss Voigt Hill
#
# Bulk Modulus (GPa) = 12.16053 55.55007 33.85530
# Shear Modulus (GPa) = 14.01587 26.62436 20.32011
#
# Velocity S-wave (km/s) = 2.78899 3.84394 3.35815
# Velocity P-wave (km/s) = 4.13765 7.10846 5.81594
#
# Compressibility (1/GPa) = 0.08223323
#
# Stress axis : x y z
#
# Youngs Moduli (GPa) = 39.97630 85.01380 16.33383
#
# Poissons Ratio (x) = 0.74060 -0.14061
# Poissons Ratio (y) = 0.34826 0.12709
# Poissons Ratio (z) = -0.34414 0.66146
#
# Static dielectric constant tensor:
#      x y z
#    x 3.438550 0.000000 0.305010 
#    y 0.000000 3.931050 0.000000 
#    z 0.305010 0.000000 3.134530 
# 
# 
# High freq. dielectric constant tensor:
#      x y z
#    x 1.670140 0.000000 0.044520 
#    y 0.000000 1.710510 0.000000 
#    z 0.044520 0.000000 1.673380 
# 
# From -- ./inp_files/97570.got.cif
#   From: 2010.06.25/outbox.cif.g09.slc.cpg/sg12_49_cif.got.tgz:97570.got - 2010.06.28 00:19:55.
