data_PCOD8078681
_publ_section_title
;
Structure prediction by ZEFSAII (Michael W. Deem and Ramdas Pophale) SiO2 
 PCOD8078681
Probable space group: C 2/M
;
_chemical_formula_sum "Si O2"
_cell_formula_units_Z 40
_cell_length_a 17.691835
_cell_length_b 13.365379
_cell_length_c 26.932263
_cell_angle_alpha 90.000000
_cell_angle_beta 23.033510
_cell_angle_gamma 90.000000
_cell_volume 2491.741130
_symmetry_space_group_name_H-M "C 2/M"
_symmetry_group_IT_number 12
_symmetry_cell_setting 'monoclinic'
loop_
_space_group_symop_operation_xyz
x,y,z
-x,y,-z
-x,-y,-z
x,-y,z
1/2+x,1/2+y,z
1/2-x,1/2+y,-z
1/2-x,1/2-y,-z
1/2+x,1/2-y,z
loop_
_atom_site_type_symbol
_atom_site_label
_atom_site_fract_x
_atom_site_fract_y
_atom_site_fract_z
Si Si1 0.292699 0.882916 0.110738
Si Si2 0.441144 0.202822 0.195491
Si Si3 0.820341 0.884379 0.928650
Si Si4 0.870243 0.882565 0.688242
Si Si5 0.321746 0.389571 0.570424
O O1 0.215835 0.840563 0.105086
O O2 0.139335 0.859895 0.247255
O O3 0.323324 0.000000 0.083848
O O4 0.500000 0.835020 0.000000
O O5 0.505065 0.318898 0.154237
O O6 0.293467 0.181740 0.240257
O O7 0.343144 0.183051 0.308588
O O8 0.626756 0.130861 0.077797
O O9 0.883415 0.000000 0.891516
O O10 0.085091 0.853189 0.538501
O O11 0.828498 0.000000 0.702462
O O12 0.500000 0.393749 0.500000
O O13 0.230470 0.500000 0.619724
#
# Coordination Sequence:
#
# PCOD8078681 Si02
#       5
#     8   8   8   8   8
#     4   9  15  25  42  61  85 108 130 169 211 244
#     4  10  17  26  42  63  86 110 134 167 210 245
#     4  10  19  28  40  63  89 110 134 166 208 249
#     4   9  15  26  46  68  84 103 135 175 211 240
#     4   8  14  24  41  63  85 105 133 173 208 239
#
# _framework density 16.053032000000002
#
# number of rings (size 3 to 8) (size 9 to 14) (size 15 to 20)
#    0.000    2.800    2.000    3.000    0.000    0.000 
#    0.000    1.000    0.000    5.400    0.000   14.000 
#    0.000    0.000    0.000    0.000    0.000    0.000 
#
# Total GULP energy -247837.431910 kJ/mol
# GULP energy per Si atom -12391.871596 kJ/mol
# Density = 1.601649 g / cm^3
# Si number density = 16.053032 Si / 1000 Ang^3
#
#
#
# Elastic Constant Matrix: (Units=GPa)
#
#
# Indices 1 2 3 4 5 6 
#
# 1 57.2625 22.2033 33.9297 0.0054 16.7460 -0.0028
# 2 22.2033 66.3063 34.0317 0.0113 -0.2271 0.0035
# 3 33.9297 34.0317 97.9177 0.0419 28.8054 0.0075
# 4 0.0054 0.0113 0.0419 17.7739 0.0060 -1.8874
# 5 16.7460 -0.2271 28.8054 0.0060 28.9881 0.0044
# 6 -0.0028 0.0035 0.0075 -1.8874 0.0044 12.0761
#
#
#
# Elastic Compliance Matrix: (Units=1/GPa)
#
#
# Indices 1 2 3 4 5 6 
#
# 1 0.025365 -0.007084 -0.002827 0.000009 -0.011900 0.000015
# 2 -0.007084 0.022234 -0.009225 0.000004 0.013433 -0.000007
# 3 -0.002827 -0.009225 0.019697 -0.000035 -0.018012 -0.000009
# 4 0.000009 0.000004 -0.000035 0.057212 0.000016 0.008942
# 5 -0.011900 0.013433 -0.018012 0.000016 0.059375 -0.000015
# 6 0.000015 -0.000007 -0.000009 0.008942 -0.000015 0.084206
#
#
# Mechanical properties :
#
#
# Convention : Reuss Voigt Hill
#
# Bulk Modulus (GPa) = 34.45173 44.64621 39.54897
# Shear Modulus (GPa) = 15.82109 20.52242 18.17176
#
# Velocity S-wave (km/s) = 3.14276 3.57937 3.36815
# Velocity P-wave (km/s) = 5.88872 6.70482 6.30998
#
# Compressibility (1/GPa) = 0.02902612
#
# Stress axis : x y z
#
# Youngs Moduli (GPa) = 39.42444 44.97595 50.76907
#
# Poissons Ratio (x) = 0.31859 0.14351
# Poissons Ratio (y) = 0.27927 0.46833
# Poissons Ratio (z) = 0.11144 0.41489
#
# Static dielectric constant tensor:
#      x y z
#    x 3.039670 0.000010 0.458710 
#    y 0.000010 2.706660 0.000030 
#    z 0.458710 0.000030 3.240360 
# 
# 
# High freq. dielectric constant tensor:
#      x y z
#    x 1.596720 0.000000 0.036820 
#    y 0.000000 1.576230 0.000000 
#    z 0.036820 0.000000 1.617700 
# 
# From -- ./inp_files/155095.got.cif
#   From: 2010.06.25/outbox.cif.g09.slc.cpg/sg12_78_cif.got.tgz:155095.got - 2010.06.28 00:19:55.
