data_PCOD8078595
_publ_section_title
;
Structure prediction by ZEFSAII (Michael W. Deem and Ramdas Pophale) SiO2 
 PCOD8078595
Probable space group: C 2/M
;
_chemical_formula_sum "Si O2"
_cell_formula_units_Z 64
_cell_length_a 23.311679
_cell_length_b 8.883319
_cell_length_c 18.124376
_cell_angle_alpha 90.000000
_cell_angle_beta 88.578903
_cell_angle_gamma 90.000000
_cell_volume 3752.133457
_symmetry_space_group_name_H-M "C 2/M"
_symmetry_group_IT_number 12
_symmetry_cell_setting 'monoclinic'
loop_
_space_group_symop_operation_xyz
x,y,z
-x,y,-z
-x,-y,-z
x,-y,z
1/2+x,1/2+y,z
1/2-x,1/2+y,-z
1/2-x,1/2-y,-z
1/2+x,1/2-y,z
loop_
_atom_site_type_symbol
_atom_site_label
_atom_site_fract_x
_atom_site_fract_y
_atom_site_fract_z
Si Si1 0.248318 0.822667 0.920189
Si Si2 0.572938 0.172305 0.725039
Si Si3 0.437447 0.321544 0.578976
Si Si4 0.630661 0.322794 0.854982
Si Si5 0.440246 0.178465 0.727625
Si Si6 0.371997 0.822526 0.871036
Si Si7 0.566741 0.826708 0.985983
Si Si8 0.561001 0.824760 0.563031
O O1 0.193579 0.762525 0.876346
O O2 0.304994 0.777793 0.871901
O O3 0.245460 0.000000 0.932462
O O4 0.250000 0.750000 0.000000
O O5 0.615514 0.269454 0.773417
O O6 0.506771 0.224480 0.736493
O O7 0.594387 0.193654 0.639574
O O8 0.578098 0.000000 0.750060
O O9 0.431268 0.500000 0.575958
O O10 0.412415 0.258609 0.656741
O O11 0.405101 0.246668 0.508444
O O12 0.502879 0.269086 0.572837
O O13 0.629743 0.500000 0.856267
O O14 0.583067 0.262799 0.912459
O O15 0.404110 0.241820 0.798108
O O16 0.434617 0.000000 0.717026
O O17 0.400232 0.756583 0.944718
O O18 0.381661 0.000000 0.871224
O O19 0.583830 0.000000 0.973516
O O20 0.500000 0.806272 0.000000
O O21 0.547084 0.000000 0.549380
#
# Coordination Sequence:
#
# PCOD8078595 Si02
#       8
#     8   8   8   8   8   8   8   8
#     4  10  20  35  52  70  90 120 161 202 243 286
#     4   9  18  31  48  69  95 126 161 195 231 278
#     4  10  17  25  41  68 100 130 154 184 234 286
#     4  11  22  32  46  70  98 124 153 194 247 292
#     4   9  17  31  49  69  93 124 162 199 231 275
#     4   9  17  31  51  69  88 119 160 202 235 271
#     4  10  19  32  51  70  89 121 162 195 229 281
#     4   9  16  28  45  65  91 127 167 197 220 266
#
# _framework density 17.056963
#
# number of rings (size 3 to 8) (size 9 to 14) (size 15 to 20)
#    0.000    2.375    1.250    4.125    0.000    5.250 
#    0.000    1.250    0.000    0.000    0.000    0.875 
#    0.000    0.000    0.000    0.000    0.000    0.000 
#
# Total GULP energy -396653.521168 kJ/mol
# GULP energy per Si atom -12395.422536 kJ/mol
# Density = 1.701814 g / cm^3
# Si number density = 17.056963 Si / 1000 Ang^3
#
#
#
# Elastic Constant Matrix: (Units=GPa)
#
#
# Indices 1 2 3 4 5 6 
#
# 1 63.0898 26.6376 45.6185 0.0000 10.5570 0.0000
# 2 26.6376 54.0788 42.8369 0.0000 7.7122 0.0000
# 3 45.6185 42.8369 145.8027 0.0000 10.2036 0.0000
# 4 0.0000 0.0000 0.0000 26.7659 0.0000 3.5721
# 5 10.5570 7.7122 10.2036 0.0000 13.7685 0.0000
# 6 0.0000 0.0000 0.0000 3.5721 0.0000 9.2488
#
#
#
# Elastic Compliance Matrix: (Units=1/GPa)
#
#
# Indices 1 2 3 4 5 6 
#
# 1 0.023894 -0.006350 -0.004827 0.000000 -0.011186 0.000000
# 2 -0.006350 0.026819 -0.005466 0.000000 -0.006103 0.000000
# 3 -0.004827 -0.005466 0.010021 0.000000 -0.000664 0.000000
# 4 0.000000 0.000000 0.000000 0.039391 0.000000 -0.015214
# 5 -0.011186 -0.006103 -0.000664 0.000000 0.085117 0.000000
# 6 0.000000 0.000000 0.000000 -0.015214 0.000000 0.113998
#
#
# Mechanical properties :
#
#
# Convention : Reuss Voigt Hill
#
# Bulk Modulus (GPa) = 36.43262 54.79527 45.61395
# Shear Modulus (GPa) = 14.63375 19.81520 17.22448
#
# Velocity S-wave (km/s) = 2.93223 3.41208 3.18122
# Velocity P-wave (km/s) = 5.73321 6.90780 6.34773
#
# Compressibility (1/GPa) = 0.02744793
#
# Stress axis : x y z
#
# Youngs Moduli (GPa) = 41.85156 37.28670 99.78872
#
# Poissons Ratio (x) = 0.23678 0.48171
# Poissons Ratio (y) = 0.26577 0.54540
# Poissons Ratio (z) = 0.20203 0.20379
#
# Static dielectric constant tensor:
#      x y z
#    x 3.021480 0.000000 -0.040330 
#    y 0.000000 3.046980 0.000000 
#    z -0.040330 0.000000 3.805960 
# 
# 
# High freq. dielectric constant tensor:
#      x y z
#    x 1.613090 0.000000 -0.000810 
#    y 0.000000 1.646680 0.000000 
#    z -0.000810 0.000000 1.675960 
# 
# From -- ./inp_files/287713.got.cif
#   From: 2010.06.25/outbox.cif.g09.slc.cpg/sg12_144_cif.got.tgz:287713.got - 2010.06.28 00:19:55.
