data_PCOD8078036
_publ_section_title
;
Structure prediction by ZEFSAII (Michael W. Deem and Ramdas Pophale) SiO2 
 PCOD8078036
Probable space group: C 2/M
;
_chemical_formula_sum "Si O2"
_cell_formula_units_Z 44
_cell_length_a 5.203688
_cell_length_b 16.825728
_cell_length_c 26.553700
_cell_angle_alpha 90.000000
_cell_angle_beta 95.790230
_cell_angle_gamma 90.000000
_cell_volume 2313.069507
_symmetry_space_group_name_H-M "C 2/M"
_symmetry_group_IT_number 12
_symmetry_cell_setting 'monoclinic'
loop_
_space_group_symop_operation_xyz
x,y,z
-x,y,-z
-x,-y,-z
x,-y,z
1/2+x,1/2+y,z
1/2-x,1/2+y,-z
1/2-x,1/2-y,-z
1/2+x,1/2-y,z
loop_
_atom_site_type_symbol
_atom_site_label
_atom_site_fract_x
_atom_site_fract_y
_atom_site_fract_z
Si Si1 0.095930 0.301690 0.258442
Si Si2 0.084341 0.406811 0.162317
Si Si3 0.946744 0.906123 0.899550
Si Si4 0.764897 0.298727 0.631906
Si Si5 0.738765 0.840473 0.478214
Si Si6 0.500000 0.304170 0.000000
O O1 0.307461 0.233574 0.251988
O O2 0.117489 0.369243 0.217461
O O3 0.154616 0.342218 0.314280
O O4 0.085521 0.500000 0.170840
O O5 0.319758 0.379564 0.131777
O O6 0.819269 0.378624 0.131404
O O7 0.950653 0.000000 0.910344
O O8 0.975647 0.861150 0.952083
O O9 0.464593 0.274547 0.629618
O O10 0.797077 0.350704 0.582449
O O11 0.500000 0.884789 0.500000
O O12 0.750000 0.750000 0.500000
O O13 0.000000 0.884799 0.500000
O O14 0.250000 0.250000 0.000000
#
# Coordination Sequence:
#
# PCOD8078036 Si02
#       6
#     8   8   8   8   8   4
#     4  10  21  32  49  73 104 133 162 212 265 306
#     4  10  21  38  58  78 100 139 182 213 247 304
#     4  10  22  40  60  78 106 141 177 212 250 301
#     4  10  16  25  36  58  89 122 154 194 246 302
#     4  10  14  20  34  52  78 120 153 188 234 289
#     4  12  25  38  57  90 116 140 166 214 259 308
#
# _framework density 19.02234
#
# number of rings (size 3 to 8) (size 9 to 14) (size 15 to 20)
#    0.000    1.818    3.636    2.455    0.000    4.364 
#    0.000    3.636    0.000    0.000    0.000    0.000 
#    0.000    1.455    0.000    0.000    0.000    7.273 
#
# Total GULP energy -272672.462474 kJ/mol
# GULP energy per Si atom -12394.202840 kJ/mol
# Density = 1.897904 g / cm^3
# Si number density = 19.022340 Si / 1000 Ang^3
#
#
#
# Elastic Constant Matrix: (Units=GPa)
#
#
# Indices 1 2 3 4 5 6 
#
# 1 163.2201 20.4889 65.7171 0.0000 -1.8027 0.0000
# 2 20.4889 22.7674 46.7681 0.0000 -1.1578 0.0000
# 3 65.7171 46.7681 212.0707 0.0000 -5.1854 0.0000
# 4 0.0000 0.0000 0.0000 -3.1714 0.0000 2.8309
# 5 -1.8027 -1.1578 -5.1854 0.0000 32.0352 0.0000
# 6 0.0000 0.0000 0.0000 2.8309 0.0000 1.5415
#
#
#
# Elastic Compliance Matrix: (Units=1/GPa)
#
#
# Indices 1 2 3 4 5 6 
#
# 1 0.007145 -0.003440 -0.001454 0.000000 0.000042 0.000000
# 2 -0.003440 0.081954 -0.017007 0.000000 0.000016 0.000000
# 3 -0.001454 -0.017007 0.008935 0.000000 0.000750 0.000000
# 4 0.000000 0.000000 0.000000 -0.119475 0.000000 0.219404
# 5 0.000042 0.000016 0.000750 0.000000 0.031340 0.000000
# 6 0.000000 0.000000 0.000000 0.219404 0.000000 0.245793
#
#
# Mechanical properties :
#
#
# Convention : Reuss Voigt Hill
#
# Bulk Modulus (GPa) = 18.43961 73.77849 46.10905
# Shear Modulus (GPa) = 15.74450 23.75334 19.74892
#
# Velocity S-wave (km/s) = 2.88007 3.53754 3.22560
# Velocity P-wave (km/s) = 4.55790 7.45352 6.17776
#
# Compressibility (1/GPa) = 0.05423109
#
# Stress axis : x y z
#
# Youngs Moduli (GPa) = 139.96731 12.20194 111.91949
#
# Poissons Ratio (x) = 0.04197 0.16277
# Poissons Ratio (y) = 0.48148 1.90342
# Poissons Ratio (z) = 0.20356 0.20752
#
# Static dielectric constant tensor:
#      x y z
#    x 5.116170 0.000000 0.006580 
#    y 0.000000 2.719460 0.000000 
#    z 0.006580 0.000000 3.809970 
# 
# 
# High freq. dielectric constant tensor:
#      x y z
#    x 1.774480 0.000000 -0.001270 
#    y 0.000000 1.667390 0.000000 
#    z -0.001270 0.000000 1.764600 
# 
# From -- ./inp_files/297616.got.cif
#   From: 2010.06.25/outbox.cif.g09.slc.cpg/sg12_149_cif.got.tgz:297616.got - 2010.06.28 00:19:55.
