data_PCOD8078992
_publ_section_title
;
Structure prediction by ZEFSAII (Michael W. Deem and Ramdas Pophale) SiO2 
 PCOD8078992
Probable space group: C 2/M
;
_chemical_formula_sum "Si O2"
_cell_formula_units_Z 48
_cell_length_a 24.578211
_cell_length_b 8.778080
_cell_length_c 21.903651
_cell_angle_alpha 90.000000
_cell_angle_beta 142.568840
_cell_angle_gamma 90.000000
_cell_volume 2872.318360
_symmetry_space_group_name_H-M "C 2/M"
_symmetry_group_IT_number 12
_symmetry_cell_setting 'monoclinic'
loop_
_space_group_symop_operation_xyz
x,y,z
-x,y,-z
-x,-y,-z
x,-y,z
1/2+x,1/2+y,z
1/2-x,1/2+y,-z
1/2-x,1/2-y,-z
1/2+x,1/2-y,z
loop_
_atom_site_type_symbol
_atom_site_label
_atom_site_fract_x
_atom_site_fract_y
_atom_site_fract_z
Si Si1 0.351302 0.824094 0.646257
Si Si2 0.879400 0.180437 0.223684
Si Si3 0.325251 0.177972 0.484929
Si Si4 0.981236 0.179771 0.550832
Si Si5 0.948721 0.322084 0.161896
Si Si6 0.213384 0.181220 0.030240
O O1 0.355561 0.769709 0.579572
O O2 0.277584 0.728301 0.617631
O O3 0.447645 0.796317 0.763263
O O4 0.323022 0.000000 0.623527
O O5 0.930130 0.241070 0.209445
O O6 0.780556 0.257025 0.142415
O O7 0.936650 0.231473 0.333164
O O8 0.868512 0.000000 0.209015
O O9 0.387376 0.256068 0.490359
O O10 0.334357 0.000000 0.484004
O O11 0.000000 0.244087 0.500000
O O12 0.972317 0.000000 0.542346
O O13 0.925959 0.500000 0.148639
O O14 0.887792 0.247102 0.053840
O O15 0.211769 0.000000 0.028199
O O16 0.250000 0.250000 0.000000
#
# Coordination Sequence:
#
# PCOD8078992 Si02
#       6
#     8   8   8   8   8   8
#     4   9  18  30  46  68  96 127 154 188 234 282
#     4  10  18  29  45  64  90 123 157 193 233 274
#     4  10  19  31  47  69  94 123 159 196 234 277
#     4  10  21  35  50  68  93 127 164 199 235 277
#     4  10  17  28  45  67  95 123 154 187 229 280
#     4  10  18  27  41  63  92 122 153 187 230 280
#
# _framework density 16.711238999999999
#
# number of rings (size 3 to 8) (size 9 to 14) (size 15 to 20)
#    0.000    2.167    1.667    5.000    0.000    3.000 
#    0.000    0.000    0.000    0.000    0.000    1.167 
#    0.000    9.333    0.000    0.000    0.000    0.000 
#
# Total GULP energy -297536.533177 kJ/mol
# GULP energy per Si atom -12397.355549 kJ/mol
# Density = 1.667320 g / cm^3
# Si number density = 16.711239 Si / 1000 Ang^3
#
#
#
# Elastic Constant Matrix: (Units=GPa)
#
#
# Indices 1 2 3 4 5 6 
#
# 1 78.7285 13.6504 49.0433 0.0000 9.9818 0.0000
# 2 13.6504 45.6579 34.8288 0.0000 5.7996 0.0000
# 3 49.0433 34.8288 116.3669 0.0000 21.7911 0.0000
# 4 0.0000 0.0000 0.0000 25.5426 0.0000 7.6848
# 5 9.9818 5.7996 21.7911 0.0000 23.0933 0.0000
# 6 0.0000 0.0000 0.0000 7.6848 0.0000 20.7095
#
#
#
# Elastic Compliance Matrix: (Units=1/GPa)
#
#
# Indices 1 2 3 4 5 6 
#
# 1 0.017242 0.000489 -0.007281 0.000000 -0.000705 0.000000
# 2 0.000489 0.028418 -0.008910 0.000000 0.001060 0.000000
# 3 -0.007281 -0.008910 0.016180 0.000000 -0.009882 0.000000
# 4 0.000000 0.000000 0.000000 0.044070 0.000000 -0.016353
# 5 -0.000705 0.001060 -0.009882 0.000000 0.052666 0.000000
# 6 0.000000 0.000000 0.000000 -0.016353 0.000000 0.054355
#
#
# Mechanical properties :
#
#
# Convention : Reuss Voigt Hill
#
# Bulk Modulus (GPa) = 32.85667 48.42204 40.63936
# Shear Modulus (GPa) = 19.64780 23.41781 21.53280
#
# Velocity S-wave (km/s) = 3.43260 3.74748 3.59349
# Velocity P-wave (km/s) = 5.95100 6.91111 6.44895
#
# Compressibility (1/GPa) = 0.03043522
#
# Stress axis : x y z
#
# Youngs Moduli (GPa) = 57.99716 35.18897 61.80647
#
# Poissons Ratio (x) = -0.01720 0.45002
# Poissons Ratio (y) = -0.02835 0.55069
# Poissons Ratio (z) = 0.42228 0.31353
#
# Static dielectric constant tensor:
#      x y z
#    x 2.834500 0.000000 0.307800 
#    y 0.000000 3.178410 0.000000 
#    z 0.307800 0.000000 3.830110 
# 
# 
# High freq. dielectric constant tensor:
#      x y z
#    x 1.591880 0.000000 0.035980 
#    y 0.000000 1.656290 0.000000 
#    z 0.035980 0.000000 1.648000 
# 
# From -- ./inp_files/323854.got.cif
#   From: 2010.06.25/outbox.cif.g09.slc.cpg/sg12_162_cif.got.tgz:323854.got - 2010.06.28 00:19:55.
