data_PCOD8078405
_publ_section_title
;
Structure prediction by ZEFSAII (Michael W. Deem and Ramdas Pophale) SiO2 
 PCOD8078405
Probable space group: C 2/M
;
_chemical_formula_sum "Si O2"
_cell_formula_units_Z 40
_cell_length_a 10.364288
_cell_length_b 25.089939
_cell_length_c 9.472280
_cell_angle_alpha 90.000000
_cell_angle_beta 108.276189
_cell_angle_gamma 90.000000
_cell_volume 2338.913361
_symmetry_space_group_name_H-M "C 2/M"
_symmetry_group_IT_number 12
_symmetry_cell_setting 'monoclinic'
loop_
_space_group_symop_operation_xyz
x,y,z
-x,y,-z
-x,-y,-z
x,-y,z
1/2+x,1/2+y,z
1/2-x,1/2+y,-z
1/2-x,1/2-y,-z
1/2+x,1/2-y,z
loop_
_atom_site_type_symbol
_atom_site_label
_atom_site_fract_x
_atom_site_fract_y
_atom_site_fract_z
Si Si1 0.899242 0.112707 0.683181
Si Si2 0.154067 0.807775 0.098466
Si Si3 0.191968 0.113974 0.655405
Si Si4 0.155814 0.686547 0.092099
Si Si5 0.454839 0.500000 0.821338
Si Si6 0.139424 0.000000 0.644635
O O1 0.827679 0.129318 0.513230
O O2 0.059620 0.120674 0.709752
O O3 0.873373 0.053349 0.740790
O O4 0.829175 0.154828 0.761795
O O5 0.190390 0.746926 0.150472
O O6 0.253291 0.829326 0.010942
O O7 0.000000 0.812302 0.000000
O O8 0.312215 0.148304 0.764717
O O9 0.231543 0.051654 0.653456
O O10 0.000000 0.678833 0.000000
O O11 0.598675 0.500000 0.793786
O O12 0.500000 0.500000 0.000000
O O13 0.000000 0.000000 0.500000
#
# Coordination Sequence:
#
# PCOD8078405 Si02
#       6
#     8   8   8   8   4   4
#     4  10  18  31  54  83 108 135 178 227 273 308
#     4  10  19  35  56  78 104 140 190 231 258 307
#     4  10  18  33  54  79 114 139 173 225 276 317
#     4  10  22  36  52  76 111 148 177 219 275 323
#     4  10  18  26  48  87 114 124 167 234 278 301
#     4  10  16  32  51  83 112 135 170 223 275 312
#
# _framework density 17.101959000000001
#
# number of rings (size 3 to 8) (size 9 to 14) (size 15 to 20)
#    0.000    2.000    6.000    0.600    2.800    0.800 
#    0.000    1.500    0.000    0.000    0.000    2.800 
#    0.000    0.000    0.000    0.000    0.000    0.000 
#
# Total GULP energy -247770.703324 kJ/mol
# GULP energy per Si atom -12388.535166 kJ/mol
# Density = 1.706303 g / cm^3
# Si number density = 17.101959 Si / 1000 Ang^3
#
#
#
# Elastic Constant Matrix: (Units=GPa)
#
#
# Indices 1 2 3 4 5 6 
#
# 1 62.9296 31.8482 35.1425 0.0000 -11.4127 0.0000
# 2 31.8482 113.9332 69.0339 0.0000 -4.9908 0.0000
# 3 35.1425 69.0339 110.1543 0.0000 -8.5701 0.0000
# 4 0.0000 0.0000 0.0000 35.5581 0.0000 -2.7945
# 5 -11.4127 -4.9908 -8.5701 0.0000 25.5515 0.0000
# 6 0.0000 0.0000 0.0000 -2.7945 0.0000 24.1088
#
#
#
# Elastic Compliance Matrix: (Units=1/GPa)
#
#
# Indices 1 2 3 4 5 6 
#
# 1 0.021147 -0.002980 -0.004302 0.000000 0.007421 0.000000
# 2 -0.002980 0.014571 -0.008279 0.000000 -0.001262 0.000000
# 3 -0.004302 -0.008279 0.015776 0.000000 0.001753 0.000000
# 4 0.000000 0.000000 0.000000 0.028382 0.000000 0.003290
# 5 0.007421 -0.001262 0.001753 0.000000 0.042792 0.000000
# 6 0.000000 0.000000 0.000000 0.003290 0.000000 0.041860
#
#
# Mechanical properties :
#
#
# Convention : Reuss Voigt Hill
#
# Bulk Modulus (GPa) = 49.08689 62.11848 55.60268
# Shear Modulus (GPa) = 24.69863 27.10985 25.90424
#
# Velocity S-wave (km/s) = 3.80438 3.98576 3.89613
# Velocity P-wave (km/s) = 6.93272 7.58835 7.26793
#
# Compressibility (1/GPa) = 0.02037204
#
# Stress axis : x y z
#
# Youngs Moduli (GPa) = 47.28841 68.62753 63.38866
#
# Poissons Ratio (x) = 0.20449 0.27268
# Poissons Ratio (y) = 0.14091 0.52483
# Poissons Ratio (z) = 0.20342 0.56820
#
# Static dielectric constant tensor:
#      x y z
#    x 2.571240 0.000000 0.038320 
#    y 0.000000 3.480000 0.000000 
#    z 0.038320 0.000000 2.980720 
# 
# 
# High freq. dielectric constant tensor:
#      x y z
#    x 1.618390 0.000000 -0.024710 
#    y 0.000000 1.672470 0.000000 
#    z -0.024710 0.000000 1.660960 
# 
# From -- ./inp_files/52115.got.cif
#   From: 2010.06.25/outbox.cif.g09.slc.cpg/sg12_27_cif.got.tgz:52115.got - 2010.06.28 00:19:55.
