data_PCOD8078056
_publ_section_title
;
Structure prediction by ZEFSAII (Michael W. Deem and Ramdas Pophale) SiO2 
 PCOD8078056
Probable space group: C 2/M
;
_chemical_formula_sum "Si O2"
_cell_formula_units_Z 56
_cell_length_a 20.807228
_cell_length_b 32.974750
_cell_length_c 9.016866
_cell_angle_alpha 90.000000
_cell_angle_beta 151.070117
_cell_angle_gamma 90.000000
_cell_volume 2992.694502
_symmetry_space_group_name_H-M "C 2/M"
_symmetry_group_IT_number 12
_symmetry_cell_setting 'monoclinic'
loop_
_space_group_symop_operation_xyz
x,y,z
-x,y,-z
-x,-y,-z
x,-y,z
1/2+x,1/2+y,z
1/2-x,1/2+y,-z
1/2-x,1/2-y,-z
1/2+x,1/2-y,z
loop_
_atom_site_type_symbol
_atom_site_label
_atom_site_fract_x
_atom_site_fract_y
_atom_site_fract_z
Si Si1 0.408626 0.000000 0.960383
Si Si2 0.758452 0.365657 0.671932
Si Si3 0.288099 0.412383 0.724034
Si Si4 0.501974 0.916491 0.826835
Si Si5 0.498187 0.730678 0.668429
Si Si6 0.767645 0.272334 0.689658
Si Si7 0.152604 0.000000 0.261799
Si Si8 0.999694 0.862527 0.668474
O O1 0.251948 0.000000 0.603530
O O2 0.500000 0.000000 0.000000
O O3 0.444538 0.959747 0.127351
O O4 0.714920 0.392581 0.444426
O O5 0.776428 0.319233 0.662432
O O6 0.648452 0.370076 0.575108
O O7 0.897426 0.381379 0.022259
O O8 0.318787 0.460102 0.777273
O O9 0.147878 0.406728 0.527733
O O10 0.400568 0.390905 0.043713
O O11 0.500000 0.918608 0.000000
O O12 0.500000 0.743629 0.500000
O O13 0.351882 0.737275 0.439227
O O14 0.543900 0.684100 0.779169
O O15 0.597160 0.759103 0.958725
O O16 0.750000 0.250000 0.500000
O O17 0.000000 0.000000 0.000000
O O18 0.000000 0.875752 0.500000
#
# Coordination Sequence:
#
# PCOD8078056 Si02
#       8
#     4   8   8   8   8   8   4   8
#     4  10  14  32  48  77 118 137 171 224 273 320
#     4  10  20  35  55  83 108 139 180 226 281 333
#     4  11  20  34  56  83 112 141 184 229 275 330
#     4   9  17  30  52  79 109 135 171 220 272 317
#     4  10  22  40  58  77 109 155 192 225 281 351
#     4  11  22  35  56  85 113 139 184 242 289 330
#     4  12  20  28  53  89 112 146 186 224 273 333
#     4  10  22  39  55  75 110 150 185 227 275 326
#
# _framework density 18.712233000000001
#
# number of rings (size 3 to 8) (size 9 to 14) (size 15 to 20)
#    0.000    1.714    4.286    3.000    0.000    6.857 
#    0.000    1.071    0.000    0.000    0.000    2.000 
#    0.000    0.000    0.000    0.000    0.000    0.000 
#
# Total GULP energy -347179.010412 kJ/mol
# GULP energy per Si atom -12399.250372 kJ/mol
# Density = 1.866964 g / cm^3
# Si number density = 18.712233 Si / 1000 Ang^3
#
#
#
# Elastic Constant Matrix: (Units=GPa)
#
#
# Indices 1 2 3 4 5 6 
#
# 1 83.2797 44.8694 38.6620 0.0000 10.5469 0.0000
# 2 44.8694 109.3168 39.4599 0.0000 11.1595 0.0000
# 3 38.6620 39.4599 73.1273 0.0000 24.0442 0.0000
# 4 0.0000 0.0000 0.0000 31.5185 0.0000 10.6424
# 5 10.5469 11.1595 24.0442 0.0000 32.0403 0.0000
# 6 0.0000 0.0000 0.0000 10.6424 0.0000 16.7477
#
#
#
# Elastic Compliance Matrix: (Units=1/GPa)
#
#
# Indices 1 2 3 4 5 6 
#
# 1 0.017801 -0.004830 -0.007211 0.000000 0.001234 0.000000
# 2 -0.004830 0.012688 -0.004465 0.000000 0.000521 0.000000
# 3 -0.007211 -0.004465 0.024699 0.000000 -0.014606 0.000000
# 4 0.000000 0.000000 0.000000 0.040395 0.000000 -0.025669
# 5 0.001234 0.000521 -0.014606 0.000000 0.041584 0.000000
# 6 0.000000 0.000000 0.000000 -0.025669 0.000000 0.076021
#
#
# Mechanical properties :
#
#
# Convention : Reuss Voigt Hill
#
# Bulk Modulus (GPa) = 45.08963 56.85628 50.97295
# Shear Modulus (GPa) = 19.71672 25.57680 22.64676
#
# Velocity S-wave (km/s) = 3.24957 3.70110 3.48266
# Velocity P-wave (km/s) = 6.18290 6.97959 6.59329
#
# Compressibility (1/GPa) = 0.02217805
#
# Stress axis : x y z
#
# Youngs Moduli (GPa) = 56.17592 78.81173 40.48762
#
# Poissons Ratio (x) = 0.38063 0.29196
# Poissons Ratio (y) = 0.27131 0.18076
# Poissons Ratio (z) = 0.40509 0.35187
#
# Static dielectric constant tensor:
#      x y z
#    x 3.311420 0.000000 0.349830 
#    y 0.000000 3.779900 0.000000 
#    z 0.349830 0.000000 3.614070 
# 
# 
# High freq. dielectric constant tensor:
#      x y z
#    x 1.703090 0.000000 0.031180 
#    y 0.000000 1.741890 0.000000 
#    z 0.031180 0.000000 1.725500 
# 
# From -- ./inp_files/91669.got.cif
#   From: 2010.06.25/outbox.cif.g09.slc.cpg/sg12_46_cif.got.tgz:91669.got - 2010.06.28 00:19:55.
