data_PCOD8078467
_publ_section_title
;
Structure prediction by ZEFSAII (Michael W. Deem and Ramdas Pophale) SiO2 
 PCOD8078467
Probable space group: C 2/M
;
_chemical_formula_sum "Si O2"
_cell_formula_units_Z 64
_cell_length_a 24.226035
_cell_length_b 8.989672
_cell_length_c 18.488205
_cell_angle_alpha 90.000000
_cell_angle_beta 99.656470
_cell_angle_gamma 90.000000
_cell_volume 3969.387432
_symmetry_space_group_name_H-M "C 2/M"
_symmetry_group_IT_number 12
_symmetry_cell_setting 'monoclinic'
loop_
_space_group_symop_operation_xyz
x,y,z
-x,y,-z
-x,-y,-z
x,-y,z
1/2+x,1/2+y,z
1/2-x,1/2+y,-z
1/2-x,1/2-y,-z
1/2+x,1/2-y,z
loop_
_atom_site_type_symbol
_atom_site_label
_atom_site_fract_x
_atom_site_fract_y
_atom_site_fract_z
Si Si1 0.608040 0.673594 0.617458
Si Si2 0.949705 0.332298 0.183050
Si Si3 0.273780 0.326848 0.114191
Si Si4 0.495887 0.828103 0.338413
Si Si5 0.333996 0.173064 0.996267
Si Si6 0.335807 0.171420 0.246443
Si Si7 0.446171 0.326042 0.034173
Si Si8 0.562356 0.834884 0.481547
O O1 0.619687 0.500000 0.622864
O O2 0.549328 0.713341 0.641148
O O3 0.657315 0.755980 0.672620
O O4 0.605112 0.725247 0.532464
O O5 0.951784 0.500000 0.152432
O O6 0.891757 0.304657 0.212033
O O7 0.000127 0.305875 0.252481
O O8 0.956625 0.217753 0.119621
O O9 0.288374 0.500000 0.120788
O O10 0.209116 0.298921 0.078699
O O11 0.284584 0.252320 0.194208
O O12 0.314331 0.253736 0.064406
O O13 0.554784 0.797553 0.393598
O O14 0.476130 0.000000 0.349432
O O15 0.393987 0.238816 0.987474
O O16 0.339480 0.000000 0.016114
O O17 0.320490 0.000000 0.253048
O O18 0.433761 0.500000 0.027128
O O19 0.500000 0.280167 0.000000
O O20 0.500000 0.823852 0.500000
O O21 0.586896 0.000000 0.496868
#
# Coordination Sequence:
#
# PCOD8078467 Si02
#       8
#     8   8   8   8   8   8   8   8
#     4  10  17  22  32  52  78 106 138 173 207 244
#     4   9  17  29  44  61  79 104 143 182 217 262
#     4  10  19  30  47  68  89 110 139 180 220 258
#     4   8  15  26  38  51  71 101 136 174 212 252
#     4  10  20  33  48  67  87 112 142 175 219 268
#     4  10  18  28  42  60  83 112 144 175 213 256
#     4  11  23  35  47  64  87 115 147 186 227 262
#     4   8  13  23  35  47  69 102 136 169 206 247
#
# _framework density 16.123394000000001
#
# number of rings (size 3 to 8) (size 9 to 14) (size 15 to 20)
#    0.000    2.500    1.250    4.125    0.000    6.750 
#    0.000    0.000    0.000    0.000    0.000    0.000 
#    0.000    0.000    0.000    1.125    0.000   14.375 
#
# Total GULP energy -396588.926472 kJ/mol
# GULP energy per Si atom -12393.403952 kJ/mol
# Density = 1.608670 g / cm^3
# Si number density = 16.123394 Si / 1000 Ang^3
#
#
#
# Elastic Constant Matrix: (Units=GPa)
#
#
# Indices 1 2 3 4 5 6 
#
# 1 52.4240 37.1791 37.9616 0.0000 15.4717 0.0000
# 2 37.1791 104.2884 47.8767 0.0000 21.6240 0.0000
# 3 37.9616 47.8767 106.7734 0.0000 39.1801 0.0000
# 4 0.0000 0.0000 0.0000 28.1990 0.0000 7.0098
# 5 15.4717 21.6240 39.1801 0.0000 23.5093 0.0000
# 6 0.0000 0.0000 0.0000 7.0098 0.0000 17.0443
#
#
#
# Elastic Compliance Matrix: (Units=1/GPa)
#
#
# Indices 1 2 3 4 5 6 
#
# 1 0.029423 -0.007072 -0.006620 0.000000 -0.001827 0.000000
# 2 -0.007072 0.014042 -0.001932 0.000000 -0.005042 0.000000
# 3 -0.006620 -0.001932 0.026605 0.000000 -0.038205 0.000000
# 4 0.000000 0.000000 0.000000 0.039501 0.000000 -0.016245
# 5 -0.001827 -0.005042 -0.038205 0.000000 0.112049 0.000000
# 6 0.000000 0.000000 0.000000 -0.016245 0.000000 0.065352
#
#
# Mechanical properties :
#
#
# Convention : Reuss Voigt Hill
#
# Bulk Modulus (GPa) = 25.75760 56.61340 41.18550
# Shear Modulus (GPa) = 15.09848 23.11509 19.10679
#
# Velocity S-wave (km/s) = 3.06344 3.79045 3.44617
# Velocity P-wave (km/s) = 5.34068 7.37194 6.43694
#
# Compressibility (1/GPa) = 0.03882350
#
# Stress axis : x y z
#
# Youngs Moduli (GPa) = 33.98697 71.21317 37.58730
#
# Poissons Ratio (x) = 0.50360 0.24882
# Poissons Ratio (y) = 0.24034 0.07262
# Poissons Ratio (z) = 0.22498 0.13758
#
# Static dielectric constant tensor:
#      x y z
#    x 2.592560 0.000000 0.465890 
#    y 0.000000 3.076130 0.000000 
#    z 0.465890 0.000000 3.526650 
# 
# 
# High freq. dielectric constant tensor:
#      x y z
#    x 1.543820 0.000000 0.046050 
#    y 0.000000 1.629810 0.000000 
#    z 0.046050 0.000000 1.629250 
# 
# From -- ./inp_files/287702.got.cif
#   From: 2010.06.25/outbox.cif.g09.slc.cpg/sg12_144_cif.got.tgz:287702.got - 2010.06.28 00:19:55.
