data_PCOD8078282
_publ_section_title
;
Structure prediction by ZEFSAII (Michael W. Deem and Ramdas Pophale) SiO2 
 PCOD8078282
Probable space group: C 2/M
;
_chemical_formula_sum "Si O2"
_cell_formula_units_Z 52
_cell_length_a 16.293371
_cell_length_b 24.085846
_cell_length_c 13.680678
_cell_angle_alpha 90.000000
_cell_angle_beta 146.892590
_cell_angle_gamma 90.000000
_cell_volume 2932.515771
_symmetry_space_group_name_H-M "C 2/M"
_symmetry_group_IT_number 12
_symmetry_cell_setting 'monoclinic'
loop_
_space_group_symop_operation_xyz
x,y,z
-x,y,-z
-x,-y,-z
x,-y,z
1/2+x,1/2+y,z
1/2-x,1/2+y,-z
1/2-x,1/2-y,-z
1/2+x,1/2-y,z
loop_
_atom_site_type_symbol
_atom_site_label
_atom_site_fract_x
_atom_site_fract_y
_atom_site_fract_z
Si Si1 0.648842 0.065434 0.863125
Si Si2 0.849593 0.938452 0.886683
Si Si3 0.000000 0.719813 0.000000
Si Si4 0.287598 0.779257 0.344131
Si Si5 0.889592 0.603846 0.477055
Si Si6 0.579163 0.245779 0.725997
Si Si7 0.170514 0.328122 0.992313
O O1 0.769862 0.086627 0.903083
O O2 0.478954 0.077301 0.656739
O O3 0.679146 0.105178 0.986062
O O4 0.665056 0.000000 0.905458
O O5 0.730884 0.941273 0.679514
O O6 0.899307 0.000000 0.965613
O O7 0.000000 0.905614 0.000000
O O8 0.882807 0.756877 0.819755
O O9 0.089914 0.680976 0.015183
O O10 0.298673 0.839229 0.408161
O O11 0.330495 0.783243 0.272494
O O12 0.407928 0.740187 0.522065
O O13 0.000000 0.619600 0.500000
O O14 0.577900 0.201171 0.812603
O O15 0.660891 0.302873 0.838028
#
# Coordination Sequence:
#
# PCOD8078282 Si02
#       7
#     8   8   4   8   8   8   8
#     4  10  19  33  53  72  99 141 178 207 248 309
#     4   9  18  30  45  72 105 133 166 207 249 300
#     4  10  24  32  51  74 109 126 184 222 264 282
#     4  10  17  33  49  80 100 137 160 212 254 329
#     4  10  16  28  48  72 106 135 166 191 250 320
#     4   9  17  32  56  68 106 135 168 197 269 312
#     4  10  19  36  50  76 101 139 174 221 250 313
#
# _framework density 17.732215
#
# number of rings (size 3 to 8) (size 9 to 14) (size 15 to 20)
#    0.000    2.308    3.077    1.385    1.077    2.462 
#    0.000    0.385    0.000    0.000    0.000    8.615 
#    0.000    0.000    0.000    0.000    0.000    0.000 
#
# Total GULP energy -322129.235290 kJ/mol
# GULP energy per Si atom -12389.585973 kJ/mol
# Density = 1.769186 g / cm^3
# Si number density = 17.732215 Si / 1000 Ang^3
#
#
#
# Elastic Constant Matrix: (Units=GPa)
#
#
# Indices 1 2 3 4 5 6 
#
# 1 53.2656 29.5533 27.4865 0.0000 4.6035 0.0000
# 2 29.5533 105.3891 38.9407 0.0000 0.1236 0.0000
# 3 27.4865 38.9407 94.5208 0.0000 11.7724 0.0000
# 4 0.0000 0.0000 0.0000 26.0415 0.0000 -5.1071
# 5 4.6035 0.1236 11.7724 0.0000 25.6373 0.0000
# 6 0.0000 0.0000 0.0000 -5.1071 0.0000 16.6389
#
#
#
# Elastic Compliance Matrix: (Units=1/GPa)
#
#
# Indices 1 2 3 4 5 6 
#
# 1 0.024177 -0.005048 -0.004681 0.000000 -0.002167 0.000000
# 2 -0.005048 0.012363 -0.003957 0.000000 0.002664 0.000000
# 3 -0.004681 -0.003957 0.014281 0.000000 -0.005698 0.000000
# 4 0.000000 0.000000 0.000000 0.040860 0.000000 0.012542
# 5 -0.002167 0.002664 -0.005698 0.000000 0.041998 0.000000
# 6 0.000000 0.000000 0.000000 0.012542 0.000000 0.063950
#
#
# Mechanical properties :
#
#
# Convention : Reuss Voigt Hill
#
# Bulk Modulus (GPa) = 42.64546 49.45960 46.05253
# Shear Modulus (GPa) = 21.47595 24.14319 22.80957
#
# Velocity S-wave (km/s) = 3.48390 3.69391 3.59044
# Velocity P-wave (km/s) = 6.34707 6.79311 6.57388
#
# Compressibility (1/GPa) = 0.02344916
#
# Stress axis : x y z
#
# Youngs Moduli (GPa) = 41.36092 80.88520 70.02299
#
# Poissons Ratio (x) = 0.40828 0.32780
# Poissons Ratio (y) = 0.20877 0.27711
# Poissons Ratio (z) = 0.19362 0.32009
#
# Static dielectric constant tensor:
#      x y z
#    x 3.062130 0.000000 0.166760 
#    y 0.000000 3.105180 0.000000 
#    z 0.166760 0.000000 3.579610 
# 
# 
# High freq. dielectric constant tensor:
#      x y z
#    x 1.648740 0.000000 0.012140 
#    y 0.000000 1.664700 0.000000 
#    z 0.012140 0.000000 1.691120 
# 
# From -- ./inp_files/227919.got.cif
#   From: 2010.06.25/outbox.cif.g09.slc.cpg/sg12_114_cif.got.tgz:227919.got - 2010.06.28 00:19:55.
