data_PCOD8078273
_publ_section_title
;
Structure prediction by ZEFSAII (Michael W. Deem and Ramdas Pophale) SiO2 
 PCOD8078273
Probable space group: C 2/M
;
_chemical_formula_sum "Si O2"
_cell_formula_units_Z 64
_cell_length_a 21.405229
_cell_length_b 18.891528
_cell_length_c 18.778552
_cell_angle_alpha 90.000000
_cell_angle_beta 151.631679
_cell_angle_gamma 90.000000
_cell_volume 3608.017427
_symmetry_space_group_name_H-M "C 2/M"
_symmetry_group_IT_number 12
_symmetry_cell_setting 'monoclinic'
loop_
_space_group_symop_operation_xyz
x,y,z
-x,y,-z
-x,-y,-z
x,-y,z
1/2+x,1/2+y,z
1/2-x,1/2+y,-z
1/2-x,1/2-y,-z
1/2+x,1/2-y,z
loop_
_atom_site_type_symbol
_atom_site_label
_atom_site_fract_x
_atom_site_fract_y
_atom_site_fract_z
Si Si1 0.374953 0.176659 0.329531
Si Si2 0.883672 0.332345 0.175538
Si Si3 0.373869 0.335468 0.828161
Si Si4 0.973244 0.825327 0.399939
Si Si5 0.838066 0.645054 0.580792
Si Si6 0.266695 0.269961 0.405751
Si Si7 0.889707 0.836216 0.166708
Si Si8 0.593903 0.420178 0.275752
O O1 0.500000 0.148913 0.500000
O O2 0.373579 0.146077 0.248132
O O3 0.247024 0.146799 0.241133
O O4 0.374094 0.262024 0.322737
O O5 0.904018 0.248468 0.183560
O O6 0.007719 0.375557 0.267506
O O7 0.753552 0.359174 0.004180
O O8 0.345971 0.265587 0.754315
O O9 0.403926 0.400870 0.805568
O O10 0.500000 0.317304 0.000000
O O11 0.914139 0.866776 0.272045
O O12 0.000000 0.871339 0.500000
O O13 0.112560 0.791200 0.521505
O O14 0.796752 0.661659 0.620400
O O15 0.823455 0.715232 0.519368
O O16 0.742873 0.584048 0.455288
O O17 0.000478 0.866699 0.225483
O O18 0.541947 0.500000 0.232284
#
# Coordination Sequence:
#
# PCOD8078273 Si02
#       8
#     8   8   8   8   8   8   8   8
#     4  10  16  28  46  71 103 139 163 205 271 337
#     4  10  18  30  54  84 106 130 169 232 304 335
#     4  11  21  31  49  78 111 141 178 224 273 325
#     4  10  16  29  49  77 106 136 157 206 281 357
#     4  10  17  31  53  74 102 132 184 230 265 313
#     4  10  16  29  50  78 105 137 163 217 285 335
#     4  10  19  33  53  80 108 136 176 229 286 339
#     4  11  23  38  54  71 104 160 206 223 248 310
#
# _framework density 17.738274000000001
#
# number of rings (size 3 to 8) (size 9 to 14) (size 15 to 20)
#    0.000    1.750    6.250    3.000    0.000    2.250 
#    0.000    0.625    0.000    3.750    0.000    0.000 
#    0.000    1.500    0.000    0.000    0.000    0.000 
#
# Total GULP energy -396580.148381 kJ/mol
# GULP energy per Si atom -12393.129637 kJ/mol
# Density = 1.769790 g / cm^3
# Si number density = 17.738274 Si / 1000 Ang^3
#
#
#
# Elastic Constant Matrix: (Units=GPa)
#
#
# Indices 1 2 3 4 5 6 
#
# 1 105.0273 29.3046 40.0323 0.0015 -0.6339 0.0007
# 2 29.3046 25.5724 17.9587 0.0011 -4.1741 0.0008
# 3 40.0323 17.9587 144.5206 0.0016 0.0267 0.0011
# 4 0.0015 0.0011 0.0016 6.4839 0.0012 1.7580
# 5 -0.6339 -4.1741 0.0267 0.0012 31.8500 0.0008
# 6 0.0007 0.0008 0.0011 1.7580 0.0008 7.6924
#
#
#
# Elastic Compliance Matrix: (Units=1/GPa)
#
#
# Indices 1 2 3 4 5 6 
#
# 1 0.014677 -0.015613 -0.002125 0.000000 -0.001752 0.000001
# 2 -0.015613 0.060481 -0.003192 -0.000006 0.007618 -0.000004
# 3 -0.002125 -0.003192 0.007905 -0.000001 -0.000467 0.000000
# 4 0.000000 -0.000006 -0.000001 0.164416 -0.000006 -0.037575
# 5 -0.001752 0.007618 -0.000467 -0.000006 0.032361 -0.000003
# 6 0.000001 -0.000004 0.000000 -0.037575 -0.000003 0.138585
#
#
# Mechanical properties :
#
#
# Convention : Reuss Voigt Hill
#
# Bulk Modulus (GPa) = 24.27010 49.96794 37.11902
# Shear Modulus (GPa) = 10.54807 21.72691 16.13749
#
# Velocity S-wave (km/s) = 2.44119 3.50360 3.01949
# Velocity P-wave (km/s) = 4.65381 6.67815 5.75567
#
# Compressibility (1/GPa) = 0.04120296
#
# Stress axis : x y z
#
# Youngs Moduli (GPa) = 68.13382 16.53403 126.50435
#
# Poissons Ratio (x) = 0.25814 0.26884
# Poissons Ratio (y) = 1.06375 0.40385
# Poissons Ratio (z) = 0.14479 0.05278
#
# Static dielectric constant tensor:
#      x y z
#    x 3.646730 0.000000 -0.100950 
#    y 0.000000 2.622000 0.000000 
#    z -0.100950 0.000000 3.653570 
# 
# 
# High freq. dielectric constant tensor:
#      x y z
#    x 1.707870 0.000000 -0.002620 
#    y 0.000000 1.600930 0.000000 
#    z -0.002620 0.000000 1.696750 
# 
# From -- ./inp_files/285248.got.cif
#   From: 2010.06.25/outbox.cif.g09.slc.cpg/sg12_143_cif.got.tgz:285248.got - 2010.06.28 00:19:55.
