data_PCOD8078958
_publ_section_title
;
Structure prediction by ZEFSAII (Michael W. Deem and Ramdas Pophale) SiO2 
 PCOD8078958
Probable space group: C 2/M
;
_chemical_formula_sum "Si O2"
_cell_formula_units_Z 56
_cell_length_a 26.983178
_cell_length_b 28.794458
_cell_length_c 5.242744
_cell_angle_alpha 90.000000
_cell_angle_beta 105.507207
_cell_angle_gamma 90.000000
_cell_volume 3925.147861
_symmetry_space_group_name_H-M "C 2/M"
_symmetry_group_IT_number 12
_symmetry_cell_setting 'monoclinic'
loop_
_space_group_symop_operation_xyz
x,y,z
-x,y,-z
-x,-y,-z
x,-y,z
1/2+x,1/2+y,z
1/2-x,1/2+y,-z
1/2-x,1/2-y,-z
1/2+x,1/2-y,z
loop_
_atom_site_type_symbol
_atom_site_label
_atom_site_fract_x
_atom_site_fract_y
_atom_site_fract_z
Si Si1 0.628923 0.745304 0.563849
Si Si2 0.409970 0.105001 0.800509
Si Si3 0.165870 0.232906 0.115737
Si Si4 0.059508 0.553094 0.646719
Si Si5 0.188238 0.339077 0.209464
Si Si6 0.968516 0.695859 0.714406
Si Si7 0.274087 0.812696 0.240788
O O1 0.644511 0.711109 0.351022
O O2 0.574602 0.768089 0.431648
O O3 0.674509 0.781896 0.685556
O O4 0.628263 0.717116 0.831562
O O5 0.406872 0.074313 0.538915
O O6 0.353389 0.121004 0.805837
O O7 0.445500 0.148499 0.788271
O O8 0.432882 0.077791 0.071894
O O9 0.161255 0.288370 0.164269
O O10 0.224508 0.219644 0.142032
O O11 0.076681 0.500000 0.701971
O O12 0.000000 0.557678 0.500000
O O13 0.228483 0.341672 0.500814
O O14 0.220528 0.347342 0.993775
O O15 0.000000 0.684970 0.500000
O O16 0.000000 0.717109 0.000000
#
# Coordination Sequence:
#
# PCOD8078958 Si02
#       7
#     8   8   8   8   8   8   8
#     4  10  18  29  38  56  79  98 130 155 174 231
#     4  12  21  35  49  63  78  98 122 165 209 254
#     4  10  17  28  44  59  81 107 123 148 183 224
#     4  11  24  39  50  61  73  94 131 171 214 268
#     4  10  18  27  42  62  83  95 122 148 183 237
#     4  12  23  31  43  59  80 103 127 159 205 246
#     4  10  17  28  43  60  83 106 122 147 182 227
#
# _framework density 14.266978999999999
#
# number of rings (size 3 to 8) (size 9 to 14) (size 15 to 20)
#    0.000    1.286    2.857    9.000    4.000    1.143 
#    0.000    0.000    0.000    0.000    0.000    0.000 
#    0.000    0.000    0.000    0.000    0.000    0.000 
#
# Total GULP energy -346917.571337 kJ/mol
# GULP energy per Si atom -12389.913262 kJ/mol
# Density = 1.423451 g / cm^3
# Si number density = 14.266979 Si / 1000 Ang^3
#
#
#
# Elastic Constant Matrix: (Units=GPa)
#
#
# Indices 1 2 3 4 5 6 
#
# 1 58.6886 26.6568 40.2008 0.0000 -10.3590 0.0000
# 2 26.6568 22.8704 17.5646 0.0000 0.0726 0.0000
# 3 40.2008 17.5646 141.8086 0.0000 -20.1789 0.0000
# 4 0.0000 0.0000 0.0000 11.6561 0.0000 -0.5977
# 5 -10.3590 0.0726 -20.1789 0.0000 33.5252 0.0000
# 6 0.0000 0.0000 0.0000 -0.5977 0.0000 12.1342
#
#
#
# Elastic Compliance Matrix: (Units=1/GPa)
#
#
# Indices 1 2 3 4 5 6 
#
# 1 0.043835 -0.047233 -0.005068 0.000000 0.010596 0.000000
# 2 -0.047233 0.099725 -0.001170 0.000000 -0.015515 0.000000
# 3 -0.005068 -0.001170 0.009199 0.000000 0.003973 0.000000
# 4 0.000000 0.000000 0.000000 0.086009 0.000000 0.004237
# 5 0.010596 -0.015515 0.003973 0.000000 0.035528 0.000000
# 6 0.000000 0.000000 0.000000 0.004237 0.000000 0.082621
#
#
# Mechanical properties :
#
#
# Convention : Reuss Voigt Hill
#
# Bulk Modulus (GPa) = 21.82637 43.57912 32.70275
# Shear Modulus (GPa) = 10.43554 20.72612 15.58083
#
# Velocity S-wave (km/s) = 2.70746 3.81561 3.30826
# Velocity P-wave (km/s) = 5.01054 7.07274 6.12899
#
# Compressibility (1/GPa) = 0.04581613
#
# Stress axis : x y z
#
# Youngs Moduli (GPa) = 22.81286 10.02754 108.70908
#
# Poissons Ratio (x) = 0.47363 0.55098
# Poissons Ratio (y) = 1.07753 0.12718
# Poissons Ratio (z) = 0.11562 0.01173
#
# Static dielectric constant tensor:
#      x y z
#    x 2.850130 0.000000 -0.460660 
#    y 0.000000 2.366050 0.000000 
#    z -0.460660 0.000000 4.059100 
# 
# 
# High freq. dielectric constant tensor:
#      x y z
#    x 1.533460 0.000000 -0.022700 
#    y 0.000000 1.465380 0.000000 
#    z -0.022700 0.000000 1.587320 
# 
# From -- ./inp_files/26610.got.cif
#   From: 2010.06.25/outbox.cif.g09.slc.cpg/sg12_14_cif.got.tgz:26610.got - 2010.06.28 00:19:55.
