data_PCOD8078900
_publ_section_title
;
Structure prediction by ZEFSAII (Michael W. Deem and Ramdas Pophale) SiO2 
 PCOD8078900
Probable space group: C 2/M
;
_chemical_formula_sum "Si O2"
_cell_formula_units_Z 64
_cell_length_a 25.392214
_cell_length_b 8.965785
_cell_length_c 15.395146
_cell_angle_alpha 90.000000
_cell_angle_beta 105.350584
_cell_angle_gamma 90.000000
_cell_volume 3379.836669
_symmetry_space_group_name_H-M "C 2/M"
_symmetry_group_IT_number 12
_symmetry_cell_setting 'monoclinic'
loop_
_space_group_symop_operation_xyz
x,y,z
-x,y,-z
-x,-y,-z
x,-y,z
1/2+x,1/2+y,z
1/2-x,1/2+y,-z
1/2-x,1/2-y,-z
1/2+x,1/2-y,z
loop_
_atom_site_type_symbol
_atom_site_label
_atom_site_fract_x
_atom_site_fract_y
_atom_site_fract_z
Si Si1 0.948783 0.324338 0.286810
Si Si2 0.158871 0.676741 0.094771
Si Si3 0.070857 0.675239 0.384810
Si Si4 0.221466 0.170632 0.678353
Si Si5 0.842915 0.326321 0.712944
Si Si6 0.270797 0.175100 0.142029
Si Si7 0.895361 0.172139 0.427681
Si Si8 0.379544 0.176000 0.098925
O O1 0.938386 0.500000 0.294161
O O2 0.915510 0.241184 0.346663
O O3 0.927414 0.264281 0.183303
O O4 0.012494 0.285674 0.318356
O O5 0.164543 0.500000 0.102650
O O6 0.144389 0.739895 0.184613
O O7 0.216952 0.738595 0.088575
O O8 0.114496 0.723658 0.000738
O O9 0.078902 0.500000 0.401741
O O10 0.116716 0.745806 0.340597
O O11 0.074477 0.749123 0.480122
O O12 0.279902 0.204388 0.657773
O O13 0.213567 0.285299 0.752712
O O14 0.170395 0.193365 0.591130
O O15 0.222462 0.000000 0.714121
O O16 0.856530 0.500000 0.721120
O O17 0.320646 0.232622 0.105138
O O18 0.260566 0.000000 0.129795
O O19 0.911820 0.000000 0.435914
O O20 0.380941 0.000000 0.106235
#
# Coordination Sequence:
#
# PCOD8078900 Si02
#       8
#     8   8   8   8   8   8   8   8
#     4  10  20  36  54  75 104 134 168 209 252 299
#     4   9  17  31  50  71 102 138 167 202 248 295
#     4  10  21  36  55  74  97 136 175 209 251 298
#     4   9  18  33  52  74 103 135 164 203 256 305
#     4   8  16  33  53  73 100 134 172 205 242 297
#     4  10  17  27  46  74 106 134 165 203 247 297
#     4  11  22  35  54  79 103 129 166 211 260 307
#     4   9  17  29  48  74 102 133 166 205 249 294
#
# _framework density 18.935825999999999
#
# number of rings (size 3 to 8) (size 9 to 14) (size 15 to 20)
#    0.000    2.500    1.250    2.250    0.000    3.000 
#    0.000    4.375    0.000    3.750    0.000    0.000 
#    0.000    6.000    0.000    0.000    0.000    0.000 
#
# Total GULP energy -396551.925112 kJ/mol
# GULP energy per Si atom -12392.247660 kJ/mol
# Density = 1.889273 g / cm^3
# Si number density = 18.935826 Si / 1000 Ang^3
#
#
#
# Elastic Constant Matrix: (Units=GPa)
#
#
# Indices 1 2 3 4 5 6 
#
# 1 81.1128 27.1774 35.9317 0.0000 5.8277 0.0000
# 2 27.1774 28.6474 21.3909 0.0000 7.7157 0.0000
# 3 35.9317 21.3909 86.5862 0.0000 24.0298 0.0000
# 4 0.0000 0.0000 0.0000 14.7077 0.0000 1.6446
# 5 5.8277 7.7157 24.0298 0.0000 25.5157 0.0000
# 6 0.0000 0.0000 0.0000 1.6446 0.0000 18.6528
#
#
#
# Elastic Compliance Matrix: (Units=1/GPa)
#
#
# Indices 1 2 3 4 5 6 
#
# 1 0.019909 -0.016044 -0.005934 0.000000 0.005893 0.000000
# 2 -0.016044 0.056042 -0.004740 0.000000 -0.008818 0.000000
# 3 -0.005934 -0.004740 0.019507 0.000000 -0.015583 0.000000
# 4 0.000000 0.000000 0.000000 0.068668 0.000000 -0.006054
# 5 0.005893 -0.008818 -0.015583 0.000000 0.055188 0.000000
# 6 0.000000 0.000000 0.000000 -0.006054 0.000000 0.054145
#
#
# Mechanical properties :
#
#
# Convention : Reuss Voigt Hill
#
# Bulk Modulus (GPa) = 23.79617 40.59406 32.19512
# Shear Modulus (GPa) = 14.66693 19.23167 16.94930
#
# Velocity S-wave (km/s) = 2.78611 3.19034 2.99505
# Velocity P-wave (km/s) = 4.78998 5.92075 5.38513
#
# Compressibility (1/GPa) = 0.04202357
#
# Stress axis : x y z
#
# Youngs Moduli (GPa) = 50.22751 17.84365 51.26348
#
# Poissons Ratio (x) = 0.28629 0.30418
# Poissons Ratio (y) = 0.80586 0.24298
# Poissons Ratio (z) = 0.29803 0.08457
#
# Static dielectric constant tensor:
#      x y z
#    x 3.565830 0.000000 0.102870 
#    y 0.000000 3.184400 0.000000 
#    z 0.102870 0.000000 3.770300 
# 
# 
# High freq. dielectric constant tensor:
#      x y z
#    x 1.723720 0.000000 0.012000 
#    y 0.000000 1.704360 0.000000 
#    z 0.012000 0.000000 1.741730 
# 
# From -- ./inp_files/244090.got.cif
#   From: 2010.06.25/outbox.cif.g09.slc.cpg/sg12_123_cif.got.tgz:244090.got - 2010.06.28 00:19:55.
