data_PCOD8078308
_publ_section_title
;
Structure prediction by ZEFSAII (Michael W. Deem and Ramdas Pophale) SiO2 
 PCOD8078308
Probable space group: C 2/M
;
_chemical_formula_sum "Si O2"
_cell_formula_units_Z 64
_cell_length_a 29.201834
_cell_length_b 19.662073
_cell_length_c 13.436866
_cell_angle_alpha 90.000000
_cell_angle_beta 27.246523
_cell_angle_gamma 90.000000
_cell_volume 3532.093124
_symmetry_space_group_name_H-M "C 2/M"
_symmetry_group_IT_number 12
_symmetry_cell_setting 'monoclinic'
loop_
_space_group_symop_operation_xyz
x,y,z
-x,y,-z
-x,-y,-z
x,-y,z
1/2+x,1/2+y,z
1/2-x,1/2+y,-z
1/2-x,1/2-y,-z
1/2+x,1/2-y,z
loop_
_atom_site_type_symbol
_atom_site_label
_atom_site_fract_x
_atom_site_fract_y
_atom_site_fract_z
Si Si1 0.425228 0.785010 0.383423
Si Si2 0.795192 0.796334 0.499995
Si Si3 0.444647 0.577731 0.830467
Si Si4 0.258373 0.171841 0.013546
Si Si5 0.751162 0.148202 0.184857
Si Si6 0.422952 0.423075 0.237350
Si Si7 0.846282 0.707431 0.039748
Si Si8 0.055016 0.179039 0.485112
O O1 0.391730 0.745958 0.349162
O O2 0.347907 0.847451 0.554137
O O3 0.409447 0.735645 0.507179
O O4 0.539478 0.806221 0.148969
O O5 0.750000 0.750000 0.500000
O O6 0.832487 0.870399 0.390771
O O7 0.719770 0.812027 0.736760
O O8 0.462146 0.500000 0.769939
O O9 0.514494 0.599774 0.787087
O O10 0.478389 0.623080 0.672855
O O11 0.325717 0.589254 0.080188
O O12 0.286247 0.133223 0.856746
O O13 0.250000 0.250000 0.000000
O O14 0.331467 0.161887 0.967982
O O15 0.153429 0.141661 0.254862
O O16 0.821583 0.215293 0.057823
O O17 0.379536 0.500000 0.332280
O O18 0.500000 0.420345 0.000000
O O19 0.000000 0.217321 0.500000
#
# Coordination Sequence:
#
# PCOD8078308 Si02
#       8
#     8   8   8   8   8   8   8   8
#     4  11  21  32  53  80 110 141 178 230 278 325
#     4  11  23  34  56  81 113 145 177 235 285 328
#     4  11  22  36  53  76 113 151 179 222 269 326
#     4  10  16  29  47  74 108 143 175 213 277 321
#     4  10  19  31  49  78 107 141 178 220 265 322
#     4  10  22  39  60  81 108 146 184 221 277 340
#     4  10  19  33  50  78 109 136 178 225 278 320
#     4  12  18  30  53  78 115 145 178 223 270 333
#
# _framework density 18.119568000000001
#
# number of rings (size 3 to 8) (size 9 to 14) (size 15 to 20)
#    0.000    1.375    7.500    0.750    5.250    0.250 
#    0.000    0.000    0.000    0.750    0.000    1.750 
#    0.000    0.000    0.000    0.000    0.000    0.000 
#
# Total GULP energy -396502.094983 kJ/mol
# GULP energy per Si atom -12390.690468 kJ/mol
# Density = 1.807833 g / cm^3
# Si number density = 18.119568 Si / 1000 Ang^3
#
#
#
# Elastic Constant Matrix: (Units=GPa)
#
#
# Indices 1 2 3 4 5 6 
#
# 1 105.6749 38.1858 24.4075 0.0000 -8.6004 0.0000
# 2 38.1858 54.7273 28.9446 0.0000 -1.1824 0.0000
# 3 24.4075 28.9446 90.5212 0.0000 -15.8195 0.0000
# 4 0.0000 0.0000 0.0000 20.5524 0.0000 -5.4505
# 5 -8.6004 -1.1824 -15.8195 0.0000 31.7030 0.0000
# 6 0.0000 0.0000 0.0000 -5.4505 0.0000 4.0308
#
#
#
# Elastic Compliance Matrix: (Units=1/GPa)
#
#
# Indices 1 2 3 4 5 6 
#
# 1 0.012967 -0.008931 -0.000092 0.000000 0.003139 0.000000
# 2 -0.008931 0.028397 -0.007570 0.000000 -0.005141 0.000000
# 3 -0.000092 -0.007570 0.014723 0.000000 0.007039 0.000000
# 4 0.000000 0.000000 0.000000 0.075859 0.000000 0.102577
# 5 0.003139 -0.005141 0.007039 0.000000 0.035715 0.000000
# 6 0.000000 0.000000 0.000000 0.102577 0.000000 0.386790
#
#
# Mechanical properties :
#
#
# Convention : Reuss Voigt Hill
#
# Bulk Modulus (GPa) = 43.66913 48.22214 45.94564
# Shear Modulus (GPa) = 8.39952 21.88294 15.14123
#
# Velocity S-wave (km/s) = 2.15538 3.47896 2.89386
# Velocity P-wave (km/s) = 5.50882 6.54283 6.04796
#
# Compressibility (1/GPa) = 0.02289947
#
# Stress axis : x y z
#
# Youngs Moduli (GPa) = 77.11895 35.21507 67.92182
#
# Poissons Ratio (x) = 0.31451 0.00625
# Poissons Ratio (y) = 0.68876 0.51420
# Poissons Ratio (z) = 0.00710 0.26659
#
# Static dielectric constant tensor:
#      x y z
#    x 3.049530 0.000000 0.162500 
#    y 0.000000 2.998270 0.000000 
#    z 0.162500 0.000000 3.363680 
# 
# 
# High freq. dielectric constant tensor:
#      x y z
#    x 1.717870 0.000000 0.002960 
#    y 0.000000 1.641590 0.000000 
#    z 0.002960 0.000000 1.701790 
# 
# From -- ./inp_files/184666.got.cif
#   From: 2010.06.25/outbox.cif.g09.slc.cpg/sg12_93_cif.got.tgz:184666.got - 2010.06.28 00:19:55.
