data_PCOD8078873
_publ_section_title
;
Structure prediction by ZEFSAII (Michael W. Deem and Ramdas Pophale) SiO2 
 PCOD8078873
Probable space group: C 2/M
;
_chemical_formula_sum "Si O2"
_cell_formula_units_Z 48
_cell_length_a 24.066478
_cell_length_b 9.027987
_cell_length_c 14.186747
_cell_angle_alpha 90.000000
_cell_angle_beta 110.804383
_cell_angle_gamma 90.000000
_cell_volume 2881.404951
_symmetry_space_group_name_H-M "C 2/M"
_symmetry_group_IT_number 12
_symmetry_cell_setting 'monoclinic'
loop_
_space_group_symop_operation_xyz
x,y,z
-x,y,-z
-x,-y,-z
x,-y,z
1/2+x,1/2+y,z
1/2-x,1/2+y,-z
1/2-x,1/2-y,-z
1/2+x,1/2-y,z
loop_
_atom_site_type_symbol
_atom_site_label
_atom_site_fract_x
_atom_site_fract_y
_atom_site_fract_z
Si Si1 0.942036 0.332723 0.029318
Si Si2 0.169172 0.673268 0.516380
Si Si3 0.873657 0.826551 0.835957
Si Si4 0.546926 0.671309 0.447092
Si Si5 0.012292 0.171367 0.218809
Si Si6 0.219228 0.326279 0.343164
O O1 0.919733 0.500000 0.030289
O O2 0.958269 0.263485 0.140468
O O3 0.890017 0.238787 0.948298
O O4 0.000000 0.325523 0.000000
O O5 0.174680 0.500000 0.540001
O O6 0.103698 0.728270 0.502033
O O7 0.183015 0.711314 0.416213
O O8 0.215032 0.758447 0.611434
O O9 0.925391 0.789464 0.792744
O O10 0.813855 0.748527 0.764512
O O11 0.862281 0.000000 0.839069
O O12 0.500000 0.703253 0.500000
O O13 0.566954 0.500000 0.455967
O O14 0.516551 0.716722 0.330345
O O15 0.996863 0.000000 0.195307
O O16 0.224182 0.500000 0.328224
#
# Coordination Sequence:
#
# PCOD8078873 Si02
#       6
#     8   8   8   8   8   8
#     4   9  17  27  41  63  92 123 155 191 234 284
#     4  10  20  32  47  68  95 126 161 199 239 282
#     4  10  17  27  45  68  95 125 156 191 235 286
#     4  10  20  34  51  70  95 129 166 201 237 278
#     4   9  17  29  44  64  92 125 159 195 234 278
#     4  10  19  30  47  69  96 127 158 194 239 288
#
# _framework density 16.658541
#
# number of rings (size 3 to 8) (size 9 to 14) (size 15 to 20)
#    0.000    2.333    1.667    2.000    0.000    5.000 
#    0.000    0.000    0.000    0.000    0.000    1.167 
#    0.000    0.000    0.000    0.000    0.000    0.000 
#
# Total GULP energy -297664.534280 kJ/mol
# GULP energy per Si atom -12402.688928 kJ/mol
# Density = 1.662063 g / cm^3
# Si number density = 16.658541 Si / 1000 Ang^3
#
#
#
# Elastic Constant Matrix: (Units=GPa)
#
#
# Indices 1 2 3 4 5 6 
#
# 1 54.4921 38.0366 47.9932 0.0000 12.0156 0.0000
# 2 38.0366 97.2612 62.7611 0.0000 21.0525 0.0000
# 3 47.9932 62.7611 132.0561 0.0000 27.4601 0.0000
# 4 0.0000 0.0000 0.0000 32.1192 0.0000 10.8260
# 5 12.0156 21.0525 27.4601 0.0000 25.6554 0.0000
# 6 0.0000 0.0000 0.0000 10.8260 0.0000 22.2758
#
#
#
# Elastic Compliance Matrix: (Units=1/GPa)
#
#
# Indices 1 2 3 4 5 6 
#
# 1 0.029754 -0.006676 -0.007566 0.000000 -0.000359 0.000000
# 2 -0.006676 0.017069 -0.004403 0.000000 -0.006166 0.000000
# 3 -0.007566 -0.004403 0.014055 0.000000 -0.007887 0.000000
# 4 0.000000 0.000000 0.000000 0.037233 0.000000 -0.018095
# 5 -0.000359 -0.006166 -0.007887 0.000000 0.052648 0.000000
# 6 0.000000 0.000000 0.000000 -0.018095 0.000000 0.053686
#
#
# Mechanical properties :
#
#
# Convention : Reuss Voigt Hill
#
# Bulk Modulus (GPa) = 42.39742 64.59899 53.49820
# Shear Modulus (GPa) = 20.03216 25.01133 22.52175
#
# Velocity S-wave (km/s) = 3.47149 3.87901 3.68090
# Velocity P-wave (km/s) = 6.44783 7.67625 7.08870
#
# Compressibility (1/GPa) = 0.02358634
#
# Stress axis : x y z
#
# Youngs Moduli (GPa) = 33.60866 58.58649 71.14873
#
# Poissons Ratio (x) = 0.39114 0.53831
# Poissons Ratio (y) = 0.22438 0.31330
# Poissons Ratio (z) = 0.25428 0.25799
#
# Static dielectric constant tensor:
#      x y z
#    x 2.697910 0.000000 0.198600 
#    y 0.000000 3.187920 0.000000 
#    z 0.198600 0.000000 3.203990 
# 
# 
# High freq. dielectric constant tensor:
#      x y z
#    x 1.589640 0.000000 0.028660 
#    y 0.000000 1.654260 0.000000 
#    z 0.028660 0.000000 1.643770 
# 
# From -- ./inp_files/230352.got.cif
#   From: 2010.06.25/outbox.cif.g09.slc.cpg/sg12_116_cif.got.tgz:230352.got - 2010.06.28 00:19:55.
