data_PCOD8078391
_publ_section_title
;
Structure prediction by ZEFSAII (Michael W. Deem and Ramdas Pophale) SiO2 
 PCOD8078391
Probable space group: C 2/M
;
_chemical_formula_sum "Si O2"
_cell_formula_units_Z 64
_cell_length_a 9.824291
_cell_length_b 27.771766
_cell_length_c 14.422852
_cell_angle_alpha 90.000000
_cell_angle_beta 99.907049
_cell_angle_gamma 90.000000
_cell_volume 3876.421239
_symmetry_space_group_name_H-M "C 2/M"
_symmetry_group_IT_number 12
_symmetry_cell_setting 'monoclinic'
loop_
_space_group_symop_operation_xyz
x,y,z
-x,y,-z
-x,-y,-z
x,-y,z
1/2+x,1/2+y,z
1/2-x,1/2+y,-z
1/2-x,1/2-y,-z
1/2+x,1/2-y,z
loop_
_atom_site_type_symbol
_atom_site_label
_atom_site_fract_x
_atom_site_fract_y
_atom_site_fract_z
Si Si1 0.956081 0.822120 0.640955
Si Si2 0.072301 0.444700 0.171146
Si Si3 0.689257 0.554583 0.655934
Si Si4 0.883632 0.727478 0.561802
Si Si5 0.016999 0.903855 0.224049
Si Si6 0.702475 0.645854 0.546727
Si Si7 0.267975 0.944067 0.152735
Si Si8 0.302121 0.556430 0.063981
O O1 0.927594 0.764585 0.649789
O O2 0.971462 0.847918 0.742735
O O3 0.834858 0.847957 0.566235
O O4 0.095386 0.826821 0.599549
O O5 0.036785 0.500000 0.150083
O O6 0.172165 0.436506 0.269534
O O7 0.153954 0.426611 0.088819
O O8 0.922176 0.419975 0.170017
O O9 0.679286 0.500000 0.618841
O O10 0.552312 0.566086 0.699945
O O11 0.703467 0.589022 0.568603
O O12 0.750000 0.750000 0.500000
O O13 0.847222 0.672844 0.589344
O O14 0.000000 0.723821 0.500000
O O15 0.172996 0.920398 0.220594
O O16 0.923126 0.910812 0.121773
O O17 0.276017 0.000000 0.177726
O O18 0.196700 0.935451 0.045049
O O19 0.329391 0.500000 0.093263
#
# Coordination Sequence:
#
# PCOD8078391 Si02
#       8
#     8   8   8   8   8   8   8   8
#     4   9  17  31  46  68  97 115 147 196 238 274
#     4   8  15  27  41  59  87 122 154 193 229 258
#     4   9  17  31  46  62  93 131 162 182 215 274
#     4  10  16  31  53  72  90 112 144 196 246 270
#     4  10  18  27  42  64  92 121 150 189 231 270
#     4   9  17  31  50  70  90 124 155 188 229 275
#     4  10  17  26  41  63  90 119 157 200 235 266
#     4   9  16  27  43  61  85 123 163 192 228 275
#
# _framework density 16.510072999999998
#
# number of rings (size 3 to 8) (size 9 to 14) (size 15 to 20)
#    0.000    2.750    2.500    2.625    0.000    2.500 
#    4.500    6.250    0.000    0.375    0.000    0.000 
#    0.000   38.000    0.000    0.000    0.000    0.250 
#
# Total GULP energy -396427.600494 kJ/mol
# GULP energy per Si atom -12388.362515 kJ/mol
# Density = 1.647250 g / cm^3
# Si number density = 16.510073 Si / 1000 Ang^3
#
#
#
# Elastic Constant Matrix: (Units=GPa)
#
#
# Indices 1 2 3 4 5 6 
#
# 1 103.3994 37.5001 26.0666 0.0000 -11.0901 0.0000
# 2 37.5001 89.6490 30.9675 0.0000 -2.9869 0.0000
# 3 26.0666 30.9675 40.6955 0.0000 -3.7339 0.0000
# 4 0.0000 0.0000 0.0000 19.8779 0.0000 2.1683
# 5 -11.0901 -2.9869 -3.7339 0.0000 13.7948 0.0000
# 6 0.0000 0.0000 0.0000 2.1683 0.0000 20.0431
#
#
#
# Elastic Compliance Matrix: (Units=1/GPa)
#
#
# Indices 1 2 3 4 5 6 
#
# 1 0.013088 -0.003480 -0.004962 0.000000 0.008425 0.000000
# 2 -0.003480 0.016058 -0.010181 0.000000 -0.002076 0.000000
# 3 -0.004962 -0.010181 0.035820 0.000000 0.003502 0.000000
# 4 0.000000 0.000000 0.000000 0.050908 0.000000 -0.005507
# 5 0.008425 -0.002076 0.003502 0.000000 0.079763 0.000000
# 6 0.000000 0.000000 0.000000 -0.005507 0.000000 0.050488
#
#
# Mechanical properties :
#
#
# Convention : Reuss Voigt Hill
#
# Bulk Modulus (GPa) = 36.07551 46.97914 41.52733
# Shear Modulus (GPa) = 17.08760 20.02379 18.55570
#
# Velocity S-wave (km/s) = 3.22060 3.48634 3.35610
# Velocity P-wave (km/s) = 5.97727 6.68750 6.34233
#
# Compressibility (1/GPa) = 0.02771964
#
# Stress axis : x y z
#
# Youngs Moduli (GPa) = 76.40674 62.27480 27.91762
#
# Poissons Ratio (x) = 0.21671 0.13853
# Poissons Ratio (y) = 0.26588 0.28423
# Poissons Ratio (z) = 0.37914 0.63401
#
# Static dielectric constant tensor:
#      x y z
#    x 3.381250 0.000000 -0.013530 
#    y 0.000000 3.163730 0.000000 
#    z -0.013530 0.000000 2.889140 
# 
# 
# High freq. dielectric constant tensor:
#      x y z
#    x 1.648920 0.000000 -0.003810 
#    y 0.000000 1.600250 0.000000 
#    z -0.003810 0.000000 1.602680 
# 
# From -- ./inp_files/200595.got.cif
#   From: 2010.06.25/outbox.cif.g09.slc.cpg/sg12_101_cif.got.tgz:200595.got - 2010.06.28 00:19:55.
