data_PCOD8078332
_publ_section_title
;
Structure prediction by ZEFSAII (Michael W. Deem and Ramdas Pophale) SiO2 
 PCOD8078332
Probable space group: C 2/M
;
_chemical_formula_sum "Si O2"
_cell_formula_units_Z 56
_cell_length_a 5.341860
_cell_length_b 25.968119
_cell_length_c 18.928233
_cell_angle_alpha 90.000000
_cell_angle_beta 101.680648
_cell_angle_gamma 90.000000
_cell_volume 2571.312972
_symmetry_space_group_name_H-M "C 2/M"
_symmetry_group_IT_number 12
_symmetry_cell_setting 'monoclinic'
loop_
_space_group_symop_operation_xyz
x,y,z
-x,y,-z
-x,-y,-z
x,-y,z
1/2+x,1/2+y,z
1/2-x,1/2+y,-z
1/2-x,1/2-y,-z
1/2+x,1/2-y,z
loop_
_atom_site_type_symbol
_atom_site_label
_atom_site_fract_x
_atom_site_fract_y
_atom_site_fract_z
Si Si1 0.228248 0.307668 0.969724
Si Si2 0.451919 0.559474 0.253593
Si Si3 0.046709 0.609478 0.743603
Si Si4 0.381519 0.217420 0.194629
Si Si5 0.679180 0.228376 0.419973
Si Si6 0.407792 0.108664 0.578520
Si Si7 0.594608 0.441298 0.423982
O O1 0.164520 0.308328 0.883821
O O2 0.500000 0.335930 0.000000
O O3 0.250000 0.250000 0.000000
O O4 0.000000 0.335947 0.000000
O O5 0.431945 0.500000 0.231828
O O6 0.677251 0.585542 0.219575
O O7 0.512827 0.568210 0.339091
O O8 0.180619 0.586871 0.220131
O O9 0.053591 0.671472 0.747760
O O10 0.989950 0.591433 0.661074
O O11 0.624447 0.254956 0.206292
O O12 0.750000 0.250000 0.500000
O O13 0.405291 0.252570 0.379535
O O14 0.671915 0.167605 0.426020
O O15 0.662197 0.097073 0.545059
O O16 0.160384 0.072990 0.544041
O O17 0.677041 0.500000 0.441440
#
# Coordination Sequence:
#
# PCOD8078332 Si02
#       7
#     8   8   8   8   8   8   8
#     4  10  16  30  47  63  84 128 169 207 237 280
#     4   9  17  33  51  68  99 135 167 208 243 294
#     4  10  21  31  46  77 104 132 168 195 254 308
#     4  12  21  31  46  68 104 140 160 203 245 295
#     4  10  21  36  54  75  94 131 182 215 236 274
#     4  10  19  33  51  74 107 132 161 214 243 291
#     4   9  17  30  52  79 102 130 162 196 258 312
#
# _framework density 21.778755
#
# number of rings (size 3 to 8) (size 9 to 14) (size 15 to 20)
#    0.000    2.000    2.857    2.571    0.000    4.571 
#    0.000    0.000    0.000    0.000    0.000   40.000 
#    0.000   11.429    0.000    0.000    0.000    0.000 
#
# Total GULP energy -347225.856444 kJ/mol
# GULP energy per Si atom -12400.923444 kJ/mol
# Density = 2.172919 g / cm^3
# Si number density = 21.778755 Si / 1000 Ang^3
#
#
#
# Elastic Constant Matrix: (Units=GPa)
#
#
# Indices 1 2 3 4 5 6 
#
# 1 235.8277 80.9101 18.7624 0.0000 22.3277 0.0000
# 2 80.9101 119.4249 -7.6292 0.0000 15.5741 0.0000
# 3 18.7624 -7.6292 34.5924 0.0000 9.3852 0.0000
# 4 0.0000 0.0000 0.0000 6.3421 0.0000 4.0088
# 5 22.3277 15.5741 9.3852 0.0000 18.8788 0.0000
# 6 0.0000 0.0000 0.0000 4.0088 0.0000 37.1232
#
#
#
# Elastic Compliance Matrix: (Units=1/GPa)
#
#
# Indices 1 2 3 4 5 6 
#
# 1 0.006145 -0.004136 -0.003698 0.000000 -0.002017 0.000000
# 2 -0.004136 0.012918 0.007694 0.000000 -0.009590 0.000000
# 3 -0.003698 0.007694 0.038314 0.000000 -0.021021 0.000000
# 4 0.000000 0.000000 0.000000 0.169228 0.000000 -0.018274
# 5 -0.002017 -0.009590 -0.021021 0.000000 0.073716 0.000000
# 6 0.000000 0.000000 0.000000 -0.018274 0.000000 0.028911
#
#
# Mechanical properties :
#
#
# Convention : Reuss Voigt Hill
#
# Bulk Modulus (GPa) = 17.51421 63.77017 40.64219
# Shear Modulus (GPa) = 14.34547 32.32228 23.33387
#
# Velocity S-wave (km/s) = 2.56928 3.85661 3.27678
# Velocity P-wave (km/s) = 4.10621 7.01254 5.74616
#
# Compressibility (1/GPa) = 0.05709650
#
# Stress axis : x y z
#
# Youngs Moduli (GPa) = 162.74446 77.41235 26.10029
#
# Poissons Ratio (x) = 0.32019 0.09651
# Poissons Ratio (y) = 0.67314 -0.20082
# Poissons Ratio (z) = 0.60180 -0.59562
#
# Static dielectric constant tensor:
#      x y z
#    x 9.858660 0.000000 0.395520 
#    y 0.000000 3.569690 0.000000 
#    z 0.395520 0.000000 3.665960 
# 
# 
# High freq. dielectric constant tensor:
#      x y z
#    x 1.903880 0.000000 0.009380 
#    y 0.000000 1.823960 0.000000 
#    z 0.009380 0.000000 1.821630 
# 
# From -- ./inp_files/331273.got.cif
#   From: 2010.06.25/outbox.cif.g09.slc.cpg/sg12_166_cif.got.tgz:331273.got - 2010.06.28 00:19:55.
