data_PCOD8078966
_publ_section_title
;
Structure prediction by ZEFSAII (Michael W. Deem and Ramdas Pophale) SiO2 
 PCOD8078966
Probable space group: C 2/M
;
_chemical_formula_sum "Si O2"
_cell_formula_units_Z 56
_cell_length_a 30.588095
_cell_length_b 24.385389
_cell_length_c 5.080576
_cell_angle_alpha 90.000000
_cell_angle_beta 91.519105
_cell_angle_gamma 90.000000
_cell_volume 3788.282929
_symmetry_space_group_name_H-M "C 2/M"
_symmetry_group_IT_number 12
_symmetry_cell_setting 'monoclinic'
loop_
_space_group_symop_operation_xyz
x,y,z
-x,y,-z
-x,-y,-z
x,-y,z
1/2+x,1/2+y,z
1/2-x,1/2+y,-z
1/2-x,1/2-y,-z
1/2+x,1/2-y,z
loop_
_atom_site_type_symbol
_atom_site_label
_atom_site_fract_x
_atom_site_fract_y
_atom_site_fract_z
Si Si1 0.333400 0.000000 0.042595
Si Si2 0.451656 0.168641 0.953515
Si Si3 0.746225 0.837602 0.479309
Si Si4 0.638675 0.215385 0.950263
Si Si5 0.952171 0.402160 0.453336
Si Si6 0.205042 0.617329 0.960523
Si Si7 0.111377 0.500000 0.447838
Si Si8 0.180472 0.759331 0.469298
O O1 0.306057 0.054596 0.978294
O O2 0.347542 0.000000 0.349346
O O3 0.374636 0.000000 0.853151
O O4 0.413065 0.211394 0.004134
O O5 0.447152 0.117776 0.153415
O O6 0.500000 0.195775 0.000000
O O7 0.446161 0.148387 0.653190
O O8 0.732898 0.882306 0.695783
O O9 0.797197 0.819532 0.507112
O O10 0.717228 0.785001 0.542890
O O11 0.737181 0.860808 0.190334
O O12 0.660952 0.154739 0.939962
O O13 0.643155 0.249899 0.682259
O O14 0.660791 0.251877 0.178423
O O15 0.915530 0.445918 0.501925
O O16 0.000000 0.428942 0.500000
#
# Coordination Sequence:
#
# PCOD8078966 Si02
#       8
#     4   8   8   8   8   8   4   8
#     4  12  24  32  43  62  80 110 140 168 209 260
#     4  10  20  32  44  59  81 107 135 167 209 256
#     4   9  17  30  44  61  81 101 123 164 209 246
#     4  10  17  28  44  62  81 103 131 170 206 240
#     4  10  20  32  44  56  72 101 138 177 220 256
#     4  10  19  30  43  58  82 106 133 167 205 244
#     4  12  21  32  44  56  76  96 138 188 220 246
#     4   9  17  27  45  65  79  97 127 162 209 250
#
# _framework density 14.782424000000001
#
# number of rings (size 3 to 8) (size 9 to 14) (size 15 to 20)
#    0.000    2.000    0.000    5.357    0.000    5.714 
#    0.000    2.857    0.000    0.000    0.000    0.000 
#    0.000    0.000    0.000    0.000    0.000    0.000 
#
# Total GULP energy -347182.232960 kJ/mol
# GULP energy per Si atom -12399.365463 kJ/mol
# Density = 1.474878 g / cm^3
# Si number density = 14.782424 Si / 1000 Ang^3
#
#
#
# Elastic Constant Matrix: (Units=GPa)
#
#
# Indices 1 2 3 4 5 6 
#
# 1 68.0017 32.7636 4.7208 0.0000 -6.0229 0.0000
# 2 32.7636 34.7810 4.2501 0.0000 -1.9593 0.0000
# 3 4.7208 4.2501 58.8949 0.0000 -7.0907 0.0000
# 4 0.0000 0.0000 0.0000 9.7870 0.0000 -2.0398
# 5 -6.0229 -1.9593 -7.0907 0.0000 21.3776 0.0000
# 6 0.0000 0.0000 0.0000 -2.0398 0.0000 24.8069
#
#
#
# Elastic Compliance Matrix: (Units=1/GPa)
#
#
# Indices 1 2 3 4 5 6 
#
# 1 0.027540 -0.025670 0.000308 0.000000 0.005509 0.000000
# 2 -0.025670 0.053020 -0.002140 0.000000 -0.003083 0.000000
# 3 0.000308 -0.002140 0.017807 0.000000 0.005797 0.000000
# 4 0.000000 0.000000 0.000000 0.103958 0.000000 0.008548
# 5 0.005509 -0.003083 0.005797 0.000000 0.049970 0.000000
# 6 0.000000 0.000000 0.000000 0.008548 0.000000 0.041014
#
#
# Mechanical properties :
#
#
# Convention : Reuss Voigt Hill
#
# Bulk Modulus (GPa) = 23.06043 27.23850 25.14947
# Shear Modulus (GPa) = 13.78294 19.19051 16.48673
#
# Velocity S-wave (km/s) = 3.05681 3.60696 3.34322
# Velocity P-wave (km/s) = 5.30024 5.98441 5.65269
#
# Compressibility (1/GPa) = 0.04336432
#
# Stress axis : x y z
#
# Youngs Moduli (GPa) = 36.31100 18.86079 56.15755
#
# Poissons Ratio (x) = 0.48415 -0.01731
# Poissons Ratio (y) = 0.93210 0.12016
# Poissons Ratio (z) = -0.01119 0.04036
#
# Static dielectric constant tensor:
#      x y z
#    x 2.869090 0.000000 -0.090540 
#    y 0.000000 2.538560 0.000000 
#    z -0.090540 0.000000 3.067620 
# 
# 
# High freq. dielectric constant tensor:
#      x y z
#    x 1.548460 0.000000 -0.004130 
#    y 0.000000 1.510590 0.000000 
#    z -0.004130 0.000000 1.592710 
# 
# From -- ./inp_files/21708.got.cif
#   From: 2010.06.25/outbox.cif.g09.slc.cpg/sg12_11_cif.got.tgz:21708.got - 2010.06.28 00:19:55.
