data_PCOD8078509
_publ_section_title
;
Structure prediction by ZEFSAII (Michael W. Deem and Ramdas Pophale) SiO2 
 PCOD8078509
Probable space group: C 2/M
;
_chemical_formula_sum "Si O2"
_cell_formula_units_Z 64
_cell_length_a 28.345431
_cell_length_b 9.149279
_cell_length_c 23.208422
_cell_angle_alpha 90.000000
_cell_angle_beta 44.077587
_cell_angle_gamma 90.000000
_cell_volume 4186.923176
_symmetry_space_group_name_H-M "C 2/M"
_symmetry_group_IT_number 12
_symmetry_cell_setting 'monoclinic'
loop_
_space_group_symop_operation_xyz
x,y,z
-x,y,-z
-x,-y,-z
x,-y,z
1/2+x,1/2+y,z
1/2-x,1/2+y,-z
1/2-x,1/2-y,-z
1/2+x,1/2-y,z
loop_
_atom_site_type_symbol
_atom_site_label
_atom_site_fract_x
_atom_site_fract_y
_atom_site_fract_z
Si Si1 0.095587 0.666231 0.676343
Si Si2 0.341409 0.165314 0.962127
Si Si3 0.779451 0.335146 0.889655
Si Si4 0.743783 0.830868 0.565339
Si Si5 0.984898 0.168859 0.447094
Si Si6 0.868132 0.671557 0.486501
Si Si7 0.097763 0.831519 0.258415
Si Si8 0.964236 0.830046 0.810512
O O1 0.068991 0.500000 0.701942
O O2 0.164761 0.682951 0.653205
O O3 0.107997 0.710950 0.598999
O O4 0.039922 0.770541 0.753896
O O5 0.309189 0.168699 0.927421
O O6 0.413149 0.248557 0.898692
O O7 0.352581 0.000000 0.973637
O O8 0.290936 0.246116 0.050744
O O9 0.765305 0.500000 0.881764
O O10 0.833557 0.262648 0.798907
O O11 0.750000 0.750000 0.500000
O O12 0.796089 0.751905 0.563098
O O13 0.764213 0.000000 0.540334
O O14 0.051660 0.213505 0.352822
O O15 0.000000 0.199064 0.500000
O O16 0.922415 0.269712 0.484167
O O17 0.966315 0.000000 0.451301
O O18 0.857915 0.500000 0.504048
O O19 0.055713 0.797101 0.237740
O O20 0.119609 0.000000 0.241105
O O21 0.961888 0.000000 0.827483
#
# Coordination Sequence:
#
# PCOD8078509 Si02
#       8
#     8   8   8   8   8   8   8   8
#     4   9  17  27  39  58  81 107 136 168 204 246
#     4   9  16  25  36  52  76 103 130 164 199 237
#     4   9  16  25  38  54  72  98 132 167 200 240
#     4   9  17  28  42  60  81 105 136 171 208 250
#     4  10  20  33  47  62  81 108 143 182 221 257
#     4  10  19  30  44  60  80 106 138 176 216 255
#     4   9  17  28  40  56  75 102 136 171 211 249
#     4  10  17  24  38  57  79 107 137 169 201 240
#
# _framework density 15.285688
#
# number of rings (size 3 to 8) (size 9 to 14) (size 15 to 20)
#    0.000    2.625    1.250    2.625    0.000    6.750 
#    0.000    0.000    0.000    0.000    0.000    0.000 
#    0.000    0.000    0.000    1.125    0.000   22.500 
#
# Total GULP energy -396731.749682 kJ/mol
# GULP energy per Si atom -12397.867178 kJ/mol
# Density = 1.525090 g / cm^3
# Si number density = 15.285688 Si / 1000 Ang^3
#
#
#
# Elastic Constant Matrix: (Units=GPa)
#
#
# Indices 1 2 3 4 5 6 
#
# 1 51.4162 43.3564 43.0613 -0.0040 -17.7958 0.0012
# 2 43.3564 115.9587 59.1272 -0.0286 -25.4206 0.0193
# 3 43.0613 59.1272 92.4662 0.0004 -27.1794 0.0036
# 4 -0.0040 -0.0286 0.0004 26.4060 0.0108 -10.3628
# 5 -17.7958 -25.4206 -27.1794 0.0108 21.8936 -0.0020
# 6 0.0012 0.0193 0.0036 -10.3628 -0.0020 19.8340
#
#
#
# Elastic Compliance Matrix: (Units=1/GPa)
#
#
# Indices 1 2 3 4 5 6 
#
# 1 0.036741 -0.006423 -0.010104 -0.000003 0.009863 0.000005
# 2 -0.006423 0.014728 -0.004621 0.000010 0.006144 -0.000008
# 3 -0.010104 -0.004621 0.022806 -0.000015 0.014734 -0.000005
# 4 -0.000003 0.000010 -0.000015 0.047638 -0.000032 0.024890
# 5 0.009863 0.006144 0.014734 -0.000032 0.079117 -0.000018
# 6 0.000005 -0.000008 -0.000005 0.024890 -0.000018 0.063423
#
#
# Mechanical properties :
#
#
# Convention : Reuss Voigt Hill
#
# Bulk Modulus (GPa) = 31.27006 61.21456 46.24231
# Shear Modulus (GPa) = 15.75256 21.24648 18.49952
#
# Velocity S-wave (km/s) = 3.21369 3.73226 3.48264
# Velocity P-wave (km/s) = 5.85422 7.66204 6.81831
#
# Compressibility (1/GPa) = 0.03197947
#
# Stress axis : x y z
#
# Youngs Moduli (GPa) = 27.21735 67.89628 43.84866
#
# Poissons Ratio (x) = 0.43611 0.44304
# Poissons Ratio (y) = 0.17482 0.20262
# Poissons Ratio (z) = 0.27500 0.31374
#
# Static dielectric constant tensor:
#      x y z
#    x 2.798660 -0.000040 -0.487410 
#    y -0.000040 3.082800 0.000040 
#    z -0.487410 0.000040 2.989500 
# 
# 
# High freq. dielectric constant tensor:
#      x y z
#    x 1.530490 0.000000 -0.043020 
#    y 0.000000 1.602490 0.000000 
#    z -0.043020 0.000000 1.570380 
# 
# From -- ./inp_files/348516.got.cif
#   From: 2010.06.25/outbox.cif.g09.slc.cpg/sg12_175_cif.got.tgz:348516.got - 2010.06.28 00:19:55.
