data_PCOD8078430
_publ_section_title
;
Structure prediction by ZEFSAII (Michael W. Deem and Ramdas Pophale) SiO2 
 PCOD8078430
Probable space group: C 2/M
;
_chemical_formula_sum "Si O2"
_cell_formula_units_Z 44
_cell_length_a 14.915504
_cell_length_b 17.919818
_cell_length_c 12.300060
_cell_angle_alpha 90.000000
_cell_angle_beta 127.514448
_cell_angle_gamma 90.000000
_cell_volume 2607.722397
_symmetry_space_group_name_H-M "C 2/M"
_symmetry_group_IT_number 12
_symmetry_cell_setting 'monoclinic'
loop_
_space_group_symop_operation_xyz
x,y,z
-x,y,-z
-x,-y,-z
x,-y,z
1/2+x,1/2+y,z
1/2-x,1/2+y,-z
1/2-x,1/2-y,-z
1/2+x,1/2-y,z
loop_
_atom_site_type_symbol
_atom_site_label
_atom_site_fract_x
_atom_site_fract_y
_atom_site_fract_z
Si Si1 0.498145 0.081605 0.737157
Si Si2 0.246762 0.915831 0.078016
Si Si3 0.646893 0.297032 0.876680
Si Si4 0.000000 0.356075 0.500000
Si Si5 0.715726 0.785827 0.729709
Si Si6 0.052575 0.715568 0.157757
O O1 0.626558 0.083694 0.874859
O O2 0.502549 0.095455 0.611181
O O3 0.430301 0.140241 0.759961
O O4 0.444187 0.000000 0.716475
O O5 0.238440 0.859256 0.173334
O O6 0.207975 0.000000 0.081598
O O7 0.166504 0.884026 0.921740
O O8 0.653222 0.278675 0.754275
O O9 0.527933 0.271852 0.837542
O O10 0.750000 0.250000 0.000000
O O11 0.884117 0.308683 0.426418
O O12 0.823817 0.751479 0.751136
O O13 0.000000 0.699253 0.000000
#
# Coordination Sequence:
#
# PCOD8078430 Si02
#       6
#     8   8   8   4   8   8
#     4  10  20  33  52  80 108 135 174 219 266 308
#     4   9  16  30  52  76 105 137 169 212 267 308
#     4  10  16  33  48  76 109 138 169 210 262 312
#     4  10  19  38  54  74 105 142 180 218 257 298
#     4  10  20  33  53  78 105 141 177 215 257 312
#     4  12  19  32  57  81 107 138 171 219 266 315
#
# _framework density 16.872962000000001
#
# number of rings (size 3 to 8) (size 9 to 14) (size 15 to 20)
#    0.000    1.818    9.091    0.273    0.000    1.818 
#    0.000    2.727    0.000    0.000    0.000    1.273 
#    0.000    0.000    0.000    0.000    0.000    0.000 
#
# Total GULP energy -272576.655047 kJ/mol
# GULP energy per Si atom -12389.847957 kJ/mol
# Density = 1.683456 g / cm^3
# Si number density = 16.872962 Si / 1000 Ang^3
#
#
#
# Elastic Constant Matrix: (Units=GPa)
#
#
# Indices 1 2 3 4 5 6 
#
# 1 115.2674 58.2491 27.2241 0.0000 9.0747 0.0000
# 2 58.2491 136.9936 43.9909 0.0000 5.5238 0.0000
# 3 27.2241 43.9909 51.5563 0.0000 9.5013 0.0000
# 4 0.0000 0.0000 0.0000 10.8197 0.0000 -2.3435
# 5 9.0747 5.5238 9.5013 0.0000 15.4921 0.0000
# 6 0.0000 0.0000 0.0000 -2.3435 0.0000 22.6651
#
#
#
# Elastic Compliance Matrix: (Units=1/GPa)
#
#
# Indices 1 2 3 4 5 6 
#
# 1 0.011526 -0.004167 -0.001759 0.000000 -0.004187 0.000000
# 2 -0.004167 0.011610 -0.008335 0.000000 0.003413 0.000000
# 3 -0.001759 -0.008335 0.030102 0.000000 -0.014459 0.000000
# 4 0.000000 0.000000 0.000000 0.094541 0.000000 0.009775
# 5 -0.004187 0.003413 -0.014459 0.000000 0.074652 0.000000
# 6 0.000000 0.000000 0.000000 0.009775 0.000000 0.045132
#
#
# Mechanical properties :
#
#
# Convention : Reuss Voigt Hill
#
# Bulk Modulus (GPa) = 40.46024 62.52727 51.49375
# Shear Modulus (GPa) = 16.42976 21.41893 18.92435
#
# Velocity S-wave (km/s) = 3.12386 3.56676 3.35263
# Velocity P-wave (km/s) = 6.08627 7.35530 6.75067
#
# Compressibility (1/GPa) = 0.02471562
#
# Stress axis : x y z
#
# Youngs Moduli (GPa) = 86.75670 86.12898 33.22042
#
# Poissons Ratio (x) = 0.35893 0.05844
# Poissons Ratio (y) = 0.36154 0.27690
# Poissons Ratio (z) = 0.15261 0.71791
#
# Static dielectric constant tensor:
#      x y z
#    x 3.055770 0.000000 -0.026540 
#    y 0.000000 3.543930 0.000000 
#    z -0.026540 0.000000 3.286410 
# 
# 
# High freq. dielectric constant tensor:
#      x y z
#    x 1.637520 0.000000 0.001560 
#    y 0.000000 1.643770 0.000000 
#    z 0.001560 0.000000 1.630610 
# 
# From -- ./inp_files/144702.got.cif
#   From: 2010.06.25/outbox.cif.g09.slc.cpg/sg12_73_cif.got.tgz:144702.got - 2010.06.28 00:19:55.
