data_PCOD8078134
_publ_section_title
;
Structure prediction by ZEFSAII (Michael W. Deem and Ramdas Pophale) SiO2 
 PCOD8078134
Probable space group: C 2/M
;
_chemical_formula_sum "Si O2"
_cell_formula_units_Z 56
_cell_length_a 19.547011
_cell_length_b 8.702871
_cell_length_c 20.741979
_cell_angle_alpha 90.000000
_cell_angle_beta 59.461222
_cell_angle_gamma 90.000000
_cell_volume 3039.066540
_symmetry_space_group_name_H-M "C 2/M"
_symmetry_group_IT_number 12
_symmetry_cell_setting 'monoclinic'
loop_
_space_group_symop_operation_xyz
x,y,z
-x,y,-z
-x,-y,-z
x,-y,z
1/2+x,1/2+y,z
1/2-x,1/2+y,-z
1/2-x,1/2-y,-z
1/2+x,1/2-y,z
loop_
_atom_site_type_symbol
_atom_site_label
_atom_site_fract_x
_atom_site_fract_y
_atom_site_fract_z
Si Si1 0.399131 0.820507 0.843130
Si Si2 0.757548 0.322806 0.136764
Si Si3 0.242305 0.677833 0.407570
Si Si4 0.169527 0.182081 0.008153
Si Si5 0.466525 0.679409 0.692166
Si Si6 0.695427 0.675130 0.299849
Si Si7 0.625346 0.178324 0.576483
O O1 0.316060 0.780458 0.849824
O O2 0.403495 0.737358 0.911440
O O3 0.467590 0.762300 0.761683
O O4 0.408525 0.000000 0.850008
O O5 0.742302 0.500000 0.124125
O O6 0.763038 0.309080 0.211660
O O7 0.835259 0.255270 0.062184
O O8 0.264387 0.500000 0.404602
O O9 0.218294 0.712306 0.346219
O O10 0.319347 0.776190 0.389703
O O11 0.169020 0.721554 0.489014
O O12 0.171335 0.000000 0.002814
O O13 0.250000 0.250000 0.000000
O O14 0.464860 0.500000 0.706841
O O15 0.390024 0.726933 0.686690
O O16 0.544202 0.726512 0.615520
O O17 0.691792 0.500000 0.326802
O O18 0.604491 0.000000 0.591142
#
# Coordination Sequence:
#
# PCOD8078134 Si02
#       7
#     8   8   8   8   8   8   8
#     4  10  17  26  41  63  93 128 163 201 245 291
#     4   9  16  27  41  62  93 128 164 201 244 291
#     4  10  21  36  55  76  99 129 166 207 247 295
#     4  10  16  23  37  59  89 126 164 201 242 288
#     4  10  20  34  51  74 103 133 166 205 251 298
#     4   9  19  33  50  73 103 135 165 204 251 298
#     4  10  21  37  55  75  99 129 166 206 249 297
#
# _framework density 18.42671
#
# number of rings (size 3 to 8) (size 9 to 14) (size 15 to 20)
#    0.000    2.286    0.000    6.857    0.000    5.714 
#    0.000    2.857    0.000    0.000    0.000    1.000 
#    0.000    8.000    0.000    0.000    0.000    0.000 
#
# Total GULP energy -347081.736862 kJ/mol
# GULP energy per Si atom -12395.776316 kJ/mol
# Density = 1.838477 g / cm^3
# Si number density = 18.426710 Si / 1000 Ang^3
#
#
#
# Elastic Constant Matrix: (Units=GPa)
#
#
# Indices 1 2 3 4 5 6 
#
# 1 36.6039 17.5579 30.3850 0.0000 12.8181 0.0001
# 2 17.5579 92.3376 35.8162 0.0002 9.7592 0.0006
# 3 30.3850 35.8162 101.5011 0.0000 22.8856 -0.0002
# 4 0.0000 0.0002 0.0000 37.1612 0.0000 0.1277
# 5 12.8181 9.7592 22.8856 0.0000 8.3350 0.0001
# 6 0.0001 0.0006 -0.0002 0.1277 0.0001 22.0447
#
#
#
# Elastic Compliance Matrix: (Units=1/GPa)
#
#
# Indices 1 2 3 4 5 6 
#
# 1 0.062028 -0.002890 0.008391 0.000000 -0.115047 0.000000
# 2 -0.002890 0.012824 -0.003351 0.000000 -0.001369 0.000000
# 3 0.008391 -0.003351 0.027690 0.000000 -0.085010 0.000001
# 4 0.000000 0.000000 0.000000 0.026910 0.000000 -0.000156
# 5 -0.115047 -0.001369 -0.085010 0.000000 0.531923 -0.000002
# 6 0.000000 0.000000 0.000001 -0.000156 -0.000002 0.045363
#
#
# Mechanical properties :
#
#
# Convention : Reuss Voigt Hill
#
# Bulk Modulus (GPa) = 9.35963 44.21788 26.78876
# Shear Modulus (GPa) = 6.77458 23.28707 15.03082
#
# Velocity S-wave (km/s) = 1.91950 3.55881 2.85916
# Velocity P-wave (km/s) = 3.16276 6.39809 5.04671
#
# Compressibility (1/GPa) = 0.10684182
#
# Stress axis : x y z
#
# Youngs Moduli (GPa) = 16.12174 77.97895 36.11393
#
# Poissons Ratio (x) = 0.22536 -0.30304
# Poissons Ratio (y) = 0.04659 0.12103
# Poissons Ratio (z) = -0.13528 0.26133
#
# Static dielectric constant tensor:
#      x y z
#    x 2.819910 0.000000 0.002990 
#    y 0.000000 3.420320 0.000000 
#    z 0.002990 0.000000 4.214860 
# 
# 
# High freq. dielectric constant tensor:
#      x y z
#    x 1.642220 0.000000 0.003930 
#    y 0.000000 1.729130 0.000000 
#    z 0.003930 0.000000 1.738950 
# 
# From -- ./inp_files/319041.got.cif
#   From: 2010.06.25/outbox.cif.g09.slc.cpg/sg12_160_cif.got.tgz:319041.got - 2010.06.28 00:19:55.
