data_PCOD8078995
_publ_section_title
;
Structure prediction by ZEFSAII (Michael W. Deem and Ramdas Pophale) SiO2 
 PCOD8078995
Probable space group: C 2/M
;
_chemical_formula_sum "Si O2"
_cell_formula_units_Z 36
_cell_length_a 22.139214
_cell_length_b 13.781751
_cell_length_c 17.980865
_cell_angle_alpha 90.000000
_cell_angle_beta 156.286383
_cell_angle_gamma 90.000000
_cell_volume 2206.387879
_symmetry_space_group_name_H-M "C 2/M"
_symmetry_group_IT_number 12
_symmetry_cell_setting 'monoclinic'
loop_
_space_group_symop_operation_xyz
x,y,z
-x,y,-z
-x,-y,-z
x,-y,z
1/2+x,1/2+y,z
1/2-x,1/2+y,-z
1/2-x,1/2-y,-z
1/2+x,1/2-y,z
loop_
_atom_site_type_symbol
_atom_site_label
_atom_site_fract_x
_atom_site_fract_y
_atom_site_fract_z
Si Si1 0.000000 0.209346 0.500000
Si Si2 0.981986 0.391805 0.893233
Si Si3 0.634619 0.386803 0.876522
Si Si4 0.271308 0.238524 0.902837
Si Si5 0.345254 0.388239 0.463375
O O1 0.125925 0.268745 0.688717
O O2 0.094533 0.147326 0.548025
O O3 0.002862 0.500000 0.879795
O O4 0.815477 0.345912 0.691615
O O5 0.000000 0.405236 0.000000
O O6 0.099905 0.312481 0.999132
O O7 0.674166 0.500000 0.925872
O O8 0.734652 0.338985 0.925379
O O9 0.460798 0.368390 0.660470
O O10 0.668494 0.338397 0.994205
O O11 0.317513 0.500000 0.417527
#
# Coordination Sequence:
#
# PCOD8078995 Si02
#       5
#     4   8   8   8   8
#     4  10  17  28  45  70  94 122 156 190 228 276
#     4  10  18  28  45  75 101 119 146 191 241 279
#     4   9  19  34  49  68  94 126 158 189 228 277
#     4  10  19  31  50  71  94 124 155 192 233 274
#     4   9  17  28  46  70  96 121 150 189 236 278
#
# _framework density 16.316261000000001
#
# number of rings (size 3 to 8) (size 9 to 14) (size 15 to 20)
#    0.000    2.444    2.222    1.000    0.000    2.667 
#    0.000    0.556    0.000    0.667    0.000    0.000 
#    0.000    0.000    0.000    0.000    0.000    0.000 
#
# Total GULP energy -223023.427701 kJ/mol
# GULP energy per Si atom -12390.190428 kJ/mol
# Density = 1.627912 g / cm^3
# Si number density = 16.316261 Si / 1000 Ang^3
#
#
#
# Elastic Constant Matrix: (Units=GPa)
#
#
# Indices 1 2 3 4 5 6 
#
# 1 54.9662 25.0526 41.5850 0.0011 -0.8802 0.0000
# 2 25.0526 64.5826 42.5914 0.0013 -7.5882 0.0003
# 3 41.5850 42.5914 124.4405 0.0017 -2.7590 0.0010
# 4 0.0011 0.0013 0.0017 27.6889 0.0018 10.7654
# 5 -0.8802 -7.5882 -2.7590 0.0018 27.8305 0.0008
# 6 0.0000 0.0003 0.0010 10.7654 0.0008 58.2040
#
#
#
# Elastic Compliance Matrix: (Units=1/GPa)
#
#
# Indices 1 2 3 4 5 6 
#
# 1 0.025875 -0.005788 -0.006697 0.000000 -0.001424 0.000000
# 2 -0.005788 0.021949 -0.005462 -0.000001 0.005260 0.000000
# 3 -0.006697 -0.005462 0.012132 0.000000 -0.000498 0.000000
# 4 0.000000 -0.000001 0.000000 0.038914 -0.000003 -0.007198
# 5 -0.001424 0.005260 -0.000498 -0.000003 0.037272 0.000000
# 6 0.000000 0.000000 0.000000 -0.007198 0.000000 0.018512
#
#
# Mechanical properties :
#
#
# Convention : Reuss Voigt Hill
#
# Bulk Modulus (GPa) = 41.55765 51.38301 46.47033
# Shear Modulus (GPa) = 25.18015 31.72870 28.45442
#
# Velocity S-wave (km/s) = 3.93269 4.41455 4.18057
# Velocity P-wave (km/s) = 6.79314 7.58582 7.20040
#
# Compressibility (1/GPa) = 0.02406296
#
# Stress axis : x y z
#
# Youngs Moduli (GPa) = 38.64707 45.55990 82.42417
#
# Poissons Ratio (x) = 0.26369 0.55203
# Poissons Ratio (y) = 0.22368 0.45017
# Poissons Ratio (z) = 0.25884 0.24883
#
# Static dielectric constant tensor:
#      x y z
#    x 3.348970 0.000000 0.412450 
#    y 0.000000 2.838250 0.000000 
#    z 0.412450 0.000000 3.776580 
# 
# 
# High freq. dielectric constant tensor:
#      x y z
#    x 1.615170 0.000000 0.008420 
#    y 0.000000 1.589860 0.000000 
#    z 0.008420 0.000000 1.650330 
# 
# From -- ./inp_files/58345.got.cif
#   From: 2010.06.25/outbox.cif.g09.slc.cpg/sg12_30_cif.got.tgz:58345.got - 2010.06.28 00:19:55.
