data_PCOD8078918
_publ_section_title
;
Structure prediction by ZEFSAII (Michael W. Deem and Ramdas Pophale) SiO2 
 PCOD8078918
Probable space group: C 2/M
;
_chemical_formula_sum "Si O2"
_cell_formula_units_Z 40
_cell_length_a 20.397145
_cell_length_b 12.777261
_cell_length_c 11.274563
_cell_angle_alpha 90.000000
_cell_angle_beta 126.094313
_cell_angle_gamma 90.000000
_cell_volume 2374.347174
_symmetry_space_group_name_H-M "C 2/M"
_symmetry_group_IT_number 12
_symmetry_cell_setting 'monoclinic'
loop_
_space_group_symop_operation_xyz
x,y,z
-x,y,-z
-x,-y,-z
x,-y,z
1/2+x,1/2+y,z
1/2-x,1/2+y,-z
1/2-x,1/2-y,-z
1/2+x,1/2-y,z
loop_
_atom_site_type_symbol
_atom_site_label
_atom_site_fract_x
_atom_site_fract_y
_atom_site_fract_z
Si Si1 0.988527 0.500000 0.292502
Si Si2 0.366195 0.000000 0.368559
Si Si3 0.777191 0.386194 0.631393
Si Si4 0.039673 0.334190 0.171705
Si Si5 0.254164 0.336075 0.672500
Si Si6 0.929836 0.112280 0.831030
O O1 0.069326 0.500000 0.457108
O O2 0.984794 0.396313 0.207193
O O3 0.908319 0.500000 0.286226
O O4 0.311560 0.895529 0.317677
O O5 0.745314 0.500000 0.643176
O O6 0.873955 0.389524 0.743916
O O7 0.751316 0.373300 0.468359
O O8 0.740099 0.289807 0.668177
O O9 0.051023 0.213752 0.230696
O O10 0.000000 0.336288 0.000000
O O11 0.345207 0.365711 0.810590
O O12 0.924811 0.000000 0.755870
O O13 0.000000 0.101747 0.000000
#
# Coordination Sequence:
#
# PCOD8078918 Si02
#       6
#     4   4   8   8   8   8
#     4  11  21  32  50  72 101 134 162 197 241 293
#     4  11  20  34  49  70 104 131 166 194 235 304
#     4  10  17  27  47  75  99 121 154 206 252 281
#     4  10  18  30  49  76 101 123 165 208 245 282
#     4  10  17  29  47  71 103 123 158 199 242 293
#     4   9  17  28  48  76  99 124 156 207 254 283
#
# _framework density 16.846736
#
# number of rings (size 3 to 8) (size 9 to 14) (size 15 to 20)
#    0.000    2.000    5.000    0.300    0.000    0.000 
#    0.000    0.000    0.000   12.000    0.000    2.800 
#    0.000    0.000    0.000    0.000    0.000    0.000 
#
# Total GULP energy -247773.407620 kJ/mol
# GULP energy per Si atom -12388.670381 kJ/mol
# Density = 1.680839 g / cm^3
# Si number density = 16.846736 Si / 1000 Ang^3
#
#
#
# Elastic Constant Matrix: (Units=GPa)
#
#
# Indices 1 2 3 4 5 6 
#
# 1 97.5435 66.8252 29.9322 0.0000 2.2056 0.0000
# 2 66.8252 214.5667 18.3273 0.0000 -5.0571 0.0000
# 3 29.9322 18.3273 60.8633 0.0000 13.1074 0.0000
# 4 0.0000 0.0000 0.0000 18.1462 0.0000 3.8597
# 5 2.2056 -5.0571 13.1074 0.0000 22.6512 0.0000
# 6 0.0000 0.0000 0.0000 3.8597 0.0000 22.7055
#
#
#
# Elastic Compliance Matrix: (Units=1/GPa)
#
#
# Indices 1 2 3 4 5 6 
#
# 1 0.014998 -0.004089 -0.006435 0.000000 0.001350 0.000000
# 2 -0.004089 0.005994 -0.000192 0.000000 0.001847 0.000000
# 3 -0.006435 -0.000192 0.022307 0.000000 -0.012324 0.000000
# 4 0.000000 0.000000 0.000000 0.057175 0.000000 -0.009719
# 5 0.001350 0.001847 -0.012324 0.000000 0.051560 0.000000
# 6 0.000000 0.000000 0.000000 -0.009719 0.000000 0.045694
#
#
# Mechanical properties :
#
#
# Convention : Reuss Voigt Hill
#
# Bulk Modulus (GPa) = 45.73276 67.01589 56.37433
# Shear Modulus (GPa) = 22.07997 29.89315 25.98656
#
# Velocity S-wave (km/s) = 3.62420 4.21695 3.93176
# Velocity P-wave (km/s) = 6.68718 7.97348 7.35849
#
# Compressibility (1/GPa) = 0.02186616
#
# Stress axis : x y z
#
# Youngs Moduli (GPa) = 66.67759 166.83134 44.82922
#
# Poissons Ratio (x) = 0.68224 0.28848
# Poissons Ratio (y) = 0.27267 0.00859
# Poissons Ratio (z) = 0.42908 0.03197
#
# Static dielectric constant tensor:
#      x y z
#    x 2.809380 0.000000 0.382610 
#    y 0.000000 4.015440 0.000000 
#    z 0.382610 0.000000 3.258600 
# 
# 
# High freq. dielectric constant tensor:
#      x y z
#    x 1.584970 0.000000 0.043200 
#    y 0.000000 1.683440 0.000000 
#    z 0.043200 0.000000 1.645630 
# 
# From -- ./inp_files/166385.got.cif
#   From: 2010.06.25/outbox.cif.g09.slc.cpg/sg12_84_cif.got.tgz:166385.got - 2010.06.28 00:19:55.
