data_PCOD8078635
_publ_section_title
;
Structure prediction by ZEFSAII (Michael W. Deem and Ramdas Pophale) SiO2 
 PCOD8078635
Probable space group: C 2/M
;
_chemical_formula_sum "Si O2"
_cell_formula_units_Z 64
_cell_length_a 24.303589
_cell_length_b 9.225771
_cell_length_c 18.788473
_cell_angle_alpha 90.000000
_cell_angle_beta 100.760899
_cell_angle_gamma 90.000000
_cell_volume 4138.657695
_symmetry_space_group_name_H-M "C 2/M"
_symmetry_group_IT_number 12
_symmetry_cell_setting 'monoclinic'
loop_
_space_group_symop_operation_xyz
x,y,z
-x,y,-z
-x,-y,-z
x,-y,z
1/2+x,1/2+y,z
1/2-x,1/2+y,-z
1/2-x,1/2-y,-z
1/2+x,1/2-y,z
loop_
_atom_site_type_symbol
_atom_site_label
_atom_site_fract_x
_atom_site_fract_y
_atom_site_fract_z
Si Si1 0.003577 0.834362 0.344189
Si Si2 0.947663 0.830447 0.190288
Si Si3 0.669931 0.834796 0.994745
Si Si4 0.957097 0.667148 0.050115
Si Si5 0.841233 0.331991 0.229680
Si Si6 0.557114 0.839093 0.468525
Si Si7 0.400806 0.166393 0.379895
Si Si8 0.729446 0.331902 0.886549
O O1 0.999902 0.810122 0.258083
O O2 0.945887 0.775788 0.360722
O O3 0.056108 0.758277 0.396879
O O4 0.008849 0.000000 0.366054
O O5 0.968499 0.768229 0.120552
O O6 0.893525 0.741579 0.202526
O O7 0.931703 0.000000 0.180251
O O8 0.605065 0.809784 0.996703
O O9 0.687532 0.725304 0.937175
O O10 0.681438 0.000000 0.972042
O O11 0.706337 0.803212 0.074679
O O12 0.966844 0.500000 0.074341
O O13 0.000000 0.717056 0.000000
O O14 0.840453 0.500000 0.207402
O O15 0.845642 0.314296 0.317063
O O16 0.784091 0.254856 0.189605
O O17 0.500000 0.822261 0.500000
O O18 0.607342 0.799618 0.537261
O O19 0.565414 0.000000 0.441398
O O20 0.422982 0.000000 0.378177
O O21 0.717179 0.500000 0.870824
#
# Coordination Sequence:
#
# PCOD8078635 Si02
#       8
#     8   8   8   8   8   8   8   8
#     4   9  16  23  33  50  71  95 126 163 197 228
#     4  10  19  29  40  57  79 103 134 169 204 243
#     4   9  18  31  44  60  81 105 131 164 206 246
#     4  10  20  33  48  63  79 103 136 172 208 246
#     4  10  17  26  40  57  79 107 136 168 203 234
#     4   8  13  22  33  46  66  95 130 160 189 227
#     4   8  15  24  33  47  70 100 131 160 191 230
#     4  10  18  27  42  62  83 105 132 166 202 243
#
# _framework density 15.463952000000001
#
# number of rings (size 3 to 8) (size 9 to 14) (size 15 to 20)
#    0.000    2.750    1.250    2.250    0.000    5.000 
#    0.000    0.000    0.000    0.000    0.000    0.000 
#    0.000    0.000    0.000    1.125    0.000   12.875 
#
# Total GULP energy -396432.733963 kJ/mol
# GULP energy per Si atom -12388.522936 kJ/mol
# Density = 1.542876 g / cm^3
# Si number density = 15.463952 Si / 1000 Ang^3
#
#
#
# Elastic Constant Matrix: (Units=GPa)
#
#
# Indices 1 2 3 4 5 6 
#
# 1 49.5627 28.2162 44.0211 0.0000 14.2095 0.0000
# 2 28.2162 96.9878 62.2412 0.0000 19.4300 0.0000
# 3 44.0211 62.2412 116.6325 0.0000 38.7119 0.0000
# 4 0.0000 0.0000 0.0000 23.7681 0.0000 7.6113
# 5 14.2095 19.4300 38.7119 0.0000 25.0344 0.0000
# 6 0.0000 0.0000 0.0000 7.6113 0.0000 13.5972
#
#
#
# Elastic Compliance Matrix: (Units=1/GPa)
#
#
# Indices 1 2 3 4 5 6 
#
# 1 0.030684 -0.002258 -0.010637 0.000000 0.000784 0.000000
# 2 -0.002258 0.015877 -0.008127 0.000000 0.001527 0.000000
# 3 -0.010637 -0.008127 0.026355 0.000000 -0.028409 0.000000
# 4 0.000000 0.000000 0.000000 0.051262 0.000000 -0.028695
# 5 0.000784 0.001527 -0.028409 0.000000 0.082245 0.000000
# 6 0.000000 0.000000 0.000000 -0.028695 0.000000 0.089607
#
#
# Mechanical properties :
#
#
# Convention : Reuss Voigt Hill
#
# Bulk Modulus (GPa) = 32.39083 59.12668 45.75876
# Shear Modulus (GPa) = 14.35274 21.06025 17.70649
#
# Velocity S-wave (km/s) = 3.04985 3.69439 3.38748
# Velocity P-wave (km/s) = 5.77872 7.51772 6.70484
#
# Compressibility (1/GPa) = 0.03087293
#
# Stress axis : x y z
#
# Youngs Moduli (GPa) = 32.58980 62.98264 37.94347
#
# Poissons Ratio (x) = 0.14221 0.40359
# Poissons Ratio (y) = 0.07359 0.30838
# Poissons Ratio (z) = 0.34664 0.51189
#
# Static dielectric constant tensor:
#      x y z
#    x 2.614630 0.000000 0.609150 
#    y 0.000000 3.090460 0.000000 
#    z 0.609150 0.000000 3.445120 
# 
# 
# High freq. dielectric constant tensor:
#      x y z
#    x 1.523720 0.000000 0.053080 
#    y 0.000000 1.606450 0.000000 
#    z 0.053080 0.000000 1.595470 
# 
# From -- ./inp_files/291592.got.cif
#   From: 2010.06.25/outbox.cif.g09.slc.cpg/sg12_146_cif.got.tgz:291592.got - 2010.06.28 00:19:55.
