data_PCOD8078601
_publ_section_title
;
Structure prediction by ZEFSAII (Michael W. Deem and Ramdas Pophale) SiO2 
 PCOD8078601
Probable space group: C 2/M
;
_chemical_formula_sum "Si O2"
_cell_formula_units_Z 64
_cell_length_a 19.231361
_cell_length_b 9.113381
_cell_length_c 20.884627
_cell_angle_alpha 90.000000
_cell_angle_beta 90.164756
_cell_angle_gamma 90.000000
_cell_volume 3660.281400
_symmetry_space_group_name_H-M "C 2/M"
_symmetry_group_IT_number 12
_symmetry_cell_setting 'monoclinic'
loop_
_space_group_symop_operation_xyz
x,y,z
-x,y,-z
-x,-y,-z
x,-y,z
1/2+x,1/2+y,z
1/2-x,1/2+y,-z
1/2-x,1/2-y,-z
1/2+x,1/2-y,z
loop_
_atom_site_type_symbol
_atom_site_label
_atom_site_fract_x
_atom_site_fract_y
_atom_site_fract_z
Si Si1 0.951348 0.173836 0.812080
Si Si2 0.703529 0.833474 0.049693
Si Si3 0.957509 0.333962 0.686787
Si Si4 0.706147 0.670704 0.446264
Si Si5 0.454498 0.671594 0.560416
Si Si6 0.691204 0.168723 0.188448
Si Si7 0.792121 0.661928 0.676154
Si Si8 0.455498 0.827131 0.938935
O O1 0.986252 0.245533 0.748664
O O2 0.870234 0.213554 0.812135
O O3 0.985122 0.241470 0.876777
O O4 0.962305 0.000000 0.810188
O O5 0.733832 0.811521 0.122288
O O6 0.623866 0.779333 0.047863
O O7 0.706951 0.000000 0.027718
O O8 0.750000 0.750000 0.000000
O O9 0.985934 0.500000 0.688929
O O10 0.984328 0.257245 0.621866
O O11 0.874480 0.330062 0.686436
O O12 0.719637 0.500000 0.452559
O O13 0.750000 0.750000 0.500000
O O14 0.625465 0.713213 0.454344
O O15 0.733421 0.721869 0.376389
O O16 0.500000 0.720293 0.500000
O O17 0.461576 0.500000 0.574977
O O18 0.738787 0.195130 0.252351
O O19 0.661172 0.000000 0.190359
O O20 0.769545 0.500000 0.652391
O O21 0.461343 0.000000 0.925370
O O22 0.500000 0.778057 0.000000
#
# Coordination Sequence:
#
# PCOD8078601 Si02
#       8
#     8   8   8   8   8   8   8   8
#     4  10  17  25  42  68  94 117 148 192 234 269
#     4   9  17  29  46  69  94 120 150 185 227 272
#     4   9  16  27  44  66  92 121 153 187 225 272
#     4  10  19  30  46  68  94 122 150 184 226 272
#     4   9  18  32  49  70  95 121 152 192 234 271
#     4   8  15  28  44  63  89 120 153 187 225 270
#     4   8  14  26  44  64  86 113 149 191 226 260
#     4   9  18  33  50  66  89 123 159 191 225 270
#
# _framework density 17.484995000000001
#
# number of rings (size 3 to 8) (size 9 to 14) (size 15 to 20)
#    0.000    3.000    0.000    3.375    0.000    6.000 
#    0.000    0.000    0.000    1.500    0.000    5.250 
#    0.000    0.000    0.000    0.000    0.000    0.000 
#
# Total GULP energy -396546.670311 kJ/mol
# GULP energy per Si atom -12392.083447 kJ/mol
# Density = 1.744520 g / cm^3
# Si number density = 17.484995 Si / 1000 Ang^3
#
#
#
# Elastic Constant Matrix: (Units=GPa)
#
#
# Indices 1 2 3 4 5 6 
#
# 1 32.1250 26.6457 48.4067 0.0000 -0.7143 0.0000
# 2 26.6457 96.0245 80.5348 0.0000 3.9290 0.0000
# 3 48.4067 80.5348 198.5185 0.0000 1.9062 0.0000
# 4 0.0000 0.0000 0.0000 38.1023 0.0000 -1.0088
# 5 -0.7143 3.9290 1.9062 0.0000 25.1037 0.0000
# 6 0.0000 0.0000 0.0000 -1.0088 0.0000 14.9544
#
#
#
# Elastic Compliance Matrix: (Units=1/GPa)
#
#
# Indices 1 2 3 4 5 6 
#
# 1 0.051407 -0.005844 -0.010195 0.000000 0.003151 0.000000
# 2 -0.005844 0.016548 -0.005266 0.000000 -0.002356 0.000000
# 3 -0.010195 -0.005266 0.009661 0.000000 -0.000200 0.000000
# 4 0.000000 0.000000 0.000000 0.026292 0.000000 0.001774
# 5 0.003151 -0.002356 -0.000200 0.000000 0.040308 0.000000
# 6 0.000000 0.000000 0.000000 0.001774 0.000000 0.066990
#
#
# Mechanical properties :
#
#
# Convention : Reuss Voigt Hill
#
# Bulk Modulus (GPa) = 28.56455 70.87137 49.71796
# Shear Modulus (GPa) = 18.83351 27.03746 22.93549
#
# Velocity S-wave (km/s) = 3.28552 3.93660 3.62570
# Velocity P-wave (km/s) = 5.54661 7.82835 6.78410
#
# Compressibility (1/GPa) = 0.03500843
#
# Stress axis : x y z
#
# Youngs Moduli (GPa) = 19.45263 60.42917 103.50571
#
# Poissons Ratio (x) = 0.35312 1.05521
# Poissons Ratio (y) = 0.11367 0.54504
# Poissons Ratio (z) = 0.19831 0.31821
#
# Static dielectric constant tensor:
#      x y z
#    x 2.688940 0.000000 -0.012680 
#    y 0.000000 3.241670 0.000000 
#    z -0.012680 0.000000 3.779090 
# 
# 
# High freq. dielectric constant tensor:
#      x y z
#    x 1.600810 0.000000 0.001460 
#    y 0.000000 1.676550 0.000000 
#    z 0.001460 0.000000 1.703820 
# 
# From -- ./inp_files/319165.got.cif
#   From: 2010.06.25/outbox.cif.g09.slc.cpg/sg12_160_cif.got.tgz:319165.got - 2010.06.28 00:19:55.
