data_PCOD8078888
_publ_section_title
;
Structure prediction by ZEFSAII (Michael W. Deem and Ramdas Pophale) SiO2 
 PCOD8078888
Probable space group: C 2/M
;
_chemical_formula_sum "Si O2"
_cell_formula_units_Z 48
_cell_length_a 24.595109
_cell_length_b 7.827214
_cell_length_c 16.778964
_cell_angle_alpha 90.000000
_cell_angle_beta 118.237990
_cell_angle_gamma 90.000000
_cell_volume 2845.719223
_symmetry_space_group_name_H-M "C 2/M"
_symmetry_group_IT_number 12
_symmetry_cell_setting 'monoclinic'
loop_
_space_group_symop_operation_xyz
x,y,z
-x,y,-z
-x,-y,-z
x,-y,z
1/2+x,1/2+y,z
1/2-x,1/2+y,-z
1/2-x,1/2-y,-z
1/2+x,1/2-y,z
loop_
_atom_site_type_symbol
_atom_site_label
_atom_site_fract_x
_atom_site_fract_y
_atom_site_fract_z
Si Si1 0.458960 0.297621 0.353383
Si Si2 0.415391 0.303977 0.488296
Si Si3 0.584824 0.500000 0.128660
Si Si4 0.179533 0.301365 0.455027
Si Si5 0.042359 0.309908 0.818647
Si Si6 0.600421 0.802730 0.249982
Si Si7 0.940753 0.000000 0.064087
O O1 0.457846 0.500000 0.337196
O O2 0.415013 0.236437 0.396481
O O3 0.528125 0.226847 0.420926
O O4 0.434756 0.208279 0.256345
O O5 0.432103 0.500000 0.491208
O O6 0.350078 0.278323 0.485913
O O7 0.613597 0.673588 0.185970
O O8 0.512182 0.500000 0.092017
O O9 0.599583 0.500000 0.044674
O O10 0.171227 0.500000 0.457971
O O11 0.250000 0.250000 0.500000
O O12 0.144879 0.238824 0.351731
O O13 0.058902 0.500000 0.861579
O O14 0.969075 0.279640 0.768258
O O15 0.075927 0.170702 0.897747
O O16 0.613758 0.000000 0.233746
#
# Coordination Sequence:
#
# PCOD8078888 Si02
#       7
#     8   8   4   8   8   8   4
#     4   9  16  28  45  68  96 128 162 194 231 291
#     4   9  18  29  46  67  92 128 165 196 235 277
#     4   9  18  30  50  61  90 131 152 197 246 282
#     4  11  22  33  46  66  94 129 167 207 237 278
#     4  10  17  27  46  67  95 127 156 193 237 284
#     4   9  19  31  45  67  90 123 167 196 233 286
#     4   9  18  30  42  70  93 120 161 192 238 297
#
# _framework density 16.867439999999998
#
# number of rings (size 3 to 8) (size 9 to 14) (size 15 to 20)
#    0.000    2.500    2.500    1.500    2.333    1.333 
#    0.000    5.000    0.000    0.000    0.000    0.000 
#    0.000    1.333    0.667    0.000    0.000    0.000 
#
# Total GULP energy -297462.189889 kJ/mol
# GULP energy per Si atom -12394.257912 kJ/mol
# Density = 1.682905 g / cm^3
# Si number density = 16.867440 Si / 1000 Ang^3
#
#
#
# Elastic Constant Matrix: (Units=GPa)
#
#
# Indices 1 2 3 4 5 6 
#
# 1 72.5790 16.9311 38.5338 0.0000 -13.8305 0.0000
# 2 16.9311 89.5046 55.1282 0.0000 -12.9664 0.0000
# 3 38.5338 55.1282 117.8583 0.0000 -30.0111 0.0000
# 4 0.0000 0.0000 0.0000 19.4197 0.0000 -1.5522
# 5 -13.8305 -12.9664 -30.0111 0.0000 21.7510 0.0000
# 6 0.0000 0.0000 0.0000 -1.5522 0.0000 14.6546
#
#
#
# Elastic Compliance Matrix: (Units=1/GPa)
#
#
# Indices 1 2 3 4 5 6 
#
# 1 0.016999 0.000210 -0.004428 0.000000 0.004826 0.000000
# 2 0.000210 0.015717 -0.007709 0.000000 -0.001133 0.000000
# 3 -0.004428 -0.007709 0.017962 0.000000 0.017372 0.000000
# 4 0.000000 0.000000 0.000000 0.051934 0.000000 0.005501
# 5 0.004826 -0.001133 0.017372 0.000000 0.072337 0.000000
# 6 0.000000 0.000000 0.000000 0.005501 0.000000 0.068821
#
#
# Mechanical properties :
#
#
# Convention : Reuss Voigt Hill
#
# Bulk Modulus (GPa) = 37.27774 55.68090 46.47932
# Shear Modulus (GPa) = 18.07907 22.45498 20.26703
#
# Velocity S-wave (km/s) = 3.27744 3.65260 3.47009
# Velocity P-wave (km/s) = 6.03908 7.13241 6.60839
#
# Compressibility (1/GPa) = 0.02682566
#
# Stress axis : x y z
#
# Youngs Moduli (GPa) = 58.82614 63.62657 55.67385
#
# Poissons Ratio (x) = -0.01339 0.24650
# Poissons Ratio (y) = -0.01238 0.42918
# Poissons Ratio (z) = 0.26046 0.49049
#
# Static dielectric constant tensor:
#      x y z
#    x 2.719050 0.000000 -0.257830 
#    y 0.000000 3.255100 0.000000 
#    z -0.257830 0.000000 3.213950 
# 
# 
# High freq. dielectric constant tensor:
#      x y z
#    x 1.596420 0.000000 -0.030910 
#    y 0.000000 1.660150 0.000000 
#    z -0.030910 0.000000 1.635810 
# 
# From -- ./inp_files/230476.got.cif
#   From: 2010.06.25/outbox.cif.g09.slc.cpg/sg12_116_cif.got.tgz:230476.got - 2010.06.28 00:19:55.
