data_PCOD8078522
_publ_section_title
;
Structure prediction by ZEFSAII (Michael W. Deem and Ramdas Pophale) SiO2 
 PCOD8078522
Probable space group: C 2/M
;
_chemical_formula_sum "Si O2"
_cell_formula_units_Z 48
_cell_length_a 33.469316
_cell_length_b 8.917707
_cell_length_c 15.545370
_cell_angle_alpha 90.000000
_cell_angle_beta 148.541509
_cell_angle_gamma 90.000000
_cell_volume 2421.432400
_symmetry_space_group_name_H-M "C 2/M"
_symmetry_group_IT_number 12
_symmetry_cell_setting 'monoclinic'
loop_
_space_group_symop_operation_xyz
x,y,z
-x,y,-z
-x,-y,-z
x,-y,z
1/2+x,1/2+y,z
1/2-x,1/2+y,-z
1/2-x,1/2-y,-z
1/2+x,1/2-y,z
loop_
_atom_site_type_symbol
_atom_site_label
_atom_site_fract_x
_atom_site_fract_y
_atom_site_fract_z
Si Si1 0.672407 0.676242 0.826533
Si Si2 0.090490 0.666493 0.148651
Si Si3 0.573676 0.674288 0.952519
Si Si4 0.112499 0.669099 0.557131
Si Si5 0.915008 0.673443 0.677728
Si Si6 0.568867 0.172946 0.771983
O O1 0.678426 0.500000 0.848629
O O2 0.658165 0.715756 0.700492
O O3 0.601575 0.738740 0.750796
O O4 0.750000 0.750000 0.000000
O O5 0.113483 0.500000 0.161347
O O6 0.129693 0.704885 0.313964
O O7 0.116986 0.776161 0.120303
O O8 0.000000 0.677809 0.000000
O O9 0.587278 0.500000 0.962613
O O10 0.484688 0.711178 0.799797
O O11 0.605503 0.761070 0.927163
O O12 0.132590 0.500000 0.623291
O O13 0.138153 0.696109 0.504379
O O14 0.021821 0.695994 0.396208
O O15 0.946302 0.500000 0.734895
O O16 0.592504 0.000000 0.808086
#
# Coordination Sequence:
#
# PCOD8078522 Si02
#       6
#     8   8   8   8   8   8
#     4  12  25  39  55  76 102 132 168 210 256 306
#     4   8  13  23  38  59  92 133 169 199 240 293
#     4  10  17  24  39  67 100 131 165 206 249 292
#     4   9  18  34  55  78 104 135 170 209 254 301
#     4   8  15  27  43  64  95 134 169 202 245 296
#     4  10  20  36  56  76 102 136 171 209 254 303
#
# _framework density 19.822977000000002
#
# number of rings (size 3 to 8) (size 9 to 14) (size 15 to 20)
#    0.000    2.500    0.000    6.000    0.000    8.333 
#    0.000    0.000    0.000    0.000    0.000    1.167 
#    0.000    0.000    0.000    0.000    0.000    0.000 
#
# Total GULP energy -297421.827348 kJ/mol
# GULP energy per Si atom -12392.576140 kJ/mol
# Density = 1.977786 g / cm^3
# Si number density = 19.822977 Si / 1000 Ang^3
#
#
#
# Elastic Constant Matrix: (Units=GPa)
#
#
# Indices 1 2 3 4 5 6 
#
# 1 59.8449 36.5175 49.7012 0.0000 -44.0598 0.0000
# 2 36.5175 135.1835 46.8136 0.0000 -23.9349 0.0000
# 3 49.7012 46.8136 73.6593 0.0000 -36.9855 0.0000
# 4 0.0000 0.0000 0.0000 25.1407 0.0000 -8.3401
# 5 -44.0598 -23.9349 -36.9855 0.0000 38.0069 0.0000
# 6 0.0000 0.0000 0.0000 -8.3401 0.0000 26.8498
#
#
#
# Elastic Compliance Matrix: (Units=1/GPa)
#
#
# Indices 1 2 3 4 5 6 
#
# 1 0.136267 -0.005828 -0.021053 0.000000 0.133812 0.000000
# 2 -0.005828 0.009735 -0.005023 0.000000 -0.005513 0.000000
# 3 -0.021053 -0.005023 0.033499 0.000000 0.005030 0.000000
# 4 0.000000 0.000000 0.000000 0.044346 0.000000 0.013775
# 5 0.133812 -0.005513 0.005030 0.000000 0.182857 0.000000
# 6 0.000000 0.000000 0.000000 0.013775 0.000000 0.041523
#
#
# Mechanical properties :
#
#
# Convention : Reuss Voigt Hill
#
# Bulk Modulus (GPa) = 8.64343 59.41692 34.03017
# Shear Modulus (GPa) = 9.08101 27.04317 18.06209
#
# Velocity S-wave (km/s) = 2.14266 3.69756 3.02183
# Velocity P-wave (km/s) = 3.23900 6.94753 5.42030
#
# Compressibility (1/GPa) = 0.11569483
#
# Stress axis : x y z
#
# Youngs Moduli (GPa) = 7.33851 102.72301 29.85125
#
# Poissons Ratio (x) = 0.59865 0.62845
# Poissons Ratio (y) = 0.04277 0.14994
# Poissons Ratio (z) = 0.15450 0.51598
#
# Static dielectric constant tensor:
#      x y z
#    x 3.974270 0.000000 -0.789320 
#    y 0.000000 3.522690 0.000000 
#    z -0.789320 0.000000 3.460780 
# 
# 
# High freq. dielectric constant tensor:
#      x y z
#    x 1.765910 0.000000 -0.057180 
#    y 0.000000 1.768550 0.000000 
#    z -0.057180 0.000000 1.733190 
# 
# From -- ./inp_files/249347.got.cif
#   From: 2010.06.25/outbox.cif.g09.slc.cpg/sg12_125_cif.got.tgz:249347.got - 2010.06.28 00:19:55.
