data_PCOD8078313
_publ_section_title
;
Structure prediction by ZEFSAII (Michael W. Deem and Ramdas Pophale) SiO2 
 PCOD8078313
Probable space group: C 2/M
;
_chemical_formula_sum "Si O2"
_cell_formula_units_Z 52
_cell_length_a 20.599486
_cell_length_b 20.678299
_cell_length_c 14.121862
_cell_angle_alpha 90.000000
_cell_angle_beta 28.629698
_cell_angle_gamma 90.000000
_cell_volume 2882.251139
_symmetry_space_group_name_H-M "C 2/M"
_symmetry_group_IT_number 12
_symmetry_cell_setting 'monoclinic'
loop_
_space_group_symop_operation_xyz
x,y,z
-x,y,-z
-x,-y,-z
x,-y,z
1/2+x,1/2+y,z
1/2-x,1/2+y,-z
1/2-x,1/2-y,-z
1/2+x,1/2-y,z
loop_
_atom_site_type_symbol
_atom_site_label
_atom_site_fract_x
_atom_site_fract_y
_atom_site_fract_z
Si Si1 0.715874 0.072265 0.584000
Si Si2 0.295466 0.429327 0.829685
Si Si3 0.842390 0.701020 0.442280
Si Si4 0.125626 0.249444 0.398116
Si Si5 0.079060 0.106772 0.524273
Si Si6 0.500000 0.883704 0.000000
Si Si7 0.369839 0.813407 0.002036
O O1 0.694002 0.126469 0.532179
O O2 0.852685 0.090335 0.463705
O O3 0.727697 0.000000 0.524844
O O4 0.587061 0.071934 0.818882
O O5 0.233111 0.500000 0.932068
O O6 0.341170 0.429166 0.661518
O O7 0.425200 0.417465 0.729835
O O8 0.182339 0.374595 0.993365
O O9 0.750000 0.750000 0.500000
O O10 0.825385 0.706782 0.576865
O O11 0.998119 0.716833 0.215517
O O12 0.074727 0.182471 0.507751
O O13 0.251543 0.240098 0.164356
O O14 0.000000 0.280446 0.500000
O O15 0.600820 0.837310 0.928727
#
# Coordination Sequence:
#
# PCOD8078313 Si02
#       7
#     8   8   8   8   8   4   8
#     4  11  20  31  50  76 108 142 177 216 272 331
#     4  10  17  27  46  76 112 143 167 200 262 342
#     4  11  23  37  54  79 113 143 184 230 271 324
#     4  11  19  37  55  76 111 144 186 224 267 322
#     4  10  16  29  49  75 107 145 173 204 258 332
#     4  10  17  28  44  74 112 138 163 202 269 342
#     4  10  20  32  51  77 106 145 178 215 268 329
#
# _framework density 18.041454999999999
#
# number of rings (size 3 to 8) (size 9 to 14) (size 15 to 20)
#    0.000    1.538    7.692    3.000    0.000    3.077 
#    0.000    0.000    0.000    0.462    0.000    2.154 
#    0.000    0.000    0.000    0.000    0.000    0.000 
#
# Total GULP energy -322330.370920 kJ/mol
# GULP energy per Si atom -12397.321958 kJ/mol
# Density = 1.800039 g / cm^3
# Si number density = 18.041455 Si / 1000 Ang^3
#
#
#
# Elastic Constant Matrix: (Units=GPa)
#
#
# Indices 1 2 3 4 5 6 
#
# 1 91.1924 31.5581 25.9803 0.0001 -17.0931 0.0000
# 2 31.5581 75.7350 23.8254 -0.0006 1.9520 0.0007
# 3 25.9803 23.8254 77.4591 0.0000 -20.4591 0.0006
# 4 0.0001 -0.0006 0.0000 3.2911 -0.0002 3.4280
# 5 -17.0931 1.9520 -20.4591 -0.0002 24.9741 -0.0003
# 6 0.0000 0.0007 0.0006 3.4280 -0.0003 21.3912
#
#
#
# Elastic Compliance Matrix: (Units=1/GPa)
#
#
# Indices 1 2 3 4 5 6 
#
# 1 0.015346 -0.006589 -0.000269 -0.000002 0.010799 0.000001
# 2 -0.006589 0.018229 -0.006335 0.000005 -0.011124 -0.000001
# 3 -0.000269 -0.006335 0.019182 -0.000001 0.016025 0.000000
# 4 -0.000002 0.000005 -0.000001 0.364732 -0.000001 -0.058450
# 5 0.010799 -0.011124 0.016025 -0.000001 0.061430 0.000001
# 6 0.000001 -0.000001 0.000000 -0.058450 0.000001 0.056115
#
#
# Mechanical properties :
#
#
# Convention : Reuss Voigt Hill
#
# Bulk Modulus (GPa) = 37.91901 45.23490 41.57696
# Shear Modulus (GPa) = 8.76870 20.79945 14.78408
#
# Velocity S-wave (km/s) = 2.20700 3.39908 2.86571
# Velocity P-wave (km/s) = 5.24955 6.36649 5.83481
#
# Compressibility (1/GPa) = 0.02637199
#
# Stress axis : x y z
#
# Youngs Moduli (GPa) = 65.16148 54.85720 52.13353
#
# Poissons Ratio (x) = 0.36143 0.01400
# Poissons Ratio (y) = 0.42932 0.33029
# Poissons Ratio (z) = 0.01750 0.34755
#
# Static dielectric constant tensor:
#      x y z
#    x 3.462120 0.000000 -0.448660 
#    y 0.000000 3.230980 0.000000 
#    z -0.448660 0.000000 3.157620 
# 
# 
# High freq. dielectric constant tensor:
#      x y z
#    x 1.690600 0.000000 -0.049250 
#    y 0.000000 1.679350 0.000000 
#    z -0.049250 0.000000 1.665600 
# 
# From -- ./inp_files/235044.got.cif
#   From: 2010.06.25/outbox.cif.g09.slc.cpg/sg12_118_cif.got.tgz:235044.got - 2010.06.28 00:19:55.
