data_PCOD8078742
_publ_section_title
;
Structure prediction by ZEFSAII (Michael W. Deem and Ramdas Pophale) SiO2 
 PCOD8078742
Probable space group: C 2/M
;
_chemical_formula_sum "Si O2"
_cell_formula_units_Z 64
_cell_length_a 25.004359
_cell_length_b 8.952728
_cell_length_c 17.597140
_cell_angle_alpha 90.000000
_cell_angle_beta 76.570356
_cell_angle_gamma 90.000000
_cell_volume 3831.531549
_symmetry_space_group_name_H-M "C 2/M"
_symmetry_group_IT_number 12
_symmetry_cell_setting 'monoclinic'
loop_
_space_group_symop_operation_xyz
x,y,z
-x,y,-z
-x,-y,-z
x,-y,z
1/2+x,1/2+y,z
1/2-x,1/2+y,-z
1/2-x,1/2-y,-z
1/2+x,1/2-y,z
loop_
_atom_site_type_symbol
_atom_site_label
_atom_site_fract_x
_atom_site_fract_y
_atom_site_fract_z
Si Si1 0.626221 0.671559 0.420014
Si Si2 0.737814 0.823032 0.423115
Si Si3 0.161087 0.675019 0.677126
Si Si4 0.075683 0.171494 0.597763
Si Si5 0.937292 0.334607 0.994130
Si Si6 0.544019 0.674920 0.322204
Si Si7 0.970429 0.826207 0.841679
Si Si8 0.916291 0.674840 0.162439
O O1 0.645544 0.500000 0.401205
O O2 0.678387 0.777018 0.412873
O O3 0.585746 0.681580 0.504917
O O4 0.592727 0.738014 0.358977
O O5 0.750000 0.750000 0.500000
O O6 0.782245 0.765262 0.347542
O O7 0.741960 0.000000 0.430240
O O8 0.172434 0.500000 0.662700
O O9 0.120065 0.726900 0.625017
O O10 0.136168 0.711134 0.768376
O O11 0.015625 0.240048 0.635218
O O12 0.081222 0.000000 0.624731
O O13 0.917631 0.500000 0.977580
O O14 0.930546 0.232457 0.921940
O O15 0.903300 0.275235 0.079195
O O16 0.000000 0.335124 0.000000
O O17 0.540777 0.500000 0.339086
O O18 0.557677 0.711876 0.229849
O O19 0.030932 0.757054 0.821272
O O20 0.978142 0.000000 0.851192
O O21 0.930964 0.500000 0.157859
#
# Coordination Sequence:
#
# PCOD8078742 Si02
#       8
#     8   8   8   8   8   8   8   8
#     4  10  20  35  54  72  96 133 172 206 243 290
#     4  12  24  38  54  73  97 127 165 209 253 293
#     4  11  21  33  52  75  99 129 166 206 250 294
#     4  10  18  31  51  73  99 132 167 202 241 289
#     4   8  15  28  43  62  94 132 164 194 237 292
#     4   9  18  31  48  74 104 134 167 201 242 294
#     4  10  17  26  44  71 101 131 164 198 237 287
#     4   9  18  31  46  67  97 131 164 199 242 295
#
# _framework density 16.703503999999999
#
# number of rings (size 3 to 8) (size 9 to 14) (size 15 to 20)
#    0.000    2.125    2.500    3.000    0.000    4.250 
#    0.000    1.875    0.000    1.500    0.000    0.875 
#    0.000    0.000    0.000    0.000    0.000    0.000 
#
# Total GULP energy -396727.135026 kJ/mol
# GULP energy per Si atom -12397.722970 kJ/mol
# Density = 1.666549 g / cm^3
# Si number density = 16.703504 Si / 1000 Ang^3
#
#
#
# Elastic Constant Matrix: (Units=GPa)
#
#
# Indices 1 2 3 4 5 6 
#
# 1 76.8595 31.3467 46.5422 0.0000 3.5192 0.0000
# 2 31.3467 76.0072 46.1854 0.0000 -2.6915 0.0000
# 3 46.5422 46.1854 131.8997 0.0000 -3.5328 0.0000
# 4 0.0000 0.0000 0.0000 23.7533 0.0000 -2.7069
# 5 3.5192 -2.6915 -3.5328 0.0000 18.6240 0.0000
# 6 0.0000 0.0000 0.0000 -2.7069 0.0000 20.8838
#
#
#
# Elastic Compliance Matrix: (Units=1/GPa)
#
#
# Indices 1 2 3 4 5 6 
#
# 1 0.018107 -0.004676 -0.004886 0.000000 -0.005024 0.000000
# 2 -0.004676 0.017952 -0.004566 0.000000 0.002612 0.000000
# 3 -0.004886 -0.004566 0.010967 0.000000 0.002344 0.000000
# 4 0.000000 0.000000 0.000000 0.042731 0.000000 0.005539
# 5 -0.005024 0.002612 0.002344 0.000000 0.055466 0.000000
# 6 0.000000 0.000000 0.000000 0.005539 0.000000 0.048602
#
#
# Mechanical properties :
#
#
# Convention : Reuss Voigt Hill
#
# Bulk Modulus (GPa) = 53.27917 59.21278 56.24597
# Shear Modulus (GPa) = 21.89732 23.36503 22.63118
#
# Velocity S-wave (km/s) = 3.62462 3.74412 3.68486
# Velocity P-wave (km/s) = 7.03445 7.36326 7.20073
#
# Compressibility (1/GPa) = 0.01876906
#
# Stress axis : x y z
#
# Youngs Moduli (GPa) = 55.22746 55.70323 91.18013
#
# Poissons Ratio (x) = 0.26049 0.44554
# Poissons Ratio (y) = 0.25826 0.41633
# Poissons Ratio (z) = 0.26986 0.25434
#
# Static dielectric constant tensor:
#      x y z
#    x 2.968110 0.000000 -0.121090 
#    y 0.000000 3.096520 0.000000 
#    z -0.121090 0.000000 3.564740 
# 
# 
# High freq. dielectric constant tensor:
#      x y z
#    x 1.604660 0.000000 -0.006600 
#    y 0.000000 1.636460 0.000000 
#    z -0.006600 0.000000 1.654980 
# 
# From -- ./inp_files/287584.got.cif
#   From: 2010.06.25/outbox.cif.g09.slc.cpg/sg12_144_cif.got.tgz:287584.got - 2010.06.28 00:19:55.
