data_PCOD8078682
_publ_section_title
;
Structure prediction by ZEFSAII (Michael W. Deem and Ramdas Pophale) SiO2 
 PCOD8078682
Probable space group: C 2/M
;
_chemical_formula_sum "Si O2"
_cell_formula_units_Z 56
_cell_length_a 28.705114
_cell_length_b 8.999325
_cell_length_c 17.803263
_cell_angle_alpha 90.000000
_cell_angle_beta 49.689575
_cell_angle_gamma 90.000000
_cell_volume 3507.014050
_symmetry_space_group_name_H-M "C 2/M"
_symmetry_group_IT_number 12
_symmetry_cell_setting 'monoclinic'
loop_
_space_group_symop_operation_xyz
x,y,z
-x,y,-z
-x,-y,-z
x,-y,z
1/2+x,1/2+y,z
1/2-x,1/2+y,-z
1/2-x,1/2-y,-z
1/2+x,1/2-y,z
loop_
_atom_site_type_symbol
_atom_site_label
_atom_site_fract_x
_atom_site_fract_y
_atom_site_fract_z
Si Si1 0.570221 0.826568 0.436655
Si Si2 0.651940 0.674745 0.467808
Si Si3 0.150080 0.831609 0.235628
Si Si4 0.779097 0.824899 0.290317
Si Si5 0.810771 0.827689 0.963652
Si Si6 0.790971 0.327529 0.127670
Si Si7 0.310694 0.670140 0.415214
O O1 0.500000 0.783974 0.500000
O O2 0.594014 0.738039 0.484346
O O3 0.605953 0.781021 0.324130
O O4 0.579776 0.000000 0.440775
O O5 0.658914 0.500000 0.443827
O O6 0.712739 0.755110 0.374852
O O7 0.640097 0.706178 0.570071
O O8 0.140837 0.809591 0.155231
O O9 0.219639 0.798397 0.186652
O O10 0.133266 0.000000 0.276134
O O11 0.809749 0.748849 0.186265
O O12 0.825704 0.791271 0.312276
O O13 0.771075 0.000000 0.284410
O O14 0.797519 0.000000 0.993490
O O15 0.750000 0.750000 0.000000
O O16 0.831723 0.747937 0.018949
O O17 0.807426 0.500000 0.113535
O O18 0.293180 0.500000 0.437746
O O19 0.250000 0.750000 0.500000
#
# Coordination Sequence:
#
# PCOD8078682 Si02
#       7
#     8   8   8   8   8   8   8
#     4  11  23  34  45  63  85 113 152 190 222 258
#     4  10  18  30  45  60  83 113 146 183 220 259
#     4   9  18  31  45  60  82 112 146 182 219 257
#     4  10  17  26  42  63  88 117 145 175 213 255
#     4   9  17  28  42  61  84 111 144 177 214 260
#     4  10  18  27  41  64  90 116 147 176 209 257
#     4   8  16  27  40  60  83 110 143 175 211 257
#
# _framework density 15.968000999999999
#
# number of rings (size 3 to 8) (size 9 to 14) (size 15 to 20)
#    0.000    2.429    1.429    3.000    0.000    5.143 
#    0.000    0.000    0.000    0.000    0.000    0.000 
#    0.000    1.143    0.000   12.857    0.000    6.429 
#
# Total GULP energy -346897.691578 kJ/mol
# GULP energy per Si atom -12389.203271 kJ/mol
# Density = 1.593166 g / cm^3
# Si number density = 15.968001 Si / 1000 Ang^3
#
#
#
# Elastic Constant Matrix: (Units=GPa)
#
#
# Indices 1 2 3 4 5 6 
#
# 1 86.3106 47.6078 54.2182 0.0000 35.6368 0.0000
# 2 47.6078 92.3817 40.4392 0.0007 21.7553 -0.0003
# 3 54.2182 40.4392 67.2593 0.0004 33.4035 0.0000
# 4 0.0000 0.0007 0.0004 24.1779 -0.0002 6.5517
# 5 35.6368 21.7553 33.4035 -0.0002 34.7404 0.0000
# 6 0.0000 -0.0003 0.0000 6.5517 0.0000 19.7441
#
#
#
# Elastic Compliance Matrix: (Units=1/GPa)
#
#
# Indices 1 2 3 4 5 6 
#
# 1 0.028206 -0.005901 -0.012737 0.000000 -0.012992 0.000000
# 2 -0.005901 0.015959 -0.005515 0.000000 0.001362 0.000000
# 3 -0.012737 -0.005515 0.038752 -0.000001 -0.020741 0.000000
# 4 0.000000 0.000000 -0.000001 0.045447 0.000001 -0.015081
# 5 -0.012992 0.001362 -0.020741 0.000001 0.061202 0.000000
# 6 0.000000 0.000000 0.000000 -0.015081 0.000000 0.055652
#
#
# Mechanical properties :
#
#
# Convention : Reuss Voigt Hill
#
# Bulk Modulus (GPa) = 28.89213 58.94243 43.91728
# Shear Modulus (GPa) = 16.39015 22.64492 19.51754
#
# Velocity S-wave (km/s) = 3.20728 3.76991 3.49992
# Velocity P-wave (km/s) = 5.64346 7.47948 6.62538
#
# Compressibility (1/GPa) = 0.03461150
#
# Stress axis : x y z
#
# Youngs Moduli (GPa) = 35.45318 62.66100 25.80493
#
# Poissons Ratio (x) = 0.36974 0.32869
# Poissons Ratio (y) = 0.20920 0.14231
# Poissons Ratio (z) = 0.45158 0.34557
#
# Static dielectric constant tensor:
#      x y z
#    x 3.236730 0.000000 0.716460 
#    y 0.000000 3.174990 0.000000 
#    z 0.716460 0.000000 3.125430 
# 
# 
# High freq. dielectric constant tensor:
#      x y z
#    x 1.582830 0.000000 0.056480 
#    y 0.000000 1.632660 0.000000 
#    z 0.056480 0.000000 1.585890 
# 
# From -- ./inp_files/291825.got.cif
#   From: 2010.06.25/outbox.cif.g09.slc.cpg/sg12_146_cif.got.tgz:291825.got - 2010.06.28 00:19:55.
