data_PCOD8078617
_publ_section_title
;
Structure prediction by ZEFSAII (Michael W. Deem and Ramdas Pophale) SiO2 
 PCOD8078617
Probable space group: C 2/M
;
_chemical_formula_sum "Si O2"
_cell_formula_units_Z 40
_cell_length_a 26.119395
_cell_length_b 8.775564
_cell_length_c 15.798797
_cell_angle_alpha 90.000000
_cell_angle_beta 143.849667
_cell_angle_gamma 90.000000
_cell_volume 2136.214861
_symmetry_space_group_name_H-M "C 2/M"
_symmetry_group_IT_number 12
_symmetry_cell_setting 'monoclinic'
loop_
_space_group_symop_operation_xyz
x,y,z
-x,y,-z
-x,-y,-z
x,-y,z
1/2+x,1/2+y,z
1/2-x,1/2+y,-z
1/2-x,1/2-y,-z
1/2+x,1/2-y,z
loop_
_atom_site_type_symbol
_atom_site_label
_atom_site_fract_x
_atom_site_fract_y
_atom_site_fract_z
Si Si1 0.415631 0.320145 0.340454
Si Si2 0.082286 0.180138 0.847881
Si Si3 0.119777 0.176860 0.150004
Si Si4 0.253962 0.674593 0.821607
Si Si5 0.025140 0.320747 0.159545
O O1 0.500000 0.251509 0.500000
O O2 0.421458 0.500000 0.345555
O O3 0.411556 0.257087 0.239353
O O4 0.330514 0.275425 0.278595
O O5 0.997631 0.257751 0.777582
O O6 0.068974 0.000000 0.835324
O O7 0.170528 0.228732 0.013382
O O8 0.214621 0.196631 0.234154
O O9 0.112696 0.241973 0.236757
O O10 0.092233 0.000000 0.110057
O O11 0.054087 0.275704 0.006502
O O12 0.229985 0.500000 0.808073
O O13 0.039388 0.500000 0.182581
#
# Coordination Sequence:
#
# PCOD8078617 Si02
#       5
#     8   8   8   8   8
#     4  10  21  35  51  71  96 128 163 201 246 291
#     4   9  18  33  50  70  99 131 162 196 240 291
#     4   9  16  28  45  68 100 132 158 189 239 292
#     4   9  18  31  50  74  97 127 162 196 237 285
#     4  10  17  25  43  73 101 125 158 198 239 280
#
# _framework density 18.724708
#
# number of rings (size 3 to 8) (size 9 to 14) (size 15 to 20)
#    0.000    2.600    0.000    5.400    0.000    5.200 
#    0.000    0.000    0.000    1.200    0.000    0.000 
#    0.000    0.000    0.000    0.000    0.000    0.000 
#
# Total GULP energy -247867.624583 kJ/mol
# GULP energy per Si atom -12393.381229 kJ/mol
# Density = 1.868209 g / cm^3
# Si number density = 18.724708 Si / 1000 Ang^3
#
#
#
# Elastic Constant Matrix: (Units=GPa)
#
#
# Indices 1 2 3 4 5 6 
#
# 1 160.1080 38.6494 52.4278 0.0000 28.6568 0.0000
# 2 38.6494 47.0669 18.7884 0.0000 5.2166 0.0000
# 3 52.4278 18.7884 65.3673 0.0000 9.0197 0.0000
# 4 0.0000 0.0000 0.0000 13.1032 0.0000 8.3441
# 5 28.6568 5.2166 9.0197 0.0000 8.0701 0.0000
# 6 0.0000 0.0000 0.0000 8.3441 0.0000 33.9485
#
#
#
# Elastic Compliance Matrix: (Units=1/GPa)
#
#
# Indices 1 2 3 4 5 6 
#
# 1 0.022207 -0.008381 -0.006229 0.000000 -0.066478 0.000000
# 2 -0.008381 0.027759 -0.003414 0.000000 0.015633 0.000000
# 3 -0.006229 -0.003414 0.021186 0.000000 0.000648 0.000000
# 4 0.000000 0.000000 0.000000 0.090479 0.000000 -0.022238
# 5 -0.066478 0.015633 0.000648 0.000000 0.349150 0.000000
# 6 0.000000 0.000000 0.000000 -0.022238 0.000000 0.034922
#
#
# Mechanical properties :
#
#
# Convention : Reuss Voigt Hill
#
# Bulk Modulus (GPa) = 28.48693 54.69703 41.59198
# Shear Modulus (GPa) = 8.42527 21.86946 15.14736
#
# Velocity S-wave (km/s) = 2.12351 3.42123 2.84729
# Velocity P-wave (km/s) = 4.61075 6.69933 5.75065
#
# Compressibility (1/GPa) = 0.03510381
#
# Stress axis : x y z
#
# Youngs Moduli (GPa) = 45.03006 36.02498 47.20048
#
# Poissons Ratio (x) = 0.30193 0.29403
# Poissons Ratio (y) = 0.37740 0.16113
# Poissons Ratio (z) = 0.28051 0.12298
#
# Static dielectric constant tensor:
#      x y z
#    x 4.256710 0.000000 0.024260 
#    y 0.000000 3.255600 0.000000 
#    z 0.024260 0.000000 3.006790 
# 
# 
# High freq. dielectric constant tensor:
#      x y z
#    x 1.756230 0.000000 0.013090 
#    y 0.000000 1.720660 0.000000 
#    z 0.013090 0.000000 1.660980 
# 
# From -- ./inp_files/220569.got.cif
#   From: 2010.06.25/outbox.cif.g09.slc.cpg/sg12_111_cif.got.tgz:220569.got - 2010.06.28 00:19:55.
