data_PCOD8078116
_publ_section_title
;
Structure prediction by ZEFSAII (Michael W. Deem and Ramdas Pophale) SiO2 
 PCOD8078116
Probable space group: C 2/M
;
_chemical_formula_sum "Si O2"
_cell_formula_units_Z 64
_cell_length_a 20.575096
_cell_length_b 8.855806
_cell_length_c 20.498961
_cell_angle_alpha 90.000000
_cell_angle_beta 99.647825
_cell_angle_gamma 90.000000
_cell_volume 3682.269017
_symmetry_space_group_name_H-M "C 2/M"
_symmetry_group_IT_number 12
_symmetry_cell_setting 'monoclinic'
loop_
_space_group_symop_operation_xyz
x,y,z
-x,y,-z
-x,-y,-z
x,-y,z
1/2+x,1/2+y,z
1/2-x,1/2+y,-z
1/2-x,1/2-y,-z
1/2+x,1/2-y,z
loop_
_atom_site_type_symbol
_atom_site_label
_atom_site_fract_x
_atom_site_fract_y
_atom_site_fract_z
Si Si1 0.574692 0.678120 0.066511
Si Si2 0.960959 0.322277 0.326222
Si Si3 0.099304 0.167547 0.209350
Si Si4 0.942597 0.170428 0.192587
Si Si5 0.933021 0.321138 0.061493
Si Si6 0.182032 0.177576 0.468025
Si Si7 0.066730 0.177502 0.546134
Si Si8 0.612331 0.824387 0.339003
O O1 0.558467 0.500000 0.057276
O O2 0.621115 0.705927 0.138236
O O3 0.508484 0.773441 0.065530
O O4 0.607879 0.743077 0.005530
O O5 0.954120 0.500000 0.319205
O O6 0.924607 0.249693 0.257892
O O7 0.924476 0.263534 0.384364
O O8 0.037689 0.273291 0.342181
O O9 0.129384 0.284368 0.266547
O O10 0.020597 0.174560 0.196125
O O11 0.123269 0.000000 0.233099
O O12 0.907393 0.259112 0.127000
O O13 0.915694 0.000000 0.189206
O O14 0.924438 0.500000 0.057813
O O15 0.250000 0.250000 0.500000
O O16 0.127169 0.226507 0.511014
O O17 0.161835 0.234567 0.393383
O O18 0.190295 0.000000 0.466697
O O19 0.000000 0.231877 0.500000
O O20 0.064865 0.000000 0.559777
O O21 0.623354 0.000000 0.352326
#
# Coordination Sequence:
#
# PCOD8078116 Si02
#       8
#     8   8   8   8   8   8   8   8
#     4   9  15  23  33  47  70 106 148 185 226 279
#     4  10  19  29  46  71  95 118 152 201 242 280
#     4   8  15  25  38  55  77 109 149 190 230 275
#     4   9  16  26  38  53  79 114 150 187 230 284
#     4  10  16  21  31  48  73 105 144 189 232 274
#     4  11  23  38  55  73  98 128 161 200 243 295
#     4  10  20  35  54  74  96 127 162 197 241 293
#     4  10  19  30  46  68  93 120 153 194 242 288
#
# _framework density 17.380587999999999
#
# number of rings (size 3 to 8) (size 9 to 14) (size 15 to 20)
#    0.000    2.375    1.250    4.500    0.000    5.750 
#    0.000    0.000    0.000    0.000    0.000    0.000 
#    0.000    0.000    0.000    1.125    0.000   15.500 
#
# Total GULP energy -396653.637132 kJ/mol
# GULP energy per Si atom -12395.426160 kJ/mol
# Density = 1.734103 g / cm^3
# Si number density = 17.380588 Si / 1000 Ang^3
#
#
#
# Elastic Constant Matrix: (Units=GPa)
#
#
# Indices 1 2 3 4 5 6 
#
# 1 45.9318 25.9537 34.6968 0.0000 2.2400 0.0000
# 2 25.9537 89.8370 63.4017 0.0000 1.8531 0.0000
# 3 34.6968 63.4017 174.8933 0.0000 2.1825 0.0000
# 4 0.0000 0.0000 0.0000 34.8562 0.0000 1.3083
# 5 2.2400 1.8531 2.1825 0.0000 8.2530 0.0000
# 6 0.0000 0.0000 0.0000 1.3083 0.0000 14.1717
#
#
#
# Elastic Compliance Matrix: (Units=1/GPa)
#
#
# Indices 1 2 3 4 5 6 
#
# 1 0.027730 -0.005462 -0.003454 0.000000 -0.005386 0.000000
# 2 -0.005462 0.016065 -0.004729 0.000000 -0.000874 0.000000
# 3 -0.003454 -0.004729 0.008119 0.000000 -0.000148 0.000000
# 4 0.000000 0.000000 0.000000 0.028789 0.000000 -0.002658
# 5 -0.005386 -0.000874 -0.000148 0.000000 0.122865 0.000000
# 6 0.000000 0.000000 0.000000 -0.002658 0.000000 0.070809
#
#
# Mechanical properties :
#
#
# Convention : Reuss Voigt Hill
#
# Bulk Modulus (GPa) = 40.61255 62.08517 51.34886
# Shear Modulus (GPa) = 16.13554 23.89683 20.01618
#
# Velocity S-wave (km/s) = 3.05021 3.71201 3.39726
# Velocity P-wave (km/s) = 5.98518 7.36006 6.70794
#
# Compressibility (1/GPa) = 0.02462293
#
# Stress axis : x y z
#
# Youngs Moduli (GPa) = 36.06256 62.24710 123.16421
#
# Poissons Ratio (x) = 0.34002 0.42538
# Poissons Ratio (y) = 0.19699 0.58247
# Poissons Ratio (z) = 0.12455 0.29438
#
# Static dielectric constant tensor:
#      x y z
#    x 2.495020 0.000000 -0.039690 
#    y 0.000000 3.259300 0.000000 
#    z -0.039690 0.000000 3.872800 
# 
# 
# High freq. dielectric constant tensor:
#      x y z
#    x 1.575690 0.000000 0.001070 
#    y 0.000000 1.683360 0.000000 
#    z 0.001070 0.000000 1.702420 
# 
# From -- ./inp_files/314198.got.cif
#   From: 2010.06.25/outbox.cif.g09.slc.cpg/sg12_158_cif.got.tgz:314198.got - 2010.06.28 00:19:55.
