data_PCOD8078716
_publ_section_title
;
Structure prediction by ZEFSAII (Michael W. Deem and Ramdas Pophale) SiO2 
 PCOD8078716
Probable space group: C 2/M
;
_chemical_formula_sum "Si O2"
_cell_formula_units_Z 64
_cell_length_a 25.472787
_cell_length_b 10.779648
_cell_length_c 25.601814
_cell_angle_alpha 90.000000
_cell_angle_beta 146.625178
_cell_angle_gamma 90.000000
_cell_volume 3867.268618
_symmetry_space_group_name_H-M "C 2/M"
_symmetry_group_IT_number 12
_symmetry_cell_setting 'monoclinic'
loop_
_space_group_symop_operation_xyz
x,y,z
-x,y,-z
-x,-y,-z
x,-y,z
1/2+x,1/2+y,z
1/2-x,1/2+y,-z
1/2-x,1/2-y,-z
1/2+x,1/2-y,z
loop_
_atom_site_type_symbol
_atom_site_label
_atom_site_fract_x
_atom_site_fract_y
_atom_site_fract_z
Si Si1 0.097927 0.744236 0.836626
Si Si2 0.733545 0.351886 0.310108
Si Si3 0.445014 0.147193 0.505107
Si Si4 0.713579 0.134343 0.018387
Si Si5 0.125631 0.859966 0.006734
Si Si6 0.453591 0.641684 0.792689
Si Si7 0.270072 0.642524 0.808150
Si Si8 0.082792 0.646944 0.709797
O O1 0.173056 0.858839 0.899394
O O2 0.067445 0.704748 0.753738
O O3 0.000257 0.782012 0.784443
O O4 0.151294 0.635532 0.913360
O O5 0.726260 0.500000 0.303172
O O6 0.835955 0.304652 0.415725
O O7 0.650105 0.301544 0.279004
O O8 0.716797 0.295836 0.237803
O O9 0.500000 0.201364 0.500000
O O10 0.496120 0.191325 0.600633
O O11 0.446004 0.000000 0.501898
O O12 0.689334 0.254157 0.032948
O O13 0.693941 0.000000 0.029039
O O14 0.135108 0.840817 0.077307
O O15 0.164325 0.000000 0.025059
O O16 0.016729 0.847433 0.898154
O O17 0.444731 0.500000 0.767051
O O18 0.244934 0.500000 0.776588
O O19 0.180282 0.699030 0.765227
O O20 0.085187 0.500000 0.717611
#
# Coordination Sequence:
#
# PCOD8078716 Si02
#       8
#     8   8   8   8   8   8   8   8
#     4  10  19  29  42  62  92 121 156 191 233 269
#     4   9  16  27  43  64  91 121 149 183 235 287
#     4   9  15  25  42  65  91 116 142 181 237 289
#     4  10  19  29  45  66  91 125 164 197 227 269
#     4   9  17  29  45  68  99 128 154 189 235 279
#     4   9  18  30  42  59  90 127 155 183 224 278
#     4   9  15  24  42  67  93 117 144 184 230 279
#     4  10  17  26  43  67  93 116 145 187 236 281
#
# _framework density 16.549147999999999
#
# number of rings (size 3 to 8) (size 9 to 14) (size 15 to 20)
#    0.000    2.625    2.500    0.750    0.000    3.500 
#    0.000    3.125    0.000    0.000    0.000    7.875 
#    0.000   10.000    0.000    0.000    0.000    0.000 
#
# Total GULP energy -396460.495586 kJ/mol
# GULP energy per Si atom -12389.390487 kJ/mol
# Density = 1.651148 g / cm^3
# Si number density = 16.549148 Si / 1000 Ang^3
#
#
#
# Elastic Constant Matrix: (Units=GPa)
#
#
# Indices 1 2 3 4 5 6 
#
# 1 117.5972 22.3856 69.3391 0.0000 3.9261 0.0000
# 2 22.3856 51.4126 18.9944 0.0000 0.6955 0.0000
# 3 69.3391 18.9944 105.1073 0.0000 -2.9937 0.0000
# 4 0.0000 0.0000 0.0000 6.3623 0.0000 -2.5370
# 5 3.9261 0.6955 -2.9937 0.0000 34.1086 0.0000
# 6 0.0000 0.0000 0.0000 -2.5370 0.0000 17.3288
#
#
#
# Elastic Compliance Matrix: (Units=1/GPa)
#
#
# Indices 1 2 3 4 5 6 
#
# 1 0.014515 -0.002919 -0.009117 0.000000 -0.002411 0.000000
# 2 -0.002919 0.021449 -0.001958 0.000000 -0.000273 0.000000
# 3 -0.009117 -0.001958 0.015953 0.000000 0.002490 0.000000
# 4 0.000000 0.000000 0.000000 0.166921 0.000000 0.024438
# 5 -0.002411 -0.000273 0.002490 0.000000 0.029820 0.000000
# 6 0.000000 0.000000 0.000000 0.024438 0.000000 0.061285
#
#
# Mechanical properties :
#
#
# Convention : Reuss Voigt Hill
#
# Bulk Modulus (GPa) = 41.79050 55.06171 48.42610
# Shear Modulus (GPa) = 14.45469 22.45314 18.45391
#
# Velocity S-wave (km/s) = 2.95861 3.68741 3.34293
# Velocity P-wave (km/s) = 6.08098 7.17448 6.65025
#
# Compressibility (1/GPa) = 0.02392889
#
# Stress axis : x y z
#
# Youngs Moduli (GPa) = 68.89191 46.62292 62.68296
#
# Poissons Ratio (x) = 0.13611 0.57148
# Poissons Ratio (y) = 0.20112 0.12273
# Poissons Ratio (z) = 0.62809 0.09129
#
# Static dielectric constant tensor:
#      x y z
#    x 3.099760 0.000000 -0.009220 
#    y 0.000000 2.607080 0.000000 
#    z -0.009220 0.000000 3.268720 
# 
# 
# High freq. dielectric constant tensor:
#      x y z
#    x 1.629310 0.000000 -0.005060 
#    y 0.000000 1.575180 0.000000 
#    z -0.005060 0.000000 1.639180 
# 
# From -- ./inp_files/369205.got.cif
#   From: 2010.06.25/outbox.cif.g09.slc.cpg/sg12_185_cif.got.tgz:369205.got - 2010.06.28 00:19:55.
