data_PCOD8078854
_publ_section_title
;
Structure prediction by ZEFSAII (Michael W. Deem and Ramdas Pophale) SiO2 
 PCOD8078854
Probable space group: C 2/M
;
_chemical_formula_sum "Si O2"
_cell_formula_units_Z 40
_cell_length_a 8.506464
_cell_length_b 18.560491
_cell_length_c 25.239387
_cell_angle_alpha 90.000000
_cell_angle_beta 148.490516
_cell_angle_gamma 90.000000
_cell_volume 2082.666454
_symmetry_space_group_name_H-M "C 2/M"
_symmetry_group_IT_number 12
_symmetry_cell_setting 'monoclinic'
loop_
_space_group_symop_operation_xyz
x,y,z
-x,y,-z
-x,-y,-z
x,-y,z
1/2+x,1/2+y,z
1/2-x,1/2+y,-z
1/2-x,1/2-y,-z
1/2+x,1/2-y,z
loop_
_atom_site_type_symbol
_atom_site_label
_atom_site_fract_x
_atom_site_fract_y
_atom_site_fract_z
Si Si1 0.346687 0.323233 0.807568
Si Si2 0.274235 0.336330 0.189618
Si Si3 0.816994 0.820523 0.398864
Si Si4 0.684124 0.339207 0.397689
Si Si5 0.204432 0.419311 0.007076
O O1 0.525474 0.326865 0.804533
O O2 0.343184 0.240911 0.825014
O O3 0.012584 0.355490 0.702261
O O4 0.501069 0.371323 0.897390
O O5 0.471465 0.376221 0.292270
O O6 0.983820 0.385523 0.095412
O O7 0.778099 0.736367 0.398645
O O8 0.000000 0.857366 0.500000
O O9 0.002594 0.829990 0.399057
O O10 0.000000 0.381472 0.500000
O O11 0.304910 0.500000 0.020374
O O12 0.000000 0.420692 0.000000
#
# Coordination Sequence:
#
# PCOD8078854 Si02
#       5
#     8   8   8   8   8
#     4  10  18  30  50  74 100 128 161 200 240 285
#     4  10  18  30  50  74 100 128 161 200 240 285
#     4  10  17  27  44  69 100 128 158 195 239 287
#     4  10  17  27  44  69 100 128 158 195 239 287
#     4   9  19  34  51  71  96 129 166 202 242 287
#
# _framework density 19.206147999999999
#
# number of rings (size 3 to 8) (size 9 to 14) (size 15 to 20)
#    0.000    2.200    0.000    9.000    0.000    0.000 
#    0.000    3.000    0.000   10.800    0.000    0.000 
#    0.000    0.000    0.000    0.000    0.000    0.000 
#
# Total GULP energy -247895.564987 kJ/mol
# GULP energy per Si atom -12394.778249 kJ/mol
# Density = 1.916243 g / cm^3
# Si number density = 19.206148 Si / 1000 Ang^3
#
#
#
# Elastic Constant Matrix: (Units=GPa)
#
#
# Indices 1 2 3 4 5 6 
#
# 1 71.0131 -0.5966 23.4828 0.0259 -18.7382 0.0209
# 2 -0.5966 55.6931 49.3320 0.0029 -5.3645 0.0058
# 3 23.4828 49.3320 212.4597 0.0499 -12.7805 0.0256
# 4 0.0259 0.0029 0.0499 3.6750 0.0174 -0.2104
# 5 -18.7382 -5.3645 -12.7805 0.0174 28.7308 0.0118
# 6 0.0209 0.0058 0.0256 -0.2104 0.0118 10.3104
#
#
#
# Elastic Compliance Matrix: (Units=1/GPa)
#
#
# Indices 1 2 3 4 5 6 
#
# 1 0.017733 0.003034 -0.001988 -0.000156 0.011248 -0.000049
# 2 0.003034 0.023229 -0.005496 0.000016 0.003871 -0.000010
# 3 -0.001988 -0.005496 0.006230 -0.000069 0.000449 -0.000010
# 4 -0.000156 0.000016 -0.000069 0.272429 -0.000297 0.005560
# 5 0.011248 0.003871 0.000449 -0.000297 0.043064 -0.000081
# 6 -0.000049 -0.000010 -0.000010 0.005560 -0.000081 0.097103
#
#
# Mechanical properties :
#
#
# Convention : Reuss Voigt Hill
#
# Bulk Modulus (GPa) = 26.11508 53.73358 39.92433
# Shear Modulus (GPa) = 10.38525 26.33975 18.36250
#
# Velocity S-wave (km/s) = 2.32787 3.70729 3.09540
# Velocity P-wave (km/s) = 4.56641 6.80906 5.79722
#
# Compressibility (1/GPa) = 0.03829205
#
# Stress axis : x y z
#
# Youngs Moduli (GPa) = 56.39287 43.04887 160.52191
#
# Poissons Ratio (x) = -0.13062 0.31909
# Poissons Ratio (y) = -0.17111 0.88227
# Poissons Ratio (z) = 0.11210 0.23661
#
# Static dielectric constant tensor:
#      x y z
#    x 3.378480 -0.000020 0.009110 
#    y -0.000020 3.003500 -0.000040 
#    z 0.009110 -0.000040 4.724540 
# 
# 
# High freq. dielectric constant tensor:
#      x y z
#    x 1.746390 0.000000 -0.000680 
#    y 0.000000 1.677200 0.000000 
#    z -0.000680 0.000000 1.784580 
# 
# From -- ./inp_files/256776.got.cif
#   From: 2010.06.25/outbox.cif.g09.slc.cpg/sg12_129_cif.got.tgz:256776.got - 2010.06.28 00:19:55.
