data_PCOD8078106
_publ_section_title
;
Structure prediction by ZEFSAII (Michael W. Deem and Ramdas Pophale) SiO2 
 PCOD8078106
Probable space group: C 2/M
;
_chemical_formula_sum "Si O2"
_cell_formula_units_Z 44
_cell_length_a 14.407650
_cell_length_b 20.687346
_cell_length_c 8.834174
_cell_angle_alpha 90.000000
_cell_angle_beta 107.688786
_cell_angle_gamma 90.000000
_cell_volume 2508.589504
_symmetry_space_group_name_H-M "C 2/M"
_symmetry_group_IT_number 12
_symmetry_cell_setting 'monoclinic'
loop_
_space_group_symop_operation_xyz
x,y,z
-x,y,-z
-x,-y,-z
x,-y,z
1/2+x,1/2+y,z
1/2-x,1/2+y,-z
1/2-x,1/2-y,-z
1/2+x,1/2-y,z
loop_
_atom_site_type_symbol
_atom_site_label
_atom_site_fract_x
_atom_site_fract_y
_atom_site_fract_z
Si Si1 0.000000 0.608509 0.500000
Si Si2 0.820095 0.571701 0.592088
Si Si3 0.867820 0.690421 0.211797
Si Si4 0.525157 0.727894 0.171849
Si Si5 0.897477 0.362388 0.911425
Si Si6 0.217928 0.189472 0.385439
O O1 0.924934 0.566609 0.561610
O O2 0.939238 0.651300 0.354866
O O3 0.773352 0.500000 0.565070
O O4 0.831206 0.592651 0.773040
O O5 0.749005 0.621627 0.473110
O O6 0.765245 0.701164 0.243633
O O7 0.923462 0.758741 0.209182
O O8 0.843166 0.653607 0.042391
O O9 0.576433 0.797056 0.166428
O O10 0.600695 0.686117 0.308364
O O11 0.500000 0.692859 0.000000
O O12 0.000000 0.398100 0.000000
O O13 0.250000 0.250000 0.500000
#
# Coordination Sequence:
#
# PCOD8078106 Si02
#       6
#     4   8   8   8   8   8
#     4  10  15  32  46  72 106 142 167 204 265 318
#     4  11  21  32  49  74 107 141 177 215 261 320
#     4   9  18  30  55  76 108 135 173 213 249 324
#     4   9  17  32  52  76 107 132 174 213 257 305
#     4   9  16  32  46  72 103 138 170 204 257 314
#     4  11  20  34  54  80 108 139 173 216 265 308
#
# _framework density 17.539736999999999
#
# number of rings (size 3 to 8) (size 9 to 14) (size 15 to 20)
#    0.000    2.545    5.455    1.364    0.000    3.273 
#    0.000    0.909    0.000    0.545    0.000    2.545 
#    0.000    0.000    0.000    0.000    0.000    0.000 
#
# Total GULP energy -272628.281907 kJ/mol
# GULP energy per Si atom -12392.194632 kJ/mol
# Density = 1.749982 g / cm^3
# Si number density = 17.539737 Si / 1000 Ang^3
#
#
#
# Elastic Constant Matrix: (Units=GPa)
#
#
# Indices 1 2 3 4 5 6 
#
# 1 55.1635 23.3949 38.5798 0.0000 0.4145 0.0000
# 2 23.3949 66.9662 29.9655 0.0000 5.4124 0.0000
# 3 38.5798 29.9655 104.7419 0.0000 -3.6391 0.0000
# 4 0.0000 0.0000 0.0000 6.8300 0.0000 11.0234
# 5 0.4145 5.4124 -3.6391 0.0000 34.8138 0.0000
# 6 0.0000 0.0000 0.0000 11.0234 0.0000 10.8317
#
#
#
# Elastic Compliance Matrix: (Units=1/GPa)
#
#
# Indices 1 2 3 4 5 6 
#
# 1 0.026087 -0.005488 -0.008049 0.000000 -0.000299 0.000000
# 2 -0.005488 0.018639 -0.003422 0.000000 -0.003190 0.000000
# 3 -0.008049 -0.003422 0.013562 0.000000 0.002045 0.000000
# 4 0.000000 0.000000 0.000000 -0.227870 0.000000 0.231903
# 5 -0.000299 -0.003190 0.002045 0.000000 0.029438 0.000000
# 6 0.000000 0.000000 0.000000 0.231903 0.000000 -0.143686
#
#
# Mechanical properties :
#
#
# Convention : Reuss Voigt Hill
#
# Bulk Modulus (GPa) = 41.03308 45.63912 43.33610
# Shear Modulus (GPa) = -20.67914 19.49051 -0.59432
#
# Velocity S-wave (km/s) = -3.43736 3.33711 -0.58273
# Velocity P-wave (km/s) = 2.77330 6.39729 4.93034
#
# Compressibility (1/GPa) = 0.02437058
#
# Stress axis : x y z
#
# Youngs Moduli (GPa) = 38.33367 53.65056 73.73514
#
# Poissons Ratio (x) = 0.29442 0.59349
# Poissons Ratio (y) = 0.21036 0.25232
# Poissons Ratio (z) = 0.30855 0.18359
#
# Static dielectric constant tensor:
#      x y z
#    x 3.344140 0.000000 -0.155570 
#    y 0.000000 2.833770 0.000000 
#    z -0.155570 0.000000 3.654140 
# 
# 
# High freq. dielectric constant tensor:
#      x y z
#    x 1.651240 0.000000 -0.004360 
#    y 0.000000 1.624020 0.000000 
#    z -0.004360 0.000000 1.700800 
# 
# From -- ./inp_files/62829.got.cif
#   From: 2010.06.25/outbox.cif.g09.slc.cpg/sg12_32_cif.got.tgz:62829.got - 2010.06.28 00:19:55.
