data_PCOD8078015
_publ_section_title
;
Structure prediction by ZEFSAII (Michael W. Deem and Ramdas Pophale) SiO2 
 PCOD8078015
Probable space group: P 21/M
;
_chemical_formula_sum "Si O2"
_cell_formula_units_Z 28
_cell_length_a 30.000000
_cell_length_b 9.000000
_cell_length_c 30.000000
_cell_angle_alpha 90.000000
_cell_angle_beta 10.000000
_cell_angle_gamma 90.000000
_cell_volume 1406.550239
_symmetry_space_group_name_H-M "P 21/M"
_symmetry_group_IT_number 11
_symmetry_cell_setting 'monoclinic'
loop_
_space_group_symop_operation_xyz
x,y,z
-x,1/2+y,-z
-x,-y,-z
x,1/2-y,z
loop_
_atom_site_type_symbol
_atom_site_label
_atom_site_fract_x
_atom_site_fract_y
_atom_site_fract_z
Si Si1 0.185918 0.919655 0.200414
Si Si2 0.760700 0.572642 0.760696
Si Si3 0.459086 0.578057 0.493861
Si Si4 0.343298 0.572279 0.420025
Si Si5 0.135121 0.928452 0.060067
Si Si6 0.926869 0.923969 0.971248
Si Si7 0.658198 0.919698 0.670232
O O1 0.192335 0.750000 0.212167
O O2 0.918858 0.953674 0.439465
O O3 0.213364 0.037152 0.212879
O O4 0.418034 0.948871 0.938418
O O5 0.756655 0.750000 0.756991
O O6 0.000000 0.500000 0.500000
O O7 0.500000 0.500000 0.000000
O O8 0.500000 0.500000 0.500000
O O9 0.493671 0.750000 0.469089
O O10 0.177742 0.539302 0.753013
O O11 0.674899 0.525757 0.246351
O O12 0.339638 0.750000 0.431672
O O13 0.585813 0.499452 0.206056
O O14 0.368093 0.536829 0.343575
O O15 0.077750 0.498633 0.697785
O O16 0.145091 0.750000 0.056436
O O17 0.054267 0.970707 0.089972
O O18 0.917552 0.750000 0.966671
O O19 0.655517 0.750000 0.654752
#
# Coordination Sequence:
#
# PCOD8078015 Si02
#       7
#     4   4   4   4   4   4   4
#     4  10  21  38  61  89 123 161 201 250 309 363
#     4  12  25  42  65  93 127 165 209 258 309 368
#     4  10  21  36  57  83 115 153 195 244 297 356
#     4  12  25  42  65  93 127 165 205 254 309 368
#     4  12  25  42  65  93 124 162 209 258 307 366
#     4  10  21  38  58  84 117 155 197 246 303 357
#     4  10  21  38  61  89 123 161 201 250 305 364
#
# _framework density 19.906860999999999
#
# number of rings (size 3 to 8) (size 9 to 14) (size 15 to 20)
#    0.000    1.143    0.000    6.857    0.000    5.714 
#    0.000    0.000    0.000    0.000    0.000    0.000 
#    0.000    0.000    0.000    0.000    0.000    0.000 
#
# Total GULP energy -347339.473361 kJ/mol
# GULP energy per Si atom -12404.981191 kJ/mol
# Density = 1.986155 g / cm^3
# Si number density = 19.906861 Si / 1000 Ang^3
#
#
#
# Elastic Constant Matrix: (Units=GPa)
#
#
# Indices 1 2 3 4 5 6 
#
# 1 97.4108 44.9375 27.2712 0.0000 1.6553 0.0000
# 2 44.9375 141.2929 38.0865 0.0000 0.1396 0.0000
# 3 27.2712 38.0865 139.6547 0.0000 -3.0816 0.0000
# 4 0.0000 0.0000 0.0000 34.1936 0.0000 1.8084
# 5 1.6553 0.1396 -3.0816 0.0000 32.2103 0.0000
# 6 0.0000 0.0000 0.0000 1.8084 0.0000 45.6981
#
#
#
# Elastic Compliance Matrix: (Units=1/GPa)
#
#
# Indices 1 2 3 4 5 6 
#
# 1 0.012312 -0.003521 -0.001461 0.000000 -0.000757 0.000000
# 2 -0.003521 0.008648 -0.001671 0.000000 -0.000016 0.000000
# 3 -0.001461 -0.001671 0.007920 0.000000 0.000840 0.000000
# 4 0.000000 0.000000 0.000000 0.029307 0.000000 -0.001160
# 5 -0.000757 -0.000016 0.000840 0.000000 0.031165 0.000000
# 6 0.000000 0.000000 0.000000 -0.001160 0.000000 0.021929
#
#
# Mechanical properties :
#
#
# Convention : Reuss Voigt Hill
#
# Bulk Modulus (GPa) = 64.21057 66.54986 65.38022
# Shear Modulus (GPa) = 38.52731 40.29128 39.40929
#
# Velocity S-wave (km/s) = 4.40407 4.50376 4.45419
# Velocity P-wave (km/s) = 7.62801 7.78128 7.70503
#
# Compressibility (1/GPa) = 0.01557376
#
# Stress axis : x y z
#
# Youngs Moduli (GPa) = 81.22130 115.63458 126.26198
#
# Poissons Ratio (x) = 0.40719 0.18442
# Poissons Ratio (y) = 0.28601 0.21101
# Poissons Ratio (z) = 0.11863 0.19325
#
# Static dielectric constant tensor:
#      x y z
#    x 3.627210 0.000000 -0.023200 
#    y 0.000000 3.812980 0.000000 
#    z -0.023200 0.000000 4.169120 
# 
# 
# High freq. dielectric constant tensor:
#      x y z
#    x 1.787640 0.000000 -0.002220 
#    y 0.000000 1.786240 0.000000 
#    z -0.002220 0.000000 1.812460 
# 
# From -- ./inp_files/73851.got.cif
#   From: 2010.06.25/outbox.ucp.g09.slc.cvg/sg11_37_cif.got.tgz:73851.got - 2010.06.28 13:43:20.
