data_PCOD8078131
_publ_section_title
;
Structure prediction by ZEFSAII (Michael W. Deem and Ramdas Pophale) SiO2 
 PCOD8078131
Probable space group: C 2/M
;
_chemical_formula_sum "Si O2"
_cell_formula_units_Z 48
_cell_length_a 18.699707
_cell_length_b 8.593262
_cell_length_c 18.269409
_cell_angle_alpha 90.000000
_cell_angle_beta 119.511914
_cell_angle_gamma 90.000000
_cell_volume 2554.835981
_symmetry_space_group_name_H-M "C 2/M"
_symmetry_group_IT_number 12
_symmetry_cell_setting 'monoclinic'
loop_
_space_group_symop_operation_xyz
x,y,z
-x,y,-z
-x,-y,-z
x,-y,z
1/2+x,1/2+y,z
1/2-x,1/2+y,-z
1/2-x,1/2-y,-z
1/2+x,1/2-y,z
loop_
_atom_site_type_symbol
_atom_site_label
_atom_site_fract_x
_atom_site_fract_y
_atom_site_fract_z
Si Si1 0.253799 0.819031 0.165716
Si Si2 0.169382 0.317161 0.998574
Si Si3 0.670118 0.184485 0.497614
Si Si4 0.910586 0.182765 0.167003
Si Si5 0.848535 0.316035 0.349071
Si Si6 0.504264 0.815467 0.336474
O O1 0.177770 0.726804 0.089271
O O2 0.338741 0.781908 0.168199
O O3 0.269217 0.771247 0.258499
O O4 0.234038 0.000000 0.148241
O O5 0.162950 0.500000 0.986360
O O6 0.250000 0.250000 0.000000
O O7 0.090227 0.236028 0.919273
O O8 0.750000 0.250000 0.500000
O O9 0.663778 0.255113 0.576497
O O10 0.591069 0.239692 0.412202
O O11 0.675197 0.000000 0.503188
O O12 0.993577 0.232158 0.251575
O O13 0.894260 0.000000 0.165005
O O14 0.856538 0.500000 0.358739
O O15 0.933364 0.254295 0.356097
O O16 0.500186 0.000000 0.323869
#
# Coordination Sequence:
#
# PCOD8078131 Si02
#       6
#     8   8   8   8   8   8
#     4   9  15  25  41  62  89 121 157 192 228 271
#     4  10  16  23  36  58  91 125 154 185 227 276
#     4  10  20  34  51  71  95 123 156 194 237 283
#     4  10  17  25  39  62  92 122 153 190 233 277
#     4   8  15  29  50  71  91 122 162 197 228 271
#     4   9  17  31  50  69  91 123 162 198 231 272
#
# _framework density 18.787898999999999
#
# number of rings (size 3 to 8) (size 9 to 14) (size 15 to 20)
#    0.000    2.667    0.000    7.000    0.000    2.667 
#    0.000    4.167    0.000    5.000    0.000    1.167 
#    0.000    9.333    0.000    0.000    0.000    0.000 
#
# Total GULP energy -297355.073069 kJ/mol
# GULP energy per Si atom -12389.794711 kJ/mol
# Density = 1.874514 g / cm^3
# Si number density = 18.787899 Si / 1000 Ang^3
#
#
#
# Elastic Constant Matrix: (Units=GPa)
#
#
# Indices 1 2 3 4 5 6 
#
# 1 57.2433 14.2744 56.8831 0.0000 5.7186 0.0000
# 2 14.2744 57.4338 50.2059 0.0000 3.7515 0.0000
# 3 56.8831 50.2059 219.4866 0.0000 19.7030 0.0000
# 4 0.0000 0.0000 0.0000 30.6351 0.0000 3.5185
# 5 5.7186 3.7515 19.7030 0.0000 4.5872 0.0000
# 6 0.0000 0.0000 0.0000 3.5185 0.0000 15.5604
#
#
#
# Elastic Compliance Matrix: (Units=1/GPa)
#
#
# Indices 1 2 3 4 5 6 
#
# 1 0.023627 -0.000737 -0.005476 0.000000 -0.005330 0.000000
# 2 -0.000737 0.021882 -0.005355 0.000000 0.006025 0.000000
# 3 -0.005476 -0.005355 0.010081 0.000000 -0.032095 0.000000
# 4 0.000000 0.000000 0.000000 0.033513 0.000000 -0.007578
# 5 -0.005330 0.006025 -0.032095 0.000000 0.357568 0.000000
# 6 0.000000 0.000000 0.000000 -0.007578 0.000000 0.065979
#
#
# Mechanical properties :
#
#
# Convention : Reuss Voigt Hill
#
# Bulk Modulus (GPa) = 30.81277 64.09893 47.45585
# Shear Modulus (GPa) = 9.14735 24.34324 16.74529
#
# Velocity S-wave (km/s) = 2.20892 3.60347 2.98867
# Velocity P-wave (km/s) = 4.78975 7.17667 6.10107
#
# Compressibility (1/GPa) = 0.03245408
#
# Stress axis : x y z
#
# Youngs Moduli (GPa) = 42.32375 45.69902 99.19193
#
# Poissons Ratio (x) = 0.03368 0.54321
# Poissons Ratio (y) = 0.03119 0.53120
# Poissons Ratio (z) = 0.23178 0.24473
#
# Static dielectric constant tensor:
#      x y z
#    x 3.155020 0.000000 0.035740 
#    y 0.000000 3.233870 0.000000 
#    z 0.035740 0.000000 4.926440 
# 
# 
# High freq. dielectric constant tensor:
#      x y z
#    x 1.644450 0.000000 0.009230 
#    y 0.000000 1.715740 0.000000 
#    z 0.009230 0.000000 1.770880 
# 
# From -- ./inp_files/280540.got.cif
#   From: 2010.06.25/outbox.cif.g09.slc.cpg/sg12_141_cif.got.tgz:280540.got - 2010.06.28 00:19:55.
