data_PCOD8078117
_publ_section_title
;
Structure prediction by ZEFSAII (Michael W. Deem and Ramdas Pophale) SiO2 
 PCOD8078117
Probable space group: C 2/M
;
_chemical_formula_sum "Si O2"
_cell_formula_units_Z 48
_cell_length_a 19.054404
_cell_length_b 8.916174
_cell_length_c 21.265192
_cell_angle_alpha 90.000000
_cell_angle_beta 131.948762
_cell_angle_gamma 90.000000
_cell_volume 2686.990017
_symmetry_space_group_name_H-M "C 2/M"
_symmetry_group_IT_number 12
_symmetry_cell_setting 'monoclinic'
loop_
_space_group_symop_operation_xyz
x,y,z
-x,y,-z
-x,-y,-z
x,-y,z
1/2+x,1/2+y,z
1/2-x,1/2+y,-z
1/2-x,1/2-y,-z
1/2+x,1/2-y,z
loop_
_atom_site_type_symbol
_atom_site_label
_atom_site_fract_x
_atom_site_fract_y
_atom_site_fract_z
Si Si1 0.141834 0.821723 0.583859
Si Si2 0.727160 0.330508 0.248947
Si Si3 0.895332 0.676491 0.920164
Si Si4 0.513365 0.822606 0.420278
Si Si5 0.760110 0.825395 0.072717
Si Si6 0.385885 0.833544 0.237886
O O1 0.242101 0.761153 0.670104
O O2 0.116251 0.745092 0.500564
O O3 0.061348 0.769812 0.583506
O O4 0.145618 0.000000 0.579705
O O5 0.703200 0.500000 0.254352
O O6 0.634609 0.255822 0.162713
O O7 0.810643 0.324694 0.248665
O O8 0.889476 0.500000 0.905265
O O9 0.827293 0.726070 0.936391
O O10 0.000000 0.730015 0.000000
O O11 0.487506 0.794795 0.330941
O O12 0.506958 0.000000 0.431879
O O13 0.858436 0.778797 0.165354
O O14 0.761571 0.000000 0.062484
O O15 0.750000 0.750000 0.000000
O O16 0.387916 0.000000 0.209821
#
# Coordination Sequence:
#
# PCOD8078117 Si02
#       6
#     8   8   8   8   8   8
#     4  10  16  21  32  51  76 107 141 174 209 255
#     4   9  16  26  39  56  80 110 142 176 216 260
#     4   9  18  32  48  66  88 115 148 185 224 263
#     4   9  15  23  34  50  75 106 138 174 214 257
#     4  10  19  30  46  65  88 117 147 182 220 261
#     4   8  15  26  39  55  78 108 141 176 214 257
#
# _framework density 17.863854
#
# number of rings (size 3 to 8) (size 9 to 14) (size 15 to 20)
#    0.000    2.833    0.000    5.000    0.000    5.667 
#    0.000    0.000    0.000    0.000    0.000    0.000 
#    0.000    1.333    0.000    4.000    0.000   11.000 
#
# Total GULP energy -297381.734604 kJ/mol
# GULP energy per Si atom -12390.905609 kJ/mol
# Density = 1.782319 g / cm^3
# Si number density = 17.863854 Si / 1000 Ang^3
#
#
#
# Elastic Constant Matrix: (Units=GPa)
#
#
# Indices 1 2 3 4 5 6 
#
# 1 17.6762 19.5532 33.3685 0.0000 2.9848 0.0000
# 2 19.5532 98.9402 78.0487 0.0000 2.8635 0.0000
# 3 33.3685 78.0487 204.8162 0.0000 12.4517 0.0000
# 4 0.0000 0.0000 0.0000 40.5276 0.0000 0.6640
# 5 2.9848 2.8635 12.4517 0.0000 17.8901 0.0000
# 6 0.0000 0.0000 0.0000 0.6640 0.0000 9.4669
#
#
#
# Elastic Compliance Matrix: (Units=1/GPa)
#
#
# Indices 1 2 3 4 5 6 
#
# 1 0.087048 -0.008760 -0.010490 0.000000 -0.005820 0.000000
# 2 -0.008760 0.015376 -0.004565 0.000000 0.002177 0.000000
# 3 -0.010490 -0.004565 0.008541 0.000000 -0.003464 0.000000
# 4 0.000000 0.000000 0.000000 0.024703 0.000000 -0.001733
# 5 -0.005820 0.002177 -0.003464 0.000000 0.058930 0.000000
# 6 0.000000 0.000000 0.000000 -0.001733 0.000000 0.105753
#
#
# Mechanical properties :
#
#
# Convention : Reuss Voigt Hill
#
# Bulk Modulus (GPa) = 15.78846 64.81930 40.30388
# Shear Modulus (GPa) = 13.54674 26.27441 19.91058
#
# Velocity S-wave (km/s) = 2.75677 3.83928 3.34214
# Velocity P-wave (km/s) = 4.35780 7.48448 6.12404
#
# Compressibility (1/GPa) = 0.06333740
#
# Stress axis : x y z
#
# Youngs Moduli (GPa) = 11.48788 65.03669 117.07617
#
# Poissons Ratio (x) = 0.56969 1.22813
# Poissons Ratio (y) = 0.10063 0.53440
# Poissons Ratio (z) = 0.12051 0.29686
#
# Static dielectric constant tensor:
#      x y z
#    x 2.571320 0.000000 0.180140 
#    y 0.000000 3.362900 0.000000 
#    z 0.180140 0.000000 4.219320 
# 
# 
# High freq. dielectric constant tensor:
#      x y z
#    x 1.590440 0.000000 0.009660 
#    y 0.000000 1.701090 0.000000 
#    z 0.009660 0.000000 1.725720 
# 
# From -- ./inp_files/242614.got.cif
#   From: 2010.06.25/outbox.cif.g09.slc.cpg/sg12_122_cif.got.tgz:242614.got - 2010.06.28 00:19:55.
