data_PCOD8078743
_publ_section_title
;
Structure prediction by ZEFSAII (Michael W. Deem and Ramdas Pophale) SiO2 
 PCOD8078743
Probable space group: C 2/M
;
_chemical_formula_sum "Si O2"
_cell_formula_units_Z 48
_cell_length_a 30.486945
_cell_length_b 8.779130
_cell_length_c 9.357824
_cell_angle_alpha 90.000000
_cell_angle_beta 93.968105
_cell_angle_gamma 90.000000
_cell_volume 2498.606629
_symmetry_space_group_name_H-M "C 2/M"
_symmetry_group_IT_number 12
_symmetry_cell_setting 'monoclinic'
loop_
_space_group_symop_operation_xyz
x,y,z
-x,y,-z
-x,-y,-z
x,-y,z
1/2+x,1/2+y,z
1/2-x,1/2+y,-z
1/2-x,1/2-y,-z
1/2+x,1/2-y,z
loop_
_atom_site_type_symbol
_atom_site_label
_atom_site_fract_x
_atom_site_fract_y
_atom_site_fract_z
Si Si1 0.859910 0.677880 0.893353
Si Si2 0.531565 0.822986 0.836996
Si Si3 0.947102 0.178979 0.857300
Si Si4 0.624824 0.825774 0.775017
Si Si5 0.197207 0.823347 0.615798
Si Si6 0.785266 0.177337 0.703453
O O1 0.866419 0.500000 0.871349
O O2 0.898171 0.761621 0.810101
O O3 0.812810 0.730934 0.826508
O O4 0.862706 0.720515 0.060685
O O5 0.484878 0.759389 0.766053
O O6 0.572324 0.801607 0.736890
O O7 0.527524 0.000000 0.879097
O O8 0.542768 0.724255 0.978354
O O9 0.949134 0.000000 0.833396
O O10 0.650062 0.717595 0.670883
O O11 0.638177 0.000000 0.748019
O O12 0.196391 0.780559 0.448844
O O13 0.234635 0.727655 0.705725
O O14 0.207678 0.000000 0.639692
O O15 0.789057 0.000000 0.738502
#
# Coordination Sequence:
#
# PCOD8078743 Si02
#       6
#     8   8   8   8   8   8
#     4  10  20  34  52  76 104 134 168 207 252 297
#     4   9  16  28  45  68 100 135 169 204 244 293
#     4  10  17  26  44  71 101 133 167 204 248 294
#     4   9  19  33  51  76 104 133 167 207 249 294
#     4  10  21  36  55  76  99 131 168 205 250 302
#     4  10  21  37  55  75  99 130 169 208 248 300
#
# _framework density 19.210706999999999
#
# number of rings (size 3 to 8) (size 9 to 14) (size 15 to 20)
#    0.000    2.333    0.000    5.500    0.000    6.667 
#    0.000    0.000    0.000    1.000    0.000    7.000 
#    0.000    0.000    0.000    0.000    0.000    0.000 
#
# Total GULP energy -297536.525997 kJ/mol
# GULP energy per Si atom -12397.355250 kJ/mol
# Density = 1.916698 g / cm^3
# Si number density = 19.210707 Si / 1000 Ang^3
#
#
#
# Elastic Constant Matrix: (Units=GPa)
#
#
# Indices 1 2 3 4 5 6 
#
# 1 75.0966 21.8194 10.4306 0.0000 -28.9986 0.0000
# 2 21.8194 76.5502 16.6791 0.0000 -11.8638 0.0000
# 3 10.4306 16.6791 21.2278 0.0000 -12.9887 0.0000
# 4 0.0000 0.0000 0.0000 21.7861 0.0000 -2.4728
# 5 -28.9986 -11.8638 -12.9887 0.0000 23.3756 0.0000
# 6 0.0000 0.0000 0.0000 -2.4728 0.0000 39.4260
#
#
#
# Elastic Compliance Matrix: (Units=1/GPa)
#
#
# Indices 1 2 3 4 5 6 
#
# 1 0.028705 -0.005078 0.015299 0.000000 0.041533 0.000000
# 2 -0.005078 0.016705 -0.014086 0.000000 -0.005649 0.000000
# 3 0.015299 -0.014086 0.087721 0.000000 0.060572 0.000000
# 4 0.000000 0.000000 0.000000 0.046230 0.000000 0.002900
# 5 0.041533 -0.005649 0.060572 0.000000 0.125094 0.000000
# 6 0.000000 0.000000 0.000000 0.002900 0.000000 0.025546
#
#
# Mechanical properties :
#
#
# Convention : Reuss Voigt Hill
#
# Bulk Modulus (GPa) = 7.97456 30.08142 19.02799
# Shear Modulus (GPa) = 13.17415 25.18059 19.17737
#
# Velocity S-wave (km/s) = 2.62156 3.62437 3.16296
# Velocity P-wave (km/s) = 3.65015 5.76258 4.82343
#
# Compressibility (1/GPa) = 0.12539871
#
# Stress axis : x y z
#
# Youngs Moduli (GPa) = 34.83734 59.86399 11.39975
#
# Poissons Ratio (x) = 0.30401 -0.17440
# Poissons Ratio (y) = 0.17692 0.16058
# Poissons Ratio (z) = -0.53297 0.84326
#
# Static dielectric constant tensor:
#      x y z
#    x 4.058680 0.000000 -0.109320 
#    y 0.000000 3.472800 0.000000 
#    z -0.109320 0.000000 3.014840 
# 
# 
# High freq. dielectric constant tensor:
#      x y z
#    x 1.768090 0.000000 -0.010520 
#    y 0.000000 1.757290 0.000000 
#    z -0.010520 0.000000 1.687900 
# 
# From -- ./inp_files/108733.got.cif
#   From: 2010.06.25/outbox.cif.g09.slc.cpg/sg12_55_cif.got.tgz:108733.got - 2010.06.28 00:19:55.
