data_PCOD8078588
_publ_section_title
;
Structure prediction by ZEFSAII (Michael W. Deem and Ramdas Pophale) SiO2 
 PCOD8078588
Probable space group: C 2/M
;
_chemical_formula_sum "Si O2"
_cell_formula_units_Z 64
_cell_length_a 23.210611
_cell_length_b 8.994673
_cell_length_c 23.196753
_cell_angle_alpha 90.000000
_cell_angle_beta 130.395752
_cell_angle_gamma 90.000000
_cell_volume 3688.232637
_symmetry_space_group_name_H-M "C 2/M"
_symmetry_group_IT_number 12
_symmetry_cell_setting 'monoclinic'
loop_
_space_group_symop_operation_xyz
x,y,z
-x,y,-z
-x,-y,-z
x,-y,z
1/2+x,1/2+y,z
1/2-x,1/2+y,-z
1/2-x,1/2-y,-z
1/2+x,1/2-y,z
loop_
_atom_site_type_symbol
_atom_site_label
_atom_site_fract_x
_atom_site_fract_y
_atom_site_fract_z
Si Si1 0.390776 0.331387 0.701444
Si Si2 0.041864 0.675324 0.356544
Si Si3 0.481741 0.675872 0.423361
Si Si4 0.549722 0.335547 0.869552
Si Si5 0.399284 0.327573 0.213667
Si Si6 0.178890 0.171758 0.726685
Si Si7 0.329488 0.822816 0.767348
Si Si8 0.016767 0.674953 0.073924
O O1 0.363152 0.500000 0.674582
O O2 0.392686 0.248781 0.640758
O O3 0.473088 0.325018 0.783306
O O4 0.332269 0.246812 0.705393
O O5 0.054891 0.500000 0.367474
O O6 0.043012 0.743902 0.421741
O O7 0.961203 0.713126 0.276617
O O8 0.500000 0.723509 0.500000
O O9 0.488838 0.500000 0.418335
O O10 0.397053 0.733260 0.353095
O O11 0.561898 0.500000 0.902677
O O12 0.615326 0.296555 0.864339
O O13 0.548150 0.226033 0.923004
O O14 0.427697 0.500000 0.239545
O O15 0.325457 0.303189 0.206342
O O16 0.255106 0.244511 0.750637
O O17 0.185276 0.000000 0.715674
O O18 0.401294 0.769114 0.851802
O O19 0.329833 0.000000 0.761997
O O20 0.012723 0.500000 0.068460
O O21 0.000000 0.743311 0.000000
#
# Coordination Sequence:
#
# PCOD8078588 Si02
#       8
#     8   8   8   8   8   8   8   8
#     4   9  16  27  42  61  86 112 141 177 215 253
#     4  10  17  25  41  65  89 111 140 178 213 246
#     4   9  17  30  47  65  87 115 142 169 208 257
#     4   8  14  24  40  60  79 103 137 175 209 244
#     4   8  14  26  42  61  85 110 139 174 213 255
#     4   8  14  26  45  66  85 108 139 173 208 250
#     4   9  16  27  44  64  85 110 142 177 210 246
#     4   9  17  27  39  58  84 112 140 171 210 253
#
# _framework density 17.352484
#
# number of rings (size 3 to 8) (size 9 to 14) (size 15 to 20)
#    0.000    3.250    0.000    3.000    0.000    3.500 
#    0.000    2.500    0.000    1.500    0.000    0.000 
#    0.000    0.000    0.000    0.000    0.000    6.500 
#
# Total GULP energy -396446.591258 kJ/mol
# GULP energy per Si atom -12388.955977 kJ/mol
# Density = 1.731299 g / cm^3
# Si number density = 17.352484 Si / 1000 Ang^3
#
#
#
# Elastic Constant Matrix: (Units=GPa)
#
#
# Indices 1 2 3 4 5 6 
#
# 1 145.6300 33.5752 59.0894 0.0000 -40.6776 0.0000
# 2 33.5752 49.9473 28.2195 0.0000 -14.5942 0.0000
# 3 59.0894 28.2195 79.5565 0.0000 -35.7957 0.0000
# 4 0.0000 0.0000 0.0000 16.1221 0.0000 -10.8744
# 5 -40.6776 -14.5942 -35.7957 0.0000 33.0148 0.0000
# 6 0.0000 0.0000 0.0000 -10.8744 0.0000 23.1439
#
#
#
# Elastic Compliance Matrix: (Units=1/GPa)
#
#
# Indices 1 2 3 4 5 6 
#
# 1 0.011503 -0.003195 -0.003258 0.000000 0.009227 0.000000
# 2 -0.003195 0.026061 -0.006753 0.000000 0.000261 0.000000
# 3 -0.003258 -0.006753 0.027795 0.000000 0.023137 0.000000
# 4 0.000000 0.000000 0.000000 0.090804 0.000000 0.042665
# 5 0.009227 0.000261 0.023137 0.000000 0.066859 0.000000
# 6 0.000000 0.000000 0.000000 0.042665 0.000000 0.063254
#
#
# Mechanical properties :
#
#
# Convention : Reuss Voigt Hill
#
# Bulk Modulus (GPa) = 25.67714 57.43356 41.55535
# Shear Modulus (GPa) = 15.35283 24.73949 20.04616
#
# Velocity S-wave (km/s) = 2.97772 3.77994 3.40256
# Velocity P-wave (km/s) = 5.16255 7.22639 6.27983
#
# Compressibility (1/GPa) = 0.03894515
#
# Stress axis : x y z
#
# Youngs Moduli (GPa) = 86.93458 38.37176 35.97709
#
# Poissons Ratio (x) = 0.12261 0.11723
# Poissons Ratio (y) = 0.27778 0.24296
# Poissons Ratio (z) = 0.28328 0.25914
#
# Static dielectric constant tensor:
#      x y z
#    x 3.585440 0.000000 -0.458000 
#    y 0.000000 3.032500 0.000000 
#    z -0.458000 0.000000 3.063270 
# 
# 
# High freq. dielectric constant tensor:
#      x y z
#    x 1.670030 0.000000 -0.047250 
#    y 0.000000 1.651990 0.000000 
#    z -0.047250 0.000000 1.626320 
# 
# From -- ./inp_files/323765.got.cif
#   From: 2010.06.25/outbox.cif.g09.slc.cpg/sg12_162_cif.got.tgz:323765.got - 2010.06.28 00:19:55.
