data_PCOD8078561
_publ_section_title
;
Structure prediction by ZEFSAII (Michael W. Deem and Ramdas Pophale) SiO2 
 PCOD8078561
Probable space group: C 2/M
;
_chemical_formula_sum "Si O2"
_cell_formula_units_Z 48
_cell_length_a 20.253849
_cell_length_b 8.555573
_cell_length_c 27.595587
_cell_angle_alpha 90.000000
_cell_angle_beta 33.296578
_cell_angle_gamma 90.000000
_cell_volume 2625.108211
_symmetry_space_group_name_H-M "C 2/M"
_symmetry_group_IT_number 12
_symmetry_cell_setting 'monoclinic'
loop_
_space_group_symop_operation_xyz
x,y,z
-x,y,-z
-x,-y,-z
x,-y,z
1/2+x,1/2+y,z
1/2-x,1/2+y,-z
1/2-x,1/2-y,-z
1/2+x,1/2-y,z
loop_
_atom_site_type_symbol
_atom_site_label
_atom_site_fract_x
_atom_site_fract_y
_atom_site_fract_z
Si Si1 0.872849 0.320289 0.052127
Si Si2 0.230796 0.184857 0.229620
Si Si3 0.013007 0.181346 0.421249
Si Si4 0.368723 0.317647 0.950640
Si Si5 0.882125 0.684748 0.227915
Si Si6 0.825862 0.681854 0.594544
O O1 0.849577 0.500000 0.051051
O O2 0.771318 0.255985 0.151814
O O3 0.868466 0.212807 0.008005
O O4 0.000000 0.304501 0.000000
O O5 0.320433 0.249776 0.216300
O O6 0.091269 0.232654 0.325779
O O7 0.245826 0.000000 0.221787
O O8 0.888075 0.278688 0.504054
O O9 0.101481 0.212769 0.411930
O O10 0.979909 0.000000 0.438892
O O11 0.377115 0.500000 0.935453
O O12 0.479927 0.234806 0.855867
O O13 0.250000 0.250000 0.000000
O O14 0.872482 0.500000 0.238922
O O15 0.813274 0.765013 0.316081
O O16 0.840491 0.500000 0.597033
#
# Coordination Sequence:
#
# PCOD8078561 Si02
#       6
#     8   8   8   8   8   8
#     4  10  18  34  57  79 105 140 177 216 264 316
#     4   8  15  27  48  74 100 133 172 209 255 308
#     4   9  15  25  40  63  96 136 173 207 250 308
#     4  12  25  39  54  77 106 140 179 222 265 312
#     4  10  18  33  52  72  98 135 174 213 260 316
#     4  10  17  25  39  65  98 132 167 211 260 307
#
# _framework density 18.284960000000002
#
# number of rings (size 3 to 8) (size 9 to 14) (size 15 to 20)
#    0.000    2.167    1.667    6.000    0.000    0.333 
#    0.000    1.667    0.000    0.000    0.000    1.167 
#    0.000    0.000    0.000    0.000    0.000    0.000 
#
# Total GULP energy -297425.207186 kJ/mol
# GULP energy per Si atom -12392.716966 kJ/mol
# Density = 1.824334 g / cm^3
# Si number density = 18.284960 Si / 1000 Ang^3
#
#
#
# Elastic Constant Matrix: (Units=GPa)
#
#
# Indices 1 2 3 4 5 6 
#
# 1 32.9079 13.6343 29.7580 0.0023 -5.8870 -0.0102
# 2 13.6343 70.0196 37.8636 0.0033 0.1610 -0.0115
# 3 29.7580 37.8636 193.8051 0.0009 5.3660 -0.0037
# 4 0.0023 0.0033 0.0009 29.4118 -0.0006 -1.2435
# 5 -5.8870 0.1610 5.3660 -0.0006 17.3678 0.0054
# 6 -0.0102 -0.0115 -0.0037 -1.2435 0.0054 16.2755
#
#
#
# Elastic Compliance Matrix: (Units=1/GPa)
#
#
# Indices 1 2 3 4 5 6 
#
# 1 0.040273 -0.004811 -0.005672 -0.000001 0.015448 0.000015
# 2 -0.004811 0.016555 -0.002467 -0.000001 -0.001022 0.000008
# 3 -0.005672 -0.002467 0.006622 0.000000 -0.003946 -0.000002
# 4 -0.000001 -0.000001 0.000000 0.034110 0.000000 0.002606
# 5 0.015448 -0.001022 -0.003946 0.000000 0.064043 -0.000013
# 6 0.000015 0.000008 -0.000002 0.002606 -0.000013 0.061641
#
#
# Mechanical properties :
#
#
# Convention : Reuss Voigt Hill
#
# Bulk Modulus (GPa) = 26.63048 51.02717 38.82882
# Shear Modulus (GPa) = 19.10873 26.97613 23.04243
#
# Velocity S-wave (km/s) = 3.23623 3.84515 3.55376
# Velocity P-wave (km/s) = 5.34416 6.90513 6.17417
#
# Compressibility (1/GPa) = 0.03755096
#
# Stress axis : x y z
#
# Youngs Moduli (GPa) = 24.83037 60.40449 151.01206
#
# Poissons Ratio (x) = 0.29058 0.85649
# Poissons Ratio (y) = 0.11945 0.37261
# Poissons Ratio (z) = 0.14083 0.14904
#
# Static dielectric constant tensor:
#      x y z
#    x 1.931820 0.000010 -0.491400 
#    y 0.000010 3.212090 0.000010 
#    z -0.491400 0.000010 3.779690 
# 
# 
# High freq. dielectric constant tensor:
#      x y z
#    x 1.627230 0.000000 0.011600 
#    y 0.000000 1.701730 0.000000 
#    z 0.011600 0.000000 1.745810 
# 
# From -- ./inp_files/380140.got.cif
#   From: 2010.06.25/outbox.cif.g09.slc.cpg/sg12_191_cif.got.tgz:380140.got - 2010.06.28 00:19:55.
