data_PCOD8078659
_publ_section_title
;
Structure prediction by ZEFSAII (Michael W. Deem and Ramdas Pophale) SiO2 
 PCOD8078659
Probable space group: C 2/M
;
_chemical_formula_sum "Si O2"
_cell_formula_units_Z 56
_cell_length_a 28.601693
_cell_length_b 8.852182
_cell_length_c 28.910276
_cell_angle_alpha 90.000000
_cell_angle_beta 151.265417
_cell_angle_gamma 90.000000
_cell_volume 3518.974949
_symmetry_space_group_name_H-M "C 2/M"
_symmetry_group_IT_number 12
_symmetry_cell_setting 'monoclinic'
loop_
_space_group_symop_operation_xyz
x,y,z
-x,y,-z
-x,-y,-z
x,-y,z
1/2+x,1/2+y,z
1/2-x,1/2+y,-z
1/2-x,1/2-y,-z
1/2+x,1/2-y,z
loop_
_atom_site_type_symbol
_atom_site_label
_atom_site_fract_x
_atom_site_fract_y
_atom_site_fract_z
Si Si1 0.604798 0.179487 0.573588
Si Si2 0.463338 0.177923 0.861623
Si Si3 0.355334 0.177732 0.589171
Si Si4 0.390195 0.679203 0.709214
Si Si5 0.171772 0.323264 0.533927
Si Si6 0.288786 0.178040 0.777801
Si Si7 0.410457 0.670259 0.957011
O O1 0.500000 0.233957 0.500000
O O2 0.617970 0.241871 0.532499
O O3 0.684792 0.253236 0.675748
O O4 0.615595 0.000000 0.585932
O O5 0.461500 0.254081 0.809698
O O6 0.366006 0.223922 0.805140
O O7 0.473302 0.000000 0.865175
O O8 0.558947 0.240610 0.970265
O O9 0.250000 0.250000 0.500000
O O10 0.422246 0.256952 0.686328
O O11 0.391229 0.210818 0.567405
O O12 0.349664 0.000000 0.593946
O O13 0.397876 0.500000 0.715406
O O14 0.281416 0.741678 0.625334
O O15 0.184307 0.500000 0.551241
O O16 0.320334 0.245899 0.854605
O O17 0.281209 0.000000 0.776358
O O18 0.379829 0.500000 0.943429
O O19 0.500000 0.671128 0.000000
#
# Coordination Sequence:
#
# PCOD8078659 Si02
#       7
#     8   8   8   8   8   8   8
#     4  10  19  31  47  64  83 113 153 188 218 256
#     4  10  18  27  41  63  88 115 144 175 213 259
#     4   9  16  26  39  57  81 109 142 176 213 259
#     4  10  17  26  41  60  85 114 144 176 211 257
#     4   8  15  27  41  57  80 110 142 180 218 251
#     4  10  19  30  43  60  85 114 144 182 221 257
#     4   9  17  28  43  61  82 112 145 176 211 257
#
# _framework density 15.913724999999999
#
# number of rings (size 3 to 8) (size 9 to 14) (size 15 to 20)
#    0.000    2.571    1.429    3.000    0.000    3.143 
#    0.000    0.714    0.000    0.000    0.000    0.000 
#    0.000    1.143    0.000    3.143    0.000    4.571 
#
# Total GULP energy -347049.910584 kJ/mol
# GULP energy per Si atom -12394.639664 kJ/mol
# Density = 1.587750 g / cm^3
# Si number density = 15.913725 Si / 1000 Ang^3
#
#
#
# Elastic Constant Matrix: (Units=GPa)
#
#
# Indices 1 2 3 4 5 6 
#
# 1 68.1194 28.6953 57.8878 0.0000 -23.8682 0.0000
# 2 28.6953 74.7000 48.6400 0.0000 -16.1403 0.0001
# 3 57.8878 48.6400 120.0180 0.0000 -33.4618 0.0000
# 4 0.0000 0.0000 0.0000 28.6188 0.0000 -9.1951
# 5 -23.8682 -16.1403 -33.4618 0.0000 31.5509 0.0000
# 6 0.0000 0.0001 0.0000 -9.1951 0.0000 16.2080
#
#
#
# Elastic Compliance Matrix: (Units=1/GPa)
#
#
# Indices 1 2 3 4 5 6 
#
# 1 0.026906 -0.002134 -0.009573 0.000000 0.009110 0.000000
# 2 -0.002134 0.018455 -0.006060 0.000000 0.001400 0.000000
# 3 -0.009573 -0.006060 0.017779 0.000000 0.008514 0.000000
# 4 0.000000 0.000000 0.000000 0.042731 0.000000 0.024242
# 5 0.009110 0.001400 0.008514 0.000000 0.048333 0.000000
# 6 0.000000 0.000000 0.000000 0.024242 0.000000 0.075451
#
#
# Mechanical properties :
#
#
# Convention : Reuss Voigt Hill
#
# Bulk Modulus (GPa) = 36.22289 59.25374 47.73832
# Shear Modulus (GPa) = 18.22229 23.78314 21.00271
#
# Velocity S-wave (km/s) = 3.38756 3.87008 3.63683
# Velocity P-wave (km/s) = 6.17351 7.56870 6.90642
#
# Compressibility (1/GPa) = 0.02760685
#
# Stress axis : x y z
#
# Youngs Moduli (GPa) = 37.16647 54.18646 56.24705
#
# Poissons Ratio (x) = 0.11565 0.53843
# Poissons Ratio (y) = 0.07932 0.34083
# Poissons Ratio (z) = 0.35578 0.32835
#
# Static dielectric constant tensor:
#      x y z
#    x 3.073250 0.000000 -0.453440 
#    y 0.000000 3.027750 0.000000 
#    z -0.453440 0.000000 3.005370 
# 
# 
# High freq. dielectric constant tensor:
#      x y z
#    x 1.571010 0.000000 -0.047890 
#    y 0.000000 1.615900 0.000000 
#    z -0.047890 0.000000 1.594300 
# 
# From -- ./inp_files/247938.got.cif
#   From: 2010.06.25/outbox.cif.g09.slc.cpg/sg12_124_cif.got.tgz:247938.got - 2010.06.28 00:19:55.
