data_PCOD8078370
_publ_section_title
;
Structure prediction by ZEFSAII (Michael W. Deem and Ramdas Pophale) SiO2 
 PCOD8078370
Probable space group: C 2/M
;
_chemical_formula_sum "Si O2"
_cell_formula_units_Z 60
_cell_length_a 20.950350
_cell_length_b 9.416083
_cell_length_c 26.702511
_cell_angle_alpha 90.000000
_cell_angle_beta 37.801538
_cell_angle_gamma 90.000000
_cell_volume 3228.667423
_symmetry_space_group_name_H-M "C 2/M"
_symmetry_group_IT_number 12
_symmetry_cell_setting 'monoclinic'
loop_
_space_group_symop_operation_xyz
x,y,z
-x,y,-z
-x,-y,-z
x,-y,z
1/2+x,1/2+y,z
1/2-x,1/2+y,-z
1/2-x,1/2-y,-z
1/2+x,1/2-y,z
loop_
_atom_site_type_symbol
_atom_site_label
_atom_site_fract_x
_atom_site_fract_y
_atom_site_fract_z
Si Si1 0.362103 0.165737 0.201662
Si Si2 0.746878 0.165212 0.077664
Si Si3 0.463178 0.159195 0.626830
Si Si4 0.806884 0.330630 0.507582
Si Si5 0.778162 0.843937 0.618648
Si Si6 0.500000 0.734142 0.500000
Si Si7 0.405190 0.835167 0.914649
Si Si8 0.242550 0.669068 0.196216
O O1 0.276032 0.205751 0.296519
O O2 0.473928 0.208240 0.155804
O O3 0.338312 0.255222 0.165885
O O4 0.358350 0.000000 0.189918
O O5 0.639965 0.199244 0.113170
O O6 0.737838 0.212305 0.140947
O O7 0.773703 0.000000 0.057284
O O8 0.842850 0.248946 0.994861
O O9 0.574457 0.222810 0.573748
O O10 0.459508 0.163640 0.569139
O O11 0.364073 0.234544 0.713886
O O12 0.457872 0.000000 0.649692
O O13 0.795087 0.500000 0.512442
O O14 0.750000 0.250000 0.500000
O O15 0.756716 0.276483 0.590653
O O16 0.902380 0.864255 0.547093
O O17 0.734080 0.000000 0.630166
O O18 0.389653 0.000000 0.936524
O O19 0.254430 0.500000 0.196269
#
# Coordination Sequence:
#
# PCOD8078370 Si02
#       8
#     8   8   8   8   8   4   8   8
#     4  10  21  36  54  82 113 145 180 221 273 327
#     4   9  19  36  58  81 105 138 182 226 272 325
#     4   9  18  31  51  76 103 138 176 218 264 316
#     4  10  21  36  53  75 104 140 183 227 271 323
#     4  10  20  33  52  77 106 140 176 219 268 317
#     4  10  16  30  52  76 101 136 181 214 257 308
#     4   9  19  37  59  79 105 143 184 222 269 330
#     4  10  20  35  55  82 111 142 179 224 274 324
#
# _framework density 18.583518000000002
#
# number of rings (size 3 to 8) (size 9 to 14) (size 15 to 20)
#    0.000    2.400    1.333    0.800    0.000    3.733 
#    0.000    7.333    0.000    3.200    0.000    0.000 
#    0.000    0.000    0.000    0.000    0.000    0.000 
#
# Total GULP energy -371788.698370 kJ/mol
# GULP energy per Si atom -12392.956612 kJ/mol
# Density = 1.854122 g / cm^3
# Si number density = 18.583518 Si / 1000 Ang^3
#
#
#
# Elastic Constant Matrix: (Units=GPa)
#
#
# Indices 1 2 3 4 5 6 
#
# 1 141.6616 54.1869 70.4343 -0.0004 11.7320 0.0010
# 2 54.1869 61.0256 36.8087 -0.0001 3.3042 -0.0011
# 3 70.4343 36.8087 112.7229 0.0000 8.9799 0.0007
# 4 -0.0004 -0.0001 0.0000 27.2092 0.0000 2.8196
# 5 11.7320 3.3042 8.9799 0.0000 25.3117 -0.0001
# 6 0.0010 -0.0011 0.0007 2.8196 -0.0001 30.2248
#
#
#
# Elastic Compliance Matrix: (Units=1/GPa)
#
#
# Indices 1 2 3 4 5 6 
#
# 1 0.013090 -0.008306 -0.005217 0.000000 -0.003132 -0.000001
# 2 -0.008306 0.025679 -0.003329 0.000000 0.001679 0.000001
# 3 -0.005217 -0.003329 0.013369 0.000000 -0.001890 0.000000
# 4 0.000000 0.000000 0.000000 0.037111 0.000000 -0.003462
# 5 -0.003132 0.001679 -0.001890 0.000000 0.041410 0.000000
# 6 -0.000001 0.000001 0.000000 -0.003462 0.000000 0.033408
#
#
# Mechanical properties :
#
#
# Convention : Reuss Voigt Hill
#
# Bulk Modulus (GPa) = 54.25105 70.91886 62.58495
# Shear Modulus (GPa) = 24.51985 26.81450 25.66717
#
# Velocity S-wave (km/s) = 3.63635 3.80270 3.72045
# Velocity P-wave (km/s) = 6.84742 7.58457 7.22541
#
# Compressibility (1/GPa) = 0.01843282
#
# Stress axis : x y z
#
# Youngs Moduli (GPa) = 76.39585 38.94222 74.80115
#
# Poissons Ratio (x) = 0.32347 0.39025
# Poissons Ratio (y) = 0.63458 0.24900
# Poissons Ratio (z) = 0.39857 0.12963
#
# Static dielectric constant tensor:
#      x y z
#    x 3.386040 -0.000020 -0.148580 
#    y -0.000020 3.283820 -0.000010 
#    z -0.148580 -0.000010 3.452700 
# 
# 
# High freq. dielectric constant tensor:
#      x y z
#    x 1.724960 0.000000 -0.001470 
#    y 0.000000 1.708210 0.000000 
#    z -0.001470 0.000000 1.716770 
# 
# From -- ./inp_files/365434.got.cif
#   From: 2010.06.25/outbox.cif.g09.slc.cpg/sg12_183_cif.got.tgz:365434.got - 2010.06.28 00:19:55.
