data_PCOD8078378
_publ_section_title
;
Structure prediction by ZEFSAII (Michael W. Deem and Ramdas Pophale) SiO2 
 PCOD8078378
Probable space group: C 2/M
;
_chemical_formula_sum "Si O2"
_cell_formula_units_Z 60
_cell_length_a 24.720008
_cell_length_b 8.884271
_cell_length_c 14.725097
_cell_angle_alpha 90.000000
_cell_angle_beta 74.337802
_cell_angle_gamma 90.000000
_cell_volume 3113.839736
_symmetry_space_group_name_H-M "C 2/M"
_symmetry_group_IT_number 12
_symmetry_cell_setting 'monoclinic'
loop_
_space_group_symop_operation_xyz
x,y,z
-x,y,-z
-x,-y,-z
x,-y,z
1/2+x,1/2+y,z
1/2-x,1/2+y,-z
1/2-x,1/2-y,-z
1/2+x,1/2-y,z
loop_
_atom_site_type_symbol
_atom_site_label
_atom_site_fract_x
_atom_site_fract_y
_atom_site_fract_z
Si Si1 0.010566 0.666549 0.294776
Si Si2 0.631270 0.177566 0.169260
Si Si3 0.695123 0.325435 0.297270
Si Si4 0.306571 0.678696 0.013218
Si Si5 0.379317 0.333525 0.510141
Si Si6 0.319362 0.173712 0.199814
Si Si7 0.500000 0.751613 0.500000
Si Si8 0.599786 0.678561 0.696050
O O1 0.999581 0.500000 0.259986
O O2 0.007182 0.650742 0.405643
O O3 0.966207 0.782126 0.271763
O O4 0.071350 0.726284 0.236845
O O5 0.679807 0.231198 0.215407
O O6 0.636442 0.000000 0.152767
O O7 0.640793 0.261374 0.069456
O O8 0.677854 0.500000 0.290052
O O9 0.661562 0.252411 0.398442
O O10 0.761632 0.308839 0.282643
O O11 0.302158 0.500000 0.008710
O O12 0.317185 0.727369 0.110943
O O13 0.250000 0.750000 0.000000
O O14 0.355107 0.500000 0.510341
O O15 0.443569 0.346450 0.515679
O O16 0.376193 0.258689 0.411579
O O17 0.369737 0.234592 0.237798
O O18 0.330239 0.000000 0.169354
O O19 0.607103 0.500000 0.703099
#
# Coordination Sequence:
#
# PCOD8078378 Si02
#       8
#     8   8   8   8   8   8   4   8
#     4  10  21  36  57  86 121 156 196 243 293 348
#     4  11  22  37  58  90 123 153 191 244 298 347
#     4  10  20  35  57  85 119 157 196 241 293 351
#     4  12  24  40  63  91 119 152 192 242 295 353
#     4   9  18  32  52  84 120 157 201 242 289 343
#     4  11  23  40  62  86 116 156 198 247 297 350
#     4  10  16  30  54  84 117 158 195 242 289 344
#     4  10  22  39  59  83 117 162 204 244 289 350
#
# _framework density 19.268813000000002
#
# number of rings (size 3 to 8) (size 9 to 14) (size 15 to 20)
#    0.000    1.600    2.667    2.800    0.000    2.667 
#    0.000    1.333    0.000    4.000    0.000    0.000 
#    0.000    0.000    0.000    0.000    0.000    0.000 
#
# Total GULP energy -371933.593429 kJ/mol
# GULP energy per Si atom -12397.786448 kJ/mol
# Density = 1.922496 g / cm^3
# Si number density = 19.268813 Si / 1000 Ang^3
#
#
#
# Elastic Constant Matrix: (Units=GPa)
#
#
# Indices 1 2 3 4 5 6 
#
# 1 99.1341 35.0726 53.5929 0.0000 3.3116 0.0000
# 2 35.0726 98.1134 37.3477 0.0000 -1.8525 0.0000
# 3 53.5929 37.3477 112.0720 0.0000 -4.7439 0.0000
# 4 0.0000 0.0000 0.0000 24.2062 0.0000 -1.5282
# 5 3.3116 -1.8525 -4.7439 0.0000 33.6703 0.0000
# 6 0.0000 0.0000 0.0000 -1.5282 0.0000 25.8266
#
#
#
# Elastic Compliance Matrix: (Units=1/GPa)
#
#
# Indices 1 2 3 4 5 6 
#
# 1 0.014472 -0.002916 -0.006052 0.000000 -0.002436 0.000000
# 2 -0.002916 0.012261 -0.002667 0.000000 0.000586 0.000000
# 3 -0.006052 -0.002667 0.012801 0.000000 0.002252 0.000000
# 4 0.000000 0.000000 0.000000 0.041467 0.000000 0.002454
# 5 -0.002436 0.000586 0.002252 0.000000 0.030289 0.000000
# 6 0.000000 0.000000 0.000000 0.002454 0.000000 0.038865
#
#
# Mechanical properties :
#
#
# Convention : Reuss Voigt Hill
#
# Bulk Modulus (GPa) = 61.48245 62.37178 61.92711
# Shear Modulus (GPa) = 27.95717 28.96102 28.45910
#
# Velocity S-wave (km/s) = 3.81320 3.88106 3.84728
# Velocity P-wave (km/s) = 7.16689 7.24728 7.20720
#
# Compressibility (1/GPa) = 0.01626481
#
# Stress axis : x y z
#
# Youngs Moduli (GPa) = 69.09869 81.56122 78.11893
#
# Poissons Ratio (x) = 0.23780 0.47278
# Poissons Ratio (y) = 0.20146 0.20833
# Poissons Ratio (z) = 0.41819 0.21751
#
# Static dielectric constant tensor:
#      x y z
#    x 3.405060 0.000000 -0.150820 
#    y 0.000000 3.383930 0.000000 
#    z -0.150820 0.000000 3.803960 
# 
# 
# High freq. dielectric constant tensor:
#      x y z
#    x 1.738860 0.000000 -0.010500 
#    y 0.000000 1.743590 0.000000 
#    z -0.010500 0.000000 1.755210 
# 
# From -- ./inp_files/238539.got.cif
#   From: 2010.06.25/outbox.cif.g09.slc.cpg/sg12_120_cif.got.tgz:238539.got - 2010.06.28 00:19:55.
