data_PCOD8078549
_publ_section_title
;
Structure prediction by ZEFSAII (Michael W. Deem and Ramdas Pophale) SiO2 
 PCOD8078549
Probable space group: C 2/M
;
_chemical_formula_sum "Si O2"
_cell_formula_units_Z 56
_cell_length_a 18.229682
_cell_length_b 8.983778
_cell_length_c 18.322731
_cell_angle_alpha 90.000000
_cell_angle_beta 96.303950
_cell_angle_gamma 90.000000
_cell_volume 2982.595294
_symmetry_space_group_name_H-M "C 2/M"
_symmetry_group_IT_number 12
_symmetry_cell_setting 'monoclinic'
loop_
_space_group_symop_operation_xyz
x,y,z
-x,y,-z
-x,-y,-z
x,-y,z
1/2+x,1/2+y,z
1/2-x,1/2+y,-z
1/2-x,1/2-y,-z
1/2+x,1/2-y,z
loop_
_atom_site_type_symbol
_atom_site_label
_atom_site_fract_x
_atom_site_fract_y
_atom_site_fract_z
Si Si1 0.644194 0.676980 0.349748
Si Si2 0.156471 0.675050 0.204602
Si Si3 0.158537 0.167357 0.061669
Si Si4 0.919140 0.674863 0.520362
Si Si5 0.334871 0.834603 0.076806
Si Si6 0.688898 0.827639 0.613487
Si Si7 0.190489 0.327542 0.772322
O O1 0.640351 0.500000 0.343641
O O2 0.617710 0.746462 0.269777
O O3 0.589731 0.736928 0.405488
O O4 0.727382 0.733971 0.377662
O O5 0.142849 0.500000 0.206740
O O6 0.123927 0.737364 0.124399
O O7 0.242648 0.712642 0.216475
O O8 0.246652 0.179598 0.072009
O O9 0.130344 0.000000 0.067241
O O10 0.130134 0.226325 0.979750
O O11 0.906925 0.500000 0.532886
O O12 0.861362 0.744601 0.455048
O O13 0.000000 0.708045 0.500000
O O14 0.362935 0.798859 0.163177
O O15 0.358026 0.000000 0.055705
O O16 0.651249 0.801175 0.689629
O O17 0.691437 0.000000 0.595655
O O18 0.220201 0.500000 0.779063
#
# Coordination Sequence:
#
# PCOD8078549 Si02
#       7
#     8   8   8   8   8   8   8
#     4  10  19  32  49  66  88 119 155 190 224 267
#     4  10  17  25  39  59  83 110 145 186 225 264
#     4   9  15  22  32  49  78 114 147 177 215 263
#     4  10  20  33  49  70  95 119 146 184 229 274
#     4   8  13  20  31  49  75 109 146 181 216 254
#     4   8  15  29  48  68  90 119 153 188 226 266
#     4   8  14  25  39  56  81 113 149 185 220 261
#
# _framework density 18.775594000000002
#
# number of rings (size 3 to 8) (size 9 to 14) (size 15 to 20)
#    0.000    3.000    0.000    4.286    0.000    3.714 
#    0.000    2.857    0.000    0.000    0.000    0.000 
#    0.000    1.143    0.000   13.429    0.000   12.286 
#
# Total GULP energy -346898.054776 kJ/mol
# GULP energy per Si atom -12389.216242 kJ/mol
# Density = 1.873286 g / cm^3
# Si number density = 18.775594 Si / 1000 Ang^3
#
#
#
# Elastic Constant Matrix: (Units=GPa)
#
#
# Indices 1 2 3 4 5 6 
#
# 1 28.0554 24.4621 32.3137 0.0000 -13.0858 0.0000
# 2 24.4621 101.8414 63.9672 0.0000 -20.5411 0.0000
# 3 32.3137 63.9672 161.8576 0.0000 -42.8178 0.0000
# 4 0.0000 0.0000 0.0000 32.0106 0.0000 -8.7537
# 5 -13.0858 -20.5411 -42.8178 0.0000 15.4589 0.0000
# 6 0.0000 0.0000 0.0000 -8.7537 0.0000 11.0837
#
#
#
# Elastic Compliance Matrix: (Units=1/GPa)
#
#
# Indices 1 2 3 4 5 6 
#
# 1 0.063252 -0.006651 0.006835 0.000000 0.063635 0.000000
# 2 -0.006651 0.014325 -0.002946 0.000000 0.005244 0.000000
# 3 0.006835 -0.002946 0.024218 0.000000 0.068949 0.000000
# 4 0.000000 0.000000 0.000000 0.039845 0.000000 0.031469
# 5 0.063635 0.005244 0.068949 0.000000 0.316495 0.000000
# 6 0.000000 0.000000 0.000000 0.031469 0.000000 0.115075
#
#
# Mechanical properties :
#
#
# Convention : Reuss Voigt Hill
#
# Bulk Modulus (GPa) = 10.38749 59.24895 34.81822
# Shear Modulus (GPa) = 8.18565 23.11141 15.64853
#
# Velocity S-wave (km/s) = 2.09026 3.51226 2.89009
# Velocity P-wave (km/s) = 3.37195 6.93346 5.45174
#
# Compressibility (1/GPa) = 0.09626963
#
# Stress axis : x y z
#
# Youngs Moduli (GPa) = 15.80986 69.80806 41.29177
#
# Poissons Ratio (x) = 0.46428 -0.28222
# Poissons Ratio (y) = 0.10515 0.12166
# Poissons Ratio (z) = -0.10806 0.20568
#
# Static dielectric constant tensor:
#      x y z
#    x 2.760190 0.000000 -0.139210 
#    y 0.000000 3.273070 0.000000 
#    z -0.139210 0.000000 4.124320 
# 
# 
# High freq. dielectric constant tensor:
#      x y z
#    x 1.643720 0.000000 -0.022860 
#    y 0.000000 1.715140 0.000000 
#    z -0.022860 0.000000 1.759800 
# 
# From -- ./inp_files/280389.got.cif
#   From: 2010.06.25/outbox.cif.g09.slc.cpg/sg12_141_cif.got.tgz:280389.got - 2010.06.28 00:19:55.
