data_PCOD8078952
_publ_section_title
;
Structure prediction by ZEFSAII (Michael W. Deem and Ramdas Pophale) SiO2 
 PCOD8078952
Probable space group: C 2/M
;
_chemical_formula_sum "Si O2"
_cell_formula_units_Z 64
_cell_length_a 27.378855
_cell_length_b 9.070511
_cell_length_c 16.992706
_cell_angle_alpha 90.000000
_cell_angle_beta 103.157066
_cell_angle_gamma 90.000000
_cell_volume 4109.196742
_symmetry_space_group_name_H-M "C 2/M"
_symmetry_group_IT_number 12
_symmetry_cell_setting 'monoclinic'
loop_
_space_group_symop_operation_xyz
x,y,z
-x,y,-z
-x,-y,-z
x,-y,z
1/2+x,1/2+y,z
1/2-x,1/2+y,-z
1/2-x,1/2-y,-z
1/2+x,1/2-y,z
loop_
_atom_site_type_symbol
_atom_site_label
_atom_site_fract_x
_atom_site_fract_y
_atom_site_fract_z
Si Si1 0.057154 0.672391 0.514695
Si Si2 0.219009 0.329096 0.167295
Si Si3 0.802891 0.672696 0.009421
Si Si4 0.369484 0.669692 0.570955
Si Si5 0.830431 0.174837 0.165215
Si Si6 0.703850 0.333807 0.594310
Si Si7 0.185633 0.330348 0.320954
Si Si8 0.632291 0.171921 0.677585
O O1 0.061735 0.500000 0.498295
O O2 0.082300 0.756347 0.451236
O O3 0.083970 0.711978 0.607013
O O4 0.000000 0.724820 0.500000
O O5 0.226595 0.500000 0.188659
O O6 0.182972 0.304087 0.077893
O O7 0.275254 0.268673 0.172473
O O8 0.193575 0.260791 0.236199
O O9 0.798815 0.500000 0.027846
O O10 0.750000 0.750000 0.000000
O O11 0.841632 0.752289 0.083327
O O12 0.382156 0.500000 0.588727
O O13 0.320306 0.694720 0.499462
O O14 0.358399 0.741802 0.651567
O O15 0.871031 0.237346 0.242018
O O16 0.834984 0.000000 0.159315
O O17 0.691067 0.500000 0.618947
O O18 0.763254 0.311695 0.610496
O O19 0.682128 0.219293 0.649243
O O20 0.168717 0.500000 0.310717
O O21 0.635146 0.000000 0.698095
#
# Coordination Sequence:
#
# PCOD8078952 Si02
#       8
#     8   8   8   8   8   8   8   8
#     4   9  19  36  53  66  84 112 144 179 223 273
#     4   8  15  26  40  56  80 116 152 181 212 247
#     4   9  16  26  39  58  82 113 152 189 222 255
#     4  10  20  30  42  65  88 110 143 183 221 255
#     4  10  17  28  42  58  85 118 150 183 218 259
#     4   9  17  29  42  56  84 119 147 177 215 255
#     4  10  17  28  43  58  83 121 153 177 209 252
#     4  10  18  27  44  68  87 108 144 186 222 259
#
# _framework density 15.574821
#
# number of rings (size 3 to 8) (size 9 to 14) (size 15 to 20)
#    0.000    2.625    1.250    2.625    0.000    1.750 
#    0.000    1.250    0.000    0.000    0.000    0.000 
#    0.000    1.000    0.000   11.500    0.000    4.500 
#
# Total GULP energy -396622.302781 kJ/mol
# GULP energy per Si atom -12394.446962 kJ/mol
# Density = 1.553937 g / cm^3
# Si number density = 15.574821 Si / 1000 Ang^3
#
#
#
# Elastic Constant Matrix: (Units=GPa)
#
#
# Indices 1 2 3 4 5 6 
#
# 1 60.7926 32.1504 40.7922 0.0000 -6.1622 0.0000
# 2 32.1504 72.2141 45.5276 0.0000 -3.7567 0.0000
# 3 40.7922 45.5276 109.4665 0.0000 -8.4473 0.0000
# 4 0.0000 0.0000 0.0000 25.9340 0.0000 -0.9708
# 5 -6.1622 -3.7567 -8.4473 0.0000 14.0571 0.0000
# 6 0.0000 0.0000 0.0000 -0.9708 0.0000 15.7213
#
#
#
# Elastic Compliance Matrix: (Units=1/GPa)
#
#
# Indices 1 2 3 4 5 6 
#
# 1 0.024620 -0.006992 -0.005849 0.000000 0.005409 0.000000
# 2 -0.006992 0.020756 -0.006119 0.000000 -0.001195 0.000000
# 3 -0.005849 -0.006119 0.014194 0.000000 0.004330 0.000000
# 4 0.000000 0.000000 0.000000 0.038649 0.000000 0.002387
# 5 0.005409 -0.001195 0.004330 0.000000 0.075792 0.000000
# 6 0.000000 0.000000 0.000000 0.002387 0.000000 0.063755
#
#
# Mechanical properties :
#
#
# Convention : Reuss Voigt Hill
#
# Bulk Modulus (GPa) = 46.19041 53.26816 49.72929
# Shear Modulus (GPa) = 17.67378 19.40936 18.54157
#
# Velocity S-wave (km/s) = 3.37228 3.53399 3.45408
# Velocity P-wave (km/s) = 6.69959 7.13637 6.92143
#
# Compressibility (1/GPa) = 0.02164951
#
# Stress axis : x y z
#
# Youngs Moduli (GPa) = 40.61683 48.17772 70.45189
#
# Poissons Ratio (x) = 0.33687 0.41208
# Poissons Ratio (y) = 0.28400 0.43112
# Poissons Ratio (z) = 0.23757 0.29482
#
# Static dielectric constant tensor:
#      x y z
#    x 2.555910 0.000000 0.086260 
#    y 0.000000 2.985850 0.000000 
#    z 0.086260 0.000000 3.451370 
# 
# 
# High freq. dielectric constant tensor:
#      x y z
#    x 1.532590 0.000000 -0.000220 
#    y 0.000000 1.599520 0.000000 
#    z -0.000220 0.000000 1.606210 
# 
# From -- ./inp_files/291610.got.cif
#   From: 2010.06.25/outbox.cif.g09.slc.cpg/sg12_146_cif.got.tgz:291610.got - 2010.06.28 00:19:55.
