data_PCOD8078471
_publ_section_title
;
Structure prediction by ZEFSAII (Michael W. Deem and Ramdas Pophale) SiO2 
 PCOD8078471
Probable space group: C 2/M
;
_chemical_formula_sum "Si O2"
_cell_formula_units_Z 64
_cell_length_a 24.549686
_cell_length_b 8.784164
_cell_length_c 27.870108
_cell_angle_alpha 90.000000
_cell_angle_beta 41.869673
_cell_angle_gamma 90.000000
_cell_volume 4011.402853
_symmetry_space_group_name_H-M "C 2/M"
_symmetry_group_IT_number 12
_symmetry_cell_setting 'monoclinic'
loop_
_space_group_symop_operation_xyz
x,y,z
-x,y,-z
-x,-y,-z
x,-y,z
1/2+x,1/2+y,z
1/2-x,1/2+y,-z
1/2-x,1/2-y,-z
1/2+x,1/2-y,z
loop_
_atom_site_type_symbol
_atom_site_label
_atom_site_fract_x
_atom_site_fract_y
_atom_site_fract_z
Si Si1 0.608912 0.820207 0.237731
Si Si2 0.843341 0.677723 0.986598
Si Si3 0.413073 0.180893 0.040661
Si Si4 0.084870 0.828645 0.472434
Si Si5 0.019332 0.180188 0.375384
Si Si6 0.666290 0.820945 0.338557
Si Si7 0.153252 0.823430 0.113804
Si Si8 0.743308 0.819034 0.799676
O O1 0.526183 0.760374 0.318819
O O2 0.603107 0.771552 0.186159
O O3 0.687625 0.742353 0.209831
O O4 0.615539 0.000000 0.238415
O O5 0.857281 0.500000 0.967730
O O6 0.876171 0.770142 0.919300
O O7 0.892818 0.737940 0.000282
O O8 0.748568 0.712453 0.058079
O O9 0.344102 0.235907 0.123150
O O10 0.415323 0.000000 0.038645
O O11 0.500000 0.249371 0.000000
O O12 0.154817 0.722878 0.402405
O O13 0.000000 0.813852 0.500000
O O14 0.065774 0.782675 0.540662
O O15 0.118149 0.000000 0.447998
O O16 0.092216 0.246881 0.358860
O O17 0.031011 0.000000 0.362762
O O18 0.747201 0.750861 0.260365
O O19 0.667025 0.000000 0.332162
O O20 0.133525 0.000000 0.133507
O O21 0.750099 0.000000 0.793381
#
# Coordination Sequence:
#
# PCOD8078471 Si02
#       8
#     8   8   8   8   8   8   8   8
#     4  11  19  26  39  59  82 108 138 173 209 244
#     4   9  17  30  45  64  83 104 136 174 213 252
#     4   9  17  30  48  66  83 106 139 178 217 255
#     4   8  14  24  35  48  68  99 134 166 200 240
#     4   9  16  25  36  50  73 103 135 167 202 244
#     4  10  17  23  34  52  73 100 133 171 206 238
#     4  10  18  29  44  62  83 110 138 171 212 251
#     4  10  17  28  42  57  78 105 138 173 210 252
#
# _framework density 15.954516999999999
#
# number of rings (size 3 to 8) (size 9 to 14) (size 15 to 20)
#    0.000    2.500    1.250    5.625    0.000    3.250 
#    0.000    0.000    0.000    3.375    0.000    0.000 
#    0.000    0.000    0.000    1.125    0.000   12.375 
#
# Total GULP energy -396546.522611 kJ/mol
# GULP energy per Si atom -12392.078832 kJ/mol
# Density = 1.591820 g / cm^3
# Si number density = 15.954517 Si / 1000 Ang^3
#
#
#
# Elastic Constant Matrix: (Units=GPa)
#
#
# Indices 1 2 3 4 5 6 
#
# 1 52.7950 19.3547 43.2870 0.0068 8.2828 -0.0094
# 2 19.3547 99.5684 61.0983 0.0123 11.3634 -0.0103
# 3 43.2870 61.0983 154.9389 -0.0029 26.5236 0.0046
# 4 0.0068 0.0123 -0.0029 18.0852 0.0007 10.5287
# 5 8.2828 11.3634 26.5236 0.0007 15.7760 -0.0001
# 6 -0.0094 -0.0103 0.0046 10.5287 -0.0001 10.2401
#
#
#
# Elastic Compliance Matrix: (Units=1/GPa)
#
#
# Indices 1 2 3 4 5 6 
#
# 1 0.024650 -0.000724 -0.006283 -0.000060 -0.001856 0.000087
# 2 -0.000724 0.013283 -0.004863 -0.000045 -0.001013 0.000061
# 3 -0.006283 -0.004863 0.012585 0.000045 -0.014357 -0.000062
# 4 -0.000060 -0.000045 0.000045 0.137745 -0.000018 -0.141626
# 5 -0.001856 -0.001013 -0.014357 -0.000018 0.089229 0.000023
# 6 0.000087 0.000061 -0.000062 -0.141626 0.000023 0.243271
#
#
# Mechanical properties :
#
#
# Convention : Reuss Voigt Hill
#
# Bulk Modulus (GPa) = 37.34400 61.64247 49.49323
# Shear Modulus (GPa) = 9.03459 21.05775 15.04617
#
# Velocity S-wave (km/s) = 2.38223 3.63693 3.07427
# Velocity P-wave (km/s) = 5.56992 7.50710 6.60987
#
# Compressibility (1/GPa) = 0.02677807
#
# Stress axis : x y z
#
# Youngs Moduli (GPa) = 40.56860 75.28145 79.46067
#
# Poissons Ratio (x) = 0.05450 0.49928
# Poissons Ratio (y) = 0.02937 0.38638
# Poissons Ratio (z) = 0.25491 0.36606
#
# Static dielectric constant tensor:
#      x y z
#    x 2.567950 -0.000010 0.301280 
#    y -0.000010 2.976420 0.000010 
#    z 0.301280 0.000010 3.863710 
# 
# 
# High freq. dielectric constant tensor:
#      x y z
#    x 1.529280 0.000000 0.031240 
#    y 0.000000 1.614240 0.000000 
#    z 0.031240 0.000000 1.634200 
# 
# From -- ./inp_files/367035.got.cif
#   From: 2010.06.25/outbox.cif.g09.slc.cpg/sg12_184_cif.got.tgz:367035.got - 2010.06.28 00:19:55.
