data_PCOD8078162
_publ_section_title
;
Structure prediction by ZEFSAII (Michael W. Deem and Ramdas Pophale) SiO2 
 PCOD8078162
Probable space group: C 2/M
;
_chemical_formula_sum "Si O2"
_cell_formula_units_Z 52
_cell_length_a 26.812348
_cell_length_b 26.293073
_cell_length_c 5.378517
_cell_angle_alpha 90.000000
_cell_angle_beta 53.001358
_cell_angle_gamma 90.000000
_cell_volume 3028.273620
_symmetry_space_group_name_H-M "C 2/M"
_symmetry_group_IT_number 12
_symmetry_cell_setting 'monoclinic'
loop_
_space_group_symop_operation_xyz
x,y,z
-x,y,-z
-x,-y,-z
x,-y,z
1/2+x,1/2+y,z
1/2-x,1/2+y,-z
1/2-x,1/2-y,-z
1/2+x,1/2-y,z
loop_
_atom_site_type_symbol
_atom_site_label
_atom_site_fract_x
_atom_site_fract_y
_atom_site_fract_z
Si Si1 0.675523 0.748621 0.723431
Si Si2 0.540344 0.500000 0.628967
Si Si3 0.807868 0.288361 0.826398
Si Si4 0.278798 0.558864 0.413604
Si Si5 0.886574 0.140248 0.090279
Si Si6 0.902142 0.108110 0.543574
Si Si7 0.744545 0.603964 0.016367
O O1 0.750000 0.750000 0.500000
O O2 0.651423 0.777167 0.545573
O O3 0.653846 0.690783 0.788463
O O4 0.651422 0.777167 0.045892
O O5 0.500000 0.500000 0.500000
O O6 0.585153 0.548437 0.494540
O O7 0.500000 0.500000 0.000000
O O8 0.786365 0.346106 0.890906
O O9 0.750000 0.250000 0.000000
O O10 0.297012 0.500000 0.358963
O O11 0.342710 0.590474 0.221867
O O12 0.239515 0.572115 0.281638
O O13 0.239515 0.572114 0.781270
O O14 0.929219 0.135199 0.211806
O O15 0.929219 0.135200 0.712877
O O16 0.828091 0.119521 0.765725
#
# Coordination Sequence:
#
# PCOD8078162 Si02
#       7
#     8   4   8   8   8   8   8
#     4  10  16  25  39  58  82 102 114 141 171 230
#     4  12  26  40  50  62  74 100 136 174 238 278
#     4  10  16  25  39  54  82 102 116 141 173 226
#     4  10  18  25  36  50  75  91 122 160 186 222
#     4  10  19  28  44  65  76  96 127 142 198 245
#     4  10  20  32  48  56  77  90 121 166 196 254
#     4  10  19  28  40  61  72  98 129 146 196 247
#
# _framework density 17.171498
#
# number of rings (size 3 to 8) (size 9 to 14) (size 15 to 20)
#    0.000    1.846    0.000   10.615    8.615    0.000 
#    0.000    0.000    0.000    0.000    0.000    0.000 
#    0.000    0.000    0.000    0.000    0.000    0.000 
#
# Total GULP energy -322139.664088 kJ/mol
# GULP energy per Si atom -12389.987080 kJ/mol
# Density = 1.713242 g / cm^3
# Si number density = 17.171498 Si / 1000 Ang^3
#
#
#
# Elastic Constant Matrix: (Units=GPa)
#
#
# Indices 1 2 3 4 5 6 
#
# 1 47.6857 28.3803 56.4404 0.0000 40.6090 0.0000
# 2 28.3803 98.0776 33.9271 0.0000 11.8838 0.0000
# 3 56.4404 33.9271 95.5169 0.0000 61.8592 0.0000
# 4 0.0000 0.0000 0.0000 24.0293 0.0000 12.4822
# 5 40.6090 11.8838 61.8592 0.0000 50.6241 0.0000
# 6 0.0000 0.0000 0.0000 12.4822 0.0000 18.2026
#
#
#
# Elastic Compliance Matrix: (Units=1/GPa)
#
#
# Indices 1 2 3 4 5 6 
#
# 1 0.092366 -0.014760 -0.017231 0.000000 -0.049573 0.000000
# 2 -0.014760 0.015449 -0.009993 0.000000 0.020425 0.000000
# 3 -0.017231 -0.009993 0.065804 0.000000 -0.064240 0.000000
# 4 0.000000 0.000000 0.000000 0.064642 0.000000 -0.044327
# 5 -0.049573 0.020425 -0.064240 0.000000 0.133222 0.000000
# 6 0.000000 0.000000 0.000000 -0.044327 0.000000 0.085334
#
#
# Mechanical properties :
#
#
# Convention : Reuss Voigt Hill
#
# Bulk Modulus (GPa) = 11.15446 53.19730 32.17588
# Shear Modulus (GPa) = 8.76163 26.74002 17.75082
#
# Velocity S-wave (km/s) = 2.26131 3.95046 3.21867
# Velocity P-wave (km/s) = 3.65076 7.20107 5.70892
#
# Compressibility (1/GPa) = 0.08965021
#
# Stress axis : x y z
#
# Youngs Moduli (GPa) = 10.82644 64.72836 15.19662
#
# Poissons Ratio (x) = 0.95541 0.26186
# Poissons Ratio (y) = 0.15980 0.15186
# Poissons Ratio (z) = 0.18655 0.64684
#
# Static dielectric constant tensor:
#      x y z
#    x 4.047070 0.000000 2.136670 
#    y 0.000000 3.149000 0.000000 
#    z 2.136670 0.000000 5.044480 
# 
# 
# High freq. dielectric constant tensor:
#      x y z
#    x 1.615910 0.000000 0.084040 
#    y 0.000000 1.659610 0.000000 
#    z 0.084040 0.000000 1.655140 
# 
# From -- ./inp_files/22157.got.cif
#   From: 2010.06.25/outbox.cif.g09.slc.cpg/sg12_12_cif.got.tgz:22157.got - 2010.06.28 00:19:55.
