data_PCOD8078884
_publ_section_title
;
Structure prediction by ZEFSAII (Michael W. Deem and Ramdas Pophale) SiO2 
 PCOD8078884
Probable space group: C 2/M
;
_chemical_formula_sum "Si O2"
_cell_formula_units_Z 48
_cell_length_a 18.957639
_cell_length_b 14.346133
_cell_length_c 9.494952
_cell_angle_alpha 90.000000
_cell_angle_beta 75.319404
_cell_angle_gamma 90.000000
_cell_volume 2498.027089
_symmetry_space_group_name_H-M "C 2/M"
_symmetry_group_IT_number 12
_symmetry_cell_setting 'monoclinic'
loop_
_space_group_symop_operation_xyz
x,y,z
-x,y,-z
-x,-y,-z
x,-y,z
1/2+x,1/2+y,z
1/2-x,1/2+y,-z
1/2-x,1/2-y,-z
1/2+x,1/2-y,z
loop_
_atom_site_type_symbol
_atom_site_label
_atom_site_fract_x
_atom_site_fract_y
_atom_site_fract_z
Si Si1 0.786905 0.895038 0.038004
Si Si2 0.574906 0.891786 0.393721
Si Si3 0.164901 0.248467 0.507439
Si Si4 0.381540 0.106476 0.933147
Si Si5 0.652971 0.771474 0.815341
Si Si6 0.204112 0.107095 0.279164
O O1 0.701781 0.871142 0.065767
O O2 0.821801 0.825349 0.130658
O O3 0.796874 0.000000 0.090819
O O4 0.825918 0.884622 0.865651
O O5 0.500000 0.855832 0.500000
O O6 0.642835 0.838938 0.428991
O O7 0.569775 0.873059 0.228761
O O8 0.588563 0.000000 0.417924
O O9 0.250000 0.250000 0.500000
O O10 0.119604 0.246300 0.678159
O O11 0.149272 0.157912 0.416921
O O12 0.390706 0.000000 0.979550
O O13 0.403875 0.175446 0.051069
O O14 0.717484 0.844396 0.754464
O O15 0.212842 0.000000 0.320028
#
# Coordination Sequence:
#
# PCOD8078884 Si02
#       6
#     8   8   8   8   8   8
#     4   9  16  26  44  70 101 134 169 209 254 309
#     4  10  21  37  55  75 105 145 181 211 252 314
#     4  10  20  31  49  77 104 133 168 218 268 303
#     4   9  16  28  47  68  94 133 173 207 247 306
#     4  10  17  27  45  72 103 131 166 213 265 306
#     4   9  17  29  45  69 101 136 170 208 257 310
#
# _framework density 19.215164000000001
#
# number of rings (size 3 to 8) (size 9 to 14) (size 15 to 20)
#    0.000    2.500    0.000    6.500    0.000    4.000 
#    0.000    0.833    0.000    3.500    0.000    0.000 
#    0.000    5.333    0.000    0.000    0.000    0.000 
#
# Total GULP energy -297417.851541 kJ/mol
# GULP energy per Si atom -12392.410481 kJ/mol
# Density = 1.917143 g / cm^3
# Si number density = 19.215164 Si / 1000 Ang^3
#
#
#
# Elastic Constant Matrix: (Units=GPa)
#
#
# Indices 1 2 3 4 5 6 
#
# 1 24.6929 19.0302 16.7174 0.0000 -7.7400 0.0000
# 2 19.0302 112.2556 65.7690 0.0000 -4.7221 0.0000
# 3 16.7174 65.7690 144.9934 0.0000 -17.8017 0.0000
# 4 0.0000 0.0000 0.0000 30.2262 0.0000 -6.3680
# 5 -7.7400 -4.7221 -17.8017 0.0000 17.5484 0.0000
# 6 0.0000 0.0000 0.0000 -6.3680 0.0000 9.6469
#
#
#
# Elastic Compliance Matrix: (Units=1/GPa)
#
#
# Indices 1 2 3 4 5 6 
#
# 1 0.053507 -0.008311 0.000255 0.000000 0.021623 0.000000
# 2 -0.008311 0.013532 -0.005920 0.000000 -0.006030 0.000000
# 3 0.000255 -0.005920 0.010704 0.000000 0.009378 0.000000
# 4 0.000000 0.000000 0.000000 0.038428 0.000000 0.025367
# 5 0.021623 -0.006030 0.009378 0.000000 0.074413 0.000000
# 6 0.000000 0.000000 0.000000 0.025367 0.000000 0.120405
#
#
# Mechanical properties :
#
#
# Convention : Reuss Voigt Hill
#
# Bulk Modulus (GPa) = 20.08352 53.88611 36.98482
# Shear Modulus (GPa) = 14.06313 23.51266 18.78790
#
# Velocity S-wave (km/s) = 2.70826 3.50187 3.13031
# Velocity P-wave (km/s) = 4.50046 6.66747 5.68812
#
# Compressibility (1/GPa) = 0.04979206
#
# Stress axis : x y z
#
# Youngs Moduli (GPa) = 18.68904 73.89847 93.42048
#
# Poissons Ratio (x) = 0.61416 -0.02385
# Poissons Ratio (y) = 0.15532 0.55307
# Poissons Ratio (z) = -0.00477 0.43750
#
# Static dielectric constant tensor:
#      x y z
#    x 2.835520 0.000000 -0.194030 
#    y 0.000000 3.737690 0.000000 
#    z -0.194030 0.000000 4.706940 
# 
# 
# High freq. dielectric constant tensor:
#      x y z
#    x 1.662150 0.000000 -0.008020 
#    y 0.000000 1.753440 0.000000 
#    z -0.008020 0.000000 1.775800 
# 
# From -- ./inp_files/73617.got.cif
#   From: 2010.06.25/outbox.cif.g09.slc.cpg/sg12_37_cif.got.tgz:73617.got - 2010.06.28 00:19:55.
