data_PCOD8078487
_publ_section_title
;
Structure prediction by ZEFSAII (Michael W. Deem and Ramdas Pophale) SiO2 
 PCOD8078487
Probable space group: C 2/M
;
_chemical_formula_sum "Si O2"
_cell_formula_units_Z 56
_cell_length_a 24.880853
_cell_length_b 9.292056
_cell_length_c 17.639885
_cell_angle_alpha 90.000000
_cell_angle_beta 64.185300
_cell_angle_gamma 90.000000
_cell_volume 3671.260963
_symmetry_space_group_name_H-M "C 2/M"
_symmetry_group_IT_number 12
_symmetry_cell_setting 'monoclinic'
loop_
_space_group_symop_operation_xyz
x,y,z
-x,y,-z
-x,-y,-z
x,-y,z
1/2+x,1/2+y,z
1/2-x,1/2+y,-z
1/2-x,1/2-y,-z
1/2+x,1/2-y,z
loop_
_atom_site_type_symbol
_atom_site_label
_atom_site_fract_x
_atom_site_fract_y
_atom_site_fract_z
Si Si1 0.169261 0.659432 0.596069
Si Si2 0.721212 0.164210 0.121576
Si Si3 0.725595 0.166883 0.286673
Si Si4 0.065942 0.669875 0.956532
Si Si5 0.666585 0.831795 0.002752
Si Si6 0.347235 0.831487 0.229252
Si Si7 0.692436 0.661588 0.445132
O O1 0.152155 0.500000 0.578138
O O2 0.133408 0.699080 0.695109
O O3 0.238580 0.664790 0.575452
O O4 0.154272 0.769192 0.537398
O O5 0.695304 0.185163 0.222264
O O6 0.670117 0.203238 0.090678
O O7 0.742111 0.000000 0.096615
O O8 0.778469 0.262752 0.075215
O O9 0.791192 0.234438 0.241372
O O10 0.683705 0.247415 0.373428
O O11 0.731111 0.000000 0.306872
O O12 0.059373 0.500000 0.966306
O O13 0.104901 0.727020 0.004301
O O14 0.097726 0.712466 0.858062
O O15 0.000000 0.741198 0.000000
O O16 0.671446 0.000000 0.983022
O O17 0.329592 0.000000 0.230715
O O18 0.669133 0.500000 0.446283
#
# Coordination Sequence:
#
# PCOD8078487 Si02
#       7
#     8   8   8   8   8   8   8
#     4   8  14  23  34  49  72 100 128 157 189 228
#     4   9  17  26  38  58  80 104 133 164 197 236
#     4  10  17  24  36  54  79 104 130 160 193 233
#     4   9  16  26  42  62  81 103 135 171 201 231
#     4   9  16  27  42  57  77 104 134 166 199 233
#     4   9  16  26  39  55  75 102 135 163 192 232
#     4   9  16  24  35  52  74 100 130 157 189 233
#
# _framework density 15.253614000000001
#
# number of rings (size 3 to 8) (size 9 to 14) (size 15 to 20)
#    0.000    3.000    1.429    1.714    0.000    4.000 
#    0.000    0.000    0.000    1.714    0.000    0.000 
#    0.000    1.143    0.000   14.571    0.000    1.714 
#
# Total GULP energy -346962.224510 kJ/mol
# GULP energy per Si atom -12391.508018 kJ/mol
# Density = 1.521890 g / cm^3
# Si number density = 15.253614 Si / 1000 Ang^3
#
#
#
# Elastic Constant Matrix: (Units=GPa)
#
#
# Indices 1 2 3 4 5 6 
#
# 1 72.0694 24.4556 50.1659 0.0000 11.1376 0.0000
# 2 24.4556 67.2085 46.3885 0.0000 13.1088 -0.0002
# 3 50.1659 46.3885 122.0555 0.0000 25.2362 0.0000
# 4 0.0000 0.0000 0.0000 20.1314 0.0000 4.2171
# 5 11.1376 13.1088 25.2362 0.0000 18.8149 0.0000
# 6 0.0000 -0.0002 0.0000 4.2171 0.0000 9.3746
#
#
#
# Elastic Compliance Matrix: (Units=1/GPa)
#
#
# Indices 1 2 3 4 5 6 
#
# 1 0.019664 -0.002098 -0.007168 0.000000 -0.000564 0.000000
# 2 -0.002098 0.020771 -0.005946 0.000000 -0.005255 0.000001
# 3 -0.007168 -0.005946 0.016141 0.000000 -0.013265 0.000000
# 4 0.000000 0.000000 0.000000 0.054841 0.000000 -0.024670
# 5 -0.000564 -0.005255 -0.013265 0.000000 0.074937 0.000000
# 6 0.000000 0.000001 0.000000 -0.024670 0.000000 0.117769
#
#
# Mechanical properties :
#
#
# Convention : Reuss Voigt Hill
#
# Bulk Modulus (GPa) = 38.23524 55.92816 47.08170
# Shear Modulus (GPa) = 14.56603 19.01907 16.79255
#
# Velocity S-wave (km/s) = 3.09354 3.53492 3.32157
# Velocity P-wave (km/s) = 6.15473 7.30794 6.75599
#
# Compressibility (1/GPa) = 0.02615388
#
# Stress axis : x y z
#
# Youngs Moduli (GPa) = 50.85395 48.14384 61.95220
#
# Poissons Ratio (x) = 0.10099 0.44409
# Poissons Ratio (y) = 0.10667 0.36834
# Poissons Ratio (z) = 0.36453 0.28624
#
# Static dielectric constant tensor:
#      x y z
#    x 2.721770 0.000000 0.305120 
#    y 0.000000 2.946710 0.000000 
#    z 0.305120 0.000000 3.196180 
# 
# 
# High freq. dielectric constant tensor:
#      x y z
#    x 1.523360 0.000000 0.035720 
#    y 0.000000 1.580100 0.000000 
#    z 0.035720 0.000000 1.589820 
# 
# From -- ./inp_files/291483.got.cif
#   From: 2010.06.25/outbox.cif.g09.slc.cpg/sg12_146_cif.got.tgz:291483.got - 2010.06.28 00:19:55.
