data_PCOD8078363
_publ_section_title
;
Structure prediction by ZEFSAII (Michael W. Deem and Ramdas Pophale) SiO2 
 PCOD8078363
Probable space group: C 2/M
;
_chemical_formula_sum "Si O2"
_cell_formula_units_Z 56
_cell_length_a 28.499686
_cell_length_b 13.387902
_cell_length_c 9.559618
_cell_angle_alpha 90.000000
_cell_angle_beta 78.184636
_cell_angle_gamma 90.000000
_cell_volume 3570.200880
_symmetry_space_group_name_H-M "C 2/M"
_symmetry_group_IT_number 12
_symmetry_cell_setting 'monoclinic'
loop_
_space_group_symop_operation_xyz
x,y,z
-x,y,-z
-x,-y,-z
x,-y,z
1/2+x,1/2+y,z
1/2-x,1/2+y,-z
1/2-x,1/2-y,-z
1/2+x,1/2-y,z
loop_
_atom_site_type_symbol
_atom_site_label
_atom_site_fract_x
_atom_site_fract_y
_atom_site_fract_z
Si Si1 0.763596 0.281182 0.646857
Si Si2 0.198655 0.886019 0.897614
Si Si3 0.954794 0.618603 0.937812
Si Si4 0.742364 0.887467 0.862239
Si Si5 0.853321 0.616729 0.693319
Si Si6 0.354677 0.199223 0.000646
Si Si7 0.959689 0.616044 0.622695
O O1 0.750000 0.250000 0.500000
O O2 0.722596 0.352744 0.736799
O O3 0.770531 0.182615 0.736999
O O4 0.813990 0.340474 0.610650
O O5 0.180902 0.000000 0.898204
O O6 0.239040 0.870526 0.991584
O O7 0.153117 0.817257 0.964936
O O8 0.947505 0.500000 0.944388
O O9 0.906495 0.667931 0.029270
O O10 0.963177 0.660465 0.776526
O O11 0.000000 0.653482 0.000000
O O12 0.751049 0.000000 0.806748
O O13 0.686041 0.862253 0.892001
O O14 0.843765 0.500000 0.729470
O O15 0.850512 0.675785 0.839829
O O16 0.906169 0.632677 0.593737
O O17 0.971962 0.500000 0.626797
O O18 0.000000 0.668115 0.500000
#
# Coordination Sequence:
#
# PCOD8078363 Si02
#       7
#     8   8   8   8   8   8   8
#     4  11  21  32  44  69 102 128 158 196 236 287
#     4  10  19  33  53  70  94 126 161 204 237 277
#     4   9  17  28  45  70  99 123 148 193 244 283
#     4  10  18  31  50  70  93 124 162 199 230 278
#     4  10  17  29  50  69  94 129 160 190 232 283
#     4  10  16  30  51  73  92 122 164 194 230 286
#     4   8  15  28  44  63  88 121 155 183 219 278
#
# _framework density 15.685392999999999
#
# number of rings (size 3 to 8) (size 9 to 14) (size 15 to 20)
#    0.000    2.286    2.857    3.429    0.000    1.143 
#    5.143    0.000    0.000    0.429    0.000    0.000 
#    0.000    3.429    0.000    0.000    0.000    0.000 
#
# Total GULP energy -347119.684570 kJ/mol
# GULP energy per Si atom -12397.131592 kJ/mol
# Density = 1.564969 g / cm^3
# Si number density = 15.685393 Si / 1000 Ang^3
#
#
#
# Elastic Constant Matrix: (Units=GPa)
#
#
# Indices 1 2 3 4 5 6 
#
# 1 121.7368 40.0961 42.4642 0.0000 -3.7474 0.0000
# 2 40.0961 89.5060 33.1651 0.0000 -4.9591 0.0000
# 3 42.4642 33.1651 74.4900 0.0000 -1.4695 0.0000
# 4 0.0000 0.0000 0.0000 16.0353 0.0000 -0.0049
# 5 -3.7474 -4.9591 -1.4695 0.0000 24.3851 0.0000
# 6 0.0000 0.0000 0.0000 -0.0049 0.0000 23.5966
#
#
#
# Elastic Compliance Matrix: (Units=1/GPa)
#
#
# Indices 1 2 3 4 5 6 
#
# 1 0.010941 -0.003058 -0.004860 0.000000 0.000767 0.000000
# 2 -0.003058 0.014372 -0.004613 0.000000 0.002175 0.000000
# 3 -0.004860 -0.004613 0.018238 0.000000 -0.000586 0.000000
# 4 0.000000 0.000000 0.000000 0.062363 0.000000 0.000013
# 5 0.000767 0.002175 -0.000586 0.000000 0.041533 0.000000
# 6 0.000000 0.000000 0.000000 0.000013 0.000000 0.042379
#
#
# Mechanical properties :
#
#
# Convention : Reuss Voigt Hill
#
# Bulk Modulus (GPa) = 54.08816 57.46485 55.77650
# Shear Modulus (GPa) = 22.61937 24.13720 23.37829
#
# Velocity S-wave (km/s) = 3.80157 3.92705 3.86482
# Velocity P-wave (km/s) = 7.33671 7.56821 7.45336
#
# Compressibility (1/GPa) = 0.01848834
#
# Stress axis : x y z
#
# Youngs Moduli (GPa) = 91.40348 69.58027 54.83197
#
# Poissons Ratio (x) = 0.21275 0.26650
# Poissons Ratio (y) = 0.27948 0.25293
# Poissons Ratio (z) = 0.44425 0.32096
#
# Static dielectric constant tensor:
#      x y z
#    x 3.071840 0.000000 -0.138430 
#    y 0.000000 2.951220 0.000000 
#    z -0.138430 0.000000 2.923950 
# 
# 
# High freq. dielectric constant tensor:
#      x y z
#    x 1.594260 0.000000 -0.008460 
#    y 0.000000 1.581380 0.000000 
#    z -0.008460 0.000000 1.585780 
# 
# From -- ./inp_files/110811.got.cif
#   From: 2010.06.25/outbox.cif.g09.slc.cpg/sg12_56_cif.got.tgz:110811.got - 2010.06.28 00:19:55.
