data_PCOD8078300
_publ_section_title
;
Structure prediction by ZEFSAII (Michael W. Deem and Ramdas Pophale) SiO2 
 PCOD8078300
Probable space group: C 2/M
;
_chemical_formula_sum "Si O2"
_cell_formula_units_Z 56
_cell_length_a 25.845149
_cell_length_b 13.412275
_cell_length_c 30.357705
_cell_angle_alpha 90.000000
_cell_angle_beta 19.354898
_cell_angle_gamma 90.000000
_cell_volume 3487.604520
_symmetry_space_group_name_H-M "C 2/M"
_symmetry_group_IT_number 12
_symmetry_cell_setting 'monoclinic'
loop_
_space_group_symop_operation_xyz
x,y,z
-x,y,-z
-x,-y,-z
x,-y,z
1/2+x,1/2+y,z
1/2-x,1/2+y,-z
1/2-x,1/2-y,-z
1/2+x,1/2-y,z
loop_
_atom_site_type_symbol
_atom_site_label
_atom_site_fract_x
_atom_site_fract_y
_atom_site_fract_z
Si Si1 0.717654 0.614145 0.998573
Si Si2 0.482425 0.890572 0.377423
Si Si3 0.619481 0.113740 0.038631
Si Si4 0.399515 0.268533 0.246468
Si Si5 0.392144 0.115214 0.546683
Si Si6 0.370210 0.257302 0.808369
Si Si7 0.676344 0.691849 0.598745
O O1 0.718778 0.500000 0.982617
O O2 0.778523 0.626138 0.999241
O O3 0.835949 0.673480 0.872407
O O4 0.542749 0.654565 0.135323
O O5 0.490711 0.868865 0.422762
O O6 0.577385 0.801708 0.277584
O O7 0.297728 0.897116 0.511724
O O8 0.553808 0.000000 0.309344
O O9 0.452097 0.166339 0.180231
O O10 0.591541 0.000000 0.046955
O O11 0.717893 0.173420 0.921908
O O12 0.264175 0.318721 0.326304
O O13 0.337488 0.242896 0.345324
O O14 0.500000 0.151461 0.500000
O O15 0.343051 0.000000 0.591495
O O16 0.502976 0.334085 0.720319
O O17 0.750000 0.750000 0.500000
#
# Coordination Sequence:
#
# PCOD8078300 Si02
#       7
#     8   8   8   8   8   8   8
#     4  10  17  25  43  66  92 125 155 183 220 269
#     4   9  18  28  44  66  91 123 150 181 227 275
#     4  10  19  28  44  66  92 126 157 188 219 261
#     4  10  16  30  44  65  93 121 153 187 229 268
#     4   9  18  32  51  73  92 114 149 190 231 278
#     4  10  16  29  41  63  95 124 152 186 219 268
#     4   9  16  25  38  57  90 121 150 179 213 263
#
# _framework density 16.056865999999999
#
# number of rings (size 3 to 8) (size 9 to 14) (size 15 to 20)
#    0.000    2.429    2.857    1.714    0.000    1.143 
#    0.000    0.000    0.000    9.000    0.000   14.000 
#    0.000    0.000    0.000    0.000    0.000    0.000 
#
# Total GULP energy -346888.917743 kJ/mol
# GULP energy per Si atom -12388.889919 kJ/mol
# Density = 1.602032 g / cm^3
# Si number density = 16.056866 Si / 1000 Ang^3
#
#
#
# Elastic Constant Matrix: (Units=GPa)
#
#
# Indices 1 2 3 4 5 6 
#
# 1 72.9497 27.7855 35.5633 0.0063 -2.9536 0.0018
# 2 27.7855 100.0805 45.6006 -0.0073 0.8587 0.0020
# 3 35.5633 45.6006 90.1856 -0.0205 3.2532 0.0021
# 4 0.0063 -0.0073 -0.0205 23.8722 0.0009 0.2824
# 5 -2.9536 0.8587 3.2532 0.0009 17.7817 -0.0014
# 6 0.0018 0.0020 0.0021 0.2824 -0.0014 16.5421
#
#
#
# Elastic Compliance Matrix: (Units=1/GPa)
#
#
# Indices 1 2 3 4 5 6 
#
# 1 0.017634 -0.002202 -0.005989 -0.000011 0.004131 0.000000
# 2 -0.002202 0.013264 -0.005840 0.000000 0.000062 -0.000001
# 3 -0.005989 -0.005840 0.016538 0.000014 -0.003738 -0.000001
# 4 -0.000011 0.000000 0.000014 0.041898 -0.000007 -0.000715
# 5 0.004131 0.000062 -0.003738 -0.000007 0.057605 0.000005
# 6 0.000000 -0.000001 -0.000001 -0.000715 0.000005 0.060464
#
#
# Mechanical properties :
#
#
# Convention : Reuss Voigt Hill
#
# Bulk Modulus (GPa) = 51.62082 53.45718 52.53900
# Shear Modulus (GPa) = 20.66763 21.92361 21.29562
#
# Velocity S-wave (km/s) = 3.59158 3.69910 3.64574
# Velocity P-wave (km/s) = 7.02978 7.18395 7.10729
#
# Compressibility (1/GPa) = 0.01937203
#
# Stress axis : x y z
#
# Youngs Moduli (GPa) = 56.70897 75.39205 60.46700
#
# Poissons Ratio (x) = 0.16604 0.36214
# Poissons Ratio (y) = 0.12489 0.35316
# Poissons Ratio (z) = 0.33964 0.44033
#
# Static dielectric constant tensor:
#      x y z
#    x 2.972700 0.001870 -0.055480 
#    y 0.001870 3.430870 -0.001050 
#    z -0.055480 -0.001050 3.417350 
# 
# 
# High freq. dielectric constant tensor:
#      x y z
#    x 1.574130 0.000000 0.011600 
#    y 0.000000 1.603360 0.000000 
#    z 0.011600 0.000000 1.629200 
# 
# From -- ./inp_files/166630.got.cif
#   From: 2010.06.25/outbox.cif.g09.slc.cpg/sg12_84_cif.got.tgz:166630.got - 2010.06.28 00:19:55.
