data_PCOD8078819
_publ_section_title
;
Structure prediction by ZEFSAII (Michael W. Deem and Ramdas Pophale) SiO2 
 PCOD8078819
Probable space group: C 2/M
;
_chemical_formula_sum "Si O2"
_cell_formula_units_Z 56
_cell_length_a 8.714142
_cell_length_b 30.707453
_cell_length_c 18.203408
_cell_angle_alpha 90.000000
_cell_angle_beta 44.105121
_cell_angle_gamma 90.000000
_cell_volume 3390.127298
_symmetry_space_group_name_H-M "C 2/M"
_symmetry_group_IT_number 12
_symmetry_cell_setting 'monoclinic'
loop_
_space_group_symop_operation_xyz
x,y,z
-x,y,-z
-x,-y,-z
x,-y,z
1/2+x,1/2+y,z
1/2-x,1/2+y,-z
1/2-x,1/2-y,-z
1/2+x,1/2-y,z
loop_
_atom_site_type_symbol
_atom_site_label
_atom_site_fract_x
_atom_site_fract_y
_atom_site_fract_z
Si Si1 0.327178 0.551721 1.000000
Si Si2 0.240755 0.618700 0.384804
Si Si3 0.604834 0.381300 0.384804
Si Si4 0.360207 0.049039 0.213532
Si Si5 0.256906 0.706709 0.617229
Si Si6 0.499197 0.450961 0.213532
Si Si7 0.891407 0.706709 0.617229
O O1 0.313825 0.500000 1.000000
O O2 0.088569 0.569595 0.105856
O O3 0.500000 0.568615 0.000000
O O4 0.406139 0.569595 0.894144
O O5 0.410422 0.624392 0.393052
O O6 0.300426 0.578354 0.312001
O O7 0.248719 0.662099 0.330793
O O8 0.000000 0.609455 0.500000
O O9 0.500000 0.390545 0.500000
O O10 0.763571 0.421646 0.312001
O O11 0.758903 0.337901 0.330793
O O12 0.199044 0.048681 0.200637
O O13 0.392682 0.000000 0.233484
O O14 0.500000 0.706220 0.500000
O O15 0.236813 0.750000 0.675458
O O16 0.074548 0.708013 0.616968
O O17 0.406866 0.500000 0.233484
O O18 0.000000 0.706220 0.500000
#
# Coordination Sequence:
#
# PCOD8078819 Si02
#       7
#     8   8   8   8   8   8   8
#     4   9  17  29  47  69  88 109 146 195 235 263
#     4  10  19  30  44  65  93 123 154 185 221 267
#     4  10  19  30  44  65  93 123 154 185 221 267
#     4   9  18  32  48  65  89 122 155 186 223 267
#     4  10  17  27  43  62  86 115 148 185 224 264
#     4   9  18  32  48  65  89 122 155 186 223 267
#     4  10  17  27  43  62  86 115 148 185 224 264
#
# _framework density 16.518553000000001
#
# number of rings (size 3 to 8) (size 9 to 14) (size 15 to 20)
#    0.000    2.429    0.000    6.429    0.000    4.571 
#    0.000    0.000    0.000    0.000    0.000    1.000 
#    0.000    0.000    0.000    0.000    0.000    0.000 
#
# Total GULP energy -347048.527760 kJ/mol
# GULP energy per Si atom -12394.590277 kJ/mol
# Density = 1.648096 g / cm^3
# Si number density = 16.518553 Si / 1000 Ang^3
#
#
#
# Elastic Constant Matrix: (Units=GPa)
#
#
# Indices 1 2 3 4 5 6 
#
# 1 90.6619 51.0269 39.1389 0.0000 1.0054 0.0000
# 2 51.0269 117.8105 61.6557 0.0000 -0.7672 0.0000
# 3 39.1389 61.6557 89.5717 0.0000 -0.9266 0.0000
# 4 0.0000 0.0000 0.0000 1.4373 0.0000 1.5399
# 5 1.0054 -0.7672 -0.9266 0.0000 18.9371 0.0000
# 6 0.0000 0.0000 0.0000 1.5399 0.0000 22.7709
#
#
#
# Elastic Compliance Matrix: (Units=1/GPa)
#
#
# Indices 1 2 3 4 5 6 
#
# 1 0.015209 -0.004862 -0.003311 0.000000 -0.001166 0.000000
# 2 -0.004862 0.014822 -0.008073 0.000000 0.000464 0.000000
# 3 -0.003311 -0.008073 0.018176 0.000000 0.000738 0.000000
# 4 0.000000 0.000000 0.000000 0.750099 0.000000 -0.050727
# 5 -0.001166 0.000464 0.000738 0.000000 0.052923 0.000000
# 6 0.000000 0.000000 0.000000 -0.050727 0.000000 0.047346
#
#
# Mechanical properties :
#
#
# Convention : Reuss Voigt Hill
#
# Bulk Modulus (GPa) = 63.63727 66.85413 65.24570
# Shear Modulus (GPa) = 5.34013 18.37724 11.85868
#
# Velocity S-wave (km/s) = 1.79995 3.33907 2.68227
# Velocity P-wave (km/s) = 6.55196 7.44485 7.01263
#
# Compressibility (1/GPa) = 0.01571406
#
# Stress axis : x y z
#
# Youngs Moduli (GPa) = 65.75134 67.46535 55.01821
#
# Poissons Ratio (x) = 0.32804 0.18215
# Poissons Ratio (y) = 0.31970 0.44419
# Poissons Ratio (z) = 0.21769 0.54468
#
# Static dielectric constant tensor:
#      x y z
#    x 3.164190 0.000000 0.019550 
#    y 0.000000 4.035260 0.000000 
#    z 0.019550 0.000000 2.893310 
# 
# 
# High freq. dielectric constant tensor:
#      x y z
#    x 1.649760 0.000000 0.004040 
#    y 0.000000 1.634860 0.000000 
#    z 0.004040 0.000000 1.593840 
# 
# From -- ./inp_files/259538.got.cif
#   From: 2010.06.25/outbox.cif.g09.slc.cpg/sg12_130_cif.got.tgz:259538.got - 2010.06.28 00:19:55.
