data_PCOD8078551
_publ_section_title
;
Structure prediction by ZEFSAII (Michael W. Deem and Ramdas Pophale) SiO2 
 PCOD8078551
Probable space group: C 2/M
;
_chemical_formula_sum "Si O2"
_cell_formula_units_Z 56
_cell_length_a 28.195822
_cell_length_b 9.402049
_cell_length_c 28.316085
_cell_angle_alpha 90.000000
_cell_angle_beta 150.717521
_cell_angle_gamma 90.000000
_cell_volume 3671.572652
_symmetry_space_group_name_H-M "C 2/M"
_symmetry_group_IT_number 12
_symmetry_cell_setting 'monoclinic'
loop_
_space_group_symop_operation_xyz
x,y,z
-x,y,-z
-x,-y,-z
x,-y,z
1/2+x,1/2+y,z
1/2-x,1/2+y,-z
1/2-x,1/2-y,-z
1/2+x,1/2-y,z
loop_
_atom_site_type_symbol
_atom_site_label
_atom_site_fract_x
_atom_site_fract_y
_atom_site_fract_z
Si Si1 0.415480 0.342772 0.465157
Si Si2 0.837515 0.838423 0.971379
Si Si3 0.381854 0.162720 0.197947
Si Si4 0.096292 0.333639 0.058135
Si Si5 0.958755 0.335765 0.364043
Si Si6 0.651050 0.664032 0.914451
Si Si7 0.297118 0.665671 0.277605
O O1 0.500000 0.340915 0.500000
O O2 0.404946 0.500000 0.478431
O O3 0.441456 0.232653 0.529393
O O4 0.318210 0.300179 0.351507
O O5 0.725217 0.790601 0.877598
O O6 0.893992 0.740285 0.983938
O O7 0.842197 0.000000 0.957093
O O8 0.891181 0.824279 0.069042
O O9 0.457890 0.181670 0.306661
O O10 0.416663 0.262070 0.184337
O O11 0.378158 0.000000 0.177070
O O12 0.088699 0.500000 0.041404
O O13 0.186146 0.296624 0.170383
O O14 0.000000 0.276136 0.000000
O O15 0.955297 0.500000 0.376125
O O16 0.864212 0.259501 0.302291
O O17 0.668724 0.500000 0.916144
O O18 0.750000 0.750000 0.000000
O O19 0.320608 0.500000 0.287764
#
# Coordination Sequence:
#
# PCOD8078551 Si02
#       7
#     8   8   8   8   8   8   8
#     4   8  15  26  38  54  77 106 137 164 198 246
#     4   9  17  30  42  56  80 108 137 170 206 243
#     4   9  17  27  39  59  85 109 136 166 198 243
#     4  10  20  31  44  62  80 105 145 182 208 239
#     4  10  17  25  39  60  84 107 135 169 199 238
#     4   9  17  27  40  58  80 106 137 168 199 243
#     4   9  17  29  41  54  78 109 138 171 207 242
#
# _framework density 15.252319999999999
#
# number of rings (size 3 to 8) (size 9 to 14) (size 15 to 20)
#    0.000    2.857    1.429    2.571    0.000    6.857 
#    0.000    0.000    0.000    0.000    0.000    0.000 
#    0.000    1.143    0.000    2.571    0.000    4.000 
#
# Total GULP energy -347005.486035 kJ/mol
# GULP energy per Si atom -12393.053073 kJ/mol
# Density = 1.521761 g / cm^3
# Si number density = 15.252320 Si / 1000 Ang^3
#
#
#
# Elastic Constant Matrix: (Units=GPa)
#
#
# Indices 1 2 3 4 5 6 
#
# 1 63.5642 41.8356 43.2822 0.0000 -16.0806 0.0000
# 2 41.8356 84.2031 47.5080 0.0000 -18.0159 0.0000
# 3 43.2822 47.5080 85.7500 0.0000 -21.1966 0.0000
# 4 0.0000 0.0000 0.0000 20.9793 0.0000 -10.0980
# 5 -16.0806 -18.0159 -21.1966 0.0000 22.0920 0.0000
# 6 0.0000 0.0000 0.0000 -10.0980 0.0000 23.4899
#
#
#
# Elastic Compliance Matrix: (Units=1/GPa)
#
#
# Indices 1 2 3 4 5 6 
#
# 1 0.028189 -0.008045 -0.008286 0.000000 0.006008 0.000000
# 2 -0.008045 0.020299 -0.005953 0.000000 0.004986 0.000000
# 3 -0.008286 -0.005953 0.021566 0.000000 0.009806 0.000000
# 4 0.000000 0.000000 0.000000 0.060102 0.000000 0.025837
# 5 0.006008 0.004986 0.009806 0.000000 0.063113 0.000000
# 6 0.000000 0.000000 0.000000 0.025837 0.000000 0.053679
#
#
# Mechanical properties :
#
#
# Convention : Reuss Voigt Hill
#
# Bulk Modulus (GPa) = 39.23738 55.41877 47.32807
# Shear Modulus (GPa) = 16.66604 20.03834 18.35219
#
# Velocity S-wave (km/s) = 3.30917 3.62856 3.47254
# Velocity P-wave (km/s) = 6.35470 7.34634 6.86844
#
# Compressibility (1/GPa) = 0.02548590
#
# Stress axis : x y z
#
# Youngs Moduli (GPa) = 35.47461 49.26467 46.36861
#
# Poissons Ratio (x) = 0.39634 0.38422
# Poissons Ratio (y) = 0.28539 0.27602
# Poissons Ratio (z) = 0.29395 0.29326
#
# Static dielectric constant tensor:
#      x y z
#    x 2.741860 0.000000 -0.464250 
#    y 0.000000 3.054070 0.000000 
#    z -0.464250 0.000000 3.224460 
# 
# 
# High freq. dielectric constant tensor:
#      x y z
#    x 1.536210 0.000000 -0.043750 
#    y 0.000000 1.593910 0.000000 
#    z -0.043750 0.000000 1.571110 
# 
# From -- ./inp_files/384441.got.cif
#   From: 2010.06.25/outbox.cif.g09.slc.cpg/sg12_193_cif.got.tgz:384441.got - 2010.06.28 00:19:55.
