data_PCOD8078931
_publ_section_title
;
Structure prediction by ZEFSAII (Michael W. Deem and Ramdas Pophale) SiO2 
 PCOD8078931
Probable space group: C 2/M
;
_chemical_formula_sum "Si O2"
_cell_formula_units_Z 56
_cell_length_a 17.121827
_cell_length_b 20.051542
_cell_length_c 16.907432
_cell_angle_alpha 90.000000
_cell_angle_beta 144.548615
_cell_angle_gamma 90.000000
_cell_volume 3366.762580
_symmetry_space_group_name_H-M "C 2/M"
_symmetry_group_IT_number 12
_symmetry_cell_setting 'monoclinic'
loop_
_space_group_symop_operation_xyz
x,y,z
-x,y,-z
-x,-y,-z
x,-y,z
1/2+x,1/2+y,z
1/2-x,1/2+y,-z
1/2-x,1/2-y,-z
1/2+x,1/2-y,z
loop_
_atom_site_type_symbol
_atom_site_label
_atom_site_fract_x
_atom_site_fract_y
_atom_site_fract_z
Si Si1 0.178624 0.193967 0.840897
Si Si2 0.641419 0.211774 0.156219
Si Si3 0.392659 0.637434 0.818898
Si Si4 0.326679 0.576526 0.914822
Si Si5 0.116162 0.169638 0.360350
Si Si6 0.853993 0.656735 0.127329
Si Si7 0.146936 0.678325 0.334505
O O1 0.236092 0.191112 0.799725
O O2 0.171920 0.271095 0.857741
O O3 0.032136 0.159238 0.724876
O O4 0.277960 0.153375 0.980656
O O5 0.642443 0.289343 0.178864
O O6 0.666229 0.170291 0.256678
O O7 0.500000 0.191755 0.000000
O O8 0.308697 0.585916 0.804810
O O9 0.358432 0.626523 0.698337
O O10 0.552107 0.624782 0.958634
O O11 0.359282 0.500000 0.960826
O O12 0.195769 0.599532 0.854181
O O13 0.132265 0.245583 0.348114
O O14 0.225391 0.146458 0.515127
O O15 0.010937 0.640249 0.246250
#
# Coordination Sequence:
#
# PCOD8078931 Si02
#       7
#     8   8   8   8   8   8   8
#     4  10  17  27  49  70  98 129 164 198 243 305
#     4  11  16  26  47  75 101 130 163 193 244 302
#     4  10  17  30  47  68 102 134 167 200 248 278
#     4  11  20  30  49  76  99 128 176 215 238 274
#     4   9  18  31  44  68 101 132 161 197 245 303
#     4  10  17  30  46  71  96 130 163 202 248 289
#     4   9  19  29  45  69 101 131 158 197 252 301
#
# _framework density 16.633189999999999
#
# number of rings (size 3 to 8) (size 9 to 14) (size 15 to 20)
#    0.000    2.000    5.714    0.857    0.000    0.571 
#    0.000    0.714    0.000    2.571    0.000    2.000 
#    0.000    1.143    0.000    0.000    0.000    0.000 
#
# Total GULP energy -347083.198958 kJ/mol
# GULP energy per Si atom -12395.828534 kJ/mol
# Density = 1.659533 g / cm^3
# Si number density = 16.633190 Si / 1000 Ang^3
#
#
#
# Elastic Constant Matrix: (Units=GPa)
#
#
# Indices 1 2 3 4 5 6 
#
# 1 155.7958 25.4041 74.3042 0.0000 -5.1777 0.0000
# 2 25.4041 29.6337 14.3970 0.0000 -0.6510 0.0001
# 3 74.3042 14.3970 126.6257 0.0002 -4.9475 0.0002
# 4 0.0000 0.0000 0.0002 4.7624 0.0001 -2.2994
# 5 -5.1777 -0.6510 -4.9475 0.0001 27.8323 0.0001
# 6 0.0000 0.0001 0.0002 -2.2994 0.0001 11.9768
#
#
#
# Elastic Compliance Matrix: (Units=1/GPa)
#
#
# Indices 1 2 3 4 5 6 
#
# 1 0.009828 -0.005950 -0.005060 0.000000 0.000790 0.000000
# 2 -0.005950 0.039321 -0.000993 0.000000 -0.000364 0.000000
# 3 -0.005060 -0.000993 0.011018 0.000000 0.000994 0.000000
# 4 0.000000 0.000000 0.000000 0.231432 -0.000001 0.044431
# 5 0.000790 -0.000364 0.000994 -0.000001 0.036245 0.000000
# 6 0.000000 0.000000 0.000000 0.044431 0.000000 0.092025
#
#
# Mechanical properties :
#
#
# Convention : Reuss Voigt Hill
#
# Bulk Modulus (GPa) = 27.65435 60.02951 43.84193
# Shear Modulus (GPa) = 10.96662 22.11097 16.53880
#
# Velocity S-wave (km/s) = 2.57051 3.64995 3.15671
# Velocity P-wave (km/s) = 5.04699 7.34380 6.30093
#
# Compressibility (1/GPa) = 0.03616067
#
# Stress axis : x y z
#
# Youngs Moduli (GPa) = 101.74644 25.43194 90.75834
#
# Poissons Ratio (x) = 0.15132 0.45923
# Poissons Ratio (y) = 0.60538 0.09016
# Poissons Ratio (z) = 0.51483 0.02526
#
# Static dielectric constant tensor:
#      x y z
#    x 3.389110 0.000000 -0.104970 
#    y 0.000000 2.557130 0.000000 
#    z -0.104970 0.000000 3.250860 
# 
# 
# High freq. dielectric constant tensor:
#      x y z
#    x 1.658890 0.000000 -0.004920 
#    y 0.000000 1.574650 0.000000 
#    z -0.004920 0.000000 1.629210 
# 
# From -- ./inp_files/218306.got.cif
#   From: 2010.06.25/outbox.cif.g09.slc.cpg/sg12_110_cif.got.tgz:218306.got - 2010.06.28 00:19:55.
