data_PCOD8078342
_publ_section_title
;
Structure prediction by ZEFSAII (Michael W. Deem and Ramdas Pophale) SiO2 
 PCOD8078342
Probable space group: C 2/M
;
_chemical_formula_sum "Si O2"
_cell_formula_units_Z 40
_cell_length_a 5.213978
_cell_length_b 17.784988
_cell_length_c 23.194800
_cell_angle_alpha 90.000000
_cell_angle_beta 83.364375
_cell_angle_gamma 90.000000
_cell_volume 2136.457821
_symmetry_space_group_name_H-M "C 2/M"
_symmetry_group_IT_number 12
_symmetry_cell_setting 'monoclinic'
loop_
_space_group_symop_operation_xyz
x,y,z
-x,y,-z
-x,-y,-z
x,-y,z
1/2+x,1/2+y,z
1/2-x,1/2+y,-z
1/2-x,1/2-y,-z
1/2+x,1/2-y,z
loop_
_atom_site_type_symbol
_atom_site_label
_atom_site_fract_x
_atom_site_fract_y
_atom_site_fract_z
Si Si1 0.236903 0.666088 0.025397
Si Si2 0.600838 0.911986 0.261452
Si Si3 0.681015 0.799179 0.158073
Si Si4 0.563476 0.587706 0.333517
Si Si5 0.453037 0.297450 0.566606
O O1 0.198932 0.665619 0.094403
O O2 0.500000 0.623603 0.000000
O O3 0.250000 0.750000 0.000000
O O4 0.000000 0.623591 0.000000
O O5 0.633715 0.868541 0.201213
O O6 0.329269 0.888561 0.296303
O O7 0.828116 0.888173 0.298766
O O8 0.611440 0.000000 0.246800
O O9 0.446653 0.740880 0.168310
O O10 0.557132 0.500000 0.347750
O O11 0.534980 0.628738 0.394973
O O12 0.500000 0.323799 0.500000
O O13 0.172576 0.260488 0.580966
#
# Coordination Sequence:
#
# PCOD8078342 Si02
#       5
#     8   8   8   8   8
#     4  10  16  30  48  73 103 131 161 218 264 307
#     4  10  23  39  53  76 113 146 174 221 278 315
#     4  12  21  32  55  84 101 134 183 221 260 319
#     4  10  21  39  58  76 106 150 186 217 261 320
#     4  10  21  36  57  85 115 143 174 224 278 312
#
# _framework density 18.722577000000001
#
# number of rings (size 3 to 8) (size 9 to 14) (size 15 to 20)
#    0.000    1.600    4.000    2.400    0.000    5.200 
#    0.000    0.000    0.000    8.400    0.000    0.000 
#    0.000    0.000    0.000    0.000    0.000    0.000 
#
# Total GULP energy -248024.799310 kJ/mol
# GULP energy per Si atom -12401.239965 kJ/mol
# Density = 1.867996 g / cm^3
# Si number density = 18.722577 Si / 1000 Ang^3
#
#
#
# Elastic Constant Matrix: (Units=GPa)
#
#
# Indices 1 2 3 4 5 6 
#
# 1 142.9926 18.3307 43.4168 0.0000 4.9058 0.0000
# 2 18.3307 44.2674 63.2073 0.0000 -1.8784 0.0000
# 3 43.4168 63.2073 145.4845 0.0000 -0.1536 0.0000
# 4 0.0000 0.0000 0.0000 14.2014 0.0000 -1.6455
# 5 4.9058 -1.8784 -0.1536 0.0000 26.4141 0.0000
# 6 0.0000 0.0000 0.0000 -1.6455 0.0000 4.3801
#
#
#
# Elastic Compliance Matrix: (Units=1/GPa)
#
#
# Indices 1 2 3 4 5 6 
#
# 1 0.007746 0.000089 -0.002352 0.000000 -0.001446 0.000000
# 2 0.000089 0.059945 -0.026066 0.000000 0.004095 0.000000
# 3 -0.002352 -0.026066 0.018899 0.000000 -0.001307 0.000000
# 4 0.000000 0.000000 0.000000 0.073620 0.000000 0.027657
# 5 -0.001446 0.004095 -0.001307 0.000000 0.038411 0.000000
# 6 0.000000 0.000000 0.000000 0.027657 0.000000 0.238698
#
#
# Mechanical properties :
#
#
# Convention : Reuss Voigt Hill
#
# Bulk Modulus (GPa) = 33.40863 64.73934 49.07398
# Shear Modulus (GPa) = 9.92155 22.85176 16.38665
#
# Velocity S-wave (km/s) = 2.30451 3.49742 2.96165
# Velocity P-wave (km/s) = 4.99638 7.13881 6.16143
#
# Compressibility (1/GPa) = 0.02993239
#
# Stress axis : x y z
#
# Youngs Moduli (GPa) = 129.10524 16.68183 52.91322
#
# Poissons Ratio (x) = -0.00149 0.12445
# Poissons Ratio (y) = -0.01155 1.37925
# Poissons Ratio (z) = 0.30364 0.43483
#
# Static dielectric constant tensor:
#      x y z
#    x 3.256350 0.000000 0.042880 
#    y 0.000000 3.005160 0.000000 
#    z 0.042880 0.000000 3.464470 
# 
# 
# High freq. dielectric constant tensor:
#      x y z
#    x 1.760960 0.000000 0.002250 
#    y 0.000000 1.688120 0.000000 
#    z 0.002250 0.000000 1.736580 
# 
# From -- ./inp_files/252544.got.cif
#   From: 2010.06.25/outbox.cif.g09.slc.cpg/sg12_127_cif.got.tgz:252544.got - 2010.06.28 00:19:55.
