data_PCOD8078178
_publ_section_title
;
Structure prediction by ZEFSAII (Michael W. Deem and Ramdas Pophale) SiO2 
 PCOD8078178
Probable space group: C 2/M
;
_chemical_formula_sum "Si O2"
_cell_formula_units_Z 56
_cell_length_a 5.274521
_cell_length_b 15.226349
_cell_length_c 33.495266
_cell_angle_alpha 90.000000
_cell_angle_beta 108.233277
_cell_angle_gamma 90.000000
_cell_volume 2554.994992
_symmetry_space_group_name_H-M "C 2/M"
_symmetry_group_IT_number 12
_symmetry_cell_setting 'monoclinic'
loop_
_space_group_symop_operation_xyz
x,y,z
-x,y,-z
-x,-y,-z
x,-y,z
1/2+x,1/2+y,z
1/2-x,1/2+y,-z
1/2-x,1/2-y,-z
1/2+x,1/2-y,z
loop_
_atom_site_type_symbol
_atom_site_label
_atom_site_fract_x
_atom_site_fract_y
_atom_site_fract_z
Si Si1 0.594609 0.395251 0.047593
Si Si2 0.669345 0.193312 0.322547
Si Si3 0.835980 0.148596 0.415054
Si Si4 0.187458 0.395293 0.094320
Si Si5 0.906464 0.344128 0.450521
Si Si6 0.124036 0.104868 0.810400
Si Si7 0.032816 0.603570 0.764533
O O1 0.595946 0.500000 0.048275
O O2 0.391159 0.358868 0.070986
O O3 0.891043 0.358872 0.070970
O O4 0.500000 0.360033 0.000000
O O5 0.445264 0.265256 0.320950
O O6 0.728921 0.136425 0.364995
O O7 0.561612 0.127034 0.284230
O O8 0.867722 0.251140 0.426988
O O9 0.630121 0.103505 0.436088
O O10 0.126430 0.103188 0.434771
O O11 0.185813 0.500000 0.093494
O O12 0.282085 0.360394 0.141946
O O13 0.000000 0.329258 0.500000
O O14 0.327474 0.142512 0.787136
O O15 0.828419 0.142424 0.786889
O O16 0.122114 0.000000 0.809363
O O17 0.042069 0.500000 0.769318
#
# Coordination Sequence:
#
# PCOD8078178 Si02
#       7
#     8   8   8   8   8   8   8
#     4   9  15  21  30  50  79 110 147 189 230 280
#     4  12  21  35  52  73 102 134 161 198 252 302
#     4  10  16  27  39  63  93 125 148 186 231 287
#     4   9  15  23  37  53  75 111 152 193 234 274
#     4  10  16  25  41  63  96 126 151 187 238 278
#     4   9  17  31  47  65  87 118 165 213 244 278
#     4  10  21  35  52  72  96 126 168 214 247 284
#
# _framework density 21.917852
#
# number of rings (size 3 to 8) (size 9 to 14) (size 15 to 20)
#    0.000    2.143    2.857    4.286    0.000    5.143 
#    0.000    0.000    0.000    0.000    0.000    0.000 
#    0.000    6.286    0.000    0.000    0.000  180.000 
#
# Total GULP energy -347128.933452 kJ/mol
# GULP energy per Si atom -12397.461909 kJ/mol
# Density = 2.186797 g / cm^3
# Si number density = 21.917852 Si / 1000 Ang^3
#
#
#
# Elastic Constant Matrix: (Units=GPa)
#
#
# Indices 1 2 3 4 5 6 
#
# 1 236.4817 2.8453 98.8250 0.0000 4.3919 0.0000
# 2 2.8453 5.2354 3.9268 0.0000 -0.3188 0.0000
# 3 98.8250 3.9268 220.1063 0.0000 0.1924 0.0000
# 4 0.0000 0.0000 0.0000 19.1574 0.0000 -0.0583
# 5 4.3919 -0.3188 0.1924 0.0000 49.4937 0.0000
# 6 0.0000 0.0000 0.0000 -0.0583 0.0000 -3.6508
#
#
#
# Elastic Compliance Matrix: (Units=1/GPa)
#
#
# Indices 1 2 3 4 5 6 
#
# 1 0.005222 -0.001123 -0.002324 0.000000 -0.000462 0.000000
# 2 -0.001123 0.193919 -0.002957 0.000000 0.001360 0.000000
# 3 -0.002324 -0.002957 0.005639 0.000000 0.000165 0.000000
# 4 0.000000 0.000000 0.000000 0.052197 0.000000 -0.000834
# 5 -0.000462 0.001360 0.000165 0.000000 0.020254 0.000000
# 6 0.000000 0.000000 0.000000 -0.000834 0.000000 -0.273897
#
#
# Mechanical properties :
#
#
# Convention : Reuss Voigt Hill
#
# Bulk Modulus (GPa) = 5.20907 74.77972 39.99440
# Shear Modulus (GPa) = 62.39768 36.74847 49.57307
#
# Velocity S-wave (km/s) = 5.34141 4.09913 4.76096
# Velocity P-wave (km/s) = 6.35789 7.52303 6.96487
#
# Compressibility (1/GPa) = 0.19197279
#
# Stress axis : x y z
#
# Youngs Moduli (GPa) = 191.49719 5.15680 177.32411
#
# Poissons Ratio (x) = 0.00579 0.41213
# Poissons Ratio (y) = 0.21502 0.52428
# Poissons Ratio (z) = 0.44507 0.01525
#
# Static dielectric constant tensor:
#      x y z
#    x 7.925620 0.000000 0.244780 
#    y 0.000000 2.972950 0.000000 
#    z 0.244780 0.000000 4.121030 
# 
# 
# High freq. dielectric constant tensor:
#      x y z
#    x 1.894770 0.000000 0.001420 
#    y 0.000000 1.782670 0.000000 
#    z 0.001420 0.000000 1.877330 
# 
# From -- ./inp_files/371616.got.cif
#   From: 2010.06.25/outbox.cif.g09.slc.cpg/sg12_186_cif.got.tgz:371616.got - 2010.06.28 00:19:55.
