data_PCOD8078190
_publ_section_title
;
Structure prediction by ZEFSAII (Michael W. Deem and Ramdas Pophale) SiO2 
 PCOD8078190
Probable space group: C 2/M
;
_chemical_formula_sum "Si O2"
_cell_formula_units_Z 48
_cell_length_a 16.849365
_cell_length_b 26.209479
_cell_length_c 8.436537
_cell_angle_alpha 90.000000
_cell_angle_beta 114.873876
_cell_angle_gamma 90.000000
_cell_volume 3380.075218
_symmetry_space_group_name_H-M "C 2/M"
_symmetry_group_IT_number 12
_symmetry_cell_setting 'monoclinic'
loop_
_space_group_symop_operation_xyz
x,y,z
-x,y,-z
-x,-y,-z
x,-y,z
1/2+x,1/2+y,z
1/2-x,1/2+y,-z
1/2-x,1/2-y,-z
1/2+x,1/2-y,z
loop_
_atom_site_type_symbol
_atom_site_label
_atom_site_fract_x
_atom_site_fract_y
_atom_site_fract_z
Si Si1 0.260987 0.711679 0.650140
Si Si2 0.901518 0.056195 0.357122
Si Si3 0.093884 0.250171 0.637395
Si Si4 0.126900 0.148365 0.465182
Si Si5 0.038007 0.886000 0.872999
Si Si6 0.409856 0.721180 0.009033
O O1 0.250000 0.750000 0.500000
O O2 0.165574 0.706709 0.650350
O O3 0.298464 0.659241 0.604378
O O4 0.328497 0.737140 0.831146
O O5 0.847304 0.097121 0.416140
O O6 0.904553 0.073215 0.175526
O O7 0.000000 0.053510 0.500000
O O8 0.857655 0.000000 0.332923
O O9 0.115376 0.195000 0.578397
O O10 0.095763 0.248687 0.827977
O O11 0.000000 0.269831 0.500000
O O12 0.035316 0.140101 0.299564
O O13 0.099101 0.839835 0.980716
O O14 0.000000 0.913157 0.000000
O O15 0.500000 0.737150 0.000000
#
# Coordination Sequence:
#
# PCOD8078190 Si02
#       6
#     8   8   8   8   8   8
#     4  10  20  28  41  63  82 112 153 179 208 254
#     4   9  17  27  41  60  82 112 145 175 211 253
#     4  11  18  29  43  60  85 116 145 181 213 250
#     4  10  16  29  42  58  84 112 144 176 212 250
#     4  10  16  25  44  57  81 116 145 173 208 246
#     4  11  17  28  43  60  82 115 149 178 206 250
#
# _framework density 14.200868
#
# number of rings (size 3 to 8) (size 9 to 14) (size 15 to 20)
#    0.000    1.833    6.667    2.000    0.000    0.333 
#    0.000    0.000    0.000    0.000    0.000    0.000 
#    0.000    0.667    0.000    1.500    0.000    0.000 
#
# Total GULP energy -297408.821791 kJ/mol
# GULP energy per Si atom -12392.034241 kJ/mol
# Density = 1.416855 g / cm^3
# Si number density = 14.200868 Si / 1000 Ang^3
#
#
#
# Elastic Constant Matrix: (Units=GPa)
#
#
# Indices 1 2 3 4 5 6 
#
# 1 100.0371 33.6628 40.2023 0.0000 -7.8780 0.0000
# 2 33.6628 51.4069 18.9536 0.0000 -5.3133 0.0000
# 3 40.2023 18.9536 98.1003 0.0000 -10.5368 0.0000
# 4 0.0000 0.0000 0.0000 11.0002 0.0000 -5.6243
# 5 -7.8780 -5.3133 -10.5368 0.0000 28.7493 0.0000
# 6 0.0000 0.0000 0.0000 -5.6243 0.0000 16.8759
#
#
#
# Elastic Compliance Matrix: (Units=1/GPa)
#
#
# Indices 1 2 3 4 5 6 
#
# 1 0.014409 -0.007751 -0.004307 0.000000 0.000938 0.000000
# 2 -0.007751 0.025286 -0.001494 0.000000 0.002002 0.000000
# 3 -0.004307 -0.001494 0.012586 0.000000 0.003157 0.000000
# 4 0.000000 0.000000 0.000000 0.109579 0.000000 0.036520
# 5 0.000938 0.002002 0.003157 0.000000 0.036567 0.000000
# 6 0.000000 0.000000 0.000000 0.036520 0.000000 0.071427
#
#
# Mechanical properties :
#
#
# Convention : Reuss Voigt Hill
#
# Bulk Modulus (GPa) = 39.71706 48.35351 44.03529
# Shear Modulus (GPa) = 16.37461 21.77346 19.07404
#
# Velocity S-wave (km/s) = 3.39937 3.91992 3.66889
# Velocity P-wave (km/s) = 6.59063 7.38995 7.00170
#
# Compressibility (1/GPa) = 0.02517810
#
# Stress axis : x y z
#
# Youngs Moduli (GPa) = 69.40095 39.54791 79.45141
#
# Poissons Ratio (x) = 0.30652 0.34218
# Poissons Ratio (y) = 0.53790 0.11871
# Poissons Ratio (z) = 0.29889 0.05909
#
# Static dielectric constant tensor:
#      x y z
#    x 3.531120 0.000000 -0.251040 
#    y 0.000000 2.780580 0.000000 
#    z -0.251040 0.000000 2.991450 
# 
# 
# High freq. dielectric constant tensor:
#      x y z
#    x 1.524710 0.000000 -0.028980 
#    y 0.000000 1.497680 0.000000 
#    z -0.028980 0.000000 1.555960 
# 
# From -- ./inp_files/64882.got.cif
#   From: 2010.06.25/outbox.cif.g09.slc.cpg/sg12_33_cif.got.tgz:64882.got - 2010.06.28 00:19:55.
