data_PCOD8078812
_publ_section_title
;
Structure prediction by ZEFSAII (Michael W. Deem and Ramdas Pophale) SiO2 
 PCOD8078812
Probable space group: C 2/M
;
_chemical_formula_sum "Si O2"
_cell_formula_units_Z 56
_cell_length_a 24.103857
_cell_length_b 12.617447
_cell_length_c 11.330289
_cell_angle_alpha 90.000000
_cell_angle_beta 87.167058
_cell_angle_gamma 90.000000
_cell_volume 3441.659783
_symmetry_space_group_name_H-M "C 2/M"
_symmetry_group_IT_number 12
_symmetry_cell_setting 'monoclinic'
loop_
_space_group_symop_operation_xyz
x,y,z
-x,y,-z
-x,-y,-z
x,-y,z
1/2+x,1/2+y,z
1/2-x,1/2+y,-z
1/2-x,1/2-y,-z
1/2+x,1/2-y,z
loop_
_atom_site_type_symbol
_atom_site_label
_atom_site_fract_x
_atom_site_fract_y
_atom_site_fract_z
Si Si1 0.611805 0.124799 0.205591
Si Si2 0.506707 0.124923 0.865669
Si Si3 0.290313 0.191443 0.663010
Si Si4 0.224071 0.118095 0.894782
Si Si5 0.382229 0.884148 0.248652
Si Si6 0.326219 0.175369 0.030794
Si Si7 0.781407 0.621870 0.403197
O O1 0.545930 0.147094 0.213919
O O2 0.644238 0.185933 0.307784
O O3 0.625423 0.000000 0.212213
O O4 0.631031 0.172494 0.080106
O O5 0.559914 0.176345 0.790447
O O6 0.517774 0.000000 0.878489
O O7 0.500000 0.171803 0.000000
O O8 0.255773 0.133812 0.768379
O O9 0.269590 0.312401 0.648723
O O10 0.280353 0.128185 0.543875
O O11 0.175799 0.204113 0.918273
O O12 0.198480 0.000000 0.900232
O O13 0.266333 0.132115 0.999224
O O14 0.347831 0.899209 0.131837
O O15 0.340731 0.830090 0.349167
O O16 0.397232 0.000000 0.297826
O O17 0.774253 0.500000 0.363962
#
# Coordination Sequence:
#
# PCOD8078812 Si02
#       7
#     8   8   8   8   8   8   8
#     4  10  18  30  47  68  96 125 153 187 224 277
#     4   9  16  26  44  68  93 122 150 180 228 282
#     4  10  19  33  47  66  94 125 161 179 229 279
#     4  10  19  29  42  63  92 123 153 185 224 278
#     4  10  17  28  44  68  95 117 146 186 227 270
#     4  10  17  27  42  66  90 118 149 183 227 269
#     4  10  20  32  48  68  96 123 151 195 228 265
#
# _framework density 16.271218999999999
#
# number of rings (size 3 to 8) (size 9 to 14) (size 15 to 20)
#    0.000    2.143    2.857    3.429    0.000    0.000 
#    0.000    0.714    0.000    3.429    0.000    3.000 
#    0.000    2.571    0.000    0.000    0.000    0.000 
#
# Total GULP energy -346933.506716 kJ/mol
# GULP energy per Si atom -12390.482383 kJ/mol
# Density = 1.623419 g / cm^3
# Si number density = 16.271219 Si / 1000 Ang^3
#
#
#
# Elastic Constant Matrix: (Units=GPa)
#
#
# Indices 1 2 3 4 5 6 
#
# 1 102.0695 35.0410 37.3199 0.0000 -0.8464 0.0000
# 2 35.0410 69.2013 24.2377 0.0000 0.5522 0.0000
# 3 37.3199 24.2377 64.2496 0.0000 3.2531 0.0000
# 4 0.0000 0.0000 0.0000 16.9024 0.0000 1.7609
# 5 -0.8464 0.5522 3.2531 0.0000 16.2020 0.0000
# 6 0.0000 0.0000 0.0000 1.7609 0.0000 17.8880
#
#
#
# Elastic Compliance Matrix: (Units=1/GPa)
#
#
# Indices 1 2 3 4 5 6 
#
# 1 0.013758 -0.004778 -0.006298 0.000000 0.002146 0.000000
# 2 -0.004778 0.018318 -0.004133 0.000000 -0.000044 0.000000
# 3 -0.006298 -0.004133 0.021004 0.000000 -0.004406 0.000000
# 4 0.000000 0.000000 0.000000 0.059776 0.000000 -0.005885
# 5 0.002146 -0.000044 -0.004406 0.000000 0.062719 0.000000
# 6 0.000000 0.000000 0.000000 -0.005885 0.000000 0.056483
#
#
# Mechanical properties :
#
#
# Convention : Reuss Voigt Hill
#
# Bulk Modulus (GPa) = 44.12360 47.63529 45.87944
# Shear Modulus (GPa) = 18.51651 19.45992 18.98822
#
# Velocity S-wave (km/s) = 3.37707 3.46203 3.41982
# Velocity P-wave (km/s) = 6.51019 6.73203 6.62204
#
# Compressibility (1/GPa) = 0.02266361
#
# Stress axis : x y z
#
# Youngs Moduli (GPa) = 72.68529 54.59181 47.60894
#
# Poissons Ratio (x) = 0.26083 0.29982
# Poissons Ratio (y) = 0.34728 0.19676
# Poissons Ratio (z) = 0.45775 0.22561
#
# Static dielectric constant tensor:
#      x y z
#    x 3.178340 0.000000 -0.046420 
#    y 0.000000 2.900060 0.000000 
#    z -0.046420 0.000000 3.140840 
# 
# 
# High freq. dielectric constant tensor:
#      x y z
#    x 1.613420 0.000000 -0.002900 
#    y 0.000000 1.588020 0.000000 
#    z -0.002900 0.000000 1.626800 
# 
# From -- ./inp_files/173911.got.cif
#   From: 2010.06.25/outbox.cif.g09.slc.cpg/sg12_87_cif.got.tgz:173911.got - 2010.06.28 00:19:55.
