data_PCOD8078206
_publ_section_title
;
Structure prediction by ZEFSAII (Michael W. Deem and Ramdas Pophale) SiO2 
 PCOD8078206
Probable space group: C 2/M
;
_chemical_formula_sum "Si O2"
_cell_formula_units_Z 64
_cell_length_a 26.491563
_cell_length_b 14.026518
_cell_length_c 15.594759
_cell_angle_alpha 90.000000
_cell_angle_beta 136.267270
_cell_angle_gamma 90.000000
_cell_volume 4005.896476
_symmetry_space_group_name_H-M "C 2/M"
_symmetry_group_IT_number 12
_symmetry_cell_setting 'monoclinic'
loop_
_space_group_symop_operation_xyz
x,y,z
-x,y,-z
-x,-y,-z
x,-y,z
1/2+x,1/2+y,z
1/2-x,1/2+y,-z
1/2-x,1/2-y,-z
1/2+x,1/2-y,z
loop_
_atom_site_type_symbol
_atom_site_label
_atom_site_fract_x
_atom_site_fract_y
_atom_site_fract_z
Si Si1 0.587264 0.606926 0.105480
Si Si2 0.583048 0.388290 0.429621
Si Si3 0.593385 0.712849 0.946277
Si Si4 0.587974 0.610693 0.771326
Si Si5 0.167511 0.112734 0.700271
Si Si6 0.929869 0.392727 0.860022
Si Si7 0.576964 0.717124 0.255432
Si Si8 0.166301 0.391950 0.098219
O O1 0.617243 0.500000 0.141679
O O2 0.623109 0.659881 0.067778
O O3 0.615086 0.659020 0.225261
O O4 0.500000 0.609505 0.000000
O O5 0.598217 0.500000 0.426599
O O6 0.498059 0.372546 0.345082
O O7 0.627541 0.350172 0.565974
O O8 0.611469 0.320366 0.386732
O O9 0.616520 0.823860 0.977731
O O10 0.623127 0.665962 0.895442
O O11 0.507822 0.695059 0.840876
O O12 0.605894 0.500000 0.806815
O O13 0.627019 0.652823 0.734708
O O14 0.251196 0.146384 0.803186
O O15 0.161648 0.000000 0.693031
O O16 0.947169 0.500000 0.849930
O O17 0.913947 0.329547 0.755807
O O18 0.859845 0.389385 0.835405
O O19 0.000000 0.352216 0.000000
O O20 0.159637 0.500000 0.054022
#
# Coordination Sequence:
#
# PCOD8078206 Si02
#       8
#     8   8   8   8   8   8   8   8
#     4   9  15  23  37  60  91 117 137 168 215 265
#     4   9  17  29  47  68  91 117 147 181 217 264
#     4  10  17  26  42  66  92 114 144 179 220 267
#     4   9  17  29  47  69  91 115 145 181 222 268
#     4   9  18  32  46  63  89 120 151 185 221 256
#     4  10  17  28  45  64  88 119 151 185 222 255
#     4  10  16  26  42  68  89 113 146 181 219 260
#     4  10  19  30  45  64  90 119 151 187 221 259
#
# _framework density 15.976449000000001
#
# number of rings (size 3 to 8) (size 9 to 14) (size 15 to 20)
#    0.000    2.500    2.500    1.500    0.000    5.000 
#    0.000    0.625    0.000    0.000    0.000    1.750 
#    0.000    4.000    0.000    0.000    0.000    0.000 
#
# Total GULP energy -396639.241949 kJ/mol
# GULP energy per Si atom -12394.976311 kJ/mol
# Density = 1.594009 g / cm^3
# Si number density = 15.976449 Si / 1000 Ang^3
#
#
#
# Elastic Constant Matrix: (Units=GPa)
#
#
# Indices 1 2 3 4 5 6 
#
# 1 69.1990 27.6177 42.7904 0.0000 -24.0525 0.0000
# 2 27.6177 81.1553 29.8592 0.0000 -17.2211 0.0000
# 3 42.7904 29.8592 60.7767 0.0000 -23.7759 0.0000
# 4 0.0000 0.0000 0.0000 13.1722 0.0000 -3.3564
# 5 -24.0525 -17.2211 -23.7759 0.0000 28.3584 0.0000
# 6 0.0000 0.0000 0.0000 -3.3564 0.0000 15.6549
#
#
#
# Elastic Compliance Matrix: (Units=1/GPa)
#
#
# Indices 1 2 3 4 5 6 
#
# 1 0.027810 -0.001916 -0.014682 0.000000 0.010115 0.000000
# 2 -0.001916 0.015546 -0.004809 0.000000 0.003784 0.000000
# 3 -0.014682 -0.004809 0.034433 0.000000 0.013496 0.000000
# 4 0.000000 0.000000 0.000000 0.080305 0.000000 0.017217
# 5 0.010115 0.003784 0.013496 0.000000 0.057455 0.000000
# 6 0.000000 0.000000 0.000000 0.017217 0.000000 0.067569
#
#
# Mechanical properties :
#
#
# Convention : Reuss Voigt Hill
#
# Bulk Modulus (GPa) = 28.59054 45.74061 37.16558
# Shear Modulus (GPa) = 14.81089 18.82801 16.81945
#
# Velocity S-wave (km/s) = 3.04804 3.43663 3.24815
# Velocity P-wave (km/s) = 5.50652 6.66629 6.11397
#
# Compressibility (1/GPa) = 0.03497660
#
# Stress axis : x y z
#
# Youngs Moduli (GPa) = 35.95794 64.32428 29.04215
#
# Poissons Ratio (x) = 0.12323 0.42640
# Poissons Ratio (y) = 0.06889 0.13965
# Poissons Ratio (z) = 0.52793 0.30931
#
# Static dielectric constant tensor:
#      x y z
#    x 3.142070 0.000000 -0.194000 
#    y 0.000000 2.993450 0.000000 
#    z -0.194000 0.000000 2.843710 
# 
# 
# High freq. dielectric constant tensor:
#      x y z
#    x 1.608880 0.000000 -0.015120 
#    y 0.000000 1.601390 0.000000 
#    z -0.015120 0.000000 1.577360 
# 
# From -- ./inp_files/246367.got.cif
#   From: 2010.06.25/outbox.cif.g09.slc.cpg/sg12_124_cif.got.tgz:246367.got - 2010.06.28 00:19:55.
