data_PCOD8078132
_publ_section_title
;
Structure prediction by ZEFSAII (Michael W. Deem and Ramdas Pophale) SiO2 
 PCOD8078132
Probable space group: C 2/M
;
_chemical_formula_sum "Si O2"
_cell_formula_units_Z 48
_cell_length_a 18.404266
_cell_length_b 8.616888
_cell_length_c 25.558064
_cell_angle_alpha 90.000000
_cell_angle_beta 37.648072
_cell_angle_gamma 90.000000
_cell_volume 2475.727395
_symmetry_space_group_name_H-M "C 2/M"
_symmetry_group_IT_number 12
_symmetry_cell_setting 'monoclinic'
loop_
_space_group_symop_operation_xyz
x,y,z
-x,y,-z
-x,-y,-z
x,-y,z
1/2+x,1/2+y,z
1/2-x,1/2+y,-z
1/2-x,1/2-y,-z
1/2+x,1/2-y,z
loop_
_atom_site_type_symbol
_atom_site_label
_atom_site_fract_x
_atom_site_fract_y
_atom_site_fract_z
Si Si1 0.505712 0.180782 0.679995
Si Si2 0.193069 0.181419 0.651521
Si Si3 0.528654 0.816435 0.824713
Si Si4 0.176650 0.680365 0.134035
Si Si5 0.058497 0.815865 0.020945
Si Si6 0.348850 0.683588 0.483002
O O1 0.590512 0.279991 0.668869
O O2 0.372462 0.206675 0.778462
O O3 0.524522 0.245292 0.609966
O O4 0.541786 0.000000 0.662811
O O5 0.316529 0.259095 0.560176
O O6 0.152065 0.249107 0.730938
O O7 0.214169 0.000000 0.644618
O O8 0.415040 0.750242 0.856610
O O9 0.534493 0.000000 0.817053
O O10 0.518868 0.761870 0.889658
O O11 0.189605 0.500000 0.115268
O O12 0.307378 0.754603 0.054036
O O13 0.056712 0.000000 0.029041
O O14 0.000000 0.765442 0.000000
O O15 0.354017 0.500000 0.478337
O O16 0.250000 0.750000 0.500000
#
# Coordination Sequence:
#
# PCOD8078132 Si02
#       6
#     8   8   8   8   8   8
#     4   9  15  25  40  61  91 124 157 191 230 274
#     4  10  17  26  41  63  91 122 156 191 232 278
#     4  10  19  32  49  69  95 125 159 197 236 279
#     4   8  16  30  48  70  95 125 159 196 235 275
#     4  10  20  34  51  71  95 123 157 196 238 284
#     4  10  16  23  36  59  92 125 155 187 229 276
#
# _framework density 19.388242000000002
#
# number of rings (size 3 to 8) (size 9 to 14) (size 15 to 20)
#    0.000    2.500    0.000    7.500    0.000    0.333 
#    0.000    4.167    0.000    0.000    0.000    1.167 
#    0.000    9.333    0.000    0.000    0.000    0.000 
#
# Total GULP energy -297383.939143 kJ/mol
# GULP energy per Si atom -12390.997464 kJ/mol
# Density = 1.934411 g / cm^3
# Si number density = 19.388242 Si / 1000 Ang^3
#
#
#
# Elastic Constant Matrix: (Units=GPa)
#
#
# Indices 1 2 3 4 5 6 
#
# 1 31.7498 20.6829 30.0963 0.0000 13.6426 -0.0001
# 2 20.6829 90.4319 49.8442 0.0001 12.6360 -0.0003
# 3 30.0963 49.8442 182.6717 0.0000 30.6674 -0.0001
# 4 0.0000 0.0001 0.0000 35.6067 0.0000 5.8152
# 5 13.6426 12.6360 30.6674 0.0000 12.1906 0.0001
# 6 -0.0001 -0.0003 -0.0001 5.8152 0.0001 10.0648
#
#
#
# Elastic Compliance Matrix: (Units=1/GPa)
#
#
# Indices 1 2 3 4 5 6 
#
# 1 0.064093 -0.006271 0.003639 0.000000 -0.074379 0.000001
# 2 -0.006271 0.014083 -0.002661 0.000000 -0.000885 0.000000
# 3 0.003639 -0.002661 0.010078 0.000000 -0.026666 0.000000
# 4 0.000000 0.000000 0.000000 0.031011 0.000001 -0.017917
# 5 -0.074379 -0.000885 -0.026666 0.000001 0.233269 -0.000004
# 6 0.000001 0.000000 0.000000 -0.017917 -0.000004 0.109708
#
#
# Mechanical properties :
#
#
# Convention : Reuss Voigt Hill
#
# Bulk Modulus (GPa) = 12.87566 56.23336 34.55451
# Shear Modulus (GPa) = 10.02574 25.18776 17.60675
#
# Velocity S-wave (km/s) = 2.27646 3.60825 3.01676
# Velocity P-wave (km/s) = 3.68308 6.81367 5.47682
#
# Compressibility (1/GPa) = 0.07766590
#
# Stress axis : x y z
#
# Youngs Moduli (GPa) = 15.60241 71.00952 99.23038
#
# Poissons Ratio (x) = 0.44532 -0.36106
# Poissons Ratio (y) = 0.09785 0.26403
# Poissons Ratio (z) = -0.05677 0.18894
#
# Static dielectric constant tensor:
#      x y z
#    x 3.022580 0.000000 -0.009930 
#    y 0.000000 3.374040 0.000000 
#    z -0.009930 0.000000 4.758710 
# 
# 
# High freq. dielectric constant tensor:
#      x y z
#    x 1.668980 0.000000 0.006270 
#    y 0.000000 1.747180 0.000000 
#    z 0.006270 0.000000 1.793120 
# 
# From -- ./inp_files/345379.got.cif
#   From: 2010.06.25/outbox.cif.g09.slc.cpg/sg12_173_cif.got.tgz:345379.got - 2010.06.28 00:19:55.
