data_PCOD8078697
_publ_section_title
;
Structure prediction by ZEFSAII (Michael W. Deem and Ramdas Pophale) SiO2 
 PCOD8078697
Probable space group: C 2/M
;
_chemical_formula_sum "Si O2"
_cell_formula_units_Z 64
_cell_length_a 23.174402
_cell_length_b 8.584955
_cell_length_c 20.835333
_cell_angle_alpha 90.000000
_cell_angle_beta 119.909268
_cell_angle_gamma 90.000000
_cell_volume 3593.138654
_symmetry_space_group_name_H-M "C 2/M"
_symmetry_group_IT_number 12
_symmetry_cell_setting 'monoclinic'
loop_
_space_group_symop_operation_xyz
x,y,z
-x,y,-z
-x,-y,-z
x,-y,z
1/2+x,1/2+y,z
1/2-x,1/2+y,-z
1/2-x,1/2-y,-z
1/2+x,1/2-y,z
loop_
_atom_site_type_symbol
_atom_site_label
_atom_site_fract_x
_atom_site_fract_y
_atom_site_fract_z
Si Si1 0.310979 0.315272 0.347274
Si Si2 0.070511 0.816640 0.383329
Si Si3 0.924845 0.818234 0.757346
Si Si4 0.987677 0.181882 0.082117
Si Si5 0.959307 0.817760 0.417740
Si Si6 0.810811 0.184392 0.789130
Si Si7 0.196842 0.683417 0.519319
Si Si8 0.602644 0.818105 0.060139
O O1 0.307889 0.500000 0.342530
O O2 0.384841 0.248376 0.373110
O O3 0.262469 0.245965 0.266536
O O4 0.287099 0.258093 0.403302
O O5 0.071971 0.745372 0.312136
O O6 0.123159 0.727131 0.456148
O O7 0.997662 0.783679 0.372544
O O8 0.087207 0.000000 0.394760
O O9 0.862790 0.750944 0.764022
O O10 0.995163 0.786567 0.833360
O O11 0.913503 0.000000 0.742133
O O12 0.041215 0.279876 0.072083
O O13 0.996629 0.000000 0.071085
O O14 0.914299 0.241221 0.019476
O O15 0.000000 0.742951 0.500000
O O16 0.952187 0.000000 0.427057
O O17 0.831042 0.246650 0.871041
O O18 0.812314 0.000000 0.791636
O O19 0.205280 0.500000 0.529498
O O20 0.250000 0.750000 0.500000
O O21 0.612715 0.000000 0.056304
#
# Coordination Sequence:
#
# PCOD8078697 Si02
#       8
#     8   8   8   8   8   8   8   8
#     4  11  21  35  53  74  98 129 168 208 249 298
#     4  10  18  34  55  73  97 130 168 207 246 296
#     4   8  16  28  47  71  96 127 162 198 240 293
#     4   9  15  26  42  65  97 131 163 199 243 290
#     4   9  17  32  54  76  96 126 165 208 254 296
#     4  10  19  32  47  70 102 133 164 204 253 297
#     4  12  24  36  50  72  99 131 165 203 250 302
#     4  10  17  26  42  67  95 130 168 198 237 293
#
# _framework density 17.811727000000001
#
# number of rings (size 3 to 8) (size 9 to 14) (size 15 to 20)
#    0.000    2.125    1.250    5.625    0.000    1.000 
#    0.000    5.000    0.000    0.000    0.000    0.875 
#    0.000    0.000    0.000    0.000    0.000    0.000 
#
# Total GULP energy -396637.595187 kJ/mol
# GULP energy per Si atom -12394.924850 kJ/mol
# Density = 1.777119 g / cm^3
# Si number density = 17.811727 Si / 1000 Ang^3
#
#
#
# Elastic Constant Matrix: (Units=GPa)
#
#
# Indices 1 2 3 4 5 6 
#
# 1 54.2397 9.5751 26.0828 0.0000 18.2584 0.0000
# 2 9.5751 55.9228 28.8656 0.0000 4.8144 0.0000
# 3 26.0828 28.8656 137.7439 0.0000 25.3655 0.0000
# 4 0.0000 0.0000 0.0000 26.9572 0.0000 4.9525
# 5 18.2584 4.8144 25.3655 0.0000 20.6193 0.0000
# 6 0.0000 0.0000 0.0000 4.9525 0.0000 12.6127
#
#
#
# Elastic Compliance Matrix: (Units=1/GPa)
#
#
# Indices 1 2 3 4 5 6 
#
# 1 0.026641 -0.002422 -0.000384 0.000000 -0.022552 0.000000
# 2 -0.002422 0.020277 -0.004284 0.000000 0.002680 0.000000
# 3 -0.000384 -0.004284 0.010322 0.000000 -0.011357 0.000000
# 4 0.000000 0.000000 0.000000 0.039980 0.000000 -0.015698
# 5 -0.022552 0.002680 -0.011357 0.000000 0.081814 0.000000
# 6 0.000000 0.000000 0.000000 -0.015698 0.000000 0.085449
#
#
# Mechanical properties :
#
#
# Convention : Reuss Voigt Hill
#
# Bulk Modulus (GPa) = 23.22369 41.88372 32.55371
# Shear Modulus (GPa) = 17.06392 24.26337 20.66365
#
# Velocity S-wave (km/s) = 3.09854 3.69482 3.40974
# Velocity P-wave (km/s) = 5.08606 6.46282 5.81533
#
# Compressibility (1/GPa) = 0.04305947
#
# Stress axis : x y z
#
# Youngs Moduli (GPa) = 37.53677 49.31669 96.88195
#
# Poissons Ratio (x) = 0.11943 0.03721
# Poissons Ratio (y) = 0.09090 0.41507
# Poissons Ratio (z) = 0.01442 0.21129
#
# Static dielectric constant tensor:
#      x y z
#    x 3.111750 0.000000 0.044120 
#    y 0.000000 3.140170 0.000000 
#    z 0.044120 0.000000 3.916500 
# 
# 
# High freq. dielectric constant tensor:
#      x y z
#    x 1.640060 0.000000 0.006730 
#    y 0.000000 1.675600 0.000000 
#    z 0.006730 0.000000 1.708410 
# 
# From -- ./inp_files/348587.got.cif
#   From: 2010.06.25/outbox.cif.g09.slc.cpg/sg12_175_cif.got.tgz:348587.got - 2010.06.28 00:19:55.
