data_PCOD8078208
_publ_section_title
;
Structure prediction by ZEFSAII (Michael W. Deem and Ramdas Pophale) SiO2 
 PCOD8078208
Probable space group: C 2/M
;
_chemical_formula_sum "Si O2"
_cell_formula_units_Z 48
_cell_length_a 22.381360
_cell_length_b 13.246866
_cell_length_c 16.798867
_cell_angle_alpha 90.000000
_cell_angle_beta 137.205007
_cell_angle_gamma 90.000000
_cell_volume 3383.689970
_symmetry_space_group_name_H-M "C 2/M"
_symmetry_group_IT_number 12
_symmetry_cell_setting 'monoclinic'
loop_
_space_group_symop_operation_xyz
x,y,z
-x,y,-z
-x,-y,-z
x,-y,z
1/2+x,1/2+y,z
1/2-x,1/2+y,-z
1/2-x,1/2-y,-z
1/2+x,1/2-y,z
loop_
_atom_site_type_symbol
_atom_site_label
_atom_site_fract_x
_atom_site_fract_y
_atom_site_fract_z
Si Si1 0.389203 0.695886 0.617460
Si Si2 0.772715 0.614153 0.744208
Si Si3 0.591246 0.733262 0.075419
Si Si4 0.077298 0.882409 0.517259
Si Si5 0.980605 0.119269 0.857676
Si Si6 0.700622 0.113264 0.414218
O O1 0.430139 0.682716 0.570080
O O2 0.460920 0.656930 0.749795
O O3 0.368608 0.813951 0.610358
O O4 0.299803 0.632218 0.540865
O O5 0.792233 0.500000 0.791761
O O6 0.825383 0.693191 0.851109
O O7 0.669593 0.638284 0.651612
O O8 0.804538 0.630175 0.685257
O O9 0.596915 0.656463 0.157186
O O10 0.500000 0.797991 0.000000
O O11 0.575014 0.666463 0.979276
O O12 0.000000 0.847554 0.500000
O O13 0.069894 0.000000 0.486664
O O14 0.987487 0.000000 0.866087
O O15 0.673966 0.000000 0.411376
#
# Coordination Sequence:
#
# PCOD8078208 Si02
#       6
#     8   8   8   8   8   8
#     4  10  16  26  44  63  86 113 141 171 218 265
#     4   9  15  27  43  61  90 116 140 174 212 259
#     4   8  16  25  36  60  88 118 135 169 203 256
#     4   9  18  30  45  65  85 110 146 186 219 246
#     4   9  16  26  38  59  89 116 140 170 203 251
#     4   9  16  25  40  66  90 108 134 174 220 267
#
# _framework density 14.185698
#
# number of rings (size 3 to 8) (size 9 to 14) (size 15 to 20)
#    1.000    1.833    1.667    3.500    0.000    0.333 
#    0.000    0.833    0.000    1.500    0.000    0.000 
#    0.000    0.000    0.000    0.000    0.000    0.000 
#
# Total GULP energy -297343.466823 kJ/mol
# GULP energy per Si atom -12389.311118 kJ/mol
# Density = 1.415341 g / cm^3
# Si number density = 14.185698 Si / 1000 Ang^3
#
#
#
# Elastic Constant Matrix: (Units=GPa)
#
#
# Indices 1 2 3 4 5 6 
#
# 1 75.7476 46.3504 34.7759 0.0000 2.1531 0.0000
# 2 46.3504 106.5778 54.3400 0.0000 3.6433 0.0000
# 3 34.7759 54.3400 85.9117 0.0000 2.5968 0.0000
# 4 0.0000 0.0000 0.0000 24.5496 0.0000 1.5504
# 5 2.1531 3.6433 2.5968 0.0000 9.6706 0.0000
# 6 0.0000 0.0000 0.0000 1.5504 0.0000 13.3381
#
#
#
# Elastic Compliance Matrix: (Units=1/GPa)
#
#
# Indices 1 2 3 4 5 6 
#
# 1 0.018713 -0.006289 -0.003572 0.000000 -0.000838 0.000000
# 2 -0.006289 0.016043 -0.007522 0.000000 -0.002624 0.000000
# 3 -0.003572 -0.007522 0.017879 0.000000 -0.001172 0.000000
# 4 0.000000 0.000000 0.000000 0.041035 0.000000 -0.004770
# 5 -0.000838 -0.002624 -0.001172 0.000000 0.104896 0.000000
# 6 0.000000 0.000000 0.000000 -0.004770 0.000000 0.075528
#
#
# Mechanical properties :
#
#
# Convention : Reuss Voigt Hill
#
# Bulk Modulus (GPa) = 55.96140 59.90773 57.93456
# Shear Modulus (GPa) = 15.88225 18.36304 17.12264
#
# Velocity S-wave (km/s) = 3.34967 3.60179 3.47801
# Velocity P-wave (km/s) = 7.38208 7.72139 7.55364
#
# Compressibility (1/GPa) = 0.01786946
#
# Stress axis : x y z
#
# Youngs Moduli (GPa) = 53.43736 62.33352 55.93098
#
# Poissons Ratio (x) = 0.39199 0.19979
# Poissons Ratio (y) = 0.33604 0.42073
# Poissons Ratio (z) = 0.19088 0.46890
#
# Static dielectric constant tensor:
#      x y z
#    x 2.419450 0.000000 0.009100 
#    y 0.000000 2.718960 0.000000 
#    z 0.009100 0.000000 2.778120 
# 
# 
# High freq. dielectric constant tensor:
#      x y z
#    x 1.489100 0.000000 0.000380 
#    y 0.000000 1.538210 0.000000 
#    z 0.000380 0.000000 1.543870 
# 
# From -- ./inp_files/239402.got.cif
#   From: 2010.06.25/outbox.cif.g09.slc.cpg/sg12_120_cif.got.tgz:239402.got - 2010.06.28 00:19:55.
