data_PCOD8078398
_publ_section_title
;
Structure prediction by ZEFSAII (Michael W. Deem and Ramdas Pophale) SiO2 
 PCOD8078398
Probable space group: C 2/M
;
_chemical_formula_sum "Si O2"
_cell_formula_units_Z 56
_cell_length_a 18.908389
_cell_length_b 11.287718
_cell_length_c 19.696567
_cell_angle_alpha 90.000000
_cell_angle_beta 49.360734
_cell_angle_gamma 90.000000
_cell_volume 3190.016487
_symmetry_space_group_name_H-M "C 2/M"
_symmetry_group_IT_number 12
_symmetry_cell_setting 'monoclinic'
loop_
_space_group_symop_operation_xyz
x,y,z
-x,y,-z
-x,-y,-z
x,-y,z
1/2+x,1/2+y,z
1/2-x,1/2+y,-z
1/2-x,1/2-y,-z
1/2+x,1/2-y,z
loop_
_atom_site_type_symbol
_atom_site_label
_atom_site_fract_x
_atom_site_fract_y
_atom_site_fract_z
Si Si1 0.496358 0.000000 0.620178
Si Si2 0.145120 0.500000 0.415948
Si Si3 0.047235 0.740678 0.281941
Si Si4 0.247148 0.795407 0.701240
Si Si5 0.262713 0.137361 0.846326
Si Si6 0.919472 0.861700 0.599948
Si Si7 0.066911 0.138686 0.015734
Si Si8 0.948926 0.141212 0.219206
O O1 0.590283 0.000000 0.519801
O O2 0.412590 0.000000 0.618448
O O3 0.494302 0.114871 0.669124
O O4 0.209249 0.385998 0.379247
O O5 0.149426 0.716925 0.185841
O O6 0.052489 0.828692 0.341824
O O7 0.982708 0.808184 0.269273
O O8 0.246838 0.850179 0.776199
O O9 0.313256 0.680636 0.652407
O O10 0.140253 0.779126 0.745739
O O11 0.282982 0.000000 0.850689
O O12 0.172140 0.188339 0.942365
O O13 0.000000 0.805865 0.500000
O O14 0.917749 0.000000 0.590261
O O15 0.029077 0.166528 0.113945
O O16 0.073234 0.000000 0.996638
O O17 0.000000 0.196293 0.000000
O O18 0.926619 0.000000 0.236677
#
# Coordination Sequence:
#
# PCOD8078398 Si02
#       8
#     4   4   8   8   8   8   8   8
#     4  11  20  34  56  87 105 136 185 235 278 322
#     4  11  18  32  62  84 103 127 192 239 268 318
#     4  11  21  35  56  79 114 148 177 226 281 328
#     4  11  18  33  58  82 104 144 181 229 271 317
#     4  10  16  31  55  85 108 136 183 227 269 318
#     4  10  21  38  57  80 108 143 184 224 270 331
#     4   9  17  29  54  83 111 137 179 232 271 317
#     4  11  22  36  53  82 115 148 183 226 277 327
#
# _framework density 17.554769
#
# number of rings (size 3 to 8) (size 9 to 14) (size 15 to 20)
#    0.000    1.571    6.429    1.286    0.000    0.571 
#    1.286    2.857    0.000    0.000    1.857    4.500 
#    0.000    0.000    0.000    0.000    0.000    0.000 
#
# Total GULP energy -347053.207838 kJ/mol
# GULP energy per Si atom -12394.757423 kJ/mol
# Density = 1.751481 g / cm^3
# Si number density = 17.554769 Si / 1000 Ang^3
#
#
#
# Elastic Constant Matrix: (Units=GPa)
#
#
# Indices 1 2 3 4 5 6 
#
# 1 67.9881 17.3685 31.0045 0.0000 -10.1627 0.0000
# 2 17.3685 51.2359 27.7401 0.0000 -3.7507 0.0000
# 3 31.0045 27.7401 105.4713 0.0000 -21.1822 0.0000
# 4 0.0000 0.0000 0.0000 19.2140 0.0000 -1.0698
# 5 -10.1627 -3.7507 -21.1822 0.0000 28.1100 0.0000
# 6 0.0000 0.0000 0.0000 -1.0698 0.0000 23.7087
#
#
#
# Elastic Compliance Matrix: (Units=1/GPa)
#
#
# Indices 1 2 3 4 5 6 
#
# 1 0.017807 -0.003868 -0.003568 0.000000 0.003233 0.000000
# 2 -0.003868 0.023671 -0.005580 0.000000 -0.002444 0.000000
# 3 -0.003568 -0.005580 0.013656 0.000000 0.008256 0.000000
# 4 0.000000 0.000000 0.000000 0.052177 0.000000 0.002354
# 5 0.003233 -0.002444 0.008256 0.000000 0.042638 0.000000
# 6 0.000000 0.000000 0.000000 0.002354 0.000000 0.042285
#
#
# Mechanical properties :
#
#
# Convention : Reuss Voigt Hill
#
# Bulk Modulus (GPa) = 34.36149 41.88016 38.12082
# Shear Modulus (GPa) = 21.93323 24.11200 23.02261
#
# Velocity S-wave (km/s) = 3.53854 3.71014 3.62536
# Velocity P-wave (km/s) = 6.02590 6.50093 6.26792
#
# Compressibility (1/GPa) = 0.02910235
#
# Stress axis : x y z
#
# Youngs Moduli (GPa) = 56.15791 42.24630 73.23007
#
# Poissons Ratio (x) = 0.16341 0.26128
# Poissons Ratio (y) = 0.21722 0.40859
# Poissons Ratio (z) = 0.20037 0.23572
#
# Static dielectric constant tensor:
#      x y z
#    x 3.184530 0.000000 -0.316910 
#    y 0.000000 3.100470 0.000000 
#    z -0.316910 0.000000 3.480300 
# 
# 
# High freq. dielectric constant tensor:
#      x y z
#    x 1.662960 0.000000 -0.019670 
#    y 0.000000 1.651610 0.000000 
#    z -0.019670 0.000000 1.693100 
# 
# From -- ./inp_files/282835.got.cif
#   From: 2010.06.25/outbox.cif.g09.slc.cpg/sg12_142_cif.got.tgz:282835.got - 2010.06.28 00:19:55.
