data_PCOD8078133
_publ_section_title
;
Structure prediction by ZEFSAII (Michael W. Deem and Ramdas Pophale) SiO2 
 PCOD8078133
Probable space group: C 2/M
;
_chemical_formula_sum "Si O2"
_cell_formula_units_Z 40
_cell_length_a 19.525905
_cell_length_b 8.721161
_cell_length_c 19.800160
_cell_angle_alpha 90.000000
_cell_angle_beta 41.836224
_cell_angle_gamma 90.000000
_cell_volume 2248.963385
_symmetry_space_group_name_H-M "C 2/M"
_symmetry_group_IT_number 12
_symmetry_cell_setting 'monoclinic'
loop_
_space_group_symop_operation_xyz
x,y,z
-x,y,-z
-x,-y,-z
x,-y,z
1/2+x,1/2+y,z
1/2-x,1/2+y,-z
1/2-x,1/2-y,-z
1/2+x,1/2-y,z
loop_
_atom_site_type_symbol
_atom_site_label
_atom_site_fract_x
_atom_site_fract_y
_atom_site_fract_z
Si Si1 0.359954 0.675533 0.419678
Si Si2 0.033426 0.821812 0.197134
Si Si3 0.475481 0.681424 0.593759
Si Si4 0.678744 0.819851 0.200927
Si Si5 0.327143 0.182056 0.999130
O O1 0.341510 0.500000 0.449762
O O2 0.250000 0.750000 0.500000
O O3 0.414133 0.697630 0.306168
O O4 0.432719 0.743030 0.425504
O O5 0.097491 0.724215 0.203567
O O6 0.059992 0.752014 0.103322
O O7 0.066379 0.000000 0.177020
O O8 0.500000 0.732923 0.500000
O O9 0.462914 0.500000 0.610527
O O10 0.366649 0.757526 0.694929
O O11 0.695817 0.000000 0.192549
O O12 0.788390 0.740499 0.101101
O O13 0.330823 0.000000 0.994511
O O14 0.250000 0.250000 0.000000
#
# Coordination Sequence:
#
# PCOD8078133 Si02
#       5
#     8   8   8   8   8
#     4   9  18  30  46  67  91 120 150 184 223 264
#     4   9  16  27  40  58  85 116 149 182 221 264
#     4   9  18  33  49  65  89 121 155 188 222 262
#     4  10  17  25  39  61  88 115 144 181 224 268
#     4  10  16  23  37  58  84 114 145 179 223 268
#
# _framework density 17.785972000000001
#
# number of rings (size 3 to 8) (size 9 to 14) (size 15 to 20)
#    0.000    2.600    0.000    7.800    0.000    4.400 
#    0.000    0.000    0.000    0.000    0.000    1.400 
#    0.000   11.200    0.000    0.000    0.000    0.000 
#
# Total GULP energy -247771.440827 kJ/mol
# GULP energy per Si atom -12388.572041 kJ/mol
# Density = 1.774549 g / cm^3
# Si number density = 17.785972 Si / 1000 Ang^3
#
#
#
# Elastic Constant Matrix: (Units=GPa)
#
#
# Indices 1 2 3 4 5 6 
#
# 1 29.9052 18.1300 43.0805 0.0000 1.0701 0.0000
# 2 18.1300 100.6528 71.4493 0.0000 3.4817 0.0001
# 3 43.0805 71.4493 202.8083 0.0000 9.3732 0.0000
# 4 0.0000 0.0000 0.0000 39.0275 0.0000 -1.7091
# 5 1.0701 3.4817 9.3732 0.0000 20.0854 0.0000
# 6 0.0000 0.0001 0.0000 -1.7091 0.0000 12.9660
#
#
#
# Elastic Compliance Matrix: (Units=1/GPa)
#
#
# Indices 1 2 3 4 5 6 
#
# 1 0.048556 -0.001905 -0.009749 0.000000 0.002293 0.000000
# 2 -0.001905 0.013323 -0.004279 0.000000 -0.000211 0.000000
# 3 -0.009749 -0.004279 0.008637 0.000000 -0.002770 0.000000
# 4 0.000000 0.000000 0.000000 0.025772 0.000000 0.003397
# 5 0.002293 -0.000211 -0.002770 0.000000 0.050994 0.000000
# 6 0.000000 0.000000 0.000000 0.003397 0.000000 0.077573
#
#
# Mechanical properties :
#
#
# Convention : Reuss Voigt Hill
#
# Bulk Modulus (GPa) = 25.87335 66.52066 46.19701
# Shear Modulus (GPa) = 18.54562 27.79621 23.17092
#
# Velocity S-wave (km/s) = 3.23261 3.95754 3.61330
# Velocity P-wave (km/s) = 5.33963 7.63967 6.59076
#
# Compressibility (1/GPa) = 0.03864980
#
# Stress axis : x y z
#
# Youngs Moduli (GPa) = 20.59474 75.05619 115.77672
#
# Poissons Ratio (x) = 0.14297 1.12872
# Poissons Ratio (y) = 0.03923 0.49546
# Poissons Ratio (z) = 0.20078 0.32120
#
# Static dielectric constant tensor:
#      x y z
#    x 2.730840 0.000000 0.091500 
#    y 0.000000 3.341430 0.000000 
#    z 0.091500 0.000000 4.635360 
# 
# 
# High freq. dielectric constant tensor:
#      x y z
#    x 1.590190 0.000000 0.004450 
#    y 0.000000 1.695000 0.000000 
#    z 0.004450 0.000000 1.727360 
# 
# From -- ./inp_files/236243.got.cif
#   From: 2010.06.25/outbox.cif.g09.slc.cpg/sg12_119_cif.got.tgz:236243.got - 2010.06.28 00:19:55.
