data_PCOD8078686
_publ_section_title
;
Structure prediction by ZEFSAII (Michael W. Deem and Ramdas Pophale) SiO2 
 PCOD8078686
Probable space group: C 2/M
;
_chemical_formula_sum "Si O2"
_cell_formula_units_Z 56
_cell_length_a 28.623906
_cell_length_b 8.949237
_cell_length_c 14.027477
_cell_angle_alpha 90.000000
_cell_angle_beta 77.538489
_cell_angle_gamma 90.000000
_cell_volume 3508.654134
_symmetry_space_group_name_H-M "C 2/M"
_symmetry_group_IT_number 12
_symmetry_cell_setting 'monoclinic'
loop_
_space_group_symop_operation_xyz
x,y,z
-x,y,-z
-x,-y,-z
x,-y,z
1/2+x,1/2+y,z
1/2-x,1/2+y,-z
1/2-x,1/2-y,-z
1/2+x,1/2-y,z
loop_
_atom_site_type_symbol
_atom_site_label
_atom_site_fract_x
_atom_site_fract_y
_atom_site_fract_z
Si Si1 0.231572 0.671115 0.416150
Si Si2 0.963439 0.827313 0.430806
Si Si3 0.511542 0.174104 0.774724
Si Si4 0.045823 0.168612 0.046946
Si Si5 0.634358 0.823721 0.529683
Si Si6 0.897896 0.326178 0.132326
Si Si7 0.672814 0.675951 0.705455
O O1 0.235783 0.500000 0.440426
O O2 0.250000 0.750000 0.500000
O O3 0.174985 0.709793 0.429565
O O4 0.269229 0.707550 0.314324
O O5 0.985139 0.747104 0.329618
O O6 0.913880 0.752492 0.485397
O O7 0.000000 0.805226 0.500000
O O8 0.954626 0.000000 0.410380
O O9 0.466908 0.248179 0.849307
O O10 0.560713 0.203602 0.808877
O O11 0.500813 0.000000 0.769038
O O12 0.062235 0.000000 0.062226
O O13 0.088610 0.255690 0.975555
O O14 0.000000 0.170271 0.000000
O O15 0.649777 0.754832 0.623822
O O16 0.625708 0.000000 0.548383
O O17 0.888112 0.500000 0.121558
O O18 0.849769 0.246135 0.189728
O O19 0.661452 0.500000 0.705901
#
# Coordination Sequence:
#
# PCOD8078686 Si02
#       7
#     8   8   8   8   8   8   8
#     4   8  16  27  40  60  84 112 145 178 215 261
#     4  11  23  35  47  64  86 115 154 194 227 263
#     4  10  19  31  46  62  85 115 147 186 225 262
#     4   9  17  28  43  62  85 115 148 179 215 264
#     4  10  18  30  45  61  84 114 148 186 225 263
#     4  10  18  27  41  64  91 118 149 182 215 259
#     4  10  17  26  42  63  89 119 148 178 215 262
#
# _framework density 15.960535999999999
#
# number of rings (size 3 to 8) (size 9 to 14) (size 15 to 20)
#    0.000    2.286    1.429    2.571    0.000    5.143 
#    0.000    0.000    0.000    0.000    0.000    0.000 
#    0.000    1.143    0.000    3.429    0.000    5.286 
#
# Total GULP energy -347000.611856 kJ/mol
# GULP energy per Si atom -12392.878995 kJ/mol
# Density = 1.592421 g / cm^3
# Si number density = 15.960536 Si / 1000 Ang^3
#
#
#
# Elastic Constant Matrix: (Units=GPa)
#
#
# Indices 1 2 3 4 5 6 
#
# 1 75.8877 44.7974 50.4151 0.0000 -29.7530 0.0000
# 2 44.7974 108.8212 53.8503 0.0000 -18.0999 0.0000
# 3 50.4151 53.8503 86.5320 0.0000 -31.2623 0.0000
# 4 0.0000 0.0000 0.0000 26.4601 0.0000 -7.3777
# 5 -29.7530 -18.0999 -31.2623 0.0000 28.7891 0.0000
# 6 0.0000 0.0000 0.0000 -7.3777 0.0000 19.9159
#
#
#
# Elastic Compliance Matrix: (Units=1/GPa)
#
#
# Indices 1 2 3 4 5 6 
#
# 1 0.027641 -0.005262 -0.006095 0.000000 0.018639 0.000000
# 2 -0.005262 0.014299 -0.007487 0.000000 -0.004578 0.000000
# 3 -0.006095 -0.007487 0.025985 0.000000 0.017210 0.000000
# 4 0.000000 0.000000 0.000000 0.042146 0.000000 0.015613
# 5 0.018639 -0.004578 0.017210 0.000000 0.069809 0.000000
# 6 0.000000 0.000000 0.000000 0.015613 0.000000 0.055995
#
#
# Mechanical properties :
#
#
# Convention : Reuss Voigt Hill
#
# Bulk Modulus (GPa) = 33.07350 63.26296 48.16823
# Shear Modulus (GPa) = 17.62791 23.17822 20.40306
#
# Velocity S-wave (km/s) = 3.32696 3.81494 3.57927
# Velocity P-wave (km/s) = 5.96031 7.68948 6.87944
#
# Compressibility (1/GPa) = 0.03023568
#
# Stress axis : x y z
#
# Youngs Moduli (GPa) = 36.17851 69.93555 38.48427
#
# Poissons Ratio (x) = 0.36801 0.23458
# Poissons Ratio (y) = 0.19038 0.28812
# Poissons Ratio (z) = 0.22052 0.52359
#
# Static dielectric constant tensor:
#      x y z
#    x 3.140200 0.000000 -0.608980 
#    y 0.000000 3.168190 0.000000 
#    z -0.608980 0.000000 2.988510 
# 
# 
# High freq. dielectric constant tensor:
#      x y z
#    x 1.579840 0.000000 -0.051280 
#    y 0.000000 1.635970 0.000000 
#    z -0.051280 0.000000 1.588970 
# 
# From -- ./inp_files/247770.got.cif
#   From: 2010.06.25/outbox.cif.g09.slc.cpg/sg12_124_cif.got.tgz:247770.got - 2010.06.28 00:19:55.
