data_PCOD8078200
_publ_section_title
;
Structure prediction by ZEFSAII (Michael W. Deem and Ramdas Pophale) SiO2 
 PCOD8078200
Probable space group: C 2/M
;
_chemical_formula_sum "Si O2"
_cell_formula_units_Z 56
_cell_length_a 28.525710
_cell_length_b 17.898189
_cell_length_c 9.374019
_cell_angle_alpha 90.000000
_cell_angle_beta 40.681758
_cell_angle_gamma 90.000000
_cell_volume 3119.778145
_symmetry_space_group_name_H-M "C 2/M"
_symmetry_group_IT_number 12
_symmetry_cell_setting 'monoclinic'
loop_
_space_group_symop_operation_xyz
x,y,z
-x,y,-z
-x,-y,-z
x,-y,z
1/2+x,1/2+y,z
1/2-x,1/2+y,-z
1/2-x,1/2-y,-z
1/2+x,1/2-y,z
loop_
_atom_site_type_symbol
_atom_site_label
_atom_site_fract_x
_atom_site_fract_y
_atom_site_fract_z
Si Si1 0.823714 0.915627 0.641937
Si Si2 0.611287 0.244135 0.002621
Si Si3 0.161208 0.585354 0.950546
Si Si4 0.420325 0.322575 0.207670
Si Si5 0.325163 0.289635 0.858365
Si Si6 0.051497 0.721632 0.610991
Si Si7 0.427823 0.919801 0.576391
O O1 0.746516 0.913104 0.746356
O O2 0.876498 0.882041 0.400920
O O3 0.823934 0.872645 0.793195
O O4 0.847907 0.000000 0.619828
O O5 0.632599 0.156382 0.923511
O O6 0.620072 0.296101 0.842212
O O7 0.662359 0.285597 0.000129
O O8 0.528851 0.246660 0.245554
O O9 0.134155 0.500000 0.968461
O O10 0.137203 0.603165 0.168258
O O11 0.428801 0.246196 0.276458
O O12 0.500000 0.357203 0.000000
O O13 0.394043 0.250457 0.632849
O O14 0.250000 0.250000 0.000000
O O15 0.061675 0.632688 0.584024
O O16 0.500000 0.919316 0.500000
O O17 0.411444 0.000000 0.546900
#
# Coordination Sequence:
#
# PCOD8078200 Si02
#       7
#     8   8   8   8   8   8   8
#     4  10  21  38  56  78 110 142 175 223 277 327
#     4  11  19  34  55  81 110 142 182 228 261 321
#     4  10  19  31  52  81 110 142 178 216 270 321
#     4   9  22  37  55  78 105 144 185 223 273 321
#     4  11  19  33  56  84 105 137 179 226 270 316
#     4  10  18  33  51  77 110 143 182 223 264 319
#     4  10  16  25  47  78 106 140 178 216 262 311
#
# _framework density 17.949995000000001
#
# number of rings (size 3 to 8) (size 9 to 14) (size 15 to 20)
#    0.000    1.857    4.286    0.429    0.000    0.857 
#    0.000    1.429    0.000   13.714    0.000    0.000 
#    0.000    0.000    0.000    0.000    0.000    0.000 
#
# Total GULP energy -346898.028300 kJ/mol
# GULP energy per Si atom -12389.215296 kJ/mol
# Density = 1.790914 g / cm^3
# Si number density = 17.949995 Si / 1000 Ang^3
#
#
#
# Elastic Constant Matrix: (Units=GPa)
#
#
# Indices 1 2 3 4 5 6 
#
# 1 99.0724 44.6982 35.9807 0.0000 5.1679 0.0000
# 2 44.6982 125.3425 43.7297 0.0000 6.0643 0.0000
# 3 35.9807 43.7297 82.8933 0.0000 -8.4971 0.0000
# 4 0.0000 0.0000 0.0000 22.4041 0.0000 -2.9968
# 5 5.1679 6.0643 -8.4971 0.0000 24.0513 0.0000
# 6 0.0000 0.0000 0.0000 -2.9968 0.0000 15.2091
#
#
#
# Elastic Compliance Matrix: (Units=1/GPa)
#
#
# Indices 1 2 3 4 5 6 
#
# 1 0.013290 -0.002957 -0.004591 0.000000 -0.003732 0.000000
# 2 -0.002957 0.010917 -0.004869 0.000000 -0.003837 0.000000
# 3 -0.004591 -0.004869 0.017485 0.000000 0.008392 0.000000
# 4 0.000000 0.000000 0.000000 0.045843 0.000000 0.009033
# 5 -0.003732 -0.003837 0.008392 0.000000 0.046312 0.000000
# 6 0.000000 0.000000 0.000000 0.009033 0.000000 0.067530
#
#
# Mechanical properties :
#
#
# Convention : Reuss Voigt Hill
#
# Bulk Modulus (GPa) = 59.31980 61.79172 60.55576
# Shear Modulus (GPa) = 21.56744 24.52618 23.04681
#
# Velocity S-wave (km/s) = 3.47007 3.70044 3.58711
# Velocity P-wave (km/s) = 7.01243 7.26339 7.13901
#
# Compressibility (1/GPa) = 0.01685778
#
# Stress axis : x y z
#
# Youngs Moduli (GPa) = 75.24573 91.60039 57.19056
#
# Poissons Ratio (x) = 0.27085 0.26258
# Poissons Ratio (y) = 0.22249 0.27846
# Poissons Ratio (z) = 0.34547 0.44601
#
# Static dielectric constant tensor:
#      x y z
#    x 3.171110 0.000000 -0.151530 
#    y 0.000000 3.634550 0.000000 
#    z -0.151530 0.000000 3.513040 
# 
# 
# High freq. dielectric constant tensor:
#      x y z
#    x 1.669550 0.000000 -0.021290 
#    y 0.000000 1.693930 0.000000 
#    z -0.021290 0.000000 1.701350 
# 
# From -- ./inp_files/98045.got.cif
#   From: 2010.06.25/outbox.cif.g09.slc.cpg/sg12_50_cif.got.tgz:98045.got - 2010.06.28 00:19:55.
