data_PCOD8078872
_publ_section_title
;
Structure prediction by ZEFSAII (Michael W. Deem and Ramdas Pophale) SiO2 
 PCOD8078872
Probable space group: C 2/M
;
_chemical_formula_sum "Si O2"
_cell_formula_units_Z 40
_cell_length_a 27.635639
_cell_length_b 20.148242
_cell_length_c 9.618114
_cell_angle_alpha 90.000000
_cell_angle_beta 151.897074
_cell_angle_gamma 90.000000
_cell_volume 2522.725438
_symmetry_space_group_name_H-M "C 2/M"
_symmetry_group_IT_number 12
_symmetry_cell_setting 'monoclinic'
loop_
_space_group_symop_operation_xyz
x,y,z
-x,y,-z
-x,-y,-z
x,-y,z
1/2+x,1/2+y,z
1/2-x,1/2+y,-z
1/2-x,1/2-y,-z
1/2+x,1/2-y,z
loop_
_atom_site_type_symbol
_atom_site_label
_atom_site_fract_x
_atom_site_fract_y
_atom_site_fract_z
Si Si1 0.113186 0.774590 0.275738
Si Si2 0.681011 0.837871 0.241836
Si Si3 0.380851 0.923656 0.687126
Si Si4 0.381326 0.779091 0.194991
Si Si5 0.302767 0.813290 0.287165
O O1 0.195852 0.829939 0.444558
O O2 0.121078 0.716018 0.183425
O O3 0.135336 0.746248 0.484477
O O4 0.000000 0.806335 0.000000
O O5 0.662777 0.908845 0.268459
O O6 0.636150 0.831706 0.973837
O O7 0.320491 0.881668 0.415916
O O8 0.363536 0.000000 0.605109
O O9 0.500000 0.904444 0.000000
O O10 0.500000 0.758397 0.500000
O O11 0.345122 0.819804 0.238800
O O12 0.316991 0.710342 0.013631
#
# Coordination Sequence:
#
# PCOD8078872 Si02
#       5
#     8   8   8   8   8
#     4   9  15  26  44  65  90 115 140 179 226 261
#     4   9  17  27  43  67  89 113 147 180 212 258
#     4  10  19  32  48  63  85 118 151 182 215 256
#     4  10  17  27  45  68  94 114 134 177 225 261
#     4   9  18  28  42  68  92 113 143 174 216 268
#
# _framework density 15.855867999999999
#
# number of rings (size 3 to 8) (size 9 to 14) (size 15 to 20)
#    0.000    2.600    0.000    6.000    0.000    0.000 
#    0.000    1.000    0.000    4.800    0.000    0.000 
#    0.000    0.000    0.000    0.000    0.000    0.000 
#
# Total GULP energy -247857.110764 kJ/mol
# GULP energy per Si atom -12392.855538 kJ/mol
# Density = 1.581978 g / cm^3
# Si number density = 15.855868 Si / 1000 Ang^3
#
#
#
# Elastic Constant Matrix: (Units=GPa)
#
#
# Indices 1 2 3 4 5 6 
#
# 1 107.9694 33.0783 62.1153 0.0000 -5.4809 0.0000
# 2 33.0783 65.9365 42.5810 0.0000 1.7531 0.0000
# 3 62.1153 42.5810 103.2770 0.0000 14.3286 0.0000
# 4 0.0000 0.0000 0.0000 18.7576 0.0000 -3.9759
# 5 -5.4809 1.7531 14.3286 0.0000 42.2573 0.0000
# 6 0.0000 0.0000 0.0000 -3.9759 0.0000 13.8432
#
#
#
# Elastic Compliance Matrix: (Units=1/GPa)
#
#
# Indices 1 2 3 4 5 6 
#
# 1 0.015404 -0.001932 -0.009188 0.000000 0.005194 0.000000
# 2 -0.001932 0.021097 -0.007744 0.000000 0.001500 0.000000
# 3 -0.009188 -0.007744 0.019437 0.000000 -0.007461 0.000000
# 4 0.000000 0.000000 0.000000 0.056768 0.000000 0.016304
# 5 0.005194 0.001500 -0.007461 0.000000 0.026806 0.000000
# 6 0.000000 0.000000 0.000000 0.016304 0.000000 0.076920
#
#
# Mechanical properties :
#
#
# Convention : Reuss Voigt Hill
#
# Bulk Modulus (GPa) = 54.92061 61.41466 58.16764
# Shear Modulus (GPa) = 19.21381 24.26551 21.73966
#
# Velocity S-wave (km/s) = 3.48484 3.91625 3.70683
# Velocity P-wave (km/s) = 7.13475 7.69848 7.42197
#
# Compressibility (1/GPa) = 0.01820810
#
# Stress axis : x y z
#
# Youngs Moduli (GPa) = 64.92026 47.40113 51.44780
#
# Poissons Ratio (x) = 0.09157 0.47272
# Poissons Ratio (y) = 0.12541 0.39843
# Poissons Ratio (z) = 0.59652 0.36709
#
# Static dielectric constant tensor:
#      x y z
#    x 3.231500 0.000000 -0.042720 
#    y 0.000000 2.615060 0.000000 
#    z -0.042720 0.000000 3.180060 
# 
# 
# High freq. dielectric constant tensor:
#      x y z
#    x 1.627600 0.000000 -0.001880 
#    y 0.000000 1.549960 0.000000 
#    z -0.001880 0.000000 1.616960 
# 
# From -- ./inp_files/48601.got.cif
#   From: 2010.06.25/outbox.cif.g09.slc.cpg/sg12_25_cif.got.tgz:48601.got - 2010.06.28 00:19:55.
