data_PCOD8078254
_publ_section_title
;
Structure prediction by ZEFSAII (Michael W. Deem and Ramdas Pophale) SiO2 
 PCOD8078254
Probable space group: C 2/M
;
_chemical_formula_sum "Si O2"
_cell_formula_units_Z 64
_cell_length_a 9.340548
_cell_length_b 23.125730
_cell_length_c 24.048843
_cell_angle_alpha 90.000000
_cell_angle_beta 43.061007
_cell_angle_gamma 90.000000
_cell_volume 3546.832556
_symmetry_space_group_name_H-M "C 2/M"
_symmetry_group_IT_number 12
_symmetry_cell_setting 'monoclinic'
loop_
_space_group_symop_operation_xyz
x,y,z
-x,y,-z
-x,-y,-z
x,-y,z
1/2+x,1/2+y,z
1/2-x,1/2+y,-z
1/2-x,1/2-y,-z
1/2+x,1/2-y,z
loop_
_atom_site_type_symbol
_atom_site_label
_atom_site_fract_x
_atom_site_fract_y
_atom_site_fract_z
Si Si1 0.603262 0.434547 0.911742
Si Si2 0.269793 0.274623 0.650780
Si Si3 0.370649 0.147832 0.590411
Si Si4 0.404717 0.349753 0.705862
Si Si5 0.854407 0.768479 0.820115
Si Si6 0.571467 0.935019 0.753845
Si Si7 0.084530 0.823447 0.848318
Si Si8 0.003351 0.639930 0.327746
O O1 0.548908 0.500000 0.905677
O O2 0.520994 0.385532 0.892428
O O3 0.852896 0.428275 0.848453
O O4 0.500000 0.422649 0.000000
O O5 0.372073 0.217281 0.597175
O O6 0.434391 0.306957 0.644422
O O7 0.068410 0.265519 0.747203
O O8 0.190153 0.314994 0.622754
O O9 0.500000 0.128922 0.500000
O O10 0.481856 0.119209 0.612604
O O11 0.133965 0.124147 0.653122
O O12 0.313602 0.316946 0.785197
O O13 0.245517 0.400583 0.737904
O O14 0.662264 0.722187 0.873768
O O15 0.881302 0.798600 0.873103
O O16 0.540581 0.914306 0.699335
O O17 0.651400 0.000000 0.728658
O O18 0.274865 0.829776 0.750134
#
# Coordination Sequence:
#
# PCOD8078254 Si02
#       8
#     8   8   8   8   8   8   8   8
#     4   9  19  36  58  83 108 133 169 221 272 310
#     4   9  16  28  44  69 102 138 169 199 258 306
#     4  11  20  29  45  75 109 135 165 211 267 315
#     4  10  18  31  51  74 106 137 172 219 259 299
#     4  10  16  27  48  78 107 138 174 211 250 306
#     4   9  19  36  59  77  91 128 181 219 251 311
#     4  10  17  29  53  77 105 145 177 206 254 315
#     4   9  17  30  48  72 101 133 175 211 251 305
#
# _framework density 18.044269
#
# number of rings (size 3 to 8) (size 9 to 14) (size 15 to 20)
#    0.000    2.375    3.750    2.250    0.000    2.000 
#    0.000    3.750    0.000    2.250    0.000    2.625 
#    0.000    0.000    0.000    0.000    0.000    0.000 
#
# Total GULP energy -396687.867910 kJ/mol
# GULP energy per Si atom -12396.495872 kJ/mol
# Density = 1.800320 g / cm^3
# Si number density = 18.044269 Si / 1000 Ang^3
#
#
#
# Elastic Constant Matrix: (Units=GPa)
#
#
# Indices 1 2 3 4 5 6 
#
# 1 119.8152 56.5664 27.1803 -0.0004 20.4491 0.0047
# 2 56.5664 96.9361 30.0458 0.0000 7.2783 0.0010
# 3 27.1803 30.0458 53.2545 -0.0001 11.2281 0.0013
# 4 -0.0004 0.0000 -0.0001 11.2331 0.0001 -4.7288
# 5 20.4491 7.2783 11.2281 0.0001 16.4102 -0.0007
# 6 0.0047 0.0010 0.0013 -4.7288 -0.0007 16.6702
#
#
#
# Elastic Compliance Matrix: (Units=1/GPa)
#
#
# Indices 1 2 3 4 5 6 
#
# 1 0.014234 -0.007167 -0.000177 -0.000001 -0.014438 -0.000005
# 2 -0.007167 0.016121 -0.006793 0.000001 0.006429 0.000002
# 3 -0.000177 -0.006793 0.025731 -0.000001 -0.014372 -0.000002
# 4 -0.000001 0.000001 -0.000001 0.101094 0.000003 0.028677
# 5 -0.014438 0.006429 -0.014372 0.000003 0.085911 0.000009
# 6 -0.000005 0.000002 -0.000002 0.028677 0.000009 0.068122
#
#
# Mechanical properties :
#
#
# Convention : Reuss Voigt Hill
#
# Bulk Modulus (GPa) = 35.95637 55.28785 45.62211
# Shear Modulus (GPa) = 14.33654 19.27691 16.80673
#
# Velocity S-wave (km/s) = 2.82178 3.27205 3.05522
# Velocity P-wave (km/s) = 5.53052 6.70684 6.14688
#
# Compressibility (1/GPa) = 0.02781148
#
# Stress axis : x y z
#
# Youngs Moduli (GPa) = 70.25287 62.02962 38.86394
#
# Poissons Ratio (x) = 0.44459 0.00689
# Poissons Ratio (y) = 0.50353 0.26400
# Poissons Ratio (z) = 0.01245 0.42136
#
# Static dielectric constant tensor:
#      x y z
#    x 3.469930 0.000000 0.097310 
#    y 0.000000 3.270030 0.000000 
#    z 0.097310 0.000000 2.901990 
# 
# 
# High freq. dielectric constant tensor:
#      x y z
#    x 1.706170 0.000000 0.011570 
#    y 0.000000 1.681590 0.000000 
#    z 0.011570 0.000000 1.654030 
# 
# From -- ./inp_files/302640.got.cif
#   From: 2010.06.25/outbox.cif.g09.slc.cpg/sg12_152_cif.got.tgz:302640.got - 2010.06.28 00:19:55.
