data_PCOD8078171
_publ_section_title
;
Structure prediction by ZEFSAII (Michael W. Deem and Ramdas Pophale) SiO2 
 PCOD8078171
Probable space group: C 2/M
;
_chemical_formula_sum "Si O2"
_cell_formula_units_Z 64
_cell_length_a 18.317936
_cell_length_b 17.222961
_cell_length_c 18.960017
_cell_angle_alpha 90.000000
_cell_angle_beta 43.521090
_cell_angle_gamma 90.000000
_cell_volume 4119.112715
_symmetry_space_group_name_H-M "C 2/M"
_symmetry_group_IT_number 12
_symmetry_cell_setting 'monoclinic'
loop_
_space_group_symop_operation_xyz
x,y,z
-x,y,-z
-x,-y,-z
x,-y,z
1/2+x,1/2+y,z
1/2-x,1/2+y,-z
1/2-x,1/2-y,-z
1/2+x,1/2-y,z
loop_
_atom_site_type_symbol
_atom_site_label
_atom_site_fract_x
_atom_site_fract_y
_atom_site_fract_z
Si Si1 0.466981 0.591889 0.599324
Si Si2 0.883220 0.586176 0.375955
Si Si3 0.413296 0.165244 0.214386
Si Si4 0.897859 0.409128 0.525036
Si Si5 0.665151 0.344005 0.529473
Si Si6 0.923638 0.586593 0.988180
Si Si7 0.762819 0.591262 0.210205
Si Si8 0.271270 0.285410 0.369044
O O1 0.500000 0.624613 0.500000
O O2 0.458707 0.500000 0.602881
O O3 0.551908 0.617384 0.597413
O O4 0.353495 0.628817 0.700135
O O5 0.920167 0.500000 0.331055
O O6 0.930036 0.643260 0.284521
O O7 0.925645 0.609737 0.423871
O O8 0.755629 0.590157 0.464266
O O9 0.529034 0.153103 0.097314
O O10 0.332248 0.109178 0.230656
O O11 0.358599 0.251283 0.251784
O O12 0.867619 0.500000 0.555869
O O13 0.795895 0.356399 0.618509
O O14 0.000000 0.386904 0.500000
O O15 0.660801 0.308315 0.610244
O O16 0.688149 0.280413 0.452606
O O17 0.909927 0.500000 0.962036
O O18 0.814577 0.619532 0.099390
O O19 0.000000 0.574188 0.000000
O O20 0.753540 0.500000 0.212702
#
# Coordination Sequence:
#
# PCOD8078171 Si02
#       8
#     8   8   8   8   8   8   8   8
#     4  10  18  26  40  63  90 119 145 166 194 243
#     4   9  15  24  41  61  81 110 142 168 198 241
#     4  10  16  25  41  62  86 111 141 175 202 239
#     4   9  18  31  43  56  79 109 141 179 221 260
#     4   9  17  28  37  55  86 112 134 166 203 242
#     4   8  14  25  41  60  86 117 142 168 202 237
#     4   9  17  27  40  64  94 119 141 164 196 241
#     4   9  18  28  41  59  79 106 140 173 209 249
#
# _framework density 15.537326999999999
#
# number of rings (size 3 to 8) (size 9 to 14) (size 15 to 20)
#    0.000    2.875    0.000    4.500    0.000    3.000 
#    0.000    0.000    0.000    0.750    0.000    1.750 
#    0.000    4.500    0.000    0.250    0.000   17.000 
#
# Total GULP energy -396421.311148 kJ/mol
# GULP energy per Si atom -12388.165973 kJ/mol
# Density = 1.550196 g / cm^3
# Si number density = 15.537327 Si / 1000 Ang^3
#
#
#
# Elastic Constant Matrix: (Units=GPa)
#
#
# Indices 1 2 3 4 5 6 
#
# 1 75.9781 17.8133 40.8157 0.0000 -3.4246 0.0000
# 2 17.8133 46.1984 37.2375 0.0000 2.2717 0.0000
# 3 40.8157 37.2375 116.9582 0.0000 -10.9298 0.0000
# 4 0.0000 0.0000 0.0000 20.0530 0.0000 -2.7932
# 5 -3.4246 2.2717 -10.9298 0.0000 16.8664 0.0000
# 6 0.0000 0.0000 0.0000 -2.7932 0.0000 20.0344
#
#
#
# Elastic Compliance Matrix: (Units=1/GPa)
#
#
# Indices 1 2 3 4 5 6 
#
# 1 0.016381 -0.002375 -0.004917 0.000000 0.000459 0.000000
# 2 -0.002375 0.031348 -0.010210 0.000000 -0.011321 0.000000
# 3 -0.004917 -0.010210 0.014425 0.000000 0.009725 0.000000
# 4 0.000000 0.000000 0.000000 0.050856 0.000000 0.007090
# 5 0.000459 -0.011321 0.009725 0.000000 0.067209 0.000000
# 6 0.000000 0.000000 0.000000 0.007090 0.000000 0.050903
#
#
# Mechanical properties :
#
#
# Convention : Reuss Voigt Hill
#
# Bulk Modulus (GPa) = 36.83291 47.87419 42.35355
# Shear Modulus (GPa) = 18.17020 20.94196 19.55608
#
# Velocity S-wave (km/s) = 3.42344 3.67529 3.55160
# Velocity P-wave (km/s) = 6.27568 6.99211 6.64356
#
# Compressibility (1/GPa) = 0.02714963
#
# Stress axis : x y z
#
# Youngs Moduli (GPa) = 61.04662 31.90042 69.32183
#
# Poissons Ratio (x) = 0.07577 0.34089
# Poissons Ratio (y) = 0.14500 0.70775
# Poissons Ratio (z) = 0.30019 0.32569
#
# Static dielectric constant tensor:
#      x y z
#    x 2.874900 0.000000 -0.091940 
#    y 0.000000 2.931840 0.000000 
#    z -0.091940 0.000000 3.390470 
# 
# 
# High freq. dielectric constant tensor:
#      x y z
#    x 1.576660 0.000000 0.001580 
#    y 0.000000 1.577940 0.000000 
#    z 0.001580 0.000000 1.575440 
# 
# From -- ./inp_files/278392.got.cif
#   From: 2010.06.25/outbox.cif.g09.slc.cpg/sg12_140_cif.got.tgz:278392.got - 2010.06.28 00:19:55.
