data_PCOD8078491
_publ_section_title
;
Structure prediction by ZEFSAII (Michael W. Deem and Ramdas Pophale) SiO2 
 PCOD8078491
Probable space group: C 2/M
;
_chemical_formula_sum "Si O2"
_cell_formula_units_Z 64
_cell_length_a 28.449802
_cell_length_b 8.853582
_cell_length_c 20.212864
_cell_angle_alpha 90.000000
_cell_angle_beta 53.577078
_cell_angle_gamma 90.000000
_cell_volume 4096.722496
_symmetry_space_group_name_H-M "C 2/M"
_symmetry_group_IT_number 12
_symmetry_cell_setting 'monoclinic'
loop_
_space_group_symop_operation_xyz
x,y,z
-x,y,-z
-x,-y,-z
x,-y,z
1/2+x,1/2+y,z
1/2-x,1/2+y,-z
1/2-x,1/2-y,-z
1/2+x,1/2-y,z
loop_
_atom_site_type_symbol
_atom_site_label
_atom_site_fract_x
_atom_site_fract_y
_atom_site_fract_z
Si Si1 0.949367 0.821113 0.960191
Si Si2 0.098486 0.176838 0.519481
Si Si3 0.024872 0.677766 0.191475
Si Si4 0.687185 0.677505 0.556932
Si Si5 0.108292 0.672839 0.726358
Si Si6 0.565811 0.170670 0.419852
Si Si7 0.071009 0.675853 0.897062
Si Si8 0.529480 0.677034 0.323930
O O1 0.936001 0.757445 0.898126
O O2 0.014332 0.770606 0.924296
O O3 0.942148 0.000000 0.967134
O O4 0.906253 0.745842 0.052033
O O5 0.149279 0.232725 0.525941
O O6 0.107240 0.260506 0.442119
O O7 0.037216 0.220685 0.604246
O O8 0.101279 0.000000 0.503000
O O9 0.033893 0.500000 0.178037
O O10 0.048374 0.737238 0.241746
O O11 0.956868 0.722408 0.240255
O O12 0.694184 0.500000 0.550383
O O13 0.750000 0.750000 0.500000
O O14 0.655570 0.723553 0.651129
O O15 0.119409 0.500000 0.696379
O O16 0.117069 0.694416 0.798420
O O17 0.500000 0.180078 0.500000
O O18 0.571638 0.266973 0.347752
O O19 0.585298 0.000000 0.389070
O O20 0.054462 0.500000 0.919206
O O21 0.537756 0.500000 0.306844
#
# Coordination Sequence:
#
# PCOD8078491 Si02
#       8
#     8   8   8   8   8   8   8   8
#     4  10  17  24  36  56  79 106 138 170 203 243
#     4   9  18  31  44  59  79 106 137 175 216 253
#     4  10  18  27  40  58  83 112 141 174 209 248
#     4  11  22  34  47  63  83 108 142 182 223 260
#     4   9  18  30  44  59  77 105 139 176 216 254
#     4   9  17  27  41  61  81 105 136 169 207 251
#     4   9  16  27  40  55  76 103 135 171 208 247
#     4  10  17  27  42  61  84 109 140 174 209 250
#
# _framework density 15.622244
#
# number of rings (size 3 to 8) (size 9 to 14) (size 15 to 20)
#    0.000    2.375    1.250    4.500    0.000    5.500 
#    0.000    0.000    0.000    0.000    0.000    0.000 
#    0.000    0.000    0.000    1.125    0.000   14.750 
#
# Total GULP energy -396675.371020 kJ/mol
# GULP energy per Si atom -12396.105344 kJ/mol
# Density = 1.558669 g / cm^3
# Si number density = 15.622244 Si / 1000 Ang^3
#
#
#
# Elastic Constant Matrix: (Units=GPa)
#
#
# Indices 1 2 3 4 5 6 
#
# 1 58.6660 32.0689 48.8402 -0.0019 19.4052 0.0011
# 2 32.0689 82.0991 47.4004 -0.0125 16.7195 0.0041
# 3 48.8402 47.4004 97.1379 0.0035 32.8576 -0.0014
# 4 -0.0019 -0.0125 0.0035 28.9329 -0.0009 9.1360
# 5 19.4052 16.7195 32.8576 -0.0009 25.0090 0.0002
# 6 0.0011 0.0041 -0.0014 9.1360 0.0002 20.3583
#
#
#
# Elastic Compliance Matrix: (Units=1/GPa)
#
#
# Indices 1 2 3 4 5 6 
#
# 1 0.030865 -0.004239 -0.011354 0.000002 -0.006199 -0.000003
# 2 -0.004239 0.017550 -0.006437 0.000011 0.000014 -0.000009
# 3 -0.011354 -0.006437 0.026474 -0.000010 -0.021670 0.000009
# 4 0.000002 0.000011 -0.000010 0.040269 0.000006 -0.018071
# 5 -0.006199 0.000014 -0.021670 0.000006 0.073256 -0.000005
# 6 -0.000003 -0.000009 0.000009 -0.018071 -0.000005 0.057230
#
#
# Mechanical properties :
#
#
# Convention : Reuss Voigt Hill
#
# Bulk Modulus (GPa) = 32.43599 54.94688 43.69143
# Shear Modulus (GPa) = 16.66776 22.16626 19.41701
#
# Velocity S-wave (km/s) = 3.26993 3.77090 3.52931
# Velocity P-wave (km/s) = 5.92151 7.36262 6.68104
#
# Compressibility (1/GPa) = 0.03082996
#
# Stress axis : x y z
#
# Youngs Moduli (GPa) = 32.39901 56.98035 37.77264
#
# Poissons Ratio (x) = 0.24153 0.42886
# Poissons Ratio (y) = 0.13733 0.24315
# Poissons Ratio (z) = 0.36785 0.36679
#
# Static dielectric constant tensor:
#      x y z
#    x 2.717210 -0.000010 0.484420 
#    y -0.000010 3.037520 0.000000 
#    z 0.484420 0.000000 3.249980 
# 
# 
# High freq. dielectric constant tensor:
#      x y z
#    x 1.543070 0.000000 0.050160 
#    y 0.000000 1.614960 0.000000 
#    z 0.050160 0.000000 1.588910 
# 
# From -- ./inp_files/326572.got.cif
#   From: 2010.06.25/outbox.cif.g09.slc.cpg/sg12_164_cif.got.tgz:326572.got - 2010.06.28 00:19:55.
