data_PCOD8078934
_publ_section_title
;
Structure prediction by ZEFSAII (Michael W. Deem and Ramdas Pophale) SiO2 
 PCOD8078934
Probable space group: C 2/M
;
_chemical_formula_sum "Si O2"
_cell_formula_units_Z 64
_cell_length_a 31.172039
_cell_length_b 9.188172
_cell_length_c 14.581285
_cell_angle_alpha 90.000000
_cell_angle_beta 118.248891
_cell_angle_gamma 90.000000
_cell_volume 3678.889017
_symmetry_space_group_name_H-M "C 2/M"
_symmetry_group_IT_number 12
_symmetry_cell_setting 'monoclinic'
loop_
_space_group_symop_operation_xyz
x,y,z
-x,y,-z
-x,-y,-z
x,-y,z
1/2+x,1/2+y,z
1/2-x,1/2+y,-z
1/2-x,1/2-y,-z
1/2+x,1/2-y,z
loop_
_atom_site_type_symbol
_atom_site_label
_atom_site_fract_x
_atom_site_fract_y
_atom_site_fract_z
Si Si1 0.425187 0.671932 0.771833
Si Si2 0.295792 0.169889 0.931803
Si Si3 0.620533 0.672312 0.086879
Si Si4 0.032412 0.170484 0.877306
Si Si5 0.892654 0.670855 0.365060
Si Si6 0.470404 0.334776 0.333727
Si Si7 0.302325 0.831035 0.148372
Si Si8 0.915435 0.832965 0.560582
O O1 0.432480 0.500000 0.768685
O O2 0.387803 0.711709 0.814632
O O3 0.479160 0.737130 0.847865
O O4 0.405187 0.728187 0.653252
O O5 0.331071 0.247853 0.895927
O O6 0.242317 0.234344 0.862290
O O7 0.294479 0.000000 0.908183
O O8 0.313944 0.201019 0.053587
O O9 0.626708 0.500000 0.078275
O O10 0.574542 0.736971 0.983970
O O11 0.045426 0.205036 0.785456
O O12 0.030902 0.000000 0.895059
O O13 0.896223 0.500000 0.379786
O O14 0.943103 0.727984 0.374726
O O15 0.848738 0.717156 0.254220
O O16 0.884076 0.739596 0.456861
O O17 0.455188 0.500000 0.341922
O O18 0.527720 0.314883 0.404715
O O19 0.289043 0.000000 0.149256
O O20 0.899084 0.000000 0.535207
#
# Coordination Sequence:
#
# PCOD8078934 Si02
#       8
#     8   8   8   8   8   8   8   8
#     4   8  15  28  46  69  96 127 163 198 227 260
#     4  10  20  34  52  73  97 122 148 184 232 286
#     4  10  17  27  49  75  97 124 157 193 232 274
#     4   8  14  25  44  71  98 125 161 196 223 263
#     4  11  21  31  47  70  94 121 155 196 238 278
#     4   9  17  29  45  67  97 130 160 191 227 270
#     4   9  20  37  52  69  95 123 151 187 233 282
#     4   9  18  32  47  65  94 130 165 197 226 263
#
# _framework density 17.396554999999999
#
# number of rings (size 3 to 8) (size 9 to 14) (size 15 to 20)
#    0.000    2.750    0.000    3.750    0.000    5.000 
#    0.000    0.625    0.000    3.750    0.000    0.000 
#    0.000    0.000    0.000    0.000    0.000    0.000 
#
# Total GULP energy -396736.365071 kJ/mol
# GULP energy per Si atom -12398.011408 kJ/mol
# Density = 1.735696 g / cm^3
# Si number density = 17.396555 Si / 1000 Ang^3
#
#
#
# Elastic Constant Matrix: (Units=GPa)
#
#
# Indices 1 2 3 4 5 6 
#
# 1 96.3804 41.8900 41.5613 0.0000 -15.1111 0.0000
# 2 41.8900 55.2677 38.0077 0.0000 -5.3971 0.0000
# 3 41.5613 38.0077 97.6258 0.0000 -10.2692 0.0000
# 4 0.0000 0.0000 0.0000 22.0848 0.0000 1.5578
# 5 -15.1111 -5.3971 -10.2692 0.0000 14.5953 0.0000
# 6 0.0000 0.0000 0.0000 1.5578 0.0000 19.0911
#
#
#
# Elastic Compliance Matrix: (Units=1/GPa)
#
#
# Indices 1 2 3 4 5 6 
#
# 1 0.018133 -0.011060 -0.002018 0.000000 0.013263 0.000000
# 2 -0.011060 0.031545 -0.008153 0.000000 -0.005523 0.000000
# 3 -0.002018 -0.008153 0.014838 0.000000 0.005335 0.000000
# 4 0.000000 0.000000 0.000000 0.045542 0.000000 -0.003716
# 5 0.013263 -0.005523 0.005335 0.000000 0.083959 0.000000
# 6 0.000000 0.000000 0.000000 -0.003716 0.000000 0.052684
#
#
# Mechanical properties :
#
#
# Convention : Reuss Voigt Hill
#
# Bulk Modulus (GPa) = 45.34890 54.68800 50.01845
# Shear Modulus (GPa) = 16.86261 19.67522 18.26892
#
# Velocity S-wave (km/s) = 3.11675 3.36666 3.24411
# Velocity P-wave (km/s) = 6.25112 6.82766 6.54574
#
# Compressibility (1/GPa) = 0.02205125
#
# Stress axis : x y z
#
# Youngs Moduli (GPa) = 55.14956 31.70117 67.39520
#
# Poissons Ratio (x) = 0.35063 0.13602
# Poissons Ratio (y) = 0.60997 0.54949
# Poissons Ratio (z) = 0.11130 0.25847
#
# Static dielectric constant tensor:
#      x y z
#    x 3.095160 0.000000 -0.101190 
#    y 0.000000 2.951590 0.000000 
#    z -0.101190 0.000000 3.471460 
# 
# 
# High freq. dielectric constant tensor:
#      x y z
#    x 1.655020 0.000000 -0.010980 
#    y 0.000000 1.643020 0.000000 
#    z -0.010980 0.000000 1.674560 
# 
# From -- ./inp_files/249009.got.cif
#   From: 2010.06.25/outbox.cif.g09.slc.cpg/sg12_125_cif.got.tgz:249009.got - 2010.06.28 00:19:55.
