data_PCOD8078395
_publ_section_title
;
Structure prediction by ZEFSAII (Michael W. Deem and Ramdas Pophale) SiO2 
 PCOD8078395
Probable space group: C 2/M
;
_chemical_formula_sum "Si O2"
_cell_formula_units_Z 56
_cell_length_a 13.749156
_cell_length_b 14.408245
_cell_length_c 14.415356
_cell_angle_alpha 90.000000
_cell_angle_beta 99.503567
_cell_angle_gamma 90.000000
_cell_volume 2816.505892
_symmetry_space_group_name_H-M "C 2/M"
_symmetry_group_IT_number 12
_symmetry_cell_setting 'monoclinic'
loop_
_space_group_symop_operation_xyz
x,y,z
-x,y,-z
-x,-y,-z
x,-y,z
1/2+x,1/2+y,z
1/2-x,1/2+y,-z
1/2-x,1/2-y,-z
1/2+x,1/2-y,z
loop_
_atom_site_type_symbol
_atom_site_label
_atom_site_fract_x
_atom_site_fract_y
_atom_site_fract_z
Si Si1 0.024302 0.218970 0.101769
Si Si2 0.652324 0.603933 0.700201
Si Si3 0.283114 0.241455 0.609948
Si Si4 0.824959 0.397296 0.300203
Si Si5 0.757847 0.845104 0.896792
Si Si6 0.173533 0.856243 0.902439
Si Si7 0.998133 0.733392 0.298652
O O1 0.132731 0.177669 0.119957
O O2 0.015544 0.283665 0.191445
O O3 0.943897 0.135071 0.095609
O O4 0.000000 0.272713 0.000000
O O5 0.627163 0.500000 0.659797
O O6 0.732659 0.650759 0.646367
O O7 0.700354 0.592891 0.810984
O O8 0.554287 0.667160 0.690420
O O9 0.250000 0.250000 0.500000
O O10 0.255801 0.334975 0.660549
O O11 0.400467 0.229967 0.629424
O O12 0.829420 0.500000 0.345221
O O13 0.793680 0.409368 0.187487
O O14 0.931484 0.349785 0.327229
O O15 0.692379 0.753192 0.893085
O O16 0.763685 0.894470 0.999631
#
# Coordination Sequence:
#
# PCOD8078395 Si02
#       7
#     8   8   8   8   8   8   8
#     4   9  15  27  55  83 108 154 195 225 276 342
#     4  10  21  38  61  90 118 151 196 243 294 349
#     4  11  24  44  65  84 113 156 199 244 299 351
#     4  11  23  38  59  91 121 153 196 243 296 351
#     4  10  16  31  54  83 117 162 193 233 280 348
#     4   9  17  30  53  83 118 156 197 232 287 340
#     4  10  20  41  59  85 119 156 188 245 295 347
#
# _framework density 19.882792999999999
#
# number of rings (size 3 to 8) (size 9 to 14) (size 15 to 20)
#    0.000    2.000    5.714    0.000    0.000    4.571 
#    0.000    1.429    0.000    5.143    0.000    0.000 
#    0.000    0.000    0.000    0.000    0.000    0.000 
#
# Total GULP energy -346960.437778 kJ/mol
# GULP energy per Si atom -12391.444206 kJ/mol
# Density = 1.983754 g / cm^3
# Si number density = 19.882793 Si / 1000 Ang^3
#
#
#
# Elastic Constant Matrix: (Units=GPa)
#
#
# Indices 1 2 3 4 5 6 
#
# 1 123.7828 41.2045 38.9840 0.0000 14.4850 0.0000
# 2 41.2045 101.9320 17.7909 0.0000 -1.2683 0.0000
# 3 38.9840 17.7909 104.9573 0.0000 11.9957 0.0000
# 4 0.0000 0.0000 0.0000 4.3548 0.0000 2.4480
# 5 14.4850 -1.2683 11.9957 0.0000 29.1090 0.0000
# 6 0.0000 0.0000 0.0000 2.4480 0.0000 6.6984
#
#
#
# Elastic Compliance Matrix: (Units=1/GPa)
#
#
# Indices 1 2 3 4 5 6 
#
# 1 0.010790 -0.003920 -0.002844 0.000000 -0.004368 0.000000
# 2 -0.003920 0.011574 -0.000825 0.000000 0.002795 0.000000
# 3 -0.002844 -0.000825 0.011089 0.000000 -0.003190 0.000000
# 4 0.000000 0.000000 0.000000 0.289000 0.000000 -0.105617
# 5 -0.004368 0.002795 -0.003190 0.000000 0.037964 0.000000
# 6 0.000000 0.000000 0.000000 -0.105617 0.000000 0.187888
#
#
# Mechanical properties :
#
#
# Convention : Reuss Voigt Hill
#
# Bulk Modulus (GPa) = 54.72205 58.51455 56.61830
# Shear Modulus (GPa) = 8.77848 23.54529 16.16189
#
# Velocity S-wave (km/s) = 2.10350 3.44496 2.85416
# Velocity P-wave (km/s) = 5.78633 6.73181 6.27690
#
# Compressibility (1/GPa) = 0.01827417
#
# Stress axis : x y z
#
# Youngs Moduli (GPa) = 92.67518 86.40201 90.18259
#
# Poissons Ratio (x) = 0.33868 0.25650
# Poissons Ratio (y) = 0.36327 0.07443
# Poissons Ratio (z) = 0.26358 0.07131
#
# Static dielectric constant tensor:
#      x y z
#    x 3.717400 0.000000 -0.064830 
#    y 0.000000 3.793350 0.000000 
#    z -0.064830 0.000000 3.817670 
# 
# 
# High freq. dielectric constant tensor:
#      x y z
#    x 1.781310 0.000000 -0.001230 
#    y 0.000000 1.728500 0.000000 
#    z -0.001230 0.000000 1.779700 
# 
# From -- ./inp_files/214347.got.cif
#   From: 2010.06.25/outbox.cif.g09.slc.cpg/sg12_108_cif.got.tgz:214347.got - 2010.06.28 00:19:55.
