data_PCOD8078821
_publ_section_title
;
Structure prediction by ZEFSAII (Michael W. Deem and Ramdas Pophale) SiO2 
 PCOD8078821
Probable space group: C 2/M
;
_chemical_formula_sum "Si O2"
_cell_formula_units_Z 64
_cell_length_a 30.250490
_cell_length_b 9.338671
_cell_length_c 31.136212
_cell_angle_alpha 90.000000
_cell_angle_beta 151.351015
_cell_angle_gamma 90.000000
_cell_volume 4217.155603
_symmetry_space_group_name_H-M "C 2/M"
_symmetry_group_IT_number 12
_symmetry_cell_setting 'monoclinic'
loop_
_space_group_symop_operation_xyz
x,y,z
-x,y,-z
-x,-y,-z
x,-y,z
1/2+x,1/2+y,z
1/2-x,1/2+y,-z
1/2-x,1/2-y,-z
1/2+x,1/2-y,z
loop_
_atom_site_type_symbol
_atom_site_label
_atom_site_fract_x
_atom_site_fract_y
_atom_site_fract_z
Si Si1 0.313906 0.668503 0.875447
Si Si2 0.639355 0.667179 0.946070
Si Si3 0.323246 0.335248 0.115269
Si Si4 0.022776 0.830946 0.924796
Si Si5 0.137716 0.166472 0.758482
Si Si6 0.351396 0.669712 0.385575
Si Si7 0.479650 0.331805 0.418240
Si Si8 0.173720 0.168938 0.213493
O O1 0.300123 0.500000 0.870195
O O2 0.226083 0.745558 0.820089
O O3 0.325708 0.709661 0.836010
O O4 0.404032 0.724821 0.977594
O O5 0.657247 0.500000 0.968097
O O6 0.618856 0.704437 0.878458
O O7 0.554480 0.716663 0.903802
O O8 0.731334 0.743452 0.040384
O O9 0.292201 0.500000 0.086666
O O10 0.384662 0.306004 0.210184
O O11 0.921437 0.769231 0.847849
O O12 0.016535 0.000000 0.923777
O O13 0.049001 0.215221 0.654478
O O14 0.158834 0.000000 0.767632
O O15 0.332891 0.500000 0.370532
O O16 0.418190 0.722515 0.481688
O O17 0.400662 0.721949 0.383633
O O18 0.255272 0.751702 0.308276
O O19 0.483868 0.500000 0.427536
O O20 0.184845 0.000000 0.230016
#
# Coordination Sequence:
#
# PCOD8078821 Si02
#       8
#     8   8   8   8   8   8   8   8
#     4  10  18  28  41  59  83 113 145 168 192 237
#     4   9  16  28  43  59  81 111 140 164 199 246
#     4   9  17  26  41  64  85 103 132 174 207 235
#     4   9  17  29  43  57  81 117 146 165 195 242
#     4  10  17  27  43  63  86 109 133 167 208 243
#     4   9  16  29  45  60  78 107 141 168 204 252
#     4   8  15  27  44  60  80 109 136 163 205 256
#     4  10  19  29  42  61  83 109 143 178 202 228
#
# _framework density 15.176105
#
# number of rings (size 3 to 8) (size 9 to 14) (size 15 to 20)
#    0.000    2.750    2.500    1.125    0.000    1.500 
#    0.000    3.125    0.000    1.500    0.000    0.875 
#    0.000    0.000    0.000    0.000    0.000    0.000 
#
# Total GULP energy -396554.226971 kJ/mol
# GULP energy per Si atom -12392.319593 kJ/mol
# Density = 1.514156 g / cm^3
# Si number density = 15.176105 Si / 1000 Ang^3
#
#
#
# Elastic Constant Matrix: (Units=GPa)
#
#
# Indices 1 2 3 4 5 6 
#
# 1 97.2456 21.1324 68.8418 0.0000 -9.4305 0.0000
# 2 21.1324 21.4448 26.3825 0.0000 -0.2306 0.0003
# 3 68.8418 26.3825 135.3798 0.0004 -7.9800 0.0002
# 4 0.0000 0.0000 0.0004 20.8796 0.0001 2.0457
# 5 -9.4305 -0.2306 -7.9800 0.0001 24.1344 0.0000
# 6 0.0000 0.0003 0.0002 2.0457 0.0000 13.8871
#
#
#
# Elastic Compliance Matrix: (Units=1/GPa)
#
#
# Indices 1 2 3 4 5 6 
#
# 1 0.017526 -0.008658 -0.006962 0.000000 0.004464 0.000000
# 2 -0.008658 0.065894 -0.008772 0.000000 -0.005654 -0.000002
# 3 -0.006962 -0.008772 0.012719 0.000000 0.001401 0.000000
# 4 0.000000 0.000000 0.000000 0.048595 0.000000 -0.007158
# 5 0.004464 -0.005654 0.001401 0.000000 0.043588 0.000000
# 6 0.000000 -0.000002 0.000000 -0.007158 0.000000 0.073064
#
#
# Mechanical properties :
#
#
# Convention : Reuss Voigt Hill
#
# Bulk Modulus (GPa) = 21.11689 54.08708 37.60199
# Shear Modulus (GPa) = 15.33961 20.96111 18.15036
#
# Velocity S-wave (km/s) = 3.18272 3.72047 3.46205
# Velocity P-wave (km/s) = 5.23937 7.36022 6.38842
#
# Compressibility (1/GPa) = 0.04735546
#
# Stress axis : x y z
#
# Youngs Moduli (GPa) = 57.05856 15.17594 78.62391
#
# Poissons Ratio (x) = 0.13139 0.54736
# Poissons Ratio (y) = 0.49400 0.68968
# Poissons Ratio (z) = 0.39723 0.13312
#
# Static dielectric constant tensor:
#      x y z
#    x 3.095800 0.000000 -0.193660 
#    y 0.000000 2.719220 0.000000 
#    z -0.193660 0.000000 3.124600 
# 
# 
# High freq. dielectric constant tensor:
#      x y z
#    x 1.567540 0.000000 -0.015910 
#    y 0.000000 1.560190 0.000000 
#    z -0.015910 0.000000 1.573650 
# 
# From -- ./inp_files/248341.got.cif
#   From: 2010.06.25/outbox.cif.g09.slc.cpg/sg12_125_cif.got.tgz:248341.got - 2010.06.28 00:19:55.
