data_PCOD8078262
_publ_section_title
;
Structure prediction by ZEFSAII (Michael W. Deem and Ramdas Pophale) SiO2 
 PCOD8078262
Probable space group: C 2/M
;
_chemical_formula_sum "Si O2"
_cell_formula_units_Z 64
_cell_length_a 24.335014
_cell_length_b 15.999204
_cell_length_c 17.504931
_cell_angle_alpha 90.000000
_cell_angle_beta 29.275937
_cell_angle_gamma 90.000000
_cell_volume 3332.833278
_symmetry_space_group_name_H-M "C 2/M"
_symmetry_group_IT_number 12
_symmetry_cell_setting 'monoclinic'
loop_
_space_group_symop_operation_xyz
x,y,z
-x,y,-z
-x,-y,-z
x,-y,z
1/2+x,1/2+y,z
1/2-x,1/2+y,-z
1/2-x,1/2-y,-z
1/2+x,1/2-y,z
loop_
_atom_site_type_symbol
_atom_site_label
_atom_site_fract_x
_atom_site_fract_y
_atom_site_fract_z
Si Si1 0.293074 0.772294 0.632919
Si Si2 0.335416 0.903741 0.956125
Si Si3 0.913743 0.245121 0.212969
Si Si4 0.334490 0.910372 0.360526
Si Si5 0.438134 0.906417 0.397292
Si Si6 0.159352 0.246007 0.940212
Si Si7 0.358957 0.594909 0.923237
Si Si8 0.605159 0.348184 0.609047
O O1 0.177831 0.801371 0.728941
O O2 0.382523 0.847851 0.528827
O O3 0.262352 0.747919 0.756687
O O4 0.356777 0.695572 0.515503
O O5 0.431486 0.884903 0.776692
O O6 0.350024 0.000000 0.969518
O O7 0.347188 0.834593 0.007998
O O8 0.215448 0.892656 0.061920
O O9 0.885591 0.343363 0.240411
O O10 0.901593 0.221068 0.316512
O O11 0.043644 0.231355 0.032028
O O12 0.367796 0.890027 0.406275
O O13 0.199322 0.914537 0.519322
O O14 0.384171 0.000000 0.276070
O O15 0.426229 0.000000 0.442576
O O16 0.177422 0.165127 0.971803
O O17 0.342903 0.500000 0.975443
O O18 0.487187 0.605784 0.741005
#
# Coordination Sequence:
#
# PCOD8078262 Si02
#       8
#     8   8   8   8   8   8   8   8
#     4  11  20  34  52  85 118 147 173 223 288 333
#     4  10  21  41  63  81 102 144 197 235 269 319
#     4  10  18  34  51  76 111 151 186 213 259 330
#     4  10  16  27  53  80 102 132 182 232 265 306
#     4  10  18  32  57  82 105 138 186 231 269 321
#     4  11  22  35  57  83 117 146 180 227 282 335
#     4  10  22  40  61  80 107 147 192 231 267 327
#     4  10  18  34  55  77 109 146 189 220 261 321
#
# _framework density 19.202881999999999
#
# number of rings (size 3 to 8) (size 9 to 14) (size 15 to 20)
#    0.000    1.750    3.750    2.625    0.000    0.500 
#    0.000    5.625    0.000    9.750    0.000    0.000 
#    0.000    0.000    0.000    0.000    0.000    0.000 
#
# Total GULP energy -396610.895900 kJ/mol
# GULP energy per Si atom -12394.090497 kJ/mol
# Density = 1.915917 g / cm^3
# Si number density = 19.202882 Si / 1000 Ang^3
#
#
#
# Elastic Constant Matrix: (Units=GPa)
#
#
# Indices 1 2 3 4 5 6 
#
# 1 45.6162 18.7549 28.6835 0.0000 -16.3134 0.0000
# 2 18.7549 101.5058 29.9427 0.0000 4.4110 0.0000
# 3 28.6835 29.9427 90.9327 0.0000 1.7042 0.0000
# 4 0.0000 0.0000 0.0000 25.3026 0.0000 -4.0840
# 5 -16.3134 4.4110 1.7042 0.0000 32.2076 0.0000
# 6 0.0000 0.0000 0.0000 -4.0840 0.0000 16.2418
#
#
#
# Elastic Compliance Matrix: (Units=1/GPa)
#
#
# Indices 1 2 3 4 5 6 
#
# 1 0.037970 -0.004716 -0.010808 0.000000 0.020450 0.000000
# 2 -0.004716 0.011552 -0.002244 0.000000 -0.003852 0.000000
# 3 -0.010808 -0.002244 0.015257 0.000000 -0.005974 0.000000
# 4 0.000000 0.000000 0.000000 0.041193 0.000000 0.010358
# 5 0.020450 -0.003852 -0.005974 0.000000 0.042250 0.000000
# 6 0.000000 0.000000 0.000000 0.010358 0.000000 0.064174
#
#
# Mechanical properties :
#
#
# Convention : Reuss Voigt Hill
#
# Bulk Modulus (GPa) = 34.19493 43.64631 38.92062
# Shear Modulus (GPa) = 19.40376 25.46196 22.43286
#
# Velocity S-wave (km/s) = 3.18222 3.64530 3.42161
# Velocity P-wave (km/s) = 5.59892 6.36365 5.99349
#
# Compressibility (1/GPa) = 0.02924410
#
# Stress axis : x y z
#
# Youngs Moduli (GPa) = 26.33632 86.56164 65.54303
#
# Poissons Ratio (x) = 0.40825 0.70836
# Poissons Ratio (y) = 0.12421 0.14709
# Poissons Ratio (z) = 0.28463 0.19426
#
# Static dielectric constant tensor:
#      x y z
#    x 3.223040 0.000000 -0.315050 
#    y 0.000000 3.572340 0.000000 
#    z -0.315050 0.000000 3.560460 
# 
# 
# High freq. dielectric constant tensor:
#      x y z
#    x 1.715370 0.000000 -0.027870 
#    y 0.000000 1.751320 0.000000 
#    z -0.027870 0.000000 1.745200 
# 
# From -- ./inp_files/290087.got.cif
#   From: 2010.06.25/outbox.cif.g09.slc.cpg/sg12_146_cif.got.tgz:290087.got - 2010.06.28 00:19:55.
