data_PCOD8078758
_publ_section_title
;
Structure prediction by ZEFSAII (Michael W. Deem and Ramdas Pophale) SiO2 
 PCOD8078758
Probable space group: C 2/M
;
_chemical_formula_sum "Si O2"
_cell_formula_units_Z 64
_cell_length_a 29.254621
_cell_length_b 9.169966
_cell_length_c 15.792695
_cell_angle_alpha 90.000000
_cell_angle_beta 117.113527
_cell_angle_gamma 90.000000
_cell_volume 3771.028393
_symmetry_space_group_name_H-M "C 2/M"
_symmetry_group_IT_number 12
_symmetry_cell_setting 'monoclinic'
loop_
_space_group_symop_operation_xyz
x,y,z
-x,y,-z
-x,-y,-z
x,-y,z
1/2+x,1/2+y,z
1/2-x,1/2+y,-z
1/2-x,1/2-y,-z
1/2+x,1/2-y,z
loop_
_atom_site_type_symbol
_atom_site_label
_atom_site_fract_x
_atom_site_fract_y
_atom_site_fract_z
Si Si1 0.888187 0.169006 0.341878
Si Si2 0.341767 0.668069 0.568432
Si Si3 0.446170 0.664482 0.564082
Si Si4 0.322390 0.827175 0.725085
Si Si5 0.208685 0.827505 0.643840
Si Si6 0.540025 0.827087 0.716260
Si Si7 0.478347 0.826711 0.111056
Si Si8 0.922182 0.673343 0.900545
O O1 0.925909 0.193652 0.452831
O O2 0.831261 0.229120 0.318655
O O3 0.907923 0.262016 0.279130
O O4 0.886405 0.000000 0.314176
O O5 0.329127 0.500000 0.578112
O O6 0.401151 0.687327 0.593947
O O7 0.329752 0.764843 0.638631
O O8 0.306493 0.730101 0.462292
O O9 0.468017 0.500000 0.588925
O O10 0.491215 0.777370 0.620739
O O11 0.266785 0.779869 0.715302
O O12 0.366521 0.765948 0.825136
O O13 0.325671 0.000000 0.719819
O O14 0.201226 0.000000 0.633618
O O15 0.535003 0.764981 0.807673
O O16 0.543258 0.000000 0.717212
O O17 0.534460 0.770297 0.128714
O O18 0.478836 0.000000 0.114059
O O19 0.435787 0.771929 0.006914
O O20 0.921863 0.500000 0.899254
#
# Coordination Sequence:
#
# PCOD8078758 Si02
#       8
#     8   8   8   8   8   8   8   8
#     4   9  18  33  47  58  83 123 154 174 206 258
#     4   9  17  29  43  62  92 123 143 167 213 266
#     4   9  18  31  45  61  86 122 153 170 200 261
#     4  10  17  26  46  71  87 107 148 191 216 242
#     4   8  16  30  45  62  86 117 152 182 207 248
#     4  11  20  28  44  69  90 108 140 188 227 250
#     4   8  15  27  41  62  92 116 133 164 218 271
#     4   8  14  26  44  64  87 114 139 167 210 263
#
# _framework density 16.971496999999999
#
# number of rings (size 3 to 8) (size 9 to 14) (size 15 to 20)
#    0.000    3.000    0.000    4.125    0.000    3.500 
#    0.000    2.500    0.000    2.250    0.000    6.125 
#    0.000    0.000    0.000    0.000    0.000    0.125 
#
# Total GULP energy -396637.496851 kJ/mol
# GULP energy per Si atom -12394.921777 kJ/mol
# Density = 1.693287 g / cm^3
# Si number density = 16.971497 Si / 1000 Ang^3
#
#
#
# Elastic Constant Matrix: (Units=GPa)
#
#
# Indices 1 2 3 4 5 6 
#
# 1 127.2864 30.7151 77.4690 0.0000 2.2374 0.0000
# 2 30.7151 30.2044 23.2029 0.0000 -2.5808 0.0000
# 3 77.4690 23.2029 88.8919 0.0000 4.9451 0.0000
# 4 0.0000 0.0000 0.0000 11.9271 0.0000 -4.3495
# 5 2.2374 -2.5808 4.9451 0.0000 30.7676 0.0000
# 6 0.0000 0.0000 0.0000 -4.3495 0.0000 20.3104
#
#
#
# Elastic Compliance Matrix: (Units=1/GPa)
#
#
# Indices 1 2 3 4 5 6 
#
# 1 0.018114 -0.007834 -0.013754 0.000000 0.000236 0.000000
# 2 -0.007834 0.045660 -0.005384 0.000000 0.005265 0.000000
# 3 -0.013754 -0.005384 0.024833 0.000000 -0.003443 0.000000
# 4 0.000000 0.000000 0.000000 0.090945 0.000000 0.019476
# 5 0.000236 0.005265 -0.003443 0.000000 0.033479 0.000000
# 6 0.000000 0.000000 0.000000 0.019476 0.000000 0.053407
#
#
# Mechanical properties :
#
#
# Convention : Reuss Voigt Hill
#
# Bulk Modulus (GPa) = 28.84959 56.57296 42.71127
# Shear Modulus (GPa) = 15.06311 20.26741 17.66526
#
# Velocity S-wave (km/s) = 2.98242 3.45947 3.22976
# Velocity P-wave (km/s) = 5.37545 7.02593 6.25537
#
# Compressibility (1/GPa) = 0.03466254
#
# Stress axis : x y z
#
# Youngs Moduli (GPa) = 55.20711 21.90103 40.26841
#
# Poissons Ratio (x) = 0.17157 0.55386
# Poissons Ratio (y) = 0.43248 0.21681
# Poissons Ratio (z) = 0.75934 0.11792
#
# Static dielectric constant tensor:
#      x y z
#    x 3.456860 0.000000 0.071940 
#    y 0.000000 2.792810 0.000000 
#    z 0.071940 0.000000 3.263600 
# 
# 
# High freq. dielectric constant tensor:
#      x y z
#    x 1.661080 0.000000 0.000490 
#    y 0.000000 1.616060 0.000000 
#    z 0.000490 0.000000 1.637370 
# 
# From -- ./inp_files/249178.got.cif
#   From: 2010.06.25/outbox.cif.g09.slc.cpg/sg12_125_cif.got.tgz:249178.got - 2010.06.28 00:19:55.
