data_PCOD8078275
_publ_section_title
;
Structure prediction by ZEFSAII (Michael W. Deem and Ramdas Pophale) SiO2 
 PCOD8078275
Probable space group: C 2/M
;
_chemical_formula_sum "Si O2"
_cell_formula_units_Z 64
_cell_length_a 24.995901
_cell_length_b 12.763214
_cell_length_c 11.849815
_cell_angle_alpha 90.000000
_cell_angle_beta 100.846463
_cell_angle_gamma 90.000000
_cell_volume 3712.885820
_symmetry_space_group_name_H-M "C 2/M"
_symmetry_group_IT_number 12
_symmetry_cell_setting 'monoclinic'
loop_
_space_group_symop_operation_xyz
x,y,z
-x,y,-z
-x,-y,-z
x,-y,z
1/2+x,1/2+y,z
1/2-x,1/2+y,-z
1/2-x,1/2-y,-z
1/2+x,1/2-y,z
loop_
_atom_site_type_symbol
_atom_site_label
_atom_site_fract_x
_atom_site_fract_y
_atom_site_fract_z
Si Si1 0.844321 0.378920 0.095045
Si Si2 0.666908 0.192024 0.159264
Si Si3 0.738746 0.381584 0.181547
Si Si4 0.581367 0.119220 0.527466
Si Si5 0.951986 0.623683 0.252540
Si Si6 0.300161 0.828330 0.416787
Si Si7 0.071568 0.624158 0.273738
Si Si8 0.748894 0.883034 0.372571
O O1 0.844308 0.500000 0.126897
O O2 0.789729 0.331783 0.131464
O O3 0.900401 0.326482 0.165166
O O4 0.843159 0.366479 0.961091
O O5 0.684846 0.311720 0.140765
O O6 0.611009 0.189301 0.207963
O O7 0.715485 0.133782 0.244323
O O8 0.724750 0.500000 0.138197
O O9 0.753588 0.379058 0.320150
O O10 0.543915 0.165027 0.614580
O O11 0.641891 0.131670 0.602690
O O12 0.577398 0.172410 0.402916
O O13 0.564977 0.000000 0.499017
O O14 0.942757 0.500000 0.256405
O O15 0.008963 0.647216 0.211778
O O16 0.293265 0.868290 0.541495
O O17 0.297189 0.701363 0.406768
O O18 0.085807 0.500000 0.271868
O O19 0.773847 0.000000 0.382066
#
# Coordination Sequence:
#
# PCOD8078275 Si02
#       8
#     8   8   8   8   8   8   8   8
#     4  10  19  32  49  69  96 126 156 190 232 284
#     4  11  21  31  47  70  98 129 156 186 237 286
#     4  10  20  34  50  69  94 123 161 200 230 271
#     4  10  16  28  47  68  96 124 156 192 230 276
#     4   9  18  30  47  70  95 128 159 188 232 281
#     4  10  18  28  48  69  90 125 158 189 233 281
#     4  10  19  30  46  71 101 126 153 191 235 286
#     4  10  19  30  43  67  99 125 151 191 236 280
#
# _framework density 17.237266000000002
#
# number of rings (size 3 to 8) (size 9 to 14) (size 15 to 20)
#    0.000    2.000    2.500    3.000    0.000    2.000 
#    0.000    1.875    0.000    0.000    0.000    2.625 
#    0.000    2.000    0.000    0.000    0.000    0.000 
#
# Total GULP energy -396608.808759 kJ/mol
# GULP energy per Si atom -12394.025274 kJ/mol
# Density = 1.719803 g / cm^3
# Si number density = 17.237266 Si / 1000 Ang^3
#
#
#
# Elastic Constant Matrix: (Units=GPa)
#
#
# Indices 1 2 3 4 5 6 
#
# 1 102.4959 26.2687 30.9391 0.0000 -11.9645 0.0000
# 2 26.2687 57.5443 10.4407 0.0000 -2.7436 0.0000
# 3 30.9391 10.4407 88.6150 0.0000 -7.8489 0.0000
# 4 0.0000 0.0000 0.0000 15.3334 0.0000 -0.7487
# 5 -11.9645 -2.7436 -7.8489 0.0000 20.0604 0.0000
# 6 0.0000 0.0000 0.0000 -0.7487 0.0000 19.9929
#
#
#
# Elastic Compliance Matrix: (Units=1/GPa)
#
#
# Indices 1 2 3 4 5 6 
#
# 1 0.012679 -0.004914 -0.003354 0.000000 0.005578 0.000000
# 2 -0.004914 0.019716 -0.000651 0.000000 -0.000489 0.000000
# 3 -0.003354 -0.000651 0.012791 0.000000 0.002915 0.000000
# 4 0.000000 0.000000 0.000000 0.065337 0.000000 0.002447
# 5 0.005578 -0.000489 0.002915 0.000000 0.054250 0.000000
# 6 0.000000 0.000000 0.000000 0.002447 0.000000 0.050109
#
#
# Mechanical properties :
#
#
# Convention : Reuss Voigt Hill
#
# Bulk Modulus (GPa) = 36.56396 42.66137 39.61267
# Shear Modulus (GPa) = 20.67530 23.14444 21.90987
#
# Velocity S-wave (km/s) = 3.46707 3.66826 3.56908
# Velocity P-wave (km/s) = 6.10620 6.53795 6.32576
#
# Compressibility (1/GPa) = 0.02734933
#
# Stress axis : x y z
#
# Youngs Moduli (GPa) = 78.86873 50.72103 78.18227
#
# Poissons Ratio (x) = 0.24922 0.26221
# Poissons Ratio (y) = 0.38753 0.05087
# Poissons Ratio (z) = 0.26452 0.03300
#
# Static dielectric constant tensor:
#      x y z
#    x 3.257640 0.000000 -0.041360 
#    y 0.000000 2.922310 0.000000 
#    z -0.041360 0.000000 3.254730 
# 
# 
# High freq. dielectric constant tensor:
#      x y z
#    x 1.659310 0.000000 -0.006610 
#    y 0.000000 1.608360 0.000000 
#    z -0.006610 0.000000 1.676990 
# 
# From -- ./inp_files/182160.got.cif
#   From: 2010.06.25/outbox.cif.g09.slc.cpg/sg12_92_cif.got.tgz:182160.got - 2010.06.28 00:19:55.
