data_PCOD8078186
_publ_section_title
;
Structure prediction by ZEFSAII (Michael W. Deem and Ramdas Pophale) SiO2 
 PCOD8078186
Probable space group: C 2/M
;
_chemical_formula_sum "Si O2"
_cell_formula_units_Z 44
_cell_length_a 5.317498
_cell_length_b 22.996344
_cell_length_c 21.853593
_cell_angle_alpha 90.000000
_cell_angle_beta 111.406741
_cell_angle_gamma 90.000000
_cell_volume 2487.967322
_symmetry_space_group_name_H-M "C 2/M"
_symmetry_group_IT_number 12
_symmetry_cell_setting 'monoclinic'
loop_
_space_group_symop_operation_xyz
x,y,z
-x,y,-z
-x,-y,-z
x,-y,z
1/2+x,1/2+y,z
1/2-x,1/2+y,-z
1/2-x,1/2-y,-z
1/2+x,1/2-y,z
loop_
_atom_site_type_symbol
_atom_site_label
_atom_site_fract_x
_atom_site_fract_y
_atom_site_fract_z
Si Si1 0.393134 0.681413 0.262090
Si Si2 0.500000 0.786761 0.000000
Si Si3 0.820054 0.628868 0.880037
Si Si4 0.024803 0.312181 0.683202
Si Si5 0.791778 0.685716 0.527852
Si Si6 0.386159 0.431165 0.924106
O O1 0.278465 0.667036 0.185644
O O2 0.191406 0.653140 0.294377
O O3 0.419048 0.750056 0.279366
O O4 0.691723 0.653140 0.294377
O O5 0.596042 0.824510 0.064028
O O6 0.750000 0.750000 0.000000
O O7 0.578027 0.590033 0.886010
O O8 0.079998 0.590032 0.886010
O O9 0.908243 0.307259 0.605495
O O10 0.500000 0.653080 0.500000
O O11 0.750000 0.750000 0.500000
O O12 0.000000 0.653080 0.500000
O O13 0.384510 0.500000 0.923004
O O14 0.500000 0.408676 0.000000
#
# Coordination Sequence:
#
# PCOD8078186 Si02
#       6
#     8   4   8   8   8   8
#     4  10  20  30  47  61  99 130 169 202 233 300
#     4  12  26  36  53  74 111 138 172 216 248 300
#     4  12  23  39  54  80 100 134 178 207 274 318
#     4  10  19  32  42  68  96 143 180 198 237 289
#     4  10  16  25  43  62  87 123 181 224 237 260
#     4  11  22  41  62  79  96 119 162 236 290 324
#
# _framework density 17.685119
#
# number of rings (size 3 to 8) (size 9 to 14) (size 15 to 20)
#    0.000    1.273    1.818    8.182    5.091    1.455 
#    0.000    0.000    0.000    0.000    0.000    0.000 
#    0.000    0.000    0.000    0.000    0.000  774.545 
#
# Total GULP energy -272616.236348 kJ/mol
# GULP energy per Si atom -12391.647107 kJ/mol
# Density = 1.764487 g / cm^3
# Si number density = 17.685119 Si / 1000 Ang^3
#
#
#
# Elastic Constant Matrix: (Units=GPa)
#
#
# Indices 1 2 3 4 5 6 
#
# 1 215.1917 29.3879 67.3584 0.0000 3.3303 0.0000
# 2 29.3879 42.2555 34.2634 0.0000 -0.1790 0.0000
# 3 67.3584 34.2634 177.1246 0.0000 -1.9438 0.0000
# 4 0.0000 0.0000 0.0000 11.9412 0.0000 0.2427
# 5 3.3303 -0.1790 -1.9438 0.0000 28.4685 0.0000
# 6 0.0000 0.0000 0.0000 0.2427 0.0000 18.5881
#
#
#
# Elastic Compliance Matrix: (Units=1/GPa)
#
#
# Indices 1 2 3 4 5 6 
#
# 1 0.005509 -0.002525 -0.001615 0.000000 -0.000771 0.000000
# 2 -0.002525 0.029227 -0.004692 0.000000 0.000159 0.000000
# 3 -0.001615 -0.004692 0.007175 0.000000 0.000649 0.000000
# 4 0.000000 0.000000 0.000000 0.083766 0.000000 -0.001094
# 5 -0.000771 0.000159 0.000649 0.000000 0.035262 0.000000
# 6 0.000000 0.000000 0.000000 -0.001094 0.000000 0.053812
#
#
# Mechanical properties :
#
#
# Convention : Reuss Voigt Hill
#
# Bulk Modulus (GPa) = 41.24268 77.39902 59.32085
# Shear Modulus (GPa) = 20.79024 32.03703 26.41364
#
# Velocity S-wave (km/s) = 3.43239 4.26082 3.86884
# Velocity P-wave (km/s) = 6.25137 8.25022 7.31935
#
# Compressibility (1/GPa) = 0.02424673
#
# Stress axis : x y z
#
# Youngs Moduli (GPa) = 181.50897 34.21524 139.37990
#
# Poissons Ratio (x) = 0.08640 0.22511
# Poissons Ratio (y) = 0.45836 0.65392
# Poissons Ratio (z) = 0.29316 0.16052
#
# Static dielectric constant tensor:
#      x y z
#    x 4.485790 0.000000 0.042320 
#    y 0.000000 2.754330 0.000000 
#    z 0.042320 0.000000 3.325410 
# 
# 
# High freq. dielectric constant tensor:
#      x y z
#    x 1.732760 0.000000 0.001480 
#    y 0.000000 1.605440 0.000000 
#    z 0.001480 0.000000 1.692330 
# 
# From -- ./inp_files/297797.got.cif
#   From: 2010.06.25/outbox.cif.g09.slc.cpg/sg12_149_cif.got.tgz:297797.got - 2010.06.28 00:19:55.
