data_PCOD8078636
_publ_section_title
;
Structure prediction by ZEFSAII (Michael W. Deem and Ramdas Pophale) SiO2 
 PCOD8078636
Probable space group: C 2/M
;
_chemical_formula_sum "Si O2"
_cell_formula_units_Z 64
_cell_length_a 27.355803
_cell_length_b 9.131478
_cell_length_c 20.699593
_cell_angle_alpha 90.000000
_cell_angle_beta 119.207903
_cell_angle_gamma 90.000000
_cell_volume 4513.301475
_symmetry_space_group_name_H-M "C 2/M"
_symmetry_group_IT_number 12
_symmetry_cell_setting 'monoclinic'
loop_
_space_group_symop_operation_xyz
x,y,z
-x,y,-z
-x,-y,-z
x,-y,z
1/2+x,1/2+y,z
1/2-x,1/2+y,-z
1/2-x,1/2-y,-z
1/2+x,1/2-y,z
loop_
_atom_site_type_symbol
_atom_site_label
_atom_site_fract_x
_atom_site_fract_y
_atom_site_fract_z
Si Si1 0.082622 0.830665 0.439784
Si Si2 0.278593 0.325757 0.078777
Si Si3 0.208899 0.173748 0.522748
Si Si4 0.977529 0.672445 0.339107
Si Si5 0.787226 0.165983 0.329702
Si Si6 0.269484 0.162936 0.196852
Si Si7 0.124423 0.337208 0.808107
Si Si8 0.918784 0.163919 0.412518
O O1 0.145581 0.773997 0.466797
O O2 0.066504 0.803095 0.503809
O O3 0.038645 0.742703 0.366967
O O4 0.078323 0.000000 0.418902
O O5 0.273989 0.500000 0.071491
O O6 0.247101 0.265089 0.123161
O O7 0.344511 0.275368 0.122671
O O8 0.250000 0.250000 0.000000
O O9 0.250000 0.250000 0.500000
O O10 0.226251 0.221164 0.606566
O O11 0.212896 0.000000 0.518900
O O12 0.983831 0.500000 0.344560
O O13 0.936511 0.720574 0.253580
O O14 0.952038 0.722405 0.390560
O O15 0.754889 0.266347 0.256781
O O16 0.852899 0.176080 0.359119
O O17 0.766347 0.000000 0.306961
O O18 0.336926 0.151537 0.231564
O O19 0.242448 0.000000 0.175984
O O20 0.119935 0.500000 0.836845
O O21 0.938717 0.000000 0.406852
#
# Coordination Sequence:
#
# PCOD8078636 Si02
#       8
#     8   8   8   8   8   8   8   8
#     4   9  19  31  40  53  74 101 132 165 204 250
#     4  10  17  26  40  57  79 110 144 171 197 231
#     4   9  19  34  48  61  77 100 135 178 221 262
#     4  11  19  26  37  56  80 103 131 168 201 234
#     4   9  16  27  43  60  77 102 137 172 207 250
#     4   9  16  26  38  56  80 106 136 168 201 235
#     4   8  17  28  36  52  79 106 135 167 197 229
#     4   9  16  26  38  51  73 104 132 160 197 239
#
# _framework density 14.180306
#
# number of rings (size 3 to 8) (size 9 to 14) (size 15 to 20)
#    0.750    2.000    1.250    3.375    0.000    4.000 
#    0.000    2.500    0.000    0.000    0.000    0.000 
#    0.000    0.000    0.000    1.125    0.000   21.000 
#
# Total GULP energy -396457.433096 kJ/mol
# GULP energy per Si atom -12389.294784 kJ/mol
# Density = 1.414803 g / cm^3
# Si number density = 14.180306 Si / 1000 Ang^3
#
#
#
# Elastic Constant Matrix: (Units=GPa)
#
#
# Indices 1 2 3 4 5 6 
#
# 1 48.4913 29.0564 38.0157 0.0000 -2.3249 0.0000
# 2 29.0564 87.3226 58.0273 0.0000 2.2876 0.0000
# 3 38.0157 58.0273 101.6901 0.0000 3.3420 0.0000
# 4 0.0000 0.0000 0.0000 26.4131 0.0000 0.0873
# 5 -2.3249 2.2876 3.3420 0.0000 12.8694 0.0000
# 6 0.0000 0.0000 0.0000 0.0873 0.0000 19.6215
#
#
#
# Elastic Compliance Matrix: (Units=1/GPa)
#
#
# Indices 1 2 3 4 5 6 
#
# 1 0.031009 -0.004274 -0.009443 0.000000 0.008814 0.000000
# 2 -0.004274 0.019040 -0.009209 0.000000 -0.001765 0.000000
# 3 -0.009443 -0.009209 0.018781 0.000000 -0.004946 0.000000
# 4 0.000000 0.000000 0.000000 0.037861 0.000000 -0.000169
# 5 0.008814 -0.001765 -0.004946 0.000000 0.080894 0.000000
# 6 0.000000 0.000000 0.000000 -0.000169 0.000000 0.050965
#
#
# Mechanical properties :
#
#
# Convention : Reuss Voigt Hill
#
# Bulk Modulus (GPa) = 43.51954 54.18918 48.85436
# Shear Modulus (GPa) = 17.11970 19.27444 18.19707
#
# Velocity S-wave (km/s) = 3.47837 3.69079 3.58615
# Velocity P-wave (km/s) = 6.84754 7.51398 7.18849
#
# Compressibility (1/GPa) = 0.02297819
#
# Stress axis : x y z
#
# Youngs Moduli (GPa) = 32.24864 52.52235 53.24416
#
# Poissons Ratio (x) = 0.22447 0.50280
# Poissons Ratio (y) = 0.13783 0.49031
# Poissons Ratio (z) = 0.30453 0.48366
#
# Static dielectric constant tensor:
#      x y z
#    x 2.474850 0.000000 0.079500 
#    y 0.000000 2.791960 0.000000 
#    z 0.079500 0.000000 2.692410 
# 
# 
# High freq. dielectric constant tensor:
#      x y z
#    x 1.487820 0.000000 0.009060 
#    y 0.000000 1.548940 0.000000 
#    z 0.009060 0.000000 1.527690 
# 
# From -- ./inp_files/326603.got.cif
#   From: 2010.06.25/outbox.cif.g09.slc.cpg/sg12_164_cif.got.tgz:326603.got - 2010.06.28 00:19:55.
