data_PCOD8078791
_publ_section_title
;
Structure prediction by ZEFSAII (Michael W. Deem and Ramdas Pophale) SiO2 
 PCOD8078791
Probable space group: C 2/M
;
_chemical_formula_sum "Si O2"
_cell_formula_units_Z 56
_cell_length_a 28.762381
_cell_length_b 9.014819
_cell_length_c 28.984697
_cell_angle_alpha 90.000000
_cell_angle_beta 151.380426
_cell_angle_gamma 90.000000
_cell_volume 3599.802447
_symmetry_space_group_name_H-M "C 2/M"
_symmetry_group_IT_number 12
_symmetry_cell_setting 'monoclinic'
loop_
_space_group_symop_operation_xyz
x,y,z
-x,y,-z
-x,-y,-z
x,-y,z
1/2+x,1/2+y,z
1/2-x,1/2+y,-z
1/2-x,1/2-y,-z
1/2+x,1/2-y,z
loop_
_atom_site_type_symbol
_atom_site_label
_atom_site_fract_x
_atom_site_fract_y
_atom_site_fract_z
Si Si1 0.596757 0.172501 0.558649
Si Si2 0.459472 0.174825 0.859584
Si Si3 0.349505 0.330331 0.581585
Si Si4 0.380535 0.674803 0.707203
Si Si5 0.172098 0.174077 0.536800
Si Si6 0.297802 0.327455 0.778423
Si Si7 0.415172 0.663961 0.963502
O O1 0.500000 0.225578 0.500000
O O2 0.605130 0.266299 0.519309
O O3 0.685937 0.205910 0.670706
O O4 0.591701 0.000000 0.540917
O O5 0.459471 0.246699 0.808674
O O6 0.363045 0.228302 0.801719
O O7 0.458799 0.000000 0.854773
O O8 0.557879 0.223800 0.971886
O O9 0.321783 0.500000 0.561467
O O10 0.250000 0.250000 0.500000
O O11 0.414281 0.289899 0.683286
O O12 0.389375 0.296589 0.564644
O O13 0.378239 0.500000 0.715776
O O14 0.273879 0.739386 0.625003
O O15 0.193551 0.000000 0.562369
O O16 0.324571 0.500000 0.792832
O O17 0.318989 0.287280 0.850871
O O18 0.401649 0.500000 0.973221
O O19 0.500000 0.662877 0.000000
#
# Coordination Sequence:
#
# PCOD8078791 Si02
#       7
#     8   8   8   8   8   8   8
#     4  10  20  32  46  63  83 113 150 180 208 247
#     4  11  19  25  38  62  87 110 137 173 208 248
#     4   8  16  27  40  58  80 107 139 170 204 249
#     4  10  17  27  42  59  83 115 143 168 202 252
#     4  10  18  29  43  61  83 108 140 179 217 247
#     4   9  17  30  44  56  78 111 144 176 209 247
#     4   8  15  27  41  56  76 108 142 169 203 251
#
# _framework density 15.556409
#
# number of rings (size 3 to 8) (size 9 to 14) (size 15 to 20)
#    0.000    2.571    1.429    3.000    0.000    4.000 
#    0.000    0.000    0.000    0.000    0.000    0.000 
#    0.000    1.143    0.000    2.286    0.000    3.143 
#
# Total GULP energy -346884.663088 kJ/mol
# GULP energy per Si atom -12388.737967 kJ/mol
# Density = 1.552100 g / cm^3
# Si number density = 15.556409 Si / 1000 Ang^3
#
#
#
# Elastic Constant Matrix: (Units=GPa)
#
#
# Indices 1 2 3 4 5 6 
#
# 1 77.4666 40.4868 59.3918 0.0000 -27.4054 0.0000
# 2 40.4868 85.4314 45.8662 0.0000 -22.5339 -0.0001
# 3 59.3918 45.8662 100.0993 0.0000 -32.6056 0.0000
# 4 0.0000 0.0000 0.0000 17.2509 0.0000 -6.9409
# 5 -27.4054 -22.5339 -32.6056 0.0000 29.8091 0.0000
# 6 0.0000 -0.0001 0.0000 -6.9409 0.0000 16.6159
#
#
#
# Elastic Compliance Matrix: (Units=1/GPa)
#
#
# Indices 1 2 3 4 5 6 
#
# 1 0.026891 -0.004416 -0.010822 0.000000 0.009548 0.000000
# 2 -0.004416 0.017009 -0.003585 0.000000 0.004877 0.000000
# 3 -0.010822 -0.003585 0.021641 0.000000 0.011011 0.000000
# 4 0.000000 0.000000 0.000000 0.069679 0.000000 0.029107
# 5 0.009548 0.004877 0.011011 0.000000 0.058055 0.000000
# 6 0.000000 0.000000 0.000000 0.029107 0.000000 0.072342
#
#
# Mechanical properties :
#
#
# Convention : Reuss Voigt Hill
#
# Bulk Modulus (GPa) = 35.84882 61.60964 48.72923
# Shear Modulus (GPa) = 15.99683 20.55200 18.27441
#
# Velocity S-wave (km/s) = 3.21021 3.63867 3.43114
# Velocity P-wave (km/s) = 6.06919 7.57253 6.86215
#
# Compressibility (1/GPa) = 0.02789492
#
# Stress axis : x y z
#
# Youngs Moduli (GPa) = 37.18682 58.79230 46.20928
#
# Poissons Ratio (x) = 0.25960 0.50009
# Poissons Ratio (y) = 0.16420 0.16567
# Poissons Ratio (z) = 0.40244 0.21079
#
# Static dielectric constant tensor:
#      x y z
#    x 3.020120 0.000000 -0.649640 
#    y 0.000000 2.961810 0.000000 
#    z -0.649640 0.000000 3.295530 
# 
# 
# High freq. dielectric constant tensor:
#      x y z
#    x 1.555440 0.000000 -0.051490 
#    y 0.000000 1.603810 0.000000 
#    z -0.051490 0.000000 1.583140 
# 
# From -- ./inp_files/384412.got.cif
#   From: 2010.06.25/outbox.cif.g09.slc.cpg/sg12_193_cif.got.tgz:384412.got - 2010.06.28 00:19:55.
