data_PCOD8078172
_publ_section_title
;
Structure prediction by ZEFSAII (Michael W. Deem and Ramdas Pophale) SiO2 
 PCOD8078172
Probable space group: C 2/M
;
_chemical_formula_sum "Si O2"
_cell_formula_units_Z 64
_cell_length_a 27.279964
_cell_length_b 13.139734
_cell_length_c 12.521891
_cell_angle_alpha 90.000000
_cell_angle_beta 113.422398
_cell_angle_gamma 90.000000
_cell_volume 4118.635518
_symmetry_space_group_name_H-M "C 2/M"
_symmetry_group_IT_number 12
_symmetry_cell_setting 'monoclinic'
loop_
_space_group_symop_operation_xyz
x,y,z
-x,y,-z
-x,-y,-z
x,-y,z
1/2+x,1/2+y,z
1/2-x,1/2+y,-z
1/2-x,1/2-y,-z
1/2+x,1/2-y,z
loop_
_atom_site_type_symbol
_atom_site_label
_atom_site_fract_x
_atom_site_fract_y
_atom_site_fract_z
Si Si1 0.405118 0.115524 0.407549
Si Si2 0.953025 0.382489 0.228902
Si Si3 0.772226 0.383465 0.802599
Si Si4 0.299621 0.798866 0.240757
Si Si5 0.679995 0.191888 0.372242
Si Si6 0.159651 0.379825 0.938265
Si Si7 0.431203 0.881116 0.669470
Si Si8 0.755959 0.115822 0.614359
O O1 0.448742 0.132577 0.352863
O O2 0.356852 0.193696 0.346862
O O3 0.431964 0.136629 0.543431
O O4 0.382098 0.000000 0.380513
O O5 0.954996 0.500000 0.200860
O O6 0.900929 0.334258 0.124798
O O7 0.010776 0.338707 0.240364
O O8 0.755904 0.500000 0.806339
O O9 0.718572 0.318566 0.772468
O O10 0.796226 0.369059 0.706588
O O11 0.816861 0.348491 0.927146
O O12 0.301890 0.836560 0.120901
O O13 0.256920 0.864932 0.272067
O O14 0.615829 0.183070 0.315746
O O15 0.702791 0.139752 0.499254
O O16 0.695945 0.310880 0.382290
O O17 0.157162 0.500000 0.919442
O O18 0.422918 0.000000 0.689909
O O19 0.774483 0.000000 0.613369
#
# Coordination Sequence:
#
# PCOD8078172 Si02
#       8
#     8   8   8   8   8   8   8   8
#     4   9  15  24  40  64  90 109 131 173 222 256
#     4   8  15  25  40  62  85 111 140 173 212 254
#     4  10  20  31  41  58  90 124 146 172 208 253
#     4  10  17  27  46  66  83 110 147 179 213 253
#     4  10  20  29  42  63  88 117 144 168 208 259
#     4   9  17  30  45  63  88 114 143 178 217 253
#     4  10  16  25  41  62  89 114 139 169 209 258
#     4  10  18  30  45  63  87 112 141 178 213 249
#
# _framework density 15.539126
#
# number of rings (size 3 to 8) (size 9 to 14) (size 15 to 20)
#    0.000    2.500    1.250    3.750    0.000    1.500 
#    0.000    0.625    0.000    3.000    0.000    3.500 
#    0.000    9.000    0.000    0.000    0.000    0.000 
#
# Total GULP energy -396623.136440 kJ/mol
# GULP energy per Si atom -12394.473014 kJ/mol
# Density = 1.550376 g / cm^3
# Si number density = 15.539126 Si / 1000 Ang^3
#
#
#
# Elastic Constant Matrix: (Units=GPa)
#
#
# Indices 1 2 3 4 5 6 
#
# 1 103.6362 42.4133 24.7180 0.0000 12.8678 0.0000
# 2 42.4133 71.0361 23.5248 0.0000 6.9030 0.0000
# 3 24.7180 23.5248 55.1131 0.0000 4.1783 0.0000
# 4 0.0000 0.0000 0.0000 14.9390 0.0000 0.2210
# 5 12.8678 6.9030 4.1783 0.0000 14.7011 0.0000
# 6 0.0000 0.0000 0.0000 0.2210 0.0000 19.8489
#
#
#
# Elastic Compliance Matrix: (Units=1/GPa)
#
#
# Indices 1 2 3 4 5 6 
#
# 1 0.014095 -0.006658 -0.002843 0.000000 -0.008403 0.000000
# 2 -0.006658 0.020045 -0.005415 0.000000 -0.002045 0.000000
# 3 -0.002843 -0.005415 0.021819 0.000000 -0.001171 0.000000
# 4 0.000000 0.000000 0.000000 0.066950 0.000000 -0.000745
# 5 -0.008403 -0.002045 -0.001171 0.000000 0.076670 0.000000
# 6 0.000000 0.000000 0.000000 -0.000745 0.000000 0.050389
#
#
# Mechanical properties :
#
#
# Convention : Reuss Voigt Hill
#
# Bulk Modulus (GPa) = 38.27236 45.67752 41.97494
# Shear Modulus (GPa) = 17.33051 19.17310 18.25180
#
# Velocity S-wave (km/s) = 3.34321 3.51644 3.43092
# Velocity P-wave (km/s) = 6.29173 6.77836 6.53957
#
# Compressibility (1/GPa) = 0.02612852
#
# Stress axis : x y z
#
# Youngs Moduli (GPa) = 70.94594 49.88897 45.83057
#
# Poissons Ratio (x) = 0.33215 0.13028
# Poissons Ratio (y) = 0.47234 0.24817
# Poissons Ratio (z) = 0.20168 0.27014
#
# Static dielectric constant tensor:
#      x y z
#    x 3.033830 0.000000 0.053810 
#    y 0.000000 2.716530 0.000000 
#    z 0.053810 0.000000 3.040810 
# 
# 
# High freq. dielectric constant tensor:
#      x y z
#    x 1.591830 0.000000 -0.004440 
#    y 0.000000 1.553980 0.000000 
#    z -0.004440 0.000000 1.596410 
# 
# From -- ./inp_files/182127.got.cif
#   From: 2010.06.25/outbox.cif.g09.slc.cpg/sg12_92_cif.got.tgz:182127.got - 2010.06.28 00:19:55.
