data_PCOD8078528
_publ_section_title
;
Structure prediction by ZEFSAII (Michael W. Deem and Ramdas Pophale) SiO2 
 PCOD8078528
Probable space group: C 2/M
;
_chemical_formula_sum "Si O2"
_cell_formula_units_Z 40
_cell_length_a 5.226261
_cell_length_b 35.168171
_cell_length_c 14.643720
_cell_angle_alpha 90.000000
_cell_angle_beta 65.835860
_cell_angle_gamma 90.000000
_cell_volume 2455.649522
_symmetry_space_group_name_H-M "C 2/M"
_symmetry_group_IT_number 12
_symmetry_cell_setting 'monoclinic'
loop_
_space_group_symop_operation_xyz
x,y,z
-x,y,-z
-x,-y,-z
x,-y,z
1/2+x,1/2+y,z
1/2-x,1/2+y,-z
1/2-x,1/2-y,-z
1/2+x,1/2-y,z
loop_
_atom_site_type_symbol
_atom_site_label
_atom_site_fract_x
_atom_site_fract_y
_atom_site_fract_z
Si Si1 0.893806 0.351972 0.613105
Si Si2 0.219166 0.044746 0.231104
Si Si3 0.615240 0.608323 0.380635
Si Si4 0.559925 0.765223 0.611970
Si Si5 0.861594 0.044844 0.111326
O O1 0.070039 0.374447 0.664231
O O2 0.947829 0.307493 0.616945
O O3 0.000000 0.365889 0.500000
O O4 0.566388 0.363724 0.659354
O O5 0.121699 0.066269 0.336852
O O6 0.537039 0.056234 0.161518
O O7 0.025674 0.059516 0.176541
O O8 0.185910 0.000000 0.254906
O O9 0.500000 0.605646 0.500000
O O10 0.750000 0.750000 0.500000
O O11 0.276339 0.739451 0.665214
O O12 0.898405 0.000000 0.102334
O O13 0.000000 0.062888 0.000000
#
# Coordination Sequence:
#
# PCOD8078528 Si02
#       5
#     8   8   8   8   8
#     4  10  18  29  41  58  85 114 154 195 218 259
#     4  10  19  32  48  66  89 118 157 196 230 265
#     4  10  21  31  43  60  88 128 164 193 212 257
#     4  10  17  24  41  61  80 104 142 198 221 263
#     4   9  17  30  50  72  89 105 136 191 251 296
#
# _framework density 16.288969999999999
#
# number of rings (size 3 to 8) (size 9 to 14) (size 15 to 20)
#    0.000    2.200    2.000    3.000    5.600    2.800 
#    0.000    0.000    0.000    7.200    0.000    0.000 
#    0.000    0.000    0.000    0.000    0.000  252.000 
#
# Total GULP energy -247766.069996 kJ/mol
# GULP energy per Si atom -12388.303500 kJ/mol
# Density = 1.625190 g / cm^3
# Si number density = 16.288970 Si / 1000 Ang^3
#
#
#
# Elastic Constant Matrix: (Units=GPa)
#
#
# Indices 1 2 3 4 5 6 
#
# 1 158.2657 42.0691 23.5391 0.0000 14.7346 0.0000
# 2 42.0691 79.7809 29.8070 0.0000 4.9914 0.0000
# 3 23.5391 29.8070 36.4504 0.0000 7.4833 0.0000
# 4 0.0000 0.0000 0.0000 3.6783 0.0000 2.7787
# 5 14.7346 4.9914 7.4833 0.0000 14.5330 0.0000
# 6 0.0000 0.0000 0.0000 2.7787 0.0000 21.6991
#
#
#
# Elastic Compliance Matrix: (Units=1/GPa)
#
#
# Indices 1 2 3 4 5 6 
#
# 1 0.007976 -0.003415 -0.001050 0.000000 -0.006373 0.000000
# 2 -0.003415 0.019542 -0.014658 0.000000 0.004298 0.000000
# 3 -0.001050 -0.014658 0.043439 0.000000 -0.016269 0.000000
# 4 0.000000 0.000000 0.000000 0.300977 0.000000 -0.038542
# 5 -0.006373 0.004298 -0.016269 0.000000 0.082171 0.000000
# 6 0.000000 0.000000 0.000000 -0.038542 0.000000 0.051020
#
#
# Mechanical properties :
#
#
# Convention : Reuss Voigt Hill
#
# Bulk Modulus (GPa) = 30.56970 51.70306 41.13638
# Shear Modulus (GPa) = 9.02082 19.92088 14.47085
#
# Velocity S-wave (km/s) = 2.35585 3.50089 2.98381
# Velocity P-wave (km/s) = 5.11936 6.93914 6.09752
#
# Compressibility (1/GPa) = 0.03271212
#
# Stress axis : x y z
#
# Youngs Moduli (GPa) = 125.38214 51.17110 23.02098
#
# Poissons Ratio (x) = 0.17473 0.02417
# Poissons Ratio (y) = 0.42814 0.33743
# Poissons Ratio (z) = 0.13163 0.75005
#
# Static dielectric constant tensor:
#      x y z
#    x 6.549330 0.000000 0.357460 
#    y 0.000000 2.872130 0.000000 
#    z 0.357460 0.000000 2.702680 
# 
# 
# High freq. dielectric constant tensor:
#      x y z
#    x 1.667470 0.000000 0.010440 
#    y 0.000000 1.605610 0.000000 
#    z 0.010440 0.000000 1.559670 
# 
# From -- ./inp_files/115899.got.cif
#   From: 2010.06.25/outbox.cif.g09.slc.cpg/sg12_58_cif.got.tgz:115899.got - 2010.06.28 00:19:55.
