data_PCOD8078450
_publ_section_title
;
Structure prediction by ZEFSAII (Michael W. Deem and Ramdas Pophale) SiO2 
 PCOD8078450
Probable space group: C 2/M
;
_chemical_formula_sum "Si O2"
_cell_formula_units_Z 40
_cell_length_a 18.098552
_cell_length_b 25.450159
_cell_length_c 10.212904
_cell_angle_alpha 90.000000
_cell_angle_beta 27.905133
_cell_angle_gamma 90.000000
_cell_volume 2201.596733
_symmetry_space_group_name_H-M "C 2/M"
_symmetry_group_IT_number 12
_symmetry_cell_setting 'monoclinic'
loop_
_space_group_symop_operation_xyz
x,y,z
-x,y,-z
-x,-y,-z
x,-y,z
1/2+x,1/2+y,z
1/2-x,1/2+y,-z
1/2-x,1/2-y,-z
1/2+x,1/2-y,z
loop_
_atom_site_type_symbol
_atom_site_label
_atom_site_fract_x
_atom_site_fract_y
_atom_site_fract_z
Si Si1 0.690914 0.500000 0.695477
Si Si2 0.604909 0.288639 0.209164
Si Si3 0.900058 0.090822 0.787346
Si Si4 0.390685 0.402784 0.295737
Si Si5 0.686925 0.000000 0.204008
Si Si6 0.605297 0.712214 0.707405
O O1 0.740422 0.447081 0.537429
O O2 0.764401 0.500000 0.721696
O O3 0.500000 0.500000 0.000000
O O4 0.500000 0.282953 0.500000
O O5 0.662150 0.349157 0.103931
O O6 0.503346 0.270233 0.243643
O O7 0.750000 0.250000 0.000000
O O8 0.000000 0.081112 0.500000
O O9 0.011340 0.076047 0.734518
O O10 0.750474 0.051690 0.028482
O O11 0.318721 0.345538 0.440582
O O12 0.500000 0.393343 0.000000
O O13 0.500000 0.000000 0.500000
O O14 0.750000 0.750000 0.500000
O O15 0.500000 0.713870 0.000000
#
# Coordination Sequence:
#
# PCOD8078450 Si02
#       6
#     4   8   8   8   4   8
#     4  10  16  34  61  79 103 145 191 215 267 341
#     4  10  21  37  56  81 114 152 188 225 282 337
#     4  10  20  36  58  83 111 150 191 226 273 347
#     4   9  16  32  60  80  98 147 198 213 253 341
#     4  12  23  36  56  92 117 136 185 252 288 320
#     4  10  20  34  55  83 109 139 189 231 268 321
#
# _framework density 18.168631999999999
#
# number of rings (size 3 to 8) (size 9 to 14) (size 15 to 20)
#    0.000    2.000    4.000    1.500    0.000    0.800 
#    3.600    0.000    0.000    1.200    0.000    0.000 
#    0.000    0.000    0.000    0.000    0.000    0.000 
#
# Total GULP energy -247861.830511 kJ/mol
# GULP energy per Si atom -12393.091526 kJ/mol
# Density = 1.812728 g / cm^3
# Si number density = 18.168632 Si / 1000 Ang^3
#
#
#
# Elastic Constant Matrix: (Units=GPa)
#
#
# Indices 1 2 3 4 5 6 
#
# 1 144.2152 54.7676 51.4413 -0.0055 2.6478 0.0000
# 2 54.7676 148.6226 60.8017 -0.0026 -22.8527 0.0002
# 3 51.4413 60.8017 78.0381 0.0151 -8.1271 0.0030
# 4 -0.0055 -0.0026 0.0151 31.8984 -0.0048 0.5908
# 5 2.6478 -22.8527 -8.1271 -0.0048 26.8317 0.0002
# 6 0.0000 0.0002 0.0030 0.5908 0.0002 31.7912
#
#
#
# Elastic Compliance Matrix: (Units=1/GPa)
#
#
# Indices 1 2 3 4 5 6 
#
# 1 0.009659 -0.002105 -0.005176 0.000003 -0.004314 0.000000
# 2 -0.002105 0.011478 -0.006728 0.000005 0.007946 0.000000
# 3 -0.005176 -0.006728 0.021606 -0.000011 0.001325 -0.000002
# 4 0.000003 0.000005 -0.000011 0.031360 0.000006 -0.000583
# 5 -0.004314 0.007946 0.001325 0.000006 0.044864 -0.000001
# 6 0.000000 0.000000 -0.000002 -0.000583 -0.000001 0.031466
#
#
# Mechanical properties :
#
#
# Convention : Reuss Voigt Hill
#
# Bulk Modulus (GPa) = 67.91098 78.32191 73.11645
# Shear Modulus (GPa) = 27.26858 31.69529 29.48193
#
# Velocity S-wave (km/s) = 3.87830 4.18126 4.03262
# Velocity P-wave (km/s) = 7.58381 8.15552 7.87486
#
# Compressibility (1/GPa) = 0.01472516
#
# Stress axis : x y z
#
# Youngs Moduli (GPa) = 103.52962 87.11985 46.28292
#
# Poissons Ratio (x) = 0.18340 0.23957
# Poissons Ratio (y) = 0.21794 0.31139
# Poissons Ratio (z) = 0.53589 0.58614
#
# Static dielectric constant tensor:
#      x y z
#    x 3.585430 -0.000020 0.132550 
#    y -0.000020 4.442580 -0.000080 
#    z 0.132550 -0.000080 2.927690 
# 
# 
# High freq. dielectric constant tensor:
#      x y z
#    x 1.719890 0.000000 0.022930 
#    y 0.000000 1.729370 0.000000 
#    z 0.022930 0.000000 1.653440 
# 
# From -- ./inp_files/68477.got.cif
#   From: 2010.06.25/outbox.cif.g09.slc.cpg/sg12_35_cif.got.tgz:68477.got - 2010.06.28 00:19:55.
