data_PCOD8078775
_publ_section_title
;
Structure prediction by ZEFSAII (Michael W. Deem and Ramdas Pophale) SiO2 
 PCOD8078775
Probable space group: C 2/M
;
_chemical_formula_sum "Si O2"
_cell_formula_units_Z 40
_cell_length_a 14.338284
_cell_length_b 8.781848
_cell_length_c 20.151357
_cell_angle_alpha 90.000000
_cell_angle_beta 47.069330
_cell_angle_gamma 90.000000
_cell_volume 1857.822889
_symmetry_space_group_name_H-M "C 2/M"
_symmetry_group_IT_number 12
_symmetry_cell_setting 'monoclinic'
loop_
_space_group_symop_operation_xyz
x,y,z
-x,y,-z
-x,-y,-z
x,-y,z
1/2+x,1/2+y,z
1/2-x,1/2+y,-z
1/2-x,1/2-y,-z
1/2+x,1/2-y,z
loop_
_atom_site_type_symbol
_atom_site_label
_atom_site_fract_x
_atom_site_fract_y
_atom_site_fract_z
Si Si1 0.186164 0.178159 0.594479
Si Si2 0.980689 0.322895 0.099775
Si Si3 0.898343 0.820362 0.748881
Si Si4 0.190863 0.179338 0.929906
Si Si5 0.766146 0.325470 0.297785
O O1 0.250000 0.250000 0.500000
O O2 0.262950 0.225227 0.623350
O O3 0.042091 0.238257 0.671986
O O4 0.189816 0.000000 0.583279
O O5 0.975580 0.500000 0.081666
O O6 0.899200 0.224370 0.087567
O O7 0.913949 0.300675 0.203613
O O8 0.127022 0.260563 0.026379
O O9 0.832716 0.739067 0.844284
O O10 0.827562 0.772866 0.715341
O O11 0.889101 0.000000 0.765268
O O12 0.195745 0.000000 0.939336
O O13 0.740263 0.500000 0.329102
#
# Coordination Sequence:
#
# PCOD8078775 Si02
#       5
#     8   8   8   8   8
#     4  11  24  41  61  83 110 142 182 232 284 335
#     4   9  16  29  50  76 112 155 187 216 266 333
#     4   9  20  39  59  80 111 153 187 218 273 341
#     4  10  17  26  48  82 114 144 184 233 270 309
#     4   9  19  37  60  83 110 146 188 227 269 324
#
# _framework density 21.530577000000001
#
# number of rings (size 3 to 8) (size 9 to 14) (size 15 to 20)
#    0.000    2.400    0.000    5.400    0.000    6.400 
#    0.000    5.000    0.000    0.000    0.000    0.000 
#    0.000    0.000    0.000    0.000    0.000    0.000 
#
# Total GULP energy -247920.414019 kJ/mol
# GULP energy per Si atom -12396.020701 kJ/mol
# Density = 2.148157 g / cm^3
# Si number density = 21.530577 Si / 1000 Ang^3
#
#
#
# Elastic Constant Matrix: (Units=GPa)
#
#
# Indices 1 2 3 4 5 6 
#
# 1 24.4780 7.4801 10.2986 0.0000 -5.7882 0.0000
# 2 7.4801 78.1575 40.8159 0.0000 -1.5822 0.0001
# 3 10.2986 40.8159 98.5526 0.0000 1.7970 0.0000
# 4 0.0000 0.0000 0.0000 40.1752 0.0000 -0.1500
# 5 -5.7882 -1.5822 1.7970 0.0000 33.6116 0.0000
# 6 0.0000 0.0001 0.0000 -0.1500 0.0000 21.7237
#
#
#
# Elastic Compliance Matrix: (Units=1/GPa)
#
#
# Indices 1 2 3 4 5 6 
#
# 1 0.045025 -0.002064 -0.003994 0.000000 0.007870 0.000000
# 2 -0.002064 0.016463 -0.006617 0.000000 0.000773 0.000000
# 3 -0.003994 -0.006617 0.013336 0.000000 -0.001712 0.000000
# 4 0.000000 0.000000 0.000000 0.024892 0.000000 0.000172
# 5 0.007870 0.000773 -0.001712 0.000000 0.031235 0.000000
# 6 0.000000 0.000000 0.000000 0.000172 0.000000 0.046034
#
#
# Mechanical properties :
#
#
# Convention : Reuss Voigt Hill
#
# Bulk Modulus (GPa) = 20.21226 35.37523 27.79375
# Shear Modulus (GPa) = 22.84928 28.60834 25.72881
#
# Velocity S-wave (km/s) = 3.26121 3.64913 3.46061
# Velocity P-wave (km/s) = 4.85683 5.84985 5.37632
#
# Compressibility (1/GPa) = 0.04947492
#
# Stress axis : x y z
#
# Youngs Moduli (GPa) = 22.20986 60.74111 74.98640
#
# Poissons Ratio (x) = 0.12539 0.29947
# Poissons Ratio (y) = 0.04585 0.49616
# Poissons Ratio (z) = 0.08870 0.40191
#
# Static dielectric constant tensor:
#      x y z
#    x 3.619700 0.000000 -0.263450 
#    y 0.000000 3.676190 0.000000 
#    z -0.263450 0.000000 4.351760 
# 
# 
# High freq. dielectric constant tensor:
#      x y z
#    x 1.824080 0.000000 -0.004090 
#    y 0.000000 1.836640 0.000000 
#    z -0.004090 0.000000 1.856890 
# 
# From -- ./inp_files/220237.got.cif
#   From: 2010.06.25/outbox.cif.g09.slc.cpg/sg12_111_cif.got.tgz:220237.got - 2010.06.28 00:19:55.
