data_PCOD8078150
_publ_section_title
;
Structure prediction by ZEFSAII (Michael W. Deem and Ramdas Pophale) SiO2 
 PCOD8078150
Probable space group: C 2/M
;
_chemical_formula_sum "Si O2"
_cell_formula_units_Z 56
_cell_length_a 27.508638
_cell_length_b 9.636015
_cell_length_c 14.221939
_cell_angle_alpha 90.000000
_cell_angle_beta 75.557685
_cell_angle_gamma 90.000000
_cell_volume 3650.730742
_symmetry_space_group_name_H-M "C 2/M"
_symmetry_group_IT_number 12
_symmetry_cell_setting 'monoclinic'
loop_
_space_group_symop_operation_xyz
x,y,z
-x,y,-z
-x,-y,-z
x,-y,z
1/2+x,1/2+y,z
1/2-x,1/2+y,-z
1/2-x,1/2-y,-z
1/2+x,1/2-y,z
loop_
_atom_site_type_symbol
_atom_site_label
_atom_site_fract_x
_atom_site_fract_y
_atom_site_fract_z
Si Si1 0.068040 0.839914 0.883658
Si Si2 0.955180 0.839341 0.894083
Si Si3 0.622484 0.845286 0.721189
Si Si4 0.962356 0.344237 0.389684
Si Si5 0.114920 0.336843 0.429695
Si Si6 0.433956 0.163724 0.733062
Si Si7 0.300345 0.836365 0.475003
O O1 0.113522 0.755960 0.813590
O O2 0.013389 0.792938 0.872019
O O3 0.076383 0.000000 0.855525
O O4 0.071331 0.813828 0.993309
O O5 0.924619 0.746676 0.833752
O O6 0.951345 0.000000 0.866998
O O7 0.572644 0.840638 0.683823
O O8 0.669915 0.799623 0.635164
O O9 0.631426 0.000000 0.756207
O O10 0.976565 0.500000 0.412156
O O11 0.933216 0.271411 0.491278
O O12 0.015180 0.273356 0.338012
O O13 0.112434 0.500000 0.452703
O O14 0.110945 0.305444 0.320173
O O15 0.167126 0.284853 0.449943
O O16 0.437636 0.000000 0.754238
O O17 0.250000 0.750000 0.500000
O O18 0.288572 0.000000 0.486287
#
# Coordination Sequence:
#
# PCOD8078150 Si02
#       7
#     8   8   8   8   8   8   8
#     4   9  17  29  42  57  83 122 155 175 208 255
#     4   9  18  29  39  56  88 123 150 178 210 247
#     4   9  16  27  44  66  88 109 142 186 218 242
#     4   8  13  22  37  60  86 111 139 171 205 243
#     4   8  15  26  41  62  87 112 141 176 211 252
#     4  10  16  24  42  64  83 113 151 177 204 246
#     4   9  18  32  48  67  90 113 139 177 221 261
#
# _framework density 15.339394
#
# number of rings (size 3 to 8) (size 9 to 14) (size 15 to 20)
#    0.000    3.143    1.429    3.000    0.000    2.857 
#    0.000    2.143    0.000    2.571    0.000    1.000 
#    0.000    0.000    0.000    0.000    0.000    0.000 
#
# Total GULP energy -346933.092888 kJ/mol
# GULP energy per Si atom -12390.467603 kJ/mol
# Density = 1.530448 g / cm^3
# Si number density = 15.339394 Si / 1000 Ang^3
#
#
#
# Elastic Constant Matrix: (Units=GPa)
#
#
# Indices 1 2 3 4 5 6 
#
# 1 71.1193 33.5894 45.8759 0.0000 -3.1629 0.0000
# 2 33.5894 52.0479 51.9029 0.0000 -1.3483 0.0000
# 3 45.8759 51.9029 100.3255 0.0000 5.5463 0.0000
# 4 0.0000 0.0000 0.0000 20.0923 0.0000 -3.3779
# 5 -3.1629 -1.3483 5.5463 0.0000 19.1876 0.0000
# 6 0.0000 0.0000 0.0000 -3.3779 0.0000 19.9930
#
#
#
# Elastic Compliance Matrix: (Units=1/GPa)
#
#
# Indices 1 2 3 4 5 6 
#
# 1 0.022034 -0.007797 -0.006313 0.000000 0.004909 0.000000
# 2 -0.007797 0.043989 -0.019605 0.000000 0.007473 0.000000
# 3 -0.006313 -0.019605 0.023506 0.000000 -0.009213 0.000000
# 4 0.000000 0.000000 0.000000 0.051225 0.000000 0.008655
# 5 0.004909 0.007473 -0.009213 0.000000 0.056115 0.000000
# 6 0.000000 0.000000 0.000000 0.008655 0.000000 0.051480
#
#
# Mechanical properties :
#
#
# Convention : Reuss Voigt Hill
#
# Bulk Modulus (GPa) = 45.25176 54.02547 49.63861
# Shear Modulus (GPa) = 15.47283 17.99620 16.73452
#
# Velocity S-wave (km/s) = 3.17945 3.42892 3.30654
# Velocity P-wave (km/s) = 6.56071 7.13955 6.85624
#
# Compressibility (1/GPa) = 0.02209859
#
# Stress axis : x y z
#
# Youngs Moduli (GPa) = 45.38430 22.73280 42.54145
#
# Poissons Ratio (x) = 0.17725 0.26857
# Poissons Ratio (y) = 0.35386 0.83404
# Poissons Ratio (z) = 0.28652 0.44569
#
# Static dielectric constant tensor:
#      x y z
#    x 2.697080 0.000000 0.057690 
#    y 0.000000 2.676490 0.000000 
#    z 0.057690 0.000000 2.935240 
# 
# 
# High freq. dielectric constant tensor:
#      x y z
#    x 1.552350 0.000000 0.006510 
#    y 0.000000 1.559220 0.000000 
#    z 0.006510 0.000000 1.587080 
# 
# From -- ./inp_files/247802.got.cif
#   From: 2010.06.25/outbox.cif.g09.slc.cpg/sg12_124_cif.got.tgz:247802.got - 2010.06.28 00:19:55.
