data_PCOD8078448
_publ_section_title
;
Structure prediction by ZEFSAII (Michael W. Deem and Ramdas Pophale) SiO2 
 PCOD8078448
Probable space group: C 2/M
;
_chemical_formula_sum "Si O2"
_cell_formula_units_Z 56
_cell_length_a 18.118816
_cell_length_b 16.135995
_cell_length_c 11.631848
_cell_angle_alpha 90.000000
_cell_angle_beta 125.190698
_cell_angle_gamma 90.000000
_cell_volume 2779.221025
_symmetry_space_group_name_H-M "C 2/M"
_symmetry_group_IT_number 12
_symmetry_cell_setting 'monoclinic'
loop_
_space_group_symop_operation_xyz
x,y,z
-x,y,-z
-x,-y,-z
x,-y,z
1/2+x,1/2+y,z
1/2-x,1/2+y,-z
1/2-x,1/2-y,-z
1/2+x,1/2-y,z
loop_
_atom_site_type_symbol
_atom_site_label
_atom_site_fract_x
_atom_site_fract_y
_atom_site_fract_z
Si Si1 0.096642 0.326824 0.055229
Si Si2 0.647131 0.251782 0.874264
Si Si3 0.251517 0.593998 0.323782
Si Si4 0.604429 0.736917 0.586302
Si Si5 0.786496 0.666523 0.479937
Si Si6 0.437777 0.407358 0.112178
Si Si7 0.379590 0.647493 0.820012
O O1 0.177974 0.388825 0.158025
O O2 0.110945 0.244300 0.143331
O O3 0.094080 0.305813 0.917178
O O4 0.000000 0.367101 0.000000
O O5 0.635175 0.220802 0.733730
O O6 0.611841 0.346579 0.844067
O O7 0.750000 0.250000 0.000000
O O8 0.285825 0.500000 0.341612
O O9 0.337245 0.654789 0.389066
O O10 0.200873 0.603564 0.402493
O O11 0.500000 0.711945 0.500000
O O12 0.621360 0.808482 0.505022
O O13 0.750000 0.750000 0.500000
O O14 0.715578 0.628566 0.324959
O O15 0.432099 0.500000 0.156913
O O16 0.541637 0.379018 0.196457
O O17 0.388273 0.405159 0.944153
#
# Coordination Sequence:
#
# PCOD8078448 Si02
#       7
#     8   8   8   8   8   8   8
#     4  11  20  37  67  88 115 160 217 257 294 365
#     4  11  21  39  60  89 124 168 205 245 309 375
#     4  11  25  42  61  92 129 159 204 263 315 371
#     4  11  24  39  65  95 123 163 210 256 311 378
#     4  10  21  38  62  84 117 163 212 246 294 371
#     4  10  21  32  56  94 125 146 194 261 316 358
#     4  10  16  34  59  87 116 155 202 248 296 360
#
# _framework density 20.149532000000001
#
# number of rings (size 3 to 8) (size 9 to 14) (size 15 to 20)
#    0.000    1.429    7.143    1.714    6.000    2.286 
#    0.000    0.000    0.000    1.286    0.000    0.000 
#    0.000    0.000    0.000    0.000    0.000    0.000 
#
# Total GULP energy -347140.683729 kJ/mol
# GULP energy per Si atom -12397.881562 kJ/mol
# Density = 2.010367 g / cm^3
# Si number density = 20.149532 Si / 1000 Ang^3
#
#
#
# Elastic Constant Matrix: (Units=GPa)
#
#
# Indices 1 2 3 4 5 6 
#
# 1 121.1031 30.2483 35.4629 0.0000 1.3156 0.0000
# 2 30.2483 64.7637 20.8928 0.0000 0.9134 0.0000
# 3 35.4629 20.8928 79.1103 0.0000 -4.2754 0.0000
# 4 0.0000 0.0000 0.0000 20.0184 0.0000 1.4910
# 5 1.3156 0.9134 -4.2754 0.0000 35.3688 0.0000
# 6 0.0000 0.0000 0.0000 1.4910 0.0000 16.5313
#
#
#
# Elastic Compliance Matrix: (Units=1/GPa)
#
#
# Indices 1 2 3 4 5 6 
#
# 1 0.010239 -0.003584 -0.003683 0.000000 -0.000734 0.000000
# 2 -0.003584 0.018167 -0.003231 0.000000 -0.000726 0.000000
# 3 -0.003683 -0.003231 0.015256 0.000000 0.002065 0.000000
# 4 0.000000 0.000000 0.000000 0.050292 0.000000 -0.004536
# 5 -0.000734 -0.000726 0.002065 0.000000 0.028569 0.000000
# 6 0.000000 0.000000 0.000000 -0.004536 0.000000 0.060901
#
#
# Mechanical properties :
#
#
# Convention : Reuss Voigt Hill
#
# Bulk Modulus (GPa) = 44.11585 48.68724 46.40155
# Shear Modulus (GPa) = 23.58771 26.27522 24.93147
#
# Velocity S-wave (km/s) = 3.42516 3.61503 3.52138
# Velocity P-wave (km/s) = 6.13059 6.45290 6.29381
#
# Compressibility (1/GPa) = 0.02266759
#
# Stress axis : x y z
#
# Youngs Moduli (GPa) = 97.66550 55.04491 65.54634
#
# Poissons Ratio (x) = 0.19726 0.24141
# Poissons Ratio (y) = 0.35000 0.21176
# Poissons Ratio (z) = 0.35971 0.17783
#
# Static dielectric constant tensor:
#      x y z
#    x 4.285090 0.000000 -0.754320 
#    y 0.000000 3.417180 0.000000 
#    z -0.754320 0.000000 4.746360 
# 
# 
# High freq. dielectric constant tensor:
#      x y z
#    x 1.788290 0.000000 -0.006850 
#    y 0.000000 1.745490 0.000000 
#    z -0.006850 0.000000 1.787590 
# 
# From -- ./inp_files/157941.got.cif
#   From: 2010.06.25/outbox.cif.g09.slc.cpg/sg12_79_cif.got.tgz:157941.got - 2010.06.28 00:19:55.
