data_PCOD8078424
_publ_section_title
;
Structure prediction by ZEFSAII (Michael W. Deem and Ramdas Pophale) SiO2 
 PCOD8078424
Probable space group: C 2/M
;
_chemical_formula_sum "Si O2"
_cell_formula_units_Z 52
_cell_length_a 18.857837
_cell_length_b 11.597026
_cell_length_c 14.424827
_cell_angle_alpha 90.000000
_cell_angle_beta 73.493455
_cell_angle_gamma 90.000000
_cell_volume 3024.623956
_symmetry_space_group_name_H-M "C 2/M"
_symmetry_group_IT_number 12
_symmetry_cell_setting 'monoclinic'
loop_
_space_group_symop_operation_xyz
x,y,z
-x,y,-z
-x,-y,-z
x,-y,z
1/2+x,1/2+y,z
1/2-x,1/2+y,-z
1/2-x,1/2-y,-z
1/2+x,1/2-y,z
loop_
_atom_site_type_symbol
_atom_site_label
_atom_site_fract_x
_atom_site_fract_y
_atom_site_fract_z
Si Si1 0.346744 0.500000 0.838821
Si Si2 0.790818 0.733272 0.278400
Si Si3 0.313913 0.127123 0.807111
Si Si4 0.785639 0.500000 0.990776
Si Si5 0.695316 0.000000 0.812462
Si Si6 0.593256 0.363188 0.647094
Si Si7 0.156434 0.132326 0.427163
Si Si8 0.071239 0.196200 0.280655
O O1 0.285950 0.500000 0.776970
O O2 0.397077 0.612867 0.811452
O O3 0.302507 0.500000 0.952773
O O4 0.751225 0.789988 0.204147
O O5 0.831407 0.615288 0.230278
O O6 0.850349 0.822001 0.295186
O O7 0.728971 0.707931 0.379031
O O8 0.394223 0.178085 0.751253
O O9 0.308181 0.000000 0.762033
O O10 0.305015 0.113507 0.922190
O O11 0.832331 0.500000 0.069684
O O12 0.581298 0.500000 0.658385
O O13 0.623064 0.323900 0.536308
O O14 0.516616 0.297380 0.693668
O O15 0.093230 0.147831 0.373307
O O16 0.180453 0.000000 0.427686
#
# Coordination Sequence:
#
# PCOD8078424 Si02
#       8
#     4   8   8   4   4   8   8   8
#     4  10  16  32  59  82  97 125 176 235 251 304
#     4  11  19  35  54  78 114 139 168 222 263 309
#     4   9  19  34  56  79 105 132 174 221 264 311
#     4   8  18  34  56  92  90 128 188 220 258 312
#     4  10  18  34  60  81  98 133 181 225 256 302
#     4  11  23  32  52  80 111 146 174 210 267 316
#     4  10  17  34  56  79 102 138 191 218 241 301
#     4  11  18  34  55  78 112 138 173 222 261 306
#
# _framework density 17.192221
#
# number of rings (size 3 to 8) (size 9 to 14) (size 15 to 20)
#    0.923    0.923    5.385    1.385    0.000    3.692 
#    1.385    0.000    1.692    9.231    0.000    0.000 
#    0.000    0.000    0.000    0.000    0.000    0.000 
#
# Total GULP energy -322306.287197 kJ/mol
# GULP energy per Si atom -12396.395661 kJ/mol
# Density = 1.715309 g / cm^3
# Si number density = 17.192221 Si / 1000 Ang^3
#
#
#
# Elastic Constant Matrix: (Units=GPa)
#
#
# Indices 1 2 3 4 5 6 
#
# 1 78.7488 14.7175 29.3266 0.0000 0.8840 0.0000
# 2 14.7175 80.6963 28.8082 0.0000 -2.2628 0.0000
# 3 29.3266 28.8082 97.2070 0.0000 -4.3422 0.0000
# 4 0.0000 0.0000 0.0000 24.7272 0.0000 1.7363
# 5 0.8840 -2.2628 -4.3422 0.0000 8.7240 0.0000
# 6 0.0000 0.0000 0.0000 1.7363 0.0000 25.1888
#
#
#
# Elastic Compliance Matrix: (Units=1/GPa)
#
#
# Indices 1 2 3 4 5 6 
#
# 1 0.014537 -0.001267 -0.004184 0.000000 -0.003884 0.000000
# 2 -0.001267 0.013990 -0.003678 0.000000 0.001926 0.000000
# 3 -0.004184 -0.003678 0.012903 0.000000 0.005892 0.000000
# 4 0.000000 0.000000 0.000000 0.040638 0.000000 -0.002801
# 5 -0.003884 0.001926 0.005892 0.000000 0.118453 0.000000
# 6 0.000000 0.000000 0.000000 -0.002801 0.000000 0.039893
#
#
# Mechanical properties :
#
#
# Convention : Reuss Voigt Hill
#
# Bulk Modulus (GPa) = 43.15329 44.70629 43.92979
# Shear Modulus (GPa) = 18.76914 23.98133 21.37523
#
# Velocity S-wave (km/s) = 3.30771 3.73888 3.52988
# Velocity P-wave (km/s) = 6.30419 6.68575 6.49777
#
# Compressibility (1/GPa) = 0.02317320
#
# Stress axis : x y z
#
# Youngs Moduli (GPa) = 68.79001 71.47873 77.50291
#
# Poissons Ratio (x) = 0.09053 0.32426
# Poissons Ratio (y) = 0.08713 0.28505
# Poissons Ratio (z) = 0.28781 0.26289
#
# Static dielectric constant tensor:
#      x y z
#    x 2.894420 0.000000 -0.077930 
#    y 0.000000 3.160560 0.000000 
#    z -0.077930 0.000000 3.132760 
# 
# 
# High freq. dielectric constant tensor:
#      x y z
#    x 1.632680 0.000000 -0.008550 
#    y 0.000000 1.663050 0.000000 
#    z -0.008550 0.000000 1.658760 
# 
# From -- ./inp_files/222484.got.cif
#   From: 2010.06.25/outbox.cif.g09.slc.cpg/sg12_112_cif.got.tgz:222484.got - 2010.06.28 00:19:55.
