data_PCOD8078651
_publ_section_title
;
Structure prediction by ZEFSAII (Michael W. Deem and Ramdas Pophale) SiO2 
 PCOD8078651
Probable space group: C 2/M
;
_chemical_formula_sum "Si O2"
_cell_formula_units_Z 64
_cell_length_a 22.418266
_cell_length_b 28.449342
_cell_length_c 21.087051
_cell_angle_alpha 90.000000
_cell_angle_beta 160.158613
_cell_angle_gamma 90.000000
_cell_volume 4564.826554
_symmetry_space_group_name_H-M "C 2/M"
_symmetry_group_IT_number 12
_symmetry_cell_setting 'monoclinic'
loop_
_space_group_symop_operation_xyz
x,y,z
-x,y,-z
-x,-y,-z
x,-y,z
1/2+x,1/2+y,z
1/2-x,1/2+y,-z
1/2-x,1/2-y,-z
1/2+x,1/2-y,z
loop_
_atom_site_type_symbol
_atom_site_label
_atom_site_fract_x
_atom_site_fract_y
_atom_site_fract_z
Si Si1 0.544030 0.051959 0.973860
Si Si2 0.449093 0.727918 0.376555
Si Si3 0.550844 0.772088 0.978307
Si Si4 0.047555 0.363909 0.892347
Si Si5 0.249944 0.825418 0.516287
Si Si6 0.452341 0.636095 0.297135
Si Si7 0.455920 0.448041 0.385750
Si Si8 0.249965 0.733096 0.600623
O O1 0.473639 0.088783 0.851622
O O2 0.459690 0.000000 0.878552
O O3 0.500000 0.070489 0.000000
O O4 0.749974 0.048926 0.171942
O O5 0.500000 0.722155 0.500000
O O6 0.249964 0.746154 0.169835
O O7 0.473713 0.677221 0.369685
O O8 0.575725 0.766026 0.469906
O O9 0.500000 0.777866 0.000000
O O10 0.526194 0.822781 0.922159
O O11 0.424174 0.733980 0.818375
O O12 0.926014 0.354484 0.709620
O O13 0.249946 0.368383 0.072208
O O14 0.249956 0.777268 0.554495
O O15 0.249974 0.814539 0.441128
O O16 0.073851 0.854475 0.357455
O O17 0.526278 0.588788 0.404262
O O18 0.500000 0.429517 0.500000
O O19 0.540248 0.500000 0.459100
#
# Coordination Sequence:
#
# PCOD8078651 Si02
#       8
#     8   8   8   8   8   8   8   8
#     4   9  17  27  38  55  79 104 133 171 208 237
#     4  10  17  26  41  59  79 101 129 167 204 238
#     4  10  17  26  41  59  79 101 129 167 204 238
#     4   9  18  28  40  57  76 103 138 169 199 235
#     4   9  18  30  43  54  74 104 133 167 204 237
#     4   9  18  28  40  57  76 103 138 169 199 235
#     4   9  17  27  38  55  79 104 133 171 208 237
#     4   9  18  30  40  58  78  97 130 169 204 241
#
# _framework density 14.020248
#
# number of rings (size 3 to 8) (size 9 to 14) (size 15 to 20)
#    0.000    2.750    1.250    0.750    1.750    1.000 
#    0.000    5.000    0.000    0.000    0.000    0.000 
#    0.000    0.000    0.000    0.000    0.000    5.000 
#
# Total GULP energy -396653.198819 kJ/mol
# GULP energy per Si atom -12395.412463 kJ/mol
# Density = 1.398834 g / cm^3
# Si number density = 14.020248 Si / 1000 Ang^3
#
#
#
# Elastic Constant Matrix: (Units=GPa)
#
#
# Indices 1 2 3 4 5 6 
#
# 1 55.8632 33.9889 38.8811 0.0001 7.4713 0.0000
# 2 33.9889 55.6065 33.3978 0.0001 -0.1642 0.0000
# 3 38.8811 33.3978 92.1668 -0.0004 3.1148 -0.0002
# 4 0.0001 0.0001 -0.0004 13.5449 0.0002 -4.8890
# 5 7.4713 -0.1642 3.1148 0.0002 20.0439 -0.0001
# 6 0.0000 0.0000 -0.0002 -4.8890 -0.0001 30.3519
#
#
#
# Elastic Compliance Matrix: (Units=1/GPa)
#
#
# Indices 1 2 3 4 5 6 
#
# 1 0.035626 -0.016655 -0.008585 0.000000 -0.012082 0.000000
# 2 -0.016655 0.030817 -0.004382 0.000000 0.007142 0.000000
# 3 -0.008585 -0.004382 0.016037 0.000001 0.000672 0.000000
# 4 0.000000 0.000000 0.000001 0.078386 -0.000001 0.012626
# 5 -0.012082 0.007142 0.000672 -0.000001 0.054348 0.000000
# 6 0.000000 0.000000 0.000000 0.012626 0.000000 0.034981
#
#
# Mechanical properties :
#
#
# Convention : Reuss Voigt Hill
#
# Bulk Modulus (GPa) = 43.04016 46.24134 44.64075
# Shear Modulus (GPa) = 15.76373 19.27939 17.52156
#
# Velocity S-wave (km/s) = 3.35678 3.71227 3.53899
# Velocity P-wave (km/s) = 6.76677 7.17133 6.97199
#
# Compressibility (1/GPa) = 0.02323411
#
# Stress axis : x y z
#
# Youngs Moduli (GPa) = 28.06968 32.44981 62.35598
#
# Poissons Ratio (x) = 0.54045 0.53535
# Poissons Ratio (y) = 0.46750 0.27326
# Poissons Ratio (z) = 0.24099 0.14220
#
# Static dielectric constant tensor:
#      x y z
#    x 2.655830 0.000000 0.088530 
#    y 0.000000 2.852650 0.000000 
#    z 0.088530 0.000000 2.960210 
# 
# 
# High freq. dielectric constant tensor:
#      x y z
#    x 1.506650 0.000000 0.012270 
#    y 0.000000 1.498420 0.000000 
#    z 0.012270 0.000000 1.548800 
# 
# From -- ./inp_files/323208.got.cif
#   From: 2010.06.25/outbox.cif.g09.slc.cpg/sg12_162_cif.got.tgz:323208.got - 2010.06.28 00:19:55.
