data_PCOD8078040
_publ_section_title
;
Structure prediction by ZEFSAII (Michael W. Deem and Ramdas Pophale) SiO2 
 PCOD8078040
Probable space group: C 2/M
;
_chemical_formula_sum "Si O2"
_cell_formula_units_Z 56
_cell_length_a 18.026286
_cell_length_b 27.216290
_cell_length_c 12.975881
_cell_angle_alpha 90.000000
_cell_angle_beta 36.565224
_cell_angle_gamma 90.000000
_cell_volume 3792.512027
_symmetry_space_group_name_H-M "C 2/M"
_symmetry_group_IT_number 12
_symmetry_cell_setting 'monoclinic'
loop_
_space_group_symop_operation_xyz
x,y,z
-x,y,-z
-x,-y,-z
x,-y,z
1/2+x,1/2+y,z
1/2-x,1/2+y,-z
1/2-x,1/2-y,-z
1/2+x,1/2-y,z
loop_
_atom_site_type_symbol
_atom_site_label
_atom_site_fract_x
_atom_site_fract_y
_atom_site_fract_z
Si Si1 0.355858 0.632192 0.309187
Si Si2 0.047782 0.945093 0.062991
Si Si3 0.077542 0.744359 0.594149
Si Si4 0.937926 0.211564 0.916119
Si Si5 0.257529 0.631266 0.193509
Si Si6 0.000000 0.671827 0.500000
Si Si7 0.790403 0.313926 0.371853
Si Si8 0.500000 0.206404 0.000000
O O1 0.442636 0.585640 0.241049
O O2 0.438793 0.680238 0.193595
O O3 0.275877 0.626802 0.295418
O O4 0.265436 0.638267 0.508583
O O5 0.060445 0.000000 0.094354
O O6 0.181739 0.917932 0.923589
O O7 0.000000 0.946079 0.000000
O O8 0.045846 0.706358 0.540723
O O9 0.140825 0.718583 0.620387
O O10 0.177967 0.784209 0.441390
O O11 0.953097 0.771464 0.778767
O O12 0.816705 0.178883 0.072166
O O13 0.929640 0.259333 0.996495
O O14 0.110124 0.635861 0.338192
O O15 0.894082 0.328090 0.170530
#
# Coordination Sequence:
#
# PCOD8078040 Si02
#       8
#     8   8   8   8   8   4   8   4
#     4   9  14  26  44  59  77 101 137 178 204 232
#     4   8  15  27  45  64  75  93 130 175 210 241
#     4   9  18  26  39  53  80 111 155 169 197 219
#     4   9  15  26  41  58  73 111 147 182 189 222
#     4  10  17  26  39  56  85 109 134 165 206 245
#     4  12  20  26  35  58  86 126 133 166 194 254
#     4   9  16  27  39  58  75 111 144 180 188 236
#     4  10  14  20  40  58  78 104 146 170 198 218
#
# _framework density 14.765938
#
# number of rings (size 3 to 8) (size 9 to 14) (size 15 to 20)
#    0.000    2.714    2.857    2.571    0.000    0.571 
#    0.000    0.357    0.000    0.000    0.000    0.500 
#    0.000    0.000    0.000   94.929    0.000    0.000 
#
# Total GULP energy -346891.692318 kJ/mol
# GULP energy per Si atom -12388.989011 kJ/mol
# Density = 1.473233 g / cm^3
# Si number density = 14.765938 Si / 1000 Ang^3
#
#
#
# Elastic Constant Matrix: (Units=GPa)
#
#
# Indices 1 2 3 4 5 6 
#
# 1 27.2912 13.8681 20.3040 0.0001 -6.9038 0.0000
# 2 13.8681 76.3168 52.0245 0.0000 -3.2627 0.0000
# 3 20.3040 52.0245 138.2255 0.0001 -5.6260 0.0000
# 4 0.0001 0.0000 0.0001 9.2707 -0.0001 -0.0105
# 5 -6.9038 -3.2627 -5.6260 -0.0001 18.0142 0.0000
# 6 0.0000 0.0000 0.0000 -0.0105 0.0000 9.3549
#
#
#
# Elastic Compliance Matrix: (Units=1/GPa)
#
#
# Indices 1 2 3 4 5 6 
#
# 1 0.046230 -0.004761 -0.004368 0.000000 0.015491 0.000000
# 2 -0.004761 0.018139 -0.006146 0.000000 -0.000459 0.000000
# 3 -0.004368 -0.006146 0.010206 0.000000 0.000400 0.000000
# 4 0.000000 0.000000 0.000000 0.107867 0.000001 0.000122
# 5 0.015491 -0.000459 0.000400 0.000001 0.061490 0.000000
# 6 0.000000 0.000000 0.000000 0.000122 0.000000 0.106896
#
#
# Mechanical properties :
#
#
# Convention : Reuss Voigt Hill
#
# Bulk Modulus (GPa) = 22.71515 46.02519 34.37017
# Shear Modulus (GPa) = 12.62461 17.70377 15.16419
#
# Velocity S-wave (km/s) = 2.92718 3.46636 3.20812
# Velocity P-wave (km/s) = 5.18087 6.87447 6.08686
#
# Compressibility (1/GPa) = 0.04402348
#
# Stress axis : x y z
#
# Youngs Moduli (GPa) = 21.63115 55.13101 97.98332
#
# Poissons Ratio (x) = 0.26245 0.42804
# Poissons Ratio (y) = 0.10298 0.60223
# Poissons Ratio (z) = 0.09449 0.33885
#
# Static dielectric constant tensor:
#      x y z
#    x 2.590350 0.000000 0.088780 
#    y 0.000000 2.809040 0.000000 
#    z 0.088780 0.000000 3.360420 
# 
# 
# High freq. dielectric constant tensor:
#      x y z
#    x 1.520490 0.000000 -0.005800 
#    y 0.000000 1.525420 0.000000 
#    z -0.005800 0.000000 1.578640 
# 
# From -- ./inp_files/149470.got.cif
#   From: 2010.06.25/outbox.cif.g09.slc.cpg/sg12_75_cif.got.tgz:149470.got - 2010.06.28 00:19:55.
