data_PCOD8078323
_publ_section_title
;
Structure prediction by ZEFSAII (Michael W. Deem and Ramdas Pophale) SiO2 
 PCOD8078323
Probable space group: C 2/M
;
_chemical_formula_sum "Si O2"
_cell_formula_units_Z 56
_cell_length_a 15.093179
_cell_length_b 28.747626
_cell_length_c 11.141916
_cell_angle_alpha 90.000000
_cell_angle_beta 41.342843
_cell_angle_gamma 90.000000
_cell_volume 3193.426993
_symmetry_space_group_name_H-M "C 2/M"
_symmetry_group_IT_number 12
_symmetry_cell_setting 'monoclinic'
loop_
_space_group_symop_operation_xyz
x,y,z
-x,y,-z
-x,-y,-z
x,-y,z
1/2+x,1/2+y,z
1/2-x,1/2+y,-z
1/2-x,1/2-y,-z
1/2+x,1/2-y,z
loop_
_atom_site_type_symbol
_atom_site_label
_atom_site_fract_x
_atom_site_fract_y
_atom_site_fract_z
Si Si1 0.783744 0.383404 0.902001
Si Si2 0.352293 0.200912 0.670530
Si Si3 0.978057 0.351601 0.881953
Si Si4 0.595565 0.247409 0.012576
Si Si5 0.005951 0.155573 0.140674
Si Si6 0.217437 0.364556 0.466223
Si Si7 0.843910 0.448675 0.641003
O O1 0.863207 0.343196 0.747910
O O2 0.784050 0.431297 0.828083
O O3 0.867804 0.388123 0.940973
O O4 0.627706 0.372238 0.076624
O O5 0.500000 0.222794 0.500000
O O6 0.249830 0.240674 0.820552
O O7 0.297388 0.180698 0.602016
O O8 0.124714 0.358778 0.676203
O O9 0.000000 0.360227 0.000000
O O10 0.912507 0.301410 0.908784
O O11 0.500000 0.236095 0.000000
O O12 0.531221 0.290460 0.149987
O O13 0.874758 0.136181 0.340494
O O14 0.000000 0.150391 0.000000
O O15 0.188669 0.413743 0.433521
O O16 0.784518 0.500000 0.672393
O O17 0.000000 0.451844 0.500000
#
# Coordination Sequence:
#
# PCOD8078323 Si02
#       7
#     8   8   8   8   8   8   8
#     4  10  18  34  53  77 110 139 165 216 285 316
#     4  10  16  29  54  76  95 130 174 224 284 320
#     4  11  23  36  49  69 106 152 194 219 248 306
#     4   9  18  33  45  73 104 132 187 226 252 309
#     4  10  17  31  55  80 109 133 171 217 281 330
#     4  11  18  35  54  77 107 146 164 220 285 318
#     4  10  18  31  60  93 110 123 169 229 284 340
#
# _framework density 17.536020000000001
#
# number of rings (size 3 to 8) (size 9 to 14) (size 15 to 20)
#    0.000    1.857    8.571    0.857    0.000    2.857 
#    0.000    2.143    0.000    1.714    0.000    0.000 
#    0.000    2.286    0.000    0.000    0.000    0.000 
#
# Total GULP energy -346952.940700 kJ/mol
# GULP energy per Si atom -12391.176454 kJ/mol
# Density = 1.749611 g / cm^3
# Si number density = 17.536020 Si / 1000 Ang^3
#
#
#
# Elastic Constant Matrix: (Units=GPa)
#
#
# Indices 1 2 3 4 5 6 
#
# 1 65.4551 15.4594 54.7526 0.0000 -5.7370 0.0000
# 2 15.4594 79.7758 53.2533 0.0000 1.9421 0.0000
# 3 54.7526 53.2533 124.7663 0.0000 -21.3042 0.0000
# 4 0.0000 0.0000 0.0000 7.4394 0.0000 3.3860
# 5 -5.7370 1.9421 -21.3042 0.0000 32.0418 0.0000
# 6 0.0000 0.0000 0.0000 3.3860 0.0000 10.5659
#
#
#
# Elastic Compliance Matrix: (Units=1/GPa)
#
#
# Indices 1 2 3 4 5 6 
#
# 1 0.025430 0.004489 -0.013926 0.000000 -0.004978 0.000000
# 2 0.004489 0.019747 -0.011806 0.000000 -0.008243 0.000000
# 3 -0.013926 -0.011806 0.021277 0.000000 0.012369 0.000000
# 4 0.000000 0.000000 0.000000 0.157374 0.000000 -0.050434
# 5 -0.004978 -0.008243 0.012369 0.000000 0.039042 0.000000
# 6 0.000000 0.000000 0.000000 -0.050434 0.000000 0.110807
#
#
# Mechanical properties :
#
#
# Convention : Reuss Voigt Hill
#
# Bulk Modulus (GPa) = 41.72063 57.43643 49.57853
# Shear Modulus (GPa) = 11.78826 19.77821 15.78323
#
# Velocity S-wave (km/s) = 2.59555 3.36201 3.00333
# Velocity P-wave (km/s) = 5.72936 6.92064 6.35299
#
# Compressibility (1/GPa) = 0.02396896
#
# Stress axis : x y z
#
# Youngs Moduli (GPa) = 39.32387 50.64128 46.99842
#
# Poissons Ratio (x) = -0.22734 0.65449
# Poissons Ratio (y) = -0.17653 0.55486
# Poissons Ratio (z) = 0.54762 0.59787
#
# Static dielectric constant tensor:
#      x y z
#    x 3.421360 0.000000 -0.179900 
#    y 0.000000 3.420730 0.000000 
#    z -0.179900 0.000000 3.275820 
# 
# 
# High freq. dielectric constant tensor:
#      x y z
#    x 1.667720 0.000000 -0.026970 
#    y 0.000000 1.645080 0.000000 
#    z -0.026970 0.000000 1.666970 
# 
# From -- ./inp_files/149446.got.cif
#   From: 2010.06.25/outbox.cif.g09.slc.cpg/sg12_75_cif.got.tgz:149446.got - 2010.06.28 00:19:55.
