data_PCOD8078237
_publ_section_title
;
Structure prediction by ZEFSAII (Michael W. Deem and Ramdas Pophale) SiO2 
 PCOD8078237
Probable space group: C 2/M
;
_chemical_formula_sum "Si O2"
_cell_formula_units_Z 56
_cell_length_a 17.171631
_cell_length_b 14.145027
_cell_length_c 13.975974
_cell_angle_alpha 90.000000
_cell_angle_beta 76.250148
_cell_angle_gamma 90.000000
_cell_volume 3297.386728
_symmetry_space_group_name_H-M "C 2/M"
_symmetry_group_IT_number 12
_symmetry_cell_setting 'monoclinic'
loop_
_space_group_symop_operation_xyz
x,y,z
-x,y,-z
-x,-y,-z
x,-y,z
1/2+x,1/2+y,z
1/2-x,1/2+y,-z
1/2-x,1/2-y,-z
1/2+x,1/2-y,z
loop_
_atom_site_type_symbol
_atom_site_label
_atom_site_fract_x
_atom_site_fract_y
_atom_site_fract_z
Si Si1 0.089425 0.894079 0.496903
Si Si2 0.815603 0.391303 0.252421
Si Si3 0.373361 0.778252 0.403132
Si Si4 0.859256 0.104788 0.729853
Si Si5 0.983229 0.389850 0.111278
Si Si6 0.048298 0.288057 0.266154
Si Si7 0.589936 0.105869 0.434254
O O1 0.134610 0.831947 0.564542
O O2 0.139535 0.891007 0.385404
O O3 0.000000 0.852593 0.500000
O O4 0.081361 0.000000 0.540674
O O5 0.822658 0.500000 0.288637
O O6 0.811768 0.316866 0.341869
O O7 0.733976 0.378086 0.215198
O O8 0.890531 0.367889 0.162312
O O9 0.460401 0.791132 0.334134
O O10 0.357317 0.838137 0.503946
O O11 0.917102 0.182520 0.759917
O O12 0.887285 0.000000 0.756244
O O13 0.002583 0.500000 0.114421
O O14 0.045461 0.337764 0.163869
O O15 0.000000 0.352010 0.000000
O O16 0.101954 0.345003 0.327231
O O17 0.500000 0.105887 0.500000
O O18 0.622968 0.000000 0.414859
#
# Coordination Sequence:
#
# PCOD8078237 Si02
#       7
#     8   8   8   8   8   8   8
#     4  10  17  27  42  63  93 128 167 196 215 255
#     4   9  19  32  47  69  97 124 153 190 236 281
#     4  10  16  27  44  65  91 126 161 194 222 261
#     4  10  19  31  46  67  97 129 159 192 226 267
#     4   9  18  34  55  74  91 114 149 194 241 288
#     4  10  17  28  46  70  91 120 157 191 227 272
#     4   9  15  23  38  62  91 120 152 189 224 261
#
# _framework density 16.983145
#
# number of rings (size 3 to 8) (size 9 to 14) (size 15 to 20)
#    0.000    2.429    2.857    1.286    0.000    4.000 
#    0.000    0.714    0.000    1.286    0.000    0.000 
#    0.000    0.000    0.000    0.000    0.000    0.000 
#
# Total GULP energy -347031.319925 kJ/mol
# GULP energy per Si atom -12393.975712 kJ/mol
# Density = 1.694449 g / cm^3
# Si number density = 16.983145 Si / 1000 Ang^3
#
#
#
# Elastic Constant Matrix: (Units=GPa)
#
#
# Indices 1 2 3 4 5 6 
#
# 1 40.2663 21.6742 22.9281 0.0000 1.1189 0.0000
# 2 21.6742 101.0940 33.8248 0.0000 12.7859 0.0000
# 3 22.9281 33.8248 83.8330 0.0000 14.6248 0.0000
# 4 0.0000 0.0000 0.0000 14.8835 0.0000 0.5651
# 5 1.1189 12.7859 14.6248 0.0000 17.4592 0.0000
# 6 0.0000 0.0000 0.0000 0.5651 0.0000 16.3574
#
#
#
# Elastic Compliance Matrix: (Units=1/GPa)
#
#
# Indices 1 2 3 4 5 6 
#
# 1 0.032057 -0.005232 -0.008159 0.000000 0.008611 0.000000
# 2 -0.005232 0.012721 -0.002500 0.000000 -0.006886 0.000000
# 3 -0.008159 -0.002500 0.017284 0.000000 -0.012124 0.000000
# 4 0.000000 0.000000 0.000000 0.067277 0.000000 -0.002324
# 5 0.008611 -0.006886 -0.012124 0.000000 0.071923 0.000000
# 6 0.000000 0.000000 0.000000 -0.002324 0.000000 0.061215
#
#
# Mechanical properties :
#
#
# Convention : Reuss Voigt Hill
#
# Bulk Modulus (GPa) = 33.02574 42.44972 37.73773
# Shear Modulus (GPa) = 16.42831 19.52444 17.97638
#
# Velocity S-wave (km/s) = 3.11357 3.39431 3.25696
# Velocity P-wave (km/s) = 5.69334 6.35698 6.03429
#
# Compressibility (1/GPa) = 0.03027941
#
# Stress axis : x y z
#
# Youngs Moduli (GPa) = 31.19400 78.60957 57.85782
#
# Poissons Ratio (x) = 0.41131 0.47205
# Poissons Ratio (y) = 0.16322 0.14467
# Poissons Ratio (z) = 0.25451 0.19655
#
# Static dielectric constant tensor:
#      x y z
#    x 2.965610 0.000000 -0.016890 
#    y 0.000000 3.345370 0.000000 
#    z -0.016890 0.000000 3.023860 
# 
# 
# High freq. dielectric constant tensor:
#      x y z
#    x 1.629120 0.000000 -0.007210 
#    y 0.000000 1.661610 0.000000 
#    z -0.007210 0.000000 1.616740 
# 
# From -- ./inp_files/224262.got.cif
#   From: 2010.06.25/outbox.cif.g09.slc.cpg/sg12_113_cif.got.tgz:224262.got - 2010.06.28 00:19:55.
