data_PCOD8078441
_publ_section_title
;
Structure prediction by ZEFSAII (Michael W. Deem and Ramdas Pophale) SiO2 
 PCOD8078441
Probable space group: C 2/M
;
_chemical_formula_sum "Si O2"
_cell_formula_units_Z 44
_cell_length_a 13.558788
_cell_length_b 18.016818
_cell_length_c 17.428634
_cell_angle_alpha 90.000000
_cell_angle_beta 150.434355
_cell_angle_gamma 90.000000
_cell_volume 2100.774474
_symmetry_space_group_name_H-M "C 2/M"
_symmetry_group_IT_number 12
_symmetry_cell_setting 'monoclinic'
loop_
_space_group_symop_operation_xyz
x,y,z
-x,y,-z
-x,-y,-z
x,-y,z
1/2+x,1/2+y,z
1/2-x,1/2+y,-z
1/2-x,1/2-y,-z
1/2+x,1/2-y,z
loop_
_atom_site_type_symbol
_atom_site_label
_atom_site_fract_x
_atom_site_fract_y
_atom_site_fract_z
Si Si1 0.008082 0.625459 0.730629
Si Si2 0.500000 0.875405 0.000000
Si Si3 0.817322 0.144835 0.821087
Si Si4 0.970603 0.727485 0.123039
Si Si5 0.706515 0.500000 0.282776
Si Si6 0.737285 0.000000 0.972337
Si Si7 0.750148 0.000000 0.515638
Si Si8 0.777845 0.000000 0.172402
O O1 0.129822 0.670688 0.746976
O O2 0.921838 0.685171 0.733118
O O3 0.829858 0.575064 0.577587
O O4 0.166075 0.573666 0.881691
O O5 0.438740 0.824480 0.028964
O O6 0.691200 0.925813 0.153722
O O7 0.728809 0.072395 0.719970
O O8 0.885214 0.204596 0.803419
O O9 0.000000 0.123910 0.000000
O O10 0.750000 0.750000 0.000000
O O11 0.472500 0.500000 0.134395
O O12 0.813238 0.500000 0.437984
O O13 0.672216 0.000000 0.016789
O O14 0.986168 0.000000 0.664255
#
# Coordination Sequence:
#
# PCOD8078441 Si02
#       8
#     8   4   8   8   4   4   4   4
#     4  11  22  40  64  98 132 172 215 272 333 396
#     4  11  22  40  70 103 128 164 232 283 320 388
#     4  12  22  37  67 104 126 167 225 284 328 384
#     4  12  22  39  67 101 135 168 219 284 332 385
#     4  11  21  39  65  95 127 168 220 276 317 394
#     4  10  16  33  66  91 120 160 213 272 316 363
#     4  10  26  43  69  94 141 177 215 270 344 396
#     4  10  22  40  68 100 123 173 224 272 323 390
#
# _framework density 20.944656999999999
#
# number of rings (size 3 to 8) (size 9 to 14) (size 15 to 20)
#    0.000    0.909    6.364    1.364    2.545    1.455 
#    0.000    2.727    4.000    0.000    0.000    0.000 
#    0.000    0.000    0.000    0.000    0.000    0.000 
#
# Total GULP energy -272775.230140 kJ/mol
# GULP energy per Si atom -12398.874097 kJ/mol
# Density = 2.089699 g / cm^3
# Si number density = 20.944657 Si / 1000 Ang^3
#
#
#
# Elastic Constant Matrix: (Units=GPa)
#
#
# Indices 1 2 3 4 5 6 
#
# 1 147.0369 74.7870 44.3412 -0.0004 -6.6090 -0.0036
# 2 74.7870 133.4309 36.7537 -0.0131 -11.5144 0.0024
# 3 44.3412 36.7537 91.5369 -0.0318 -10.0734 -0.0055
# 4 -0.0004 -0.0131 -0.0318 3.5545 -0.0038 -14.1171
# 5 -6.6090 -11.5144 -10.0734 -0.0038 31.5861 0.0056
# 6 -0.0036 0.0024 -0.0055 -14.1171 0.0056 52.6470
#
#
#
# Elastic Compliance Matrix: (Units=1/GPa)
#
#
# Indices 1 2 3 4 5 6 
#
# 1 0.010196 -0.004935 -0.003026 0.000648 -0.000631 0.000174
# 2 -0.004935 0.010947 -0.001741 -0.000332 0.002403 -0.000090
# 3 -0.003026 -0.001741 0.013420 -0.001853 0.003012 -0.000496
# 4 0.000648 -0.000332 -0.001853 -4.328314 -0.000887 -1.160625
# 5 -0.000631 0.002403 0.003012 -0.000887 0.033364 -0.000241
# 6 0.000174 -0.000090 -0.000496 -1.160625 -0.000241 -0.292224
#
#
# Mechanical properties :
#
#
# Convention : Reuss Voigt Hill
#
# Bulk Modulus (GPa) = 65.96861 75.97429 70.97145
# Shear Modulus (GPa) = -1.10420 31.96569 15.43074
#
# Velocity S-wave (km/s) = -0.72687 3.91090 2.71724
# Velocity P-wave (km/s) = 5.55523 7.53300 6.61841
#
# Compressibility (1/GPa) = 0.01515873
#
# Stress axis : x y z
#
# Youngs Moduli (GPa) = 98.08209 91.34508 74.51430
#
# Poissons Ratio (x) = 0.45081 0.22551
# Poissons Ratio (y) = 0.48406 0.12970
# Poissons Ratio (z) = 0.29684 0.15899
#
# Static dielectric constant tensor:
#      x y z
#    x 4.259300 0.000030 -0.290220 
#    y 0.000030 4.017310 -0.000100 
#    z -0.290220 -0.000100 3.516110 
# 
# 
# High freq. dielectric constant tensor:
#      x y z
#    x 1.845560 0.000000 -0.006300 
#    y 0.000000 1.822720 -0.000010 
#    z -0.006300 -0.000010 1.786420 
# 
# From -- ./inp_files/98027.got.cif
#   From: 2010.06.25/outbox.cif.g09.slc.cpg/sg12_50_cif.got.tgz:98027.got - 2010.06.28 00:19:55.
