data_PCOD8078820
_publ_section_title
;
Structure prediction by ZEFSAII (Michael W. Deem and Ramdas Pophale) SiO2 
 PCOD8078820
Probable space group: C 2/M
;
_chemical_formula_sum "Si O2"
_cell_formula_units_Z 56
_cell_length_a 28.407425
_cell_length_b 9.107382
_cell_length_c 17.551930
_cell_angle_alpha 90.000000
_cell_angle_beta 128.684156
_cell_angle_gamma 90.000000
_cell_volume 3544.709665
_symmetry_space_group_name_H-M "C 2/M"
_symmetry_group_IT_number 12
_symmetry_cell_setting 'monoclinic'
loop_
_space_group_symop_operation_xyz
x,y,z
-x,y,-z
-x,-y,-z
x,-y,z
1/2+x,1/2+y,z
1/2-x,1/2+y,-z
1/2-x,1/2-y,-z
1/2+x,1/2-y,z
loop_
_atom_site_type_symbol
_atom_site_label
_atom_site_fract_x
_atom_site_fract_y
_atom_site_fract_z
Si Si1 0.972485 0.826313 0.150613
Si Si2 0.570019 0.661884 0.051095
Si Si3 0.430974 0.665803 0.405509
Si Si4 0.537460 0.170935 0.707305
Si Si5 0.908341 0.670858 0.784259
Si Si6 0.313010 0.829697 0.562363
Si Si7 0.098564 0.670391 0.480017
O O1 0.943870 0.751611 0.195970
O O2 0.038103 0.760126 0.200629
O O3 0.980013 0.000000 0.170368
O O4 0.926241 0.791834 0.034068
O O5 0.598462 0.500000 0.092342
O O6 0.603362 0.776755 0.140466
O O7 0.500000 0.656632 0.000000
O O8 0.500000 0.669365 0.500000
O O9 0.408508 0.500000 0.369057
O O10 0.422878 0.758916 0.320222
O O11 0.391428 0.738500 0.432432
O O12 0.466914 0.198205 0.622014
O O13 0.553198 0.000000 0.729066
O O14 0.925991 0.500000 0.801023
O O15 0.847545 0.701461 0.676143
O O16 0.250000 0.750000 0.500000
O O17 0.352806 0.772609 0.531735
O O18 0.300387 0.000000 0.539000
O O19 0.106728 0.500000 0.508156
#
# Coordination Sequence:
#
# PCOD8078820 Si02
#       7
#     8   8   8   8   8   8   8
#     4  10  18  27  41  62  89 116 145 178 213 258
#     4   8  16  28  40  59  84 112 143 175 214 259
#     4   9  17  27  40  62  85 109 145 177 211 261
#     4  10  17  27  43  62  87 117 146 176 215 257
#     4  10  18  30  44  60  83 112 147 184 220 260
#     4  10  21  34  46  64  86 113 152 191 224 259
#     4   9  17  31  44  57  83 114 145 182 221 257
#
# _framework density 15.798190999999999
#
# number of rings (size 3 to 8) (size 9 to 14) (size 15 to 20)
#    0.000    2.571    1.429    2.571    0.000    7.143 
#    0.000    0.000    0.000    0.000    0.000    0.000 
#    0.000    1.143    0.000    3.714    0.000    5.429 
#
# Total GULP energy -347128.974362 kJ/mol
# GULP energy per Si atom -12397.463370 kJ/mol
# Density = 1.576223 g / cm^3
# Si number density = 15.798191 Si / 1000 Ang^3
#
#
#
# Elastic Constant Matrix: (Units=GPa)
#
#
# Indices 1 2 3 4 5 6 
#
# 1 77.5970 48.3656 52.2602 0.0000 -25.6757 0.0000
# 2 48.3656 103.9124 58.2882 0.0000 -24.0375 0.0000
# 3 52.2602 58.2882 83.8608 0.0000 -30.3574 0.0000
# 4 0.0000 0.0000 0.0000 26.6934 0.0000 -8.2181
# 5 -25.6757 -24.0375 -30.3574 0.0000 30.6784 0.0000
# 6 0.0000 0.0000 0.0000 -8.2181 0.0000 26.1893
#
#
#
# Elastic Compliance Matrix: (Units=1/GPa)
#
#
# Indices 1 2 3 4 5 6 
#
# 1 0.024524 -0.004298 -0.009481 0.000000 0.007776 0.000000
# 2 -0.004298 0.016636 -0.008520 0.000000 0.001007 0.000000
# 3 -0.009481 -0.008520 0.028772 0.000000 0.013861 0.000000
# 4 0.000000 0.000000 0.000000 0.041469 0.000000 0.013013
# 5 0.007776 0.001007 0.013861 0.000000 0.053609 0.000000
# 6 0.000000 0.000000 0.000000 0.013013 0.000000 0.042267
#
#
# Mechanical properties :
#
#
# Convention : Reuss Voigt Hill
#
# Bulk Modulus (GPa) = 39.47154 64.79980 52.13567
# Shear Modulus (GPa) = 19.20721 23.80929 21.50825
#
# Velocity S-wave (km/s) = 3.49059 3.88634 3.69377
# Velocity P-wave (km/s) = 6.42532 7.82588 7.15993
#
# Compressibility (1/GPa) = 0.02533471
#
# Stress axis : x y z
#
# Youngs Moduli (GPa) = 40.77662 60.11007 34.75556
#
# Poissons Ratio (x) = 0.25833 0.32951
# Poissons Ratio (y) = 0.17524 0.29613
# Poissons Ratio (z) = 0.38659 0.51216
#
# Static dielectric constant tensor:
#      x y z
#    x 2.873270 0.000000 -0.496630 
#    y 0.000000 3.128030 0.000000 
#    z -0.496630 0.000000 3.038490 
# 
# 
# High freq. dielectric constant tensor:
#      x y z
#    x 1.572050 0.000000 -0.046380 
#    y 0.000000 1.619260 0.000000 
#    z -0.046380 0.000000 1.582290 
# 
# From -- ./inp_files/288403.got.cif
#   From: 2010.06.25/outbox.cif.g09.slc.cpg/sg12_145_cif.got.tgz:288403.got - 2010.06.28 00:19:55.
