data_PCOD8078826
_publ_section_title
;
Structure prediction by ZEFSAII (Michael W. Deem and Ramdas Pophale) SiO2 
 PCOD8078826
Probable space group: C 2/M
;
_chemical_formula_sum "Si O2"
_cell_formula_units_Z 56
_cell_length_a 25.526954
_cell_length_b 9.321542
_cell_length_c 26.051426
_cell_angle_alpha 90.000000
_cell_angle_beta 145.882328
_cell_angle_gamma 90.000000
_cell_volume 3476.957148
_symmetry_space_group_name_H-M "C 2/M"
_symmetry_group_IT_number 12
_symmetry_cell_setting 'monoclinic'
loop_
_space_group_symop_operation_xyz
x,y,z
-x,y,-z
-x,-y,-z
x,-y,z
1/2+x,1/2+y,z
1/2-x,1/2+y,-z
1/2-x,1/2-y,-z
1/2+x,1/2-y,z
loop_
_atom_site_type_symbol
_atom_site_label
_atom_site_fract_x
_atom_site_fract_y
_atom_site_fract_z
Si Si1 0.214071 0.669483 0.088602
Si Si2 0.225929 0.667369 0.404198
Si Si3 0.388178 0.334547 0.606011
Si Si4 0.121257 0.330780 0.222976
Si Si5 0.908055 0.167341 0.203174
Si Si6 0.572940 0.170330 0.887115
Si Si7 0.395499 0.828887 0.903525
O O1 0.205091 0.500000 0.084412
O O2 0.321295 0.717765 0.167949
O O3 0.174424 0.734116 0.109883
O O4 0.152717 0.723429 0.990950
O O5 0.205114 0.500000 0.393534
O O6 0.331475 0.706017 0.507771
O O7 0.149826 0.744299 0.377515
O O8 0.208219 0.713437 0.330550
O O9 0.371002 0.500000 0.605817
O O10 0.497835 0.302085 0.687659
O O11 0.112746 0.500000 0.210499
O O12 0.135910 0.267085 0.177705
O O13 0.025535 0.274075 0.170493
O O14 0.907160 0.256204 0.150584
O O15 0.899144 0.000000 0.181693
O O16 0.573861 0.000000 0.879881
O O17 0.392906 0.000000 0.901769
O O18 0.500000 0.775069 0.000000
#
# Coordination Sequence:
#
# PCOD8078826 Si02
#       7
#     8   8   8   8   8   8   8
#     4   9  17  27  40  59  86 114 140 169 203 245
#     4   9  16  27  42  61  82 105 136 173 206 238
#     4   9  17  27  40  58  84 113 136 161 202 252
#     4   9  15  23  40  63  84 102 131 176 213 233
#     4  10  19  29  40  60  89 117 137 161 205 255
#     4  10  17  27  43  64  85 109 139 171 204 241
#     4   9  14  23  39  60  83 106 135 174 210 236
#
# _framework density 16.106036
#
# number of rings (size 3 to 8) (size 9 to 14) (size 15 to 20)
#    0.000    2.714    2.857    0.429    0.000    0.000 
#    0.000    0.000    0.000    0.857    0.000   11.000 
#    0.000    0.000    0.000    8.429    0.000    8.857 
#
# Total GULP energy -346998.798419 kJ/mol
# GULP energy per Si atom -12392.814229 kJ/mol
# Density = 1.606938 g / cm^3
# Si number density = 16.106036 Si / 1000 Ang^3
#
#
#
# Elastic Constant Matrix: (Units=GPa)
#
#
# Indices 1 2 3 4 5 6 
#
# 1 134.8544 19.6601 86.2099 0.0000 -3.3674 0.0000
# 2 19.6601 15.9288 20.9842 0.0000 -0.8064 0.0001
# 3 86.2099 20.9842 155.4583 0.0000 -6.3792 0.0000
# 4 0.0000 0.0000 0.0000 14.2088 0.0000 -1.2882
# 5 -3.3674 -0.8064 -6.3792 0.0000 25.6319 0.0000
# 6 0.0000 0.0001 0.0000 -1.2882 0.0000 13.8301
#
#
#
# Elastic Compliance Matrix: (Units=1/GPa)
#
#
# Indices 1 2 3 4 5 6 
#
# 1 0.012176 -0.007459 -0.005748 0.000000 -0.000066 0.000000
# 2 -0.007459 0.080928 -0.006792 0.000000 -0.000124 -0.000001
# 3 -0.005748 -0.006792 0.010606 0.000000 0.001671 0.000000
# 4 0.000000 0.000000 0.000000 0.070978 0.000000 0.006611
# 5 -0.000066 -0.000124 0.001671 0.000000 0.039417 0.000000
# 6 0.000000 -0.000001 0.000000 0.006611 0.000000 0.072922
#
#
# Mechanical properties :
#
#
# Convention : Reuss Voigt Hill
#
# Bulk Modulus (GPa) = 15.69614 62.21666 38.95640
# Shear Modulus (GPa) = 14.35702 22.69332 18.52517
#
# Velocity S-wave (km/s) = 2.98888 3.75773 3.39514
# Velocity P-wave (km/s) = 4.65595 7.58555 6.29359
#
# Compressibility (1/GPa) = 0.06370993
#
# Stress axis : x y z
#
# Youngs Moduli (GPa) = 82.13038 12.35674 94.29014
#
# Poissons Ratio (x) = 0.09217 0.54198
# Poissons Ratio (y) = 0.61261 0.64046
# Poissons Ratio (z) = 0.47208 0.08393
#
# Static dielectric constant tensor:
#      x y z
#    x 3.163700 0.000000 -0.058420 
#    y 0.000000 2.680620 0.000000 
#    z -0.058420 0.000000 3.434250 
# 
# 
# High freq. dielectric constant tensor:
#      x y z
#    x 1.600850 0.000000 -0.002540 
#    y 0.000000 1.573990 0.000000 
#    z -0.002540 0.000000 1.631940 
# 
# From -- ./inp_files/181542.got.cif
#   From: 2010.06.25/outbox.cif.g09.slc.cpg/sg12_91_cif.got.tgz:181542.got - 2010.06.28 00:19:55.
