data_PCOD8078238
_publ_section_title
;
Structure prediction by ZEFSAII (Michael W. Deem and Ramdas Pophale) SiO2 
 PCOD8078238
Probable space group: C 2/M
;
_chemical_formula_sum "Si O2"
_cell_formula_units_Z 56
_cell_length_a 25.778834
_cell_length_b 12.040585
_cell_length_c 22.373506
_cell_angle_alpha 90.000000
_cell_angle_beta 149.593089
_cell_angle_gamma 90.000000
_cell_volume 3514.905657
_symmetry_space_group_name_H-M "C 2/M"
_symmetry_group_IT_number 12
_symmetry_cell_setting 'monoclinic'
loop_
_space_group_symop_operation_xyz
x,y,z
-x,y,-z
-x,-y,-z
x,-y,z
1/2+x,1/2+y,z
1/2-x,1/2+y,-z
1/2-x,1/2-y,-z
1/2+x,1/2-y,z
loop_
_atom_site_type_symbol
_atom_site_label
_atom_site_fract_x
_atom_site_fract_y
_atom_site_fract_z
Si Si1 0.648423 0.256455 0.325855
Si Si2 0.146947 0.371804 0.440821
Si Si3 0.567704 0.791512 0.484236
Si Si4 0.754195 0.130831 0.325856
Si Si5 0.658388 0.703488 0.144758
Si Si6 0.370174 0.876957 0.333699
Si Si7 0.978709 0.873195 0.891935
O O1 0.734744 0.345869 0.428398
O O2 0.607223 0.195946 0.343941
O O3 0.692401 0.165216 0.323692
O O4 0.553206 0.324607 0.203862
O O5 0.134460 0.500000 0.413687
O O6 0.077222 0.338955 0.427453
O O7 0.628256 0.674859 0.551936
O O8 0.445778 0.785788 0.377990
O O9 0.617868 0.875122 0.582362
O O10 0.695655 0.178363 0.208869
O O11 0.758148 0.000000 0.323630
O O12 0.752331 0.648714 0.202112
O O13 0.620370 0.628144 0.162794
O O14 0.565911 0.709249 0.005130
O O15 0.397786 0.000000 0.337568
O O16 0.018373 0.000000 0.925715
#
# Coordination Sequence:
#
# PCOD8078238 Si02
#       7
#     8   8   8   8   8   8   8
#     4   9  19  28  43  66  88 114 151 179 216 268
#     4  10  17  29  44  63  88 116 144 182 220 258
#     4   9  18  27  43  66  88 114 149 177 216 265
#     4   9  17  31  44  62  91 121 147 183 219 258
#     4   9  18  28  45  69  90 114 149 177 218 271
#     4  10  16  27  44  69  95 114 138 182 225 262
#     4  10  17  30  47  68  92 115 140 181 225 264
#
# _framework density 15.932149000000001
#
# number of rings (size 3 to 8) (size 9 to 14) (size 15 to 20)
#    0.000    2.571    0.000    5.143    0.000    0.000 
#    0.000   12.857    0.000    0.857    0.000    0.000 
#    0.000    0.000    0.000    0.000    0.000    0.000 
#
# Total GULP energy -347028.789782 kJ/mol
# GULP energy per Si atom -12393.885349 kJ/mol
# Density = 1.589589 g / cm^3
# Si number density = 15.932149 Si / 1000 Ang^3
#
#
#
# Elastic Constant Matrix: (Units=GPa)
#
#
# Indices 1 2 3 4 5 6 
#
# 1 86.7222 33.7398 44.7973 0.0000 -2.5958 0.0000
# 2 33.7398 97.0909 34.9288 0.0000 -1.7391 0.0000
# 3 44.7973 34.9288 90.1377 0.0000 -2.3315 0.0000
# 4 0.0000 0.0000 0.0000 16.4127 0.0000 -0.7298
# 5 -2.5958 -1.7391 -2.3315 0.0000 28.6542 0.0000
# 6 0.0000 0.0000 0.0000 -0.7298 0.0000 15.0326
#
#
#
# Elastic Compliance Matrix: (Units=1/GPa)
#
#
# Indices 1 2 3 4 5 6 
#
# 1 0.016342 -0.003197 -0.006864 0.000000 0.000728 0.000000
# 2 -0.003197 0.012597 -0.003287 0.000000 0.000207 0.000000
# 3 -0.006864 -0.003287 0.015792 0.000000 0.000464 0.000000
# 4 0.000000 0.000000 0.000000 0.061060 0.000000 0.002964
# 5 0.000728 0.000207 0.000464 0.000000 0.035015 0.000000
# 6 0.000000 0.000000 0.000000 0.002964 0.000000 0.066666
#
#
# Mechanical properties :
#
#
# Convention : Reuss Voigt Hill
#
# Bulk Modulus (GPa) = 55.45054 55.65360 55.55207
# Shear Modulus (GPa) = 20.81771 22.71890 21.76830
#
# Velocity S-wave (km/s) = 3.61868 3.78031 3.70038
# Velocity P-wave (km/s) = 7.23461 7.35267 7.29388
#
# Compressibility (1/GPa) = 0.01803409
#
# Stress axis : x y z
#
# Youngs Moduli (GPa) = 61.19049 79.38539 63.32513
#
# Poissons Ratio (x) = 0.25376 0.43469
# Poissons Ratio (y) = 0.19560 0.20817
# Poissons Ratio (z) = 0.42004 0.26096
#
# Static dielectric constant tensor:
#      x y z
#    x 3.000540 0.000000 0.017160 
#    y 0.000000 2.855170 0.000000 
#    z 0.017160 0.000000 3.016140 
# 
# 
# High freq. dielectric constant tensor:
#      x y z
#    x 1.595420 0.000000 0.000890 
#    y 0.000000 1.596100 0.000000 
#    z 0.000890 0.000000 1.599750 
# 
# From -- ./inp_files/351639.got.cif
#   From: 2010.06.25/outbox.cif.g09.slc.cpg/sg12_176_cif.got.tgz:351639.got - 2010.06.28 00:19:55.
