data_PCOD8078897
_publ_section_title
;
Structure prediction by ZEFSAII (Michael W. Deem and Ramdas Pophale) SiO2 
 PCOD8078897
Probable space group: C 2/M
;
_chemical_formula_sum "Si O2"
_cell_formula_units_Z 64
_cell_length_a 27.557621
_cell_length_b 22.965153
_cell_length_c 18.653786
_cell_angle_alpha 90.000000
_cell_angle_beta 162.977889
_cell_angle_gamma 90.000000
_cell_volume 3455.900326
_symmetry_space_group_name_H-M "C 2/M"
_symmetry_group_IT_number 12
_symmetry_cell_setting 'monoclinic'
loop_
_space_group_symop_operation_xyz
x,y,z
-x,y,-z
-x,-y,-z
x,-y,z
1/2+x,1/2+y,z
1/2-x,1/2+y,-z
1/2-x,1/2-y,-z
1/2+x,1/2-y,z
loop_
_atom_site_type_symbol
_atom_site_label
_atom_site_fract_x
_atom_site_fract_y
_atom_site_fract_z
Si Si1 0.293103 0.063599 0.157392
Si Si2 0.708315 0.613124 0.184010
Si Si3 0.075932 0.281268 0.530090
Si Si4 0.914466 0.064401 0.575706
Si Si5 0.362371 0.432584 0.657827
Si Si6 0.608721 0.932576 0.421162
Si Si7 0.013878 0.151707 0.439828
Si Si8 0.639628 0.147796 0.866319
O O1 0.304738 0.079725 0.256946
O O2 0.394973 0.108026 0.252699
O O3 0.371599 0.000000 0.257649
O O4 0.106279 0.064500 0.865984
O O5 0.756182 0.681716 0.246326
O O6 0.761685 0.584364 0.333929
O O7 0.510455 0.607720 0.896780
O O8 0.000000 0.297716 0.500000
O O9 0.114440 0.212356 0.583153
O O10 0.951940 0.293061 0.287341
O O11 0.818659 0.083456 0.513176
O O12 0.882866 0.108411 0.465377
O O13 0.857261 0.000000 0.469994
O O14 0.422401 0.500000 0.746433
O O15 0.197952 0.422188 0.471301
O O16 0.450355 0.888765 0.197306
O O17 0.552528 0.000000 0.349172
O O18 0.000000 0.124890 0.500000
O O19 0.827501 0.162368 0.149140
#
# Coordination Sequence:
#
# PCOD8078897 Si02
#       8
#     8   8   8   8   8   8   8   8
#     4   9  15  25  44  71 104 135 158 196 252 307
#     4  10  17  27  46  72 110 142 170 201 235 304
#     4  10  19  32  47  76 104 135 172 199 253 313
#     4   8  16  31  51  74  96 122 162 210 260 306
#     4   9  17  31  50  76 108 141 173 200 244 311
#     4  10  19  28  46  76 109 143 172 204 247 303
#     4  10  21  35  54  75  95 129 170 221 271 308
#     4  10  19  32  47  71 107 137 170 211 252 303
#
# _framework density 18.519051999999999
#
# number of rings (size 3 to 8) (size 9 to 14) (size 15 to 20)
#    0.000    2.500    1.250    3.000    0.000    1.750 
#    0.000    1.875    0.000    3.750   13.000    2.625 
#    0.000    0.000    0.000    0.000    0.000    0.000 
#
# Total GULP energy -396645.243879 kJ/mol
# GULP energy per Si atom -12395.163871 kJ/mol
# Density = 1.847690 g / cm^3
# Si number density = 18.519052 Si / 1000 Ang^3
#
#
#
# Elastic Constant Matrix: (Units=GPa)
#
#
# Indices 1 2 3 4 5 6 
#
# 1 110.3780 43.0798 6.5070 0.0000 -1.2136 0.0000
# 2 43.0798 83.8917 11.2474 0.0000 -0.3057 0.0000
# 3 6.5070 11.2474 21.0449 0.0000 0.2231 0.0000
# 4 0.0000 0.0000 0.0000 18.8685 0.0000 -1.3224
# 5 -1.2136 -0.3057 0.2231 0.0000 22.4272 0.0000
# 6 0.0000 0.0000 0.0000 -1.3224 0.0000 25.6838
#
#
#
# Elastic Compliance Matrix: (Units=1/GPa)
#
#
# Indices 1 2 3 4 5 6 
#
# 1 0.011341 -0.005764 -0.000432 0.000000 0.000539 0.000000
# 2 -0.005764 0.015771 -0.006646 0.000000 -0.000031 0.000000
# 3 -0.000432 -0.006646 0.051210 0.000000 -0.000623 0.000000
# 4 0.000000 0.000000 0.000000 0.053190 0.000000 0.002739
# 5 0.000539 -0.000031 -0.000623 0.000000 0.044624 0.000000
# 6 0.000000 0.000000 0.000000 0.002739 0.000000 0.039076
#
#
# Mechanical properties :
#
#
# Convention : Reuss Voigt Hill
#
# Bulk Modulus (GPa) = 18.99780 37.44257 28.22018
# Shear Modulus (GPa) = 19.34678 23.69459 21.52068
#
# Velocity S-wave (km/s) = 3.23568 3.58085 3.41263
# Velocity P-wave (km/s) = 4.92344 6.11220 5.54974
#
# Compressibility (1/GPa) = 0.05263768
#
# Stress axis : x y z
#
# Youngs Moduli (GPa) = 88.17768 63.40791 19.52752
#
# Poissons Ratio (x) = 0.36547 0.00843
# Poissons Ratio (y) = 0.50824 0.12979
# Poissons Ratio (z) = 0.03807 0.42143
#
# Static dielectric constant tensor:
#      x y z
#    x 3.615240 0.000000 -0.031330 
#    y 0.000000 3.422420 0.000000 
#    z -0.031330 0.000000 2.978240 
# 
# 
# High freq. dielectric constant tensor:
#      x y z
#    x 1.719670 0.000000 -0.006140 
#    y 0.000000 1.708590 0.000000 
#    z -0.006140 0.000000 1.680130 
# 
# From -- ./inp_files/184959.got.cif
#   From: 2010.06.25/outbox.cif.g09.slc.cpg/sg12_93_cif.got.tgz:184959.got - 2010.06.28 00:19:55.
