data_PCOD8078179
_publ_section_title
;
Structure prediction by ZEFSAII (Michael W. Deem and Ramdas Pophale) SiO2 
 PCOD8078179
Probable space group: C 2/M
;
_chemical_formula_sum "Si O2"
_cell_formula_units_Z 56
_cell_length_a 5.329121
_cell_length_b 14.654000
_cell_length_c 35.122420
_cell_angle_alpha 90.000000
_cell_angle_beta 62.922106
_cell_angle_gamma 90.000000
_cell_volume 2442.169153
_symmetry_space_group_name_H-M "C 2/M"
_symmetry_group_IT_number 12
_symmetry_cell_setting 'monoclinic'
loop_
_space_group_symop_operation_xyz
x,y,z
-x,y,-z
-x,-y,-z
x,-y,z
1/2+x,1/2+y,z
1/2-x,1/2+y,-z
1/2-x,1/2-y,-z
1/2+x,1/2-y,z
loop_
_atom_site_type_symbol
_atom_site_label
_atom_site_fract_x
_atom_site_fract_y
_atom_site_fract_z
Si Si1 0.456793 0.107046 0.681076
Si Si2 0.086108 0.857364 0.137965
Si Si3 0.257731 0.849079 0.414066
Si Si4 0.196454 0.107199 0.267842
Si Si5 0.480683 0.847375 0.173106
Si Si6 0.860604 0.690735 0.046466
Si Si7 0.650951 0.854361 0.449659
O O1 0.589312 0.162165 0.636901
O O2 0.630351 0.135428 0.706582
O O3 0.130194 0.135432 0.706584
O O4 0.488053 0.000000 0.670653
O O5 0.274746 0.902255 0.158408
O O6 0.051586 0.749957 0.149473
O O7 0.239178 0.877130 0.086941
O O8 0.774809 0.902255 0.158409
O O9 0.462071 0.901878 0.429694
O O10 0.189552 0.751300 0.436770
O O11 0.959634 0.901875 0.429677
O O12 0.327772 0.164203 0.224074
O O13 0.228528 0.000000 0.257149
O O14 0.599670 0.750001 0.050111
O O15 0.000000 0.639810 0.000000
O O16 0.500000 0.867340 0.500000
#
# Coordination Sequence:
#
# PCOD8078179 Si02
#       7
#     8   8   8   8   8   8   8
#     4  10  21  37  54  70  94 123 159 204 239 274
#     4  10  17  30  43  70 100 121 149 190 245 283
#     4  10  18  32  53  76  96 128 162 189 233 274
#     4  10  21  37  52  68  90 125 166 200 237 280
#     4  10  18  30  48  65  93 126 152 192 242 285
#     4  10  16  25  41  63  96 131 158 182 222 291
#     4  10  19  33  53  76 105 132 154 187 224 276
#
# _framework density 22.930437000000001
#
# number of rings (size 3 to 8) (size 9 to 14) (size 15 to 20)
#    0.000    2.000    2.857    3.857    0.000    0.000 
#    0.000   17.143    0.000    4.714    0.000    0.000 
#    0.000    6.286    0.000    0.000    0.000    0.000 
#
# Total GULP energy -346976.965635 kJ/mol
# GULP energy per Si atom -12392.034487 kJ/mol
# Density = 2.287825 g / cm^3
# Si number density = 22.930437 Si / 1000 Ang^3
#
#
#
# Elastic Constant Matrix: (Units=GPa)
#
#
# Indices 1 2 3 4 5 6 
#
# 1 283.6159 -5.2853 96.8931 0.0015 4.3713 0.0005
# 2 -5.2853 19.5170 0.0548 0.0010 -0.2619 0.0000
# 3 96.8931 0.0548 224.2631 0.0029 -1.4396 0.0007
# 4 0.0015 0.0010 0.0029 -6.1996 -0.0018 -0.0113
# 5 4.3713 -0.2619 -1.4396 -0.0018 49.2475 -0.0004
# 6 0.0005 0.0000 0.0007 -0.0113 -0.0004 -6.4528
#
#
#
# Elastic Compliance Matrix: (Units=1/GPa)
#
#
# Indices 1 2 3 4 5 6 
#
# 1 0.004170 0.001129 -0.001805 0.000000 -0.000417 0.000000
# 2 0.001129 0.051547 -0.000499 0.000008 0.000159 0.000000
# 3 -0.001805 -0.000499 0.005241 0.000002 0.000311 0.000000
# 4 0.000000 0.000008 0.000002 -0.161300 -0.000006 0.000284
# 5 -0.000417 0.000159 0.000311 -0.000006 0.020353 -0.000001
# 6 0.000000 0.000000 0.000000 0.000284 -0.000001 -0.154971
#
#
# Mechanical properties :
#
#
# Convention : Reuss Voigt Hill
#
# Bulk Modulus (GPa) = 17.06278 78.96903 48.01590
# Shear Modulus (GPa) = -23.46584 36.36789 6.45102
#
# Velocity S-wave (km/s) = -3.20245 3.98679 1.67911
# Velocity P-wave (km/s) = 2.49339 7.46364 4.97438
#
# Compressibility (1/GPa) = 0.05860709
#
# Stress axis : x y z
#
# Youngs Moduli (GPa) = 239.81689 19.39993 190.80992
#
# Poissons Ratio (x) = -0.02190 0.34432
# Poissons Ratio (y) = -0.27068 0.09526
# Poissons Ratio (z) = 0.43276 0.00969
#
# Static dielectric constant tensor:
#      x y z
#    x 8.083740 -0.000030 0.188620 
#    y -0.000030 3.227960 0.000000 
#    z 0.188620 0.000000 4.257590 
# 
# 
# High freq. dielectric constant tensor:
#      x y z
#    x 1.951490 0.000000 0.001560 
#    y 0.000000 1.830700 0.000000 
#    z 0.001560 0.000000 1.919820 
# 
# From -- ./inp_files/371594.got.cif
#   From: 2010.06.25/outbox.cif.g09.slc.cpg/sg12_186_cif.got.tgz:371594.got - 2010.06.28 00:19:55.
