data_PCOD8078474
_publ_section_title
;
Structure prediction by ZEFSAII (Michael W. Deem and Ramdas Pophale) SiO2 
 PCOD8078474
Probable space group: C 2/M
;
_chemical_formula_sum "Si O2"
_cell_formula_units_Z 64
_cell_length_a 24.295555
_cell_length_b 9.145106
_cell_length_c 18.722277
_cell_angle_alpha 90.000000
_cell_angle_beta 100.908803
_cell_angle_gamma 90.000000
_cell_volume 4084.647729
_symmetry_space_group_name_H-M "C 2/M"
_symmetry_group_IT_number 12
_symmetry_cell_setting 'monoclinic'
loop_
_space_group_symop_operation_xyz
x,y,z
-x,y,-z
-x,-y,-z
x,-y,z
1/2+x,1/2+y,z
1/2-x,1/2+y,-z
1/2-x,1/2-y,-z
1/2+x,1/2-y,z
loop_
_atom_site_type_symbol
_atom_site_label
_atom_site_fract_x
_atom_site_fract_y
_atom_site_fract_z
Si Si1 0.737750 0.829764 0.388183
Si Si2 0.495336 0.172207 0.163057
Si Si3 0.045222 0.669161 0.450612
Si Si4 0.460997 0.328385 0.696670
Si Si5 0.402462 0.331564 0.878924
Si Si6 0.443307 0.337804 0.032262
Si Si7 0.660383 0.666061 0.270029
Si Si8 0.170217 0.330485 0.512682
O O1 0.710646 0.767868 0.309096
O O2 0.798344 0.758675 0.417459
O O3 0.695790 0.789375 0.442106
O O4 0.746837 0.000000 0.380681
O O5 0.494121 0.249648 0.240133
O O6 0.552567 0.216229 0.138399
O O7 0.444059 0.226717 0.099443
O O8 0.490776 0.000000 0.172257
O O9 0.046589 0.500000 0.426847
O O10 0.029001 0.767791 0.379689
O O11 0.105442 0.715642 0.496876
O O12 0.000000 0.699232 0.500000
O O13 0.472803 0.500000 0.700897
O O14 0.398025 0.290927 0.706340
O O15 0.424447 0.500000 0.872665
O O16 0.346230 0.311394 0.817653
O O17 0.393523 0.302931 0.961958
O O18 0.435412 0.500000 0.062132
O O19 0.500000 0.327690 0.000000
O O20 0.676271 0.500000 0.292774
O O21 0.178712 0.500000 0.531769
#
# Coordination Sequence:
#
# PCOD8078474 Si02
#       8
#     8   8   8   8   8   8   8   8
#     4  10  18  27  43  63  83 108 139 174 210 247
#     4  10  17  23  35  53  74 100 135 175 210 241
#     4  10  20  34  50  66  85 108 136 175 220 259
#     4  10  19  30  43  58  79 107 141 174 209 253
#     4   8  15  25  35  50  74 106 138 167 203 248
#     4   8  13  23  35  47  70 102 136 168 201 243
#     4   9  16  26  40  58  80 108 139 173 210 245
#     4   9  18  31  44  61  84 108 135 168 211 256
#
# _framework density 15.668424999999999
#
# number of rings (size 3 to 8) (size 9 to 14) (size 15 to 20)
#    0.000    2.750    1.250    3.375    0.000    5.500 
#    0.000    0.000    0.000    0.000    0.000    0.000 
#    0.000    0.000    0.000    1.125    0.000   12.625 
#
# Total GULP energy -396588.790851 kJ/mol
# GULP energy per Si atom -12393.399714 kJ/mol
# Density = 1.563276 g / cm^3
# Si number density = 15.668425 Si / 1000 Ang^3
#
#
#
# Elastic Constant Matrix: (Units=GPa)
#
#
# Indices 1 2 3 4 5 6 
#
# 1 52.6142 28.6903 45.5221 0.0000 14.2966 0.0000
# 2 28.6903 92.0293 65.6380 0.0000 17.5706 0.0000
# 3 45.5221 65.6380 119.5699 0.0000 37.9674 0.0000
# 4 0.0000 0.0000 0.0000 27.8811 0.0000 7.2148
# 5 14.2966 17.5706 37.9674 0.0000 23.0576 0.0000
# 6 0.0000 0.0000 0.0000 7.2148 0.0000 14.1439
#
#
#
# Elastic Compliance Matrix: (Units=1/GPa)
#
#
# Indices 1 2 3 4 5 6 
#
# 1 0.028540 -0.001895 -0.009777 0.000000 -0.000153 0.000000
# 2 -0.001895 0.018300 -0.011043 0.000000 0.005415 0.000000
# 3 -0.009777 -0.011043 0.028400 0.000000 -0.032287 0.000000
# 4 0.000000 0.000000 0.000000 0.041321 0.000000 -0.021078
# 5 -0.000153 0.005415 -0.032287 0.000000 0.092503 0.000000
# 6 0.000000 0.000000 0.000000 -0.021078 0.000000 0.081454
#
#
# Mechanical properties :
#
#
# Convention : Reuss Voigt Hill
#
# Bulk Modulus (GPa) = 33.54667 60.43492 46.99080
# Shear Modulus (GPa) = 14.45572 21.30738 17.88155
#
# Velocity S-wave (km/s) = 3.04073 3.69167 3.38190
# Velocity P-wave (km/s) = 5.81248 7.53831 6.73094
#
# Compressibility (1/GPa) = 0.02980922
#
# Stress axis : x y z
#
# Youngs Moduli (GPa) = 35.03837 54.64594 35.21162
#
# Poissons Ratio (x) = 0.10357 0.34425
# Poissons Ratio (y) = 0.06641 0.38885
# Poissons Ratio (z) = 0.34255 0.60347
#
# Static dielectric constant tensor:
#      x y z
#    x 2.580630 0.000000 0.444500 
#    y 0.000000 2.951430 0.000000 
#    z 0.444500 0.000000 3.277330 
# 
# 
# High freq. dielectric constant tensor:
#      x y z
#    x 1.533730 0.000000 0.045870 
#    y 0.000000 1.606130 0.000000 
#    z 0.045870 0.000000 1.603310 
# 
# From -- ./inp_files/291579.got.cif
#   From: 2010.06.25/outbox.cif.g09.slc.cpg/sg12_146_cif.got.tgz:291579.got - 2010.06.28 00:19:55.
