data_PCOD8078003
_publ_section_title
;
Structure prediction by ZEFSAII (Michael W. Deem and Ramdas Pophale) SiO2 
 PCOD8078003
Probable space group: P 21/M
;
_chemical_formula_sum "Si O2"
_cell_formula_units_Z 32
_cell_length_a 15.000000
_cell_length_b 21.000000
_cell_length_c 15.000000
_cell_angle_alpha 90.000000
_cell_angle_beta 160.000000
_cell_angle_gamma 90.000000
_cell_volume 1616.045177
_symmetry_space_group_name_H-M "P 21/M"
_symmetry_group_IT_number 11
_symmetry_cell_setting 'monoclinic'
loop_
_space_group_symop_operation_xyz
x,y,z
-x,1/2+y,-z
-x,-y,-z
x,1/2-y,z
loop_
_atom_site_type_symbol
_atom_site_label
_atom_site_fract_x
_atom_site_fract_y
_atom_site_fract_z
Si Si1 0.501657 0.986777 0.106154
Si Si2 0.474078 0.674188 0.331696
Si Si3 0.774267 0.823854 0.927005
Si Si4 0.320825 0.826299 0.380598
Si Si5 0.976216 0.325086 0.217649
Si Si6 0.707101 0.385418 0.299717
Si Si7 0.017140 0.585331 0.623597
Si Si8 0.804255 0.677915 0.159547
O O1 0.718060 0.935515 0.337379
O O2 0.580041 0.052647 0.228180
O O3 0.208724 0.964191 0.856257
O O4 0.500000 0.000000 0.000000
O O5 0.472278 0.750000 0.329785
O O6 0.384359 0.648066 0.342467
O O7 0.762668 0.648173 0.583587
O O8 0.272547 0.647901 0.068975
O O9 0.790263 0.750000 0.917098
O O10 0.536087 0.855002 0.649710
O O11 0.720977 0.833838 0.980255
O O12 0.044737 0.855637 0.150668
O O13 0.317347 0.750000 0.382008
O O14 0.976512 0.250000 0.219727
O O15 0.970686 0.347937 0.314047
O O16 0.875264 0.404678 0.373077
O O17 0.917925 0.355082 0.563602
O O18 0.457210 0.343384 0.033220
O O19 0.859460 0.750000 0.236662
#
# Coordination Sequence:
#
# PCOD8078003 Si02
#       8
#     4   4   4   4   4   4   4   4
#     4  10  20  37  57  75  93 123 176 230 263 278
#     4   9  17  29  45  68 100 135 166 200 242 294
#     4   9  17  28  43  66  97 131 163 199 240 289
#     4   9  15  26  45  65  91 131 170 198 236 290
#     4  10  20  32  47  73 109 138 161 198 249 307
#     4  11  21  36  54  73  99 136 174 212 251 292
#     4  11  21  36  55  75 100 134 172 213 254 294
#     4  11  22  34  49  75 111 140 164 200 249 307
#
# _framework density 19.801427
#
# number of rings (size 3 to 8) (size 9 to 14) (size 15 to 20)
#    0.000    2.000    0.000    6.375    0.000    6.000 
#    0.000    1.250    0.000    0.000    0.000    0.000 
#    0.000   70.000    0.000    0.000    0.000    0.000 
#
# Total GULP energy -396544.549866 kJ/mol
# GULP energy per Si atom -12392.017183 kJ/mol
# Density = 1.975636 g / cm^3
# Si number density = 19.801427 Si / 1000 Ang^3
#
#
#
# Elastic Constant Matrix: (Units=GPa)
#
#
# Indices 1 2 3 4 5 6 
#
# 1 -6.3079 21.2113 14.0744 0.0000 8.0391 0.0000
# 2 21.2113 21.0254 23.1061 0.0000 -8.6633 0.0000
# 3 14.0744 23.1061 131.0406 0.0000 -9.1753 0.0000
# 4 0.0000 0.0000 0.0000 24.0818 0.0000 -3.5902
# 5 8.0391 -8.6633 -9.1753 0.0000 18.3920 0.0000
# 6 0.0000 0.0000 0.0000 -3.5902 0.0000 -10.5272
#
#
#
# Elastic Compliance Matrix: (Units=1/GPa)
#
#
# Indices 1 2 3 4 5 6 
#
# 1 -0.021018 0.033131 -0.001915 0.000000 0.023837 0.000000
# 2 0.033131 0.018425 -0.007475 0.000000 -0.009532 0.000000
# 3 -0.001915 -0.007475 0.009292 0.000000 0.001952 0.000000
# 4 0.000000 0.000000 0.000000 0.039516 0.000000 -0.013477
# 5 0.023837 -0.009532 0.001952 0.000000 0.040436 0.000000
# 6 0.000000 0.000000 0.000000 -0.013477 0.000000 -0.090396
#
#
# Mechanical properties :
#
#
# Convention : Reuss Voigt Hill
#
# Bulk Modulus (GPa) = 18.45705 29.17129 23.81417
# Shear Modulus (GPa) = -150.75047 12.21374 -69.26837
#
# Velocity S-wave (km/s) = -8.73478 2.48626 -5.92093
# Velocity P-wave (km/s) = 9.61183 4.79645 5.88988
#
# Compressibility (1/GPa) = 0.05417984
#
# Stress axis : x y z
#
# Youngs Moduli (GPa) = -47.57774 54.27494 107.62439
#
# Poissons Ratio (x) = -1.79818 0.20614
# Poissons Ratio (y) = 1.57629 0.80445
# Poissons Ratio (z) = -0.09113 0.40568
#
# Static dielectric constant tensor:
#      x y z
#    x 3.374690 0.000000 0.181610 
#    y 0.000000 3.530320 0.000000 
#    z 0.181610 0.000000 4.324370 
# 
# 
# High freq. dielectric constant tensor:
#      x y z
#    x 1.744370 0.000000 0.008390 
#    y 0.000000 1.710770 0.000000 
#    z 0.008390 0.000000 1.804030 
# 
# From -- ./inp_files/52688.got.cif
#   From: 2010.06.25/outbox.ucp.g09.slc.cvg/sg11_27_cif.got.tgz:52688.got - 2010.06.28 13:43:20.
