data_PCOD8078544
_publ_section_title
;
Structure prediction by ZEFSAII (Michael W. Deem and Ramdas Pophale) SiO2 
 PCOD8078544
Probable space group: C 2/M
;
_chemical_formula_sum "Si O2"
_cell_formula_units_Z 64
_cell_length_a 32.982847
_cell_length_b 9.406174
_cell_length_c 14.015755
_cell_angle_alpha 90.000000
_cell_angle_beta 81.107383
_cell_angle_gamma 90.000000
_cell_volume 4296.014197
_symmetry_space_group_name_H-M "C 2/M"
_symmetry_group_IT_number 12
_symmetry_cell_setting 'monoclinic'
loop_
_space_group_symop_operation_xyz
x,y,z
-x,y,-z
-x,-y,-z
x,-y,z
1/2+x,1/2+y,z
1/2-x,1/2+y,-z
1/2-x,1/2-y,-z
1/2+x,1/2-y,z
loop_
_atom_site_type_symbol
_atom_site_label
_atom_site_fract_x
_atom_site_fract_y
_atom_site_fract_z
Si Si1 0.533311 0.334270 0.066614
Si Si2 0.491087 0.337000 0.713890
Si Si3 0.086739 0.165112 0.391493
Si Si4 0.614021 0.832535 0.049144
Si Si5 0.232492 0.656665 0.142282
Si Si6 0.853801 0.667569 0.755298
Si Si7 0.538904 0.161281 0.554361
Si Si8 0.301298 0.157119 0.058228
O O1 0.544380 0.500000 0.062004
O O2 0.515561 0.288112 0.175337
O O3 0.574331 0.249219 0.026433
O O4 0.500000 0.293962 0.000000
O O5 0.506023 0.500000 0.701524
O O6 0.448766 0.316815 0.673346
O O7 0.526438 0.236452 0.657944
O O8 0.127639 0.238864 0.336398
O O9 0.074925 0.246595 0.493008
O O10 0.095184 0.000000 0.411306
O O11 0.622588 0.793798 0.155920
O O12 0.607303 0.000000 0.040493
O O13 0.652506 0.782164 0.969679
O O14 0.244700 0.500000 0.172657
O O15 0.194087 0.712095 0.218832
O O16 0.273240 0.751352 0.140227
O O17 0.218859 0.651747 0.038063
O O18 0.858395 0.500000 0.731706
O O19 0.500000 0.160511 0.500000
O O20 0.553921 0.000000 0.568523
O O21 0.302958 0.000000 0.101760
#
# Coordination Sequence:
#
# PCOD8078544 Si02
#       8
#     8   8   8   8   8   8   8   8
#     4  10  20  32  44  59  79 103 134 172 210 242
#     4   9  17  29  41  55  75  99 129 166 202 237
#     4  10  17  25  39  58  78 103 133 163 195 234
#     4   9  17  28  41  55  74 101 133 168 204 238
#     4   8  14  23  34  51  73  99 128 158 191 227
#     4   9  16  25  37  54  79 106 132 163 196 231
#     4   9  17  27  40  57  75  98 127 160 198 238
#     4   8  14  24  36  51  71  96 127 162 195 229
#
# _framework density 14.89753
#
# number of rings (size 3 to 8) (size 9 to 14) (size 15 to 20)
#    0.000    3.000    1.250    2.250    0.000    3.750 
#    0.000    2.500    0.000    0.000    0.000    0.000 
#    0.000    0.000    0.000    1.125    0.000   14.250 
#
# Total GULP energy -396663.513585 kJ/mol
# GULP energy per Si atom -12395.734800 kJ/mol
# Density = 1.486362 g / cm^3
# Si number density = 14.897530 Si / 1000 Ang^3
#
#
#
# Elastic Constant Matrix: (Units=GPa)
#
#
# Indices 1 2 3 4 5 6 
#
# 1 96.1380 58.2003 45.0114 0.0000 -30.3819 0.0000
# 2 58.2003 83.8755 36.6250 0.0000 -24.7356 0.0000
# 3 45.0114 36.6250 52.6750 0.0000 -19.5574 0.0000
# 4 0.0000 0.0000 0.0000 19.5153 0.0000 -10.5527
# 5 -30.3819 -24.7356 -19.5574 0.0000 25.7157 0.0000
# 6 0.0000 0.0000 0.0000 -10.5527 0.0000 26.0465
#
#
#
# Elastic Compliance Matrix: (Units=1/GPa)
#
#
# Indices 1 2 3 4 5 6 
#
# 1 0.024499 -0.008842 -0.010031 0.000000 0.012812 0.000000
# 2 -0.008842 0.022537 -0.005497 0.000000 0.007052 0.000000
# 3 -0.010031 -0.005497 0.034857 0.000000 0.009372 0.000000
# 4 0.000000 0.000000 0.000000 0.065618 0.000000 0.026585
# 5 0.012812 0.007052 0.009372 0.000000 0.067934 0.000000
# 6 0.000000 0.000000 0.000000 0.026585 0.000000 0.049164
#
#
# Mechanical properties :
#
#
# Convention : Reuss Voigt Hill
#
# Bulk Modulus (GPa) = 30.16050 56.92910 43.54480
# Shear Modulus (GPa) = 15.41312 20.44562 17.92937
#
# Velocity S-wave (km/s) = 3.22002 3.70863 3.47293
# Velocity P-wave (km/s) = 5.84072 7.52565 6.73607
#
# Compressibility (1/GPa) = 0.03315595
#
# Stress axis : x y z
#
# Youngs Moduli (GPa) = 40.81735 44.37060 28.68857
#
# Poissons Ratio (x) = 0.39231 0.28776
# Poissons Ratio (y) = 0.36089 0.15769
# Poissons Ratio (z) = 0.40942 0.24390
#
# Static dielectric constant tensor:
#      x y z
#    x 2.764630 0.000000 -0.341280 
#    y 0.000000 3.026880 0.000000 
#    z -0.341280 0.000000 2.608140 
# 
# 
# High freq. dielectric constant tensor:
#      x y z
#    x 1.546660 0.000000 -0.042840 
#    y 0.000000 1.577100 0.000000 
#    z -0.042840 0.000000 1.527750 
# 
# From -- ./inp_files/248300.got.cif
#   From: 2010.06.25/outbox.cif.g09.slc.cpg/sg12_125_cif.got.tgz:248300.got - 2010.06.28 00:19:55.
