data_PCOD8078674
_publ_section_title
;
Structure prediction by ZEFSAII (Michael W. Deem and Ramdas Pophale) SiO2 
 PCOD8078674
Probable space group: C 2/M
;
_chemical_formula_sum "Si O2"
_cell_formula_units_Z 64
_cell_length_a 20.941868
_cell_length_b 9.169476
_cell_length_c 20.405370
_cell_angle_alpha 90.000000
_cell_angle_beta 79.006954
_cell_angle_gamma 90.000000
_cell_volume 3846.460075
_symmetry_space_group_name_H-M "C 2/M"
_symmetry_group_IT_number 12
_symmetry_cell_setting 'monoclinic'
loop_
_space_group_symop_operation_xyz
x,y,z
-x,y,-z
-x,-y,-z
x,-y,z
1/2+x,1/2+y,z
1/2-x,1/2+y,-z
1/2-x,1/2-y,-z
1/2+x,1/2-y,z
loop_
_atom_site_type_symbol
_atom_site_label
_atom_site_fract_x
_atom_site_fract_y
_atom_site_fract_z
Si Si1 0.070618 0.829329 0.472874
Si Si2 0.853869 0.829148 0.670571
Si Si3 0.692942 0.338320 0.817941
Si Si4 0.313249 0.330727 0.462818
Si Si5 0.277233 0.668603 0.327358
Si Si6 0.652587 0.164481 0.199152
Si Si7 0.834101 0.835165 0.928762
Si Si8 0.320290 0.163659 0.057114
O O1 0.091035 0.798038 0.394197
O O2 0.123544 0.763691 0.513400
O O3 0.000000 0.756933 0.500000
O O4 0.066301 0.000000 0.487880
O O5 0.786070 0.769491 0.655593
O O6 0.876372 0.748510 0.732402
O O7 0.845531 0.000000 0.686919
O O8 0.665572 0.500000 0.837512
O O9 0.679208 0.290411 0.745240
O O10 0.770150 0.337016 0.811285
O O11 0.659579 0.229249 0.876078
O O12 0.304820 0.500000 0.482676
O O13 0.250000 0.250000 0.500000
O O14 0.321138 0.307868 0.383098
O O15 0.254022 0.500000 0.325348
O O16 0.631462 0.248604 0.137272
O O17 0.624871 0.000000 0.202299
O O18 0.756923 0.834080 0.935211
O O19 0.860686 0.000000 0.924685
O O20 0.853208 0.757877 0.993189
O O21 0.347481 0.000000 0.047554
#
# Coordination Sequence:
#
# PCOD8078674 Si02
#       8
#     8   8   8   8   8   8   8   8
#     4   9  18  31  46  66  91 118 148 183 226 274
#     4  10  17  26  42  61  80 107 142 179 218 262
#     4   8  14  23  32  46  69  99 130 165 208 253
#     4  10  18  30  48  68  88 114 147 187 228 268
#     4   9  17  27  41  60  83 107 138 180 223 261
#     4   9  16  25  36  51  74 102 134 175 216 254
#     4   9  15  22  32  47  68  98 136 173 206 249
#     4   9  15  21  30  45  67  98 133 169 206 247
#
# _framework density 16.638674999999999
#
# number of rings (size 3 to 8) (size 9 to 14) (size 15 to 20)
#    0.000    2.875    1.250    2.250    0.000    6.000 
#    0.000    0.000    0.000    3.375    0.000    0.000 
#    0.000    0.000    0.000    1.125    0.000   27.000 
#
# Total GULP energy -396650.237854 kJ/mol
# GULP energy per Si atom -12395.319933 kJ/mol
# Density = 1.660080 g / cm^3
# Si number density = 16.638675 Si / 1000 Ang^3
#
#
#
# Elastic Constant Matrix: (Units=GPa)
#
#
# Indices 1 2 3 4 5 6 
#
# 1 52.7274 24.6652 47.2635 0.0000 4.1104 0.0000
# 2 24.6652 106.4675 66.3978 0.0000 9.7442 0.0000
# 3 47.2635 66.3978 140.7818 0.0000 24.7994 0.0000
# 4 0.0000 0.0000 0.0000 28.2145 0.0000 4.8392
# 5 4.1104 9.7442 24.7994 0.0000 15.6399 0.0000
# 6 0.0000 0.0000 0.0000 4.8392 0.0000 8.1611
#
#
#
# Elastic Compliance Matrix: (Units=1/GPa)
#
#
# Indices 1 2 3 4 5 6 
#
# 1 0.028371 -0.000623 -0.011081 0.000000 0.010502 0.000000
# 2 -0.000623 0.013380 -0.006468 0.000000 0.002084 0.000000
# 3 -0.011081 -0.006468 0.017554 0.000000 -0.020893 0.000000
# 4 0.000000 0.000000 0.000000 0.039455 0.000000 -0.023396
# 5 0.010502 0.002084 -0.020893 0.000000 0.093009 0.000000
# 6 0.000000 0.000000 0.000000 -0.023396 0.000000 0.136406
#
#
# Mechanical properties :
#
#
# Convention : Reuss Voigt Hill
#
# Bulk Modulus (GPa) = 43.55341 64.06995 53.81168
# Shear Modulus (GPa) = 13.43457 21.17977 17.30717
#
# Velocity S-wave (km/s) = 2.84461 3.57168 3.22868
# Velocity P-wave (km/s) = 6.08457 7.45650 6.80519
#
# Compressibility (1/GPa) = 0.02296031
#
# Stress axis : x y z
#
# Youngs Moduli (GPa) = 35.24742 74.73721 56.96601
#
# Poissons Ratio (x) = 0.04659 0.63122
# Poissons Ratio (y) = 0.02197 0.36848
# Poissons Ratio (z) = 0.39057 0.48343
#
# Static dielectric constant tensor:
#      x y z
#    x 2.659950 0.000000 0.328940 
#    y 0.000000 3.205210 0.000000 
#    z 0.328940 0.000000 3.449180 
# 
# 
# High freq. dielectric constant tensor:
#      x y z
#    x 1.559790 0.000000 0.031540 
#    y 0.000000 1.641080 0.000000 
#    z 0.031540 0.000000 1.656360 
# 
# From -- ./inp_files/319881.got.cif
#   From: 2010.06.25/outbox.cif.g09.slc.cpg/sg12_160_cif.got.tgz:319881.got - 2010.06.28 00:19:55.
