data_PCOD8078908
_publ_section_title
;
Structure prediction by ZEFSAII (Michael W. Deem and Ramdas Pophale) SiO2 
 PCOD8078908
Probable space group: C 2/M
;
_chemical_formula_sum "Si O2"
_cell_formula_units_Z 52
_cell_length_a 30.712967
_cell_length_b 19.096840
_cell_length_c 5.484470
_cell_angle_alpha 90.000000
_cell_angle_beta 117.175436
_cell_angle_gamma 90.000000
_cell_volume 2861.664442
_symmetry_space_group_name_H-M "C 2/M"
_symmetry_group_IT_number 12
_symmetry_cell_setting 'monoclinic'
loop_
_space_group_symop_operation_xyz
x,y,z
-x,y,-z
-x,-y,-z
x,-y,z
1/2+x,1/2+y,z
1/2-x,1/2+y,-z
1/2-x,1/2-y,-z
1/2+x,1/2-y,z
loop_
_atom_site_type_symbol
_atom_site_label
_atom_site_fract_x
_atom_site_fract_y
_atom_site_fract_z
Si Si1 0.828348 0.357359 0.458553
Si Si2 0.787163 0.666876 0.852380
Si Si3 0.581730 0.922363 0.517748
Si Si4 0.000000 0.373232 0.000000
Si Si5 0.326817 0.305989 0.451293
Si Si6 0.859108 0.202147 0.033237
Si Si7 0.052497 0.297987 0.755812
O O1 0.799699 0.376843 0.636803
O O2 0.876818 0.405375 0.577129
O O3 0.843039 0.275484 0.499778
O O4 0.797319 0.375061 0.131365
O O5 0.731083 0.688531 0.701014
O O6 0.818842 0.736907 0.934591
O O7 0.526838 0.921886 0.265428
O O8 0.584383 0.861860 0.726507
O O9 0.590030 0.000000 0.649457
O O10 0.957993 0.322048 0.996748
O O11 0.350391 0.340613 0.265031
O O12 0.348716 0.341581 0.756039
O O13 0.915027 0.228585 0.169445
O O14 0.000000 0.283374 0.500000
#
# Coordination Sequence:
#
# PCOD8078908 Si02
#       7
#     8   8   8   4   8   8   8
#     4  10  18  30  44  62  86 102 128 165 215 269
#     4  10  17  28  47  66  85 102 123 159 222 269
#     4  11  22  34  45  59  78 110 147 192 232 267
#     4  10  21  34  48  58  70 104 154 198 234 266
#     4  10  17  27  47  67  84 102 123 159 223 267
#     4  10  17  28  43  62  87 101 129 165 211 268
#     4  10  21  33  45  58  79 110 146 187 231 268
#
# _framework density 18.171241999999999
#
# number of rings (size 3 to 8) (size 9 to 14) (size 15 to 20)
#    0.000    1.846    3.077    6.692    2.154    3.385 
#    0.000    0.000    0.000    0.000    0.000    0.000 
#    0.000    0.000    0.000    0.000    0.000    0.000 
#
# Total GULP energy -322098.310491 kJ/mol
# GULP energy per Si atom -12388.396557 kJ/mol
# Density = 1.812988 g / cm^3
# Si number density = 18.171242 Si / 1000 Ang^3
#
#
#
# Elastic Constant Matrix: (Units=GPa)
#
#
# Indices 1 2 3 4 5 6 
#
# 1 99.3741 11.3329 36.0375 0.0000 -15.4008 0.0000
# 2 11.3329 5.5802 3.8986 0.0000 2.9155 0.0000
# 3 36.0375 3.8986 111.6158 0.0000 -28.3070 0.0000
# 4 0.0000 0.0000 0.0000 7.2110 0.0000 0.3305
# 5 -15.4008 2.9155 -28.3070 0.0000 43.6005 0.0000
# 6 0.0000 0.0000 0.0000 0.3305 0.0000 7.9273
#
#
#
# Elastic Compliance Matrix: (Units=1/GPa)
#
#
# Indices 1 2 3 4 5 6 
#
# 1 0.015702 -0.033573 -0.002300 0.000000 0.006298 0.000000
# 2 -0.033573 0.270770 -0.007443 0.000000 -0.034797 0.000000
# 3 -0.002300 -0.007443 0.011830 0.000000 0.007366 0.000000
# 4 0.000000 0.000000 0.000000 0.138942 0.000000 -0.005792
# 5 0.006298 -0.034797 0.007366 0.000000 0.032269 0.000000
# 6 0.000000 0.000000 0.000000 -0.005792 0.000000 0.126388
#
#
# Mechanical properties :
#
#
# Convention : Reuss Voigt Hill
#
# Bulk Modulus (GPa) = 4.72433 35.45647 20.09040
# Shear Modulus (GPa) = 6.63933 22.76784 14.70358
#
# Velocity S-wave (km/s) = 1.91355 3.54356 2.84767
# Velocity P-wave (km/s) = 2.73638 6.02471 4.67894
#
# Compressibility (1/GPa) = 0.21167005
#
# Stress axis : x y z
#
# Youngs Moduli (GPa) = 63.68681 3.69318 84.53227
#
# Poissons Ratio (x) = 0.12399 0.19440
# Poissons Ratio (y) = 2.13817 0.62916
# Poissons Ratio (z) = 0.14646 0.02749
#
# Static dielectric constant tensor:
#      x y z
#    x 3.806530 0.000000 -0.597150 
#    y 0.000000 2.503060 0.000000 
#    z -0.597150 0.000000 4.265320 
# 
# 
# High freq. dielectric constant tensor:
#      x y z
#    x 1.721580 0.000000 -0.014050 
#    y 0.000000 1.585750 0.000000 
#    z -0.014050 0.000000 1.728870 
# 
# From -- ./inp_files/29081.got.cif
#   From: 2010.06.25/outbox.cif.g09.slc.cpg/sg12_15_cif.got.tgz:29081.got - 2010.06.28 00:19:55.
