data_PCOD8078920
_publ_section_title
;
Structure prediction by ZEFSAII (Michael W. Deem and Ramdas Pophale) SiO2 
 PCOD8078920
Probable space group: C 2/M
;
_chemical_formula_sum "Si O2"
_cell_formula_units_Z 56
_cell_length_a 22.687521
_cell_length_b 12.471292
_cell_length_c 12.396528
_cell_angle_alpha 90.000000
_cell_angle_beta 119.398951
_cell_angle_gamma 90.000000
_cell_volume 3055.820145
_symmetry_space_group_name_H-M "C 2/M"
_symmetry_group_IT_number 12
_symmetry_cell_setting 'monoclinic'
loop_
_space_group_symop_operation_xyz
x,y,z
-x,y,-z
-x,-y,-z
x,-y,z
1/2+x,1/2+y,z
1/2-x,1/2+y,-z
1/2-x,1/2-y,-z
1/2+x,1/2-y,z
loop_
_atom_site_type_symbol
_atom_site_label
_atom_site_fract_x
_atom_site_fract_y
_atom_site_fract_z
Si Si1 0.561840 0.117819 0.994078
Si Si2 0.184020 0.381779 0.266512
Si Si3 0.836888 0.127004 0.078562
Si Si4 0.548945 0.771868 0.770841
Si Si5 0.620718 0.877030 0.646392
Si Si6 0.251995 0.238740 0.168077
Si Si7 0.909209 0.626652 0.623621
O O1 0.584991 0.165630 0.900908
O O2 0.533849 0.000000 0.941369
O O3 0.500000 0.180039 0.000000
O O4 0.625826 0.113467 0.126491
O O5 0.218010 0.500000 0.306293
O O6 0.236079 0.293510 0.269468
O O7 0.153906 0.348340 0.355251
O O8 0.915632 0.154752 0.181410
O O9 0.785183 0.170109 0.122633
O O10 0.830571 0.000000 0.063379
O O11 0.813583 0.182651 0.944950
O O12 0.565604 0.814193 0.666959
O O13 0.468475 0.789650 0.712002
O O14 0.695061 0.854964 0.758750
O O15 0.614184 0.842271 0.516728
O O16 0.603087 0.000000 0.644976
O O17 0.930679 0.500000 0.652695
#
# Coordination Sequence:
#
# PCOD8078920 Si02
#       7
#     8   8   8   8   8   8   8
#     4  10  17  27  47  77 106 131 163 208 258 305
#     4  10  19  31  51  77 106 134 168 213 256 299
#     4  10  21  35  52  77 106 133 169 214 257 307
#     4  11  19  32  54  77 105 133 164 207 266 306
#     4  10  21  34  52  77 106 138 172 209 252 302
#     4  10  20  35  53  75 101 139 174 209 256 301
#     4  10  20  34  53  80 107 133 169 213 256 302
#
# _framework density 18.325685
#
# number of rings (size 3 to 8) (size 9 to 14) (size 15 to 20)
#    0.000    1.857    2.857    2.571    0.000    1.714 
#    0.000    0.000    0.000   12.429    0.000    0.000 
#    0.000    0.000    0.000    0.000    0.000    0.000 
#
# Total GULP energy -346933.278283 kJ/mol
# GULP energy per Si atom -12390.474224 kJ/mol
# Density = 1.828398 g / cm^3
# Si number density = 18.325685 Si / 1000 Ang^3
#
#
#
# Elastic Constant Matrix: (Units=GPa)
#
#
# Indices 1 2 3 4 5 6 
#
# 1 51.6019 21.3255 11.8145 0.0000 -12.7672 0.0000
# 2 21.3255 77.3191 19.9137 0.0000 -4.2937 0.0000
# 3 11.8145 19.9137 74.8591 0.0000 -21.5247 0.0000
# 4 0.0000 0.0000 0.0000 27.0449 0.0000 2.2740
# 5 -12.7672 -4.2937 -21.5247 0.0000 35.4511 0.0000
# 6 0.0000 0.0000 0.0000 2.2740 0.0000 25.6412
#
#
#
# Elastic Compliance Matrix: (Units=1/GPa)
#
#
# Indices 1 2 3 4 5 6 
#
# 1 0.023862 -0.006182 0.000163 0.000000 0.007944 0.000000
# 2 -0.006182 0.015500 -0.003935 0.000000 -0.002738 0.000000
# 3 0.000163 -0.003935 0.017275 0.000000 0.010071 0.000000
# 4 0.000000 0.000000 0.000000 0.037253 0.000000 -0.003304
# 5 0.007944 -0.002738 0.010071 0.000000 0.036852 0.000000
# 6 0.000000 0.000000 0.000000 -0.003304 0.000000 0.039293
#
#
# Mechanical properties :
#
#
# Convention : Reuss Voigt Hill
#
# Bulk Modulus (GPa) = 27.22683 34.43192 30.82938
# Shear Modulus (GPa) = 24.72959 27.67588 26.20273
#
# Velocity S-wave (km/s) = 3.67747 3.89038 3.78542
# Velocity P-wave (km/s) = 5.73770 6.24577 5.99712
#
# Compressibility (1/GPa) = 0.03672847
#
# Stress axis : x y z
#
# Youngs Moduli (GPa) = 41.90725 64.51650 57.88620
#
# Poissons Ratio (x) = 0.39886 -0.00941
# Poissons Ratio (y) = 0.25908 0.22777
# Poissons Ratio (z) = -0.00682 0.25386
#
# Static dielectric constant tensor:
#      x y z
#    x 3.724470 0.000000 -0.256610 
#    y 0.000000 3.242550 0.000000 
#    z -0.256610 0.000000 3.504910 
# 
# 
# High freq. dielectric constant tensor:
#      x y z
#    x 1.706370 0.000000 -0.014690 
#    y 0.000000 1.674200 0.000000 
#    z -0.014690 0.000000 1.715360 
# 
# From -- ./inp_files/165716.got.cif
#   From: 2010.06.25/outbox.cif.g09.slc.cpg/sg12_83_cif.got.tgz:165716.got - 2010.06.28 00:19:55.
