data_PCOD8078673
_publ_section_title
;
Structure prediction by ZEFSAII (Michael W. Deem and Ramdas Pophale) SiO2 
 PCOD8078673
Probable space group: C 2/M
;
_chemical_formula_sum "Si O2"
_cell_formula_units_Z 48
_cell_length_a 21.605641
_cell_length_b 16.695003
_cell_length_c 18.462932
_cell_angle_alpha 90.000000
_cell_angle_beta 153.341895
_cell_angle_gamma 90.000000
_cell_volume 2987.976234
_symmetry_space_group_name_H-M "C 2/M"
_symmetry_group_IT_number 12
_symmetry_cell_setting 'monoclinic'
loop_
_space_group_symop_operation_xyz
x,y,z
-x,y,-z
-x,-y,-z
x,-y,z
1/2+x,1/2+y,z
1/2-x,1/2+y,-z
1/2-x,1/2-y,-z
1/2+x,1/2-y,z
loop_
_atom_site_type_symbol
_atom_site_label
_atom_site_fract_x
_atom_site_fract_y
_atom_site_fract_z
Si Si1 0.958819 0.905370 0.196538
Si Si2 0.756817 0.660598 0.140340
Si Si3 0.844068 0.905056 0.822495
Si Si4 0.255441 0.685366 0.068680
Si Si5 0.541643 0.095058 0.763466
Si Si6 0.763789 0.094860 0.580981
O O1 0.896180 0.865960 0.204451
O O2 0.117449 0.878052 0.351402
O O3 0.944751 0.000000 0.189120
O O4 0.875154 0.877168 0.038294
O O5 0.757194 0.632888 0.223498
O O6 0.753854 0.759367 0.138856
O O7 0.893866 0.628516 0.243645
O O8 0.795131 0.871052 0.693810
O O9 0.831702 0.000000 0.814405
O O10 0.000000 0.876665 0.000000
O O11 0.250000 0.750000 0.000000
O O12 0.121902 0.628120 0.918687
O O13 0.383662 0.125254 0.602248
O O14 0.552902 0.000000 0.775473
O O15 0.764779 0.000000 0.588260
#
# Coordination Sequence:
#
# PCOD8078673 Si02
#       6
#     8   8   8   8   8   8
#     4   9  14  25  42  57  76 104 136 168 196 238
#     4  10  17  27  39  56  82 114 139 166 196 239
#     4  10  17  26  42  60  81 112 143 167 191 235
#     4   8  16  27  39  56  78 112 139 166 200 240
#     4   9  16  27  41  60  84 106 133 173 209 235
#     4   9  17  25  39  65  84 104 139 167 200 240
#
# _framework density 16.064385000000001
#
# number of rings (size 3 to 8) (size 9 to 14) (size 15 to 20)
#    0.000    3.167    1.667    3.000    0.000    0.667 
#    0.000   10.000    0.000    0.000    0.000    0.000 
#    0.000    2.667    0.000  111.000    0.000    0.000 
#
# Total GULP energy -297346.608590 kJ/mol
# GULP energy per Si atom -12389.442025 kJ/mol
# Density = 1.602782 g / cm^3
# Si number density = 16.064385 Si / 1000 Ang^3
#
#
#
# Elastic Constant Matrix: (Units=GPa)
#
#
# Indices 1 2 3 4 5 6 
#
# 1 45.6097 32.3028 31.5432 0.0007 20.0723 0.0007
# 2 32.3028 70.0934 30.9217 0.0006 9.4041 0.0007
# 3 31.5432 30.9217 82.6408 0.0007 32.2972 0.0007
# 4 0.0007 0.0006 0.0007 7.8127 0.0006 -6.6619
# 5 20.0723 9.4041 32.2972 0.0006 27.8188 0.0006
# 6 0.0007 0.0007 0.0007 -6.6619 0.0006 17.5851
#
#
#
# Elastic Compliance Matrix: (Units=1/GPa)
#
#
# Indices 1 2 3 4 5 6 
#
# 1 0.046759 -0.017613 -0.000730 -0.000002 -0.026937 -0.000001
# 2 -0.017613 0.023861 -0.007358 -0.000001 0.013185 -0.000001
# 3 -0.000730 -0.007358 0.025545 0.000001 -0.026643 0.000000
# 4 -0.000002 -0.000001 0.000001 0.189074 -0.000005 0.071628
# 5 -0.026937 0.013185 -0.026643 -0.000005 0.081858 -0.000003
# 6 -0.000001 -0.000001 0.000000 0.071628 -0.000003 0.084002
#
#
# Mechanical properties :
#
#
# Convention : Reuss Voigt Hill
#
# Bulk Modulus (GPa) = 22.34007 43.09769 32.71888
# Shear Modulus (GPa) = 9.66330 17.54839 13.60585
#
# Velocity S-wave (km/s) = 2.45528 3.30870 2.91341
# Velocity P-wave (km/s) = 4.68771 6.44073 5.63284
#
# Compressibility (1/GPa) = 0.04476261
#
# Stress axis : x y z
#
# Youngs Moduli (GPa) = 21.38630 41.90971 39.14667
#
# Poissons Ratio (x) = 0.73816 0.02857
# Poissons Ratio (y) = 0.37668 0.28805
# Poissons Ratio (z) = 0.01561 0.30838
#
# Static dielectric constant tensor:
#      x y z
#    x 3.195350 0.000000 0.238930 
#    y 0.000000 3.528870 0.000000 
#    z 0.238930 0.000000 3.113330 
# 
# 
# High freq. dielectric constant tensor:
#      x y z
#    x 1.590150 0.000000 0.034950 
#    y 0.000000 1.603700 0.000000 
#    z 0.034950 0.000000 1.597290 
# 
# From -- ./inp_files/284871.got.cif
#   From: 2010.06.25/outbox.cif.g09.slc.cpg/sg12_143_cif.got.tgz:284871.got - 2010.06.28 00:19:55.
