data_PCOD8078325
_publ_section_title
;
Structure prediction by ZEFSAII (Michael W. Deem and Ramdas Pophale) SiO2 
 PCOD8078325
Probable space group: C 2/M
;
_chemical_formula_sum "Si O2"
_cell_formula_units_Z 48
_cell_length_a 13.841926
_cell_length_b 19.979396
_cell_length_c 12.020098
_cell_angle_alpha 90.000000
_cell_angle_beta 51.498389
_cell_angle_gamma 90.000000
_cell_volume 2601.486300
_symmetry_space_group_name_H-M "C 2/M"
_symmetry_group_IT_number 12
_symmetry_cell_setting 'monoclinic'
loop_
_space_group_symop_operation_xyz
x,y,z
-x,y,-z
-x,-y,-z
x,-y,z
1/2+x,1/2+y,z
1/2-x,1/2+y,-z
1/2-x,1/2-y,-z
1/2+x,1/2-y,z
loop_
_atom_site_type_symbol
_atom_site_label
_atom_site_fract_x
_atom_site_fract_y
_atom_site_fract_z
Si Si1 0.200201 0.198016 0.874639
Si Si2 0.524269 0.729833 0.815813
Si Si3 0.302162 0.075066 0.930907
Si Si4 0.952112 0.623111 0.156717
Si Si5 0.207505 0.074507 0.245172
Si Si6 0.072787 0.794405 0.343228
O O1 0.120131 0.186310 0.820034
O O2 0.250805 0.126217 0.876352
O O3 0.311180 0.248685 0.771818
O O4 0.112741 0.230693 0.031477
O O5 0.574726 0.805335 0.768070
O O6 0.518215 0.699369 0.696995
O O7 0.449258 0.082846 0.840385
O O8 0.274895 0.000000 0.907910
O O9 0.237216 0.088575 0.094939
O O10 0.828930 0.579099 0.235547
O O11 0.000000 0.639666 0.000000
O O12 0.111990 0.130925 0.351619
O O13 0.151898 0.000000 0.300449
O O14 0.000000 0.762642 0.500000
#
# Coordination Sequence:
#
# PCOD8078325 Si02
#       6
#     8   8   8   8   8   8
#     4  11  20  37  60  83 114 145 190 238 279 332
#     4  11  20  35  61  87 108 147 193 238 281 327
#     4  10  19  32  57  88 115 143 184 239 289 330
#     4  10  16  29  56  87 112 138 184 240 283 318
#     4  10  20  35  54  84 119 149 186 228 280 338
#     4  12  24  37  57  86 117 154 188 228 283 339
#
# _framework density 18.450990000000001
#
# number of rings (size 3 to 8) (size 9 to 14) (size 15 to 20)
#    0.000    1.333    6.667    2.000    0.000    3.000 
#    0.000    2.500    0.000    0.500    0.000    0.000 
#    0.000    0.000    0.000    0.000    0.000    0.000 
#
# Total GULP energy -297601.396005 kJ/mol
# GULP energy per Si atom -12400.058167 kJ/mol
# Density = 1.840900 g / cm^3
# Si number density = 18.450990 Si / 1000 Ang^3
#
#
#
# Elastic Constant Matrix: (Units=GPa)
#
#
# Indices 1 2 3 4 5 6 
#
# 1 110.5727 41.8814 44.7694 0.0000 9.6489 0.0000
# 2 41.8814 120.0791 26.5107 0.0000 -4.7157 0.0000
# 3 44.7694 26.5107 57.3814 0.0000 10.5476 0.0000
# 4 0.0000 0.0000 0.0000 7.8921 0.0000 0.2096
# 5 9.6489 -4.7157 10.5476 0.0000 14.0275 0.0000
# 6 0.0000 0.0000 0.0000 0.2096 0.0000 32.6611
#
#
#
# Elastic Compliance Matrix: (Units=1/GPa)
#
#
# Indices 1 2 3 4 5 6 
#
# 1 0.014184 -0.003159 -0.008840 0.000000 -0.004172 0.000000
# 2 -0.003159 0.010681 -0.004096 0.000000 0.008843 0.000000
# 3 -0.008840 -0.004096 0.029418 0.000000 -0.017416 0.000000
# 4 0.000000 0.000000 0.000000 0.126730 0.000000 -0.000813
# 5 -0.004172 0.008843 -0.017416 0.000000 0.090226 0.000000
# 6 0.000000 0.000000 0.000000 -0.000813 0.000000 0.030623
#
#
# Mechanical properties :
#
#
# Convention : Reuss Voigt Hill
#
# Bulk Modulus (GPa) = 45.26239 57.15071 51.20655
# Shear Modulus (GPa) = 14.64494 22.57426 18.60960
#
# Velocity S-wave (km/s) = 2.82036 3.50161 3.17929
# Velocity P-wave (km/s) = 5.93214 6.88404 6.42574
#
# Compressibility (1/GPa) = 0.02209340
#
# Stress axis : x y z
#
# Youngs Moduli (GPa) = 70.50437 93.62256 33.99331
#
# Poissons Ratio (x) = 0.29577 0.30049
# Poissons Ratio (y) = 0.22273 0.13922
# Poissons Ratio (z) = 0.62324 0.38343
#
# Static dielectric constant tensor:
#      x y z
#    x 3.624570 0.000000 -0.053150 
#    y 0.000000 3.307140 0.000000 
#    z -0.053150 0.000000 2.970110 
# 
# 
# High freq. dielectric constant tensor:
#      x y z
#    x 1.725460 0.000000 -0.008140 
#    y 0.000000 1.712040 0.000000 
#    z -0.008140 0.000000 1.666240 
# 
# From -- ./inp_files/147237.got.cif
#   From: 2010.06.25/outbox.cif.g09.slc.cpg/sg12_74_cif.got.tgz:147237.got - 2010.06.28 00:19:55.
