data_PCOD8078297
_publ_section_title
;
Structure prediction by ZEFSAII (Michael W. Deem and Ramdas Pophale) SiO2 
 PCOD8078297
Probable space group: C 2/M
;
_chemical_formula_sum "Si O2"
_cell_formula_units_Z 48
_cell_length_a 15.217125
_cell_length_b 19.084317
_cell_length_c 15.663741
_cell_angle_alpha 90.000000
_cell_angle_beta 141.788960
_cell_angle_gamma 90.000000
_cell_volume 2813.755906
_symmetry_space_group_name_H-M "C 2/M"
_symmetry_group_IT_number 12
_symmetry_cell_setting 'monoclinic'
loop_
_space_group_symop_operation_xyz
x,y,z
-x,y,-z
-x,-y,-z
x,-y,z
1/2+x,1/2+y,z
1/2-x,1/2+y,-z
1/2-x,1/2-y,-z
1/2+x,1/2-y,z
loop_
_atom_site_type_symbol
_atom_site_label
_atom_site_fract_x
_atom_site_fract_y
_atom_site_fract_z
Si Si1 0.994549 0.079874 0.815062
Si Si2 0.000000 0.145354 0.000000
Si Si3 0.141364 0.791592 0.860153
Si Si4 0.711601 0.141051 0.528729
Si Si5 0.000000 0.663589 0.500000
Si Si6 0.348516 0.217245 0.672944
Si Si7 0.253800 0.748680 0.776111
O O1 0.976666 0.095738 0.901091
O O2 0.119026 0.128936 0.874096
O O3 0.847325 0.093523 0.652361
O O4 0.039996 0.000000 0.835791
O O5 0.860751 0.193317 0.901340
O O6 0.198757 0.799958 0.807921
O O7 0.997709 0.747754 0.757073
O O8 0.250000 0.750000 0.000000
O O9 0.578939 0.115987 0.487116
O O10 0.679888 0.144692 0.401846
O O11 0.730969 0.223105 0.566172
O O12 0.883431 0.709666 0.363671
O O13 0.336655 0.205546 0.766528
#
# Coordination Sequence:
#
# PCOD8078297 Si02
#       7
#     8   4   8   8   4   8   8
#     4  11  23  36  51  77 118 153 179 221 282 346
#     4  12  19  36  54  82 117 148 176 222 293 338
#     4  11  19  32  56  80 108 142 187 231 271 325
#     4   9  17  31  49  72 103 144 181 219 274 322
#     4  10  16  28  53  76 105 132 174 232 276 312
#     4   9  17  30  49  76 105 132 174 235 282 303
#     4  11  19  30  54  85 110 134 183 238 276 323
#
# _framework density 17.059049000000002
#
# number of rings (size 3 to 8) (size 9 to 14) (size 15 to 20)
#    0.000    1.667    8.333    0.250    2.333    0.000 
#    0.000    0.417    0.000    3.000    0.000    4.083 
#    0.000    0.000    0.000    0.000    0.000    0.000 
#
# Total GULP energy -297358.713722 kJ/mol
# GULP energy per Si atom -12389.946405 kJ/mol
# Density = 1.702022 g / cm^3
# Si number density = 17.059049 Si / 1000 Ang^3
#
#
#
# Elastic Constant Matrix: (Units=GPa)
#
#
# Indices 1 2 3 4 5 6 
#
# 1 128.3714 45.5690 30.4466 0.0000 -19.1315 0.0000
# 2 45.5690 81.9549 35.8789 0.0000 -2.3488 0.0000
# 3 30.4466 35.8789 79.0129 0.0000 1.8227 0.0000
# 4 0.0000 0.0000 0.0000 15.4746 0.0000 -2.7952
# 5 -19.1315 -2.3488 1.8227 0.0000 32.2424 0.0000
# 6 0.0000 0.0000 0.0000 -2.7952 0.0000 20.7573
#
#
#
# Elastic Compliance Matrix: (Units=1/GPa)
#
#
# Indices 1 2 3 4 5 6 
#
# 1 0.011008 -0.005017 -0.002108 0.000000 0.006285 0.000000
# 2 -0.005017 0.017589 -0.006022 0.000000 -0.001355 0.000000
# 3 -0.002108 -0.006022 0.016263 0.000000 -0.002609 0.000000
# 4 0.000000 0.000000 0.000000 0.066233 0.000000 0.008919
# 5 0.006285 -0.001355 -0.002609 0.000000 0.034793 0.000000
# 6 0.000000 0.000000 0.000000 0.008919 0.000000 0.049377
#
#
# Mechanical properties :
#
#
# Convention : Reuss Voigt Hill
#
# Bulk Modulus (GPa) = 53.86725 57.01424 55.44074
# Shear Modulus (GPa) = 21.95406 25.52451 23.73929
#
# Velocity S-wave (km/s) = 3.59129 3.87233 3.73446
# Velocity P-wave (km/s) = 6.98871 7.31351 7.15295
#
# Compressibility (1/GPa) = 0.01856416
#
# Stress axis : x y z
#
# Youngs Moduli (GPa) = 90.84519 56.85246 61.48745
#
# Poissons Ratio (x) = 0.28525 0.12963
# Poissons Ratio (y) = 0.45581 0.37031
# Poissons Ratio (z) = 0.19153 0.34239
#
# Static dielectric constant tensor:
#      x y z
#    x 2.637180 0.000000 -1.161430 
#    y 0.000000 2.699340 0.000000 
#    z -1.161430 0.000000 2.618740 
# 
# 
# High freq. dielectric constant tensor:
#      x y z
#    x 1.676170 0.000000 -0.004480 
#    y 0.000000 1.585900 0.000000 
#    z -0.004480 0.000000 1.672950 
# 
# From -- ./inp_files/217479.got.cif
#   From: 2010.06.25/outbox.cif.g09.slc.cpg/sg12_109_cif.got.tgz:217479.got - 2010.06.28 00:19:55.
