data_PCOD8078605
_publ_section_title
;
Structure prediction by ZEFSAII (Michael W. Deem and Ramdas Pophale) SiO2 
 PCOD8078605
Probable space group: C 2/M
;
_chemical_formula_sum "Si O2"
_cell_formula_units_Z 32
_cell_length_a 19.459405
_cell_length_b 8.850597
_cell_length_c 11.605783
_cell_angle_alpha 90.000000
_cell_angle_beta 64.934995
_cell_angle_gamma 90.000000
_cell_volume 1810.598586
_symmetry_space_group_name_H-M "C 2/M"
_symmetry_group_IT_number 12
_symmetry_cell_setting 'monoclinic'
loop_
_space_group_symop_operation_xyz
x,y,z
-x,y,-z
-x,-y,-z
x,-y,z
1/2+x,1/2+y,z
1/2-x,1/2+y,-z
1/2-x,1/2-y,-z
1/2+x,1/2-y,z
loop_
_atom_site_type_symbol
_atom_site_label
_atom_site_fract_x
_atom_site_fract_y
_atom_site_fract_z
Si Si1 0.676153 0.673769 0.601515
Si Si2 0.953546 0.321097 0.873624
Si Si3 0.100948 0.176460 0.881200
Si Si4 0.483846 0.678275 0.381139
O O1 0.683466 0.500000 0.565389
O O2 0.750000 0.750000 0.500000
O O3 0.671718 0.699672 0.743672
O O4 0.600199 0.736601 0.593494
O O5 0.946200 0.500000 0.879806
O O6 0.031346 0.264788 0.873959
O O7 0.952310 0.259709 0.743471
O O8 0.885497 0.248993 0.001113
O O9 0.080981 0.000000 0.906363
O O10 0.500000 0.725929 0.500000
O O11 0.491137 0.500000 0.355687
#
# Coordination Sequence:
#
# PCOD8078605 Si02
#       4
#     8   8   8   8
#     4   9  18  30  47  70  93 120 151 187 229 270
#     4  10  17  25  42  69  94 115 146 193 239 266
#     4   9  16  28  44  63  89 122 157 186 221 272
#     4   9  18  33  50  67  91 125 159 186 221 275
#
# _framework density 17.673712999999999
#
# number of rings (size 3 to 8) (size 9 to 14) (size 15 to 20)
#    0.000    2.750    0.000    6.000    0.000    5.500 
#    0.000    0.000    0.000    1.500    0.000    0.000 
#    0.000    0.000    0.000    0.000    0.000    0.000 
#
# Total GULP energy -198224.440460 kJ/mol
# GULP energy per Si atom -12389.027529 kJ/mol
# Density = 1.763349 g / cm^3
# Si number density = 17.673713 Si / 1000 Ang^3
#
#
#
# Elastic Constant Matrix: (Units=GPa)
#
#
# Indices 1 2 3 4 5 6 
#
# 1 38.7805 23.0539 51.3122 0.0000 3.2087 0.0000
# 2 23.0539 77.3230 73.0492 0.0000 1.5679 0.0000
# 3 51.3122 73.0492 198.8626 0.0000 7.9851 0.0000
# 4 0.0000 0.0000 0.0000 35.4325 0.0000 -3.9912
# 5 3.2087 1.5679 7.9851 0.0000 25.2390 0.0000
# 6 0.0000 0.0000 0.0000 -3.9912 0.0000 15.0712
#
#
#
# Elastic Compliance Matrix: (Units=1/GPa)
#
#
# Indices 1 2 3 4 5 6 
#
# 1 0.039799 -0.003369 -0.008951 0.000000 -0.002019 0.000000
# 2 -0.003369 0.020121 -0.006572 0.000000 0.001258 0.000000
# 3 -0.008951 -0.006572 0.009815 0.000000 -0.001559 0.000000
# 4 0.000000 0.000000 0.000000 0.029090 0.000000 0.007704
# 5 -0.002019 0.001258 -0.001559 0.000000 0.040293 0.000000
# 6 0.000000 0.000000 0.000000 0.007704 0.000000 0.068392
#
#
# Mechanical properties :
#
#
# Convention : Reuss Voigt Hill
#
# Bulk Modulus (GPa) = 31.29839 67.75519 49.52679
# Shear Modulus (GPa) = 19.53554 26.31862 22.92708
#
# Velocity S-wave (km/s) = 3.32828 3.86312 3.60563
# Velocity P-wave (km/s) = 5.70240 7.63664 6.73927
#
# Compressibility (1/GPa) = 0.03195053
#
# Stress axis : x y z
#
# Youngs Moduli (GPa) = 25.12626 49.70000 101.88615
#
# Poissons Ratio (x) = 0.16746 0.91194
# Poissons Ratio (y) = 0.08466 0.66961
# Poissons Ratio (z) = 0.22489 0.32664
#
# Static dielectric constant tensor:
#      x y z
#    x 2.792910 0.000000 0.116060 
#    y 0.000000 3.217300 0.000000 
#    z 0.116060 0.000000 4.361280 
# 
# 
# High freq. dielectric constant tensor:
#      x y z
#    x 1.604950 0.000000 0.006580 
#    y 0.000000 1.685260 0.000000 
#    z 0.006580 0.000000 1.717660 
# 
# From -- ./inp_files/150939.got.cif
#   From: 2010.06.25/outbox.cif.g09.slc.cpg/sg12_76_cif.got.tgz:150939.got - 2010.06.28 00:19:55.
