data_PCOD8078434
_publ_section_title
;
Structure prediction by ZEFSAII (Michael W. Deem and Ramdas Pophale) SiO2 
 PCOD8078434
Probable space group: C 2/M
;
_chemical_formula_sum "Si O2"
_cell_formula_units_Z 44
_cell_length_a 21.908112
_cell_length_b 15.876964
_cell_length_c 13.952696
_cell_angle_alpha 90.000000
_cell_angle_beta 148.360658
_cell_angle_gamma 90.000000
_cell_volume 2545.859934
_symmetry_space_group_name_H-M "C 2/M"
_symmetry_group_IT_number 12
_symmetry_cell_setting 'monoclinic'
loop_
_space_group_symop_operation_xyz
x,y,z
-x,y,-z
-x,-y,-z
x,-y,z
1/2+x,1/2+y,z
1/2-x,1/2+y,-z
1/2-x,1/2-y,-z
1/2+x,1/2-y,z
loop_
_atom_site_type_symbol
_atom_site_label
_atom_site_fract_x
_atom_site_fract_y
_atom_site_fract_z
Si Si1 0.043080 0.352442 0.823748
Si Si2 0.256634 0.831335 0.765748
Si Si3 0.314025 0.000000 0.079028
Si Si4 0.629511 0.000000 0.636272
Si Si5 0.609997 0.091405 0.214849
Si Si6 0.084987 0.679506 0.524607
Si Si7 0.860840 0.000000 0.313913
O O1 0.107625 0.422519 0.848240
O O2 0.931855 0.382917 0.735872
O O3 0.986255 0.293151 0.666309
O O4 0.137103 0.310502 0.019627
O O5 0.302306 0.842253 0.717563
O O6 0.180432 0.749256 0.670577
O O7 0.187564 0.916362 0.699745
O O8 0.288968 0.000000 0.159529
O O9 0.187578 0.000000 0.859584
O O10 0.500000 0.000000 0.500000
O O11 0.646759 0.913550 0.597842
O O12 0.671653 0.000000 0.304439
O O13 0.500000 0.081995 0.000000
O O14 0.000000 0.679712 0.500000
O O15 0.000000 0.000000 0.500000
#
# Coordination Sequence:
#
# PCOD8078434 Si02
#       7
#     8   8   4   4   8   8   4
#     4  10  18  32  56  78 101 134 171 220 264 293
#     4  10  21  34  51  78 108 137 169 212 260 311
#     4  10  16  33  56  77  99 132 175 216 267 288
#     4  10  18  34  52  76 100 132 175 222 246 301
#     4   9  16  30  54  79 100 129 173 216 258 301
#     4  11  21  34  52  77 107 134 174 217 254 309
#     4  10  20  35  50  75 111 143 164 207 257 324
#
# _framework density 17.282961
#
# number of rings (size 3 to 8) (size 9 to 14) (size 15 to 20)
#    0.000    2.000    5.455    0.545    0.000    1.455 
#    3.273    0.000    0.000    0.000    0.000    5.727 
#    0.000    0.000    0.000    0.000    0.000    0.000 
#
# Total GULP energy -272550.885378 kJ/mol
# GULP energy per Si atom -12388.676608 kJ/mol
# Density = 1.724362 g / cm^3
# Si number density = 17.282961 Si / 1000 Ang^3
#
#
#
# Elastic Constant Matrix: (Units=GPa)
#
#
# Indices 1 2 3 4 5 6 
#
# 1 74.9387 30.7030 43.7315 0.0000 -7.6303 0.0000
# 2 30.7030 111.1095 39.3157 0.0000 7.5824 0.0000
# 3 43.7315 39.3157 105.1443 0.0000 -9.2794 0.0000
# 4 0.0000 0.0000 0.0000 -634.0559 0.0000-1063.4401
# 5 -7.6303 7.5824 -9.2794 0.0000 21.4657 0.0000
# 6 0.0000 0.0000 0.0000-1063.4401 0.0000-1739.8665
#
#
#
# Elastic Compliance Matrix: (Units=1/GPa)
#
#
# Indices 1 2 3 4 5 6 
#
# 1 0.018832 -0.003407 -0.006094 0.000000 0.005263 0.000000
# 2 -0.003407 0.011667 -0.003552 0.000000 -0.006867 0.000000
# 3 -0.006094 -0.003552 0.013820 0.000000 0.005063 0.000000
# 4 0.000000 0.000000 0.000000 0.062738 0.000000 -0.038347
# 5 0.005263 -0.006867 0.005063 0.000000 0.053071 0.000000
# 6 0.000000 0.000000 0.000000 -0.038347 0.000000 0.022863
#
#
# Mechanical properties :
#
#
# Convention : Reuss Voigt Hill
#
# Bulk Modulus (GPa) = 54.90251 57.63253 56.26752
# Shear Modulus (GPa) = 23.23758 -458.66185 -217.71213
#
# Velocity S-wave (km/s) = 3.67077 -16.30828 -11.23578
# Velocity P-wave (km/s) = 7.05704 17.92190 11.64887
#
# Compressibility (1/GPa) = 0.01821410
#
# Stress axis : x y z
#
# Youngs Moduli (GPa) = 53.10020 85.71263 72.35694
#
# Poissons Ratio (x) = 0.29199 0.44097
# Poissons Ratio (y) = 0.18089 0.25699
# Poissons Ratio (z) = 0.32361 0.30443
#
# Static dielectric constant tensor:
#      x y z
#    x 3.412740 0.000000 -0.359090 
#    y 0.000000 3.271220 0.000000 
#    z -0.359090 0.000000 3.524530 
# 
# 
# High freq. dielectric constant tensor:
#      x y z
#    x 1.653410 0.000000 -0.018240 
#    y 0.000000 1.651730 0.000000 
#    z -0.018240 0.000000 1.660880 
# 
# From -- ./inp_files/144749.got.cif
#   From: 2010.06.25/outbox.cif.g09.slc.cpg/sg12_73_cif.got.tgz:144749.got - 2010.06.28 00:19:55.
