data_PCOD8078571
_publ_section_title
;
Structure prediction by ZEFSAII (Michael W. Deem and Ramdas Pophale) SiO2 
 PCOD8078571
Probable space group: C 2/M
;
_chemical_formula_sum "Si O2"
_cell_formula_units_Z 64
_cell_length_a 20.869631
_cell_length_b 9.106281
_cell_length_c 20.407536
_cell_angle_alpha 90.000000
_cell_angle_beta 105.334459
_cell_angle_gamma 90.000000
_cell_volume 3740.269842
_symmetry_space_group_name_H-M "C 2/M"
_symmetry_group_IT_number 12
_symmetry_cell_setting 'monoclinic'
loop_
_space_group_symop_operation_xyz
x,y,z
-x,y,-z
-x,-y,-z
x,-y,z
1/2+x,1/2+y,z
1/2-x,1/2+y,-z
1/2-x,1/2-y,-z
1/2+x,1/2-y,z
loop_
_atom_site_type_symbol
_atom_site_label
_atom_site_fract_x
_atom_site_fract_y
_atom_site_fract_z
Si Si1 0.857235 0.174095 0.415964
Si Si2 0.889661 0.825740 0.571341
Si Si3 0.882205 0.326483 0.785414
Si Si4 0.407700 0.835498 0.929198
Si Si5 0.208792 0.327609 0.357240
Si Si6 0.966965 0.828374 0.348258
Si Si7 0.440720 0.166572 0.074297
Si Si8 0.518029 0.328763 0.794286
O O1 0.878909 0.224371 0.493859
O O2 0.783770 0.233281 0.379535
O O3 0.909376 0.242408 0.377819
O O4 0.857158 0.000000 0.410122
O O5 0.832309 0.754786 0.598756
O O6 0.960985 0.762647 0.613613
O O7 0.884906 0.000000 0.578479
O O8 0.898648 0.500000 0.792102
O O9 0.865932 0.269620 0.856108
O O10 0.819528 0.291882 0.722739
O O11 0.945892 0.244696 0.773687
O O12 0.482608 0.832852 0.923907
O O13 0.383943 0.000000 0.936038
O O14 0.401666 0.761373 0.000242
O O15 0.205232 0.500000 0.371586
O O16 0.949287 0.798237 0.267624
O O17 0.970731 0.000000 0.364341
O O18 0.431807 0.263363 0.137282
O O19 0.417016 0.000000 0.082223
O O20 0.508502 0.500000 0.805558
#
# Coordination Sequence:
#
# PCOD8078571 Si02
#       8
#     8   8   8   8   8   8   8   8
#     4   9  18  31  47  67  89 115 151 187 218 258
#     4  10  18  31  51  68  86 116 150 183 221 267
#     4   9  16  27  42  60  85 115 143 174 215 260
#     4   7  11  21  37  55  78 111 144 170 203 253
#     4  10  19  30  47  70  92 114 143 186 229 261
#     4   9  17  29  45  66  89 117 152 184 213 257
#     4   8  13  23  38  56  81 112 142 173 212 254
#     4  10  17  25  40  63  87 111 143 180 216 253
#
# _framework density 17.111065
#
# number of rings (size 3 to 8) (size 9 to 14) (size 15 to 20)
#    0.000    3.000    1.250    2.625    0.000    1.500 
#    0.000    5.000    0.000    5.250    0.000    0.875 
#    0.000    0.000    0.000    0.000    0.000    0.000 
#
# Total GULP energy -396422.492198 kJ/mol
# GULP energy per Si atom -12388.202881 kJ/mol
# Density = 1.707212 g / cm^3
# Si number density = 17.111065 Si / 1000 Ang^3
#
#
#
# Elastic Constant Matrix: (Units=GPa)
#
#
# Indices 1 2 3 4 5 6 
#
# 1 90.9522 18.3742 61.2677 0.0000 -7.1119 0.0000
# 2 18.3742 33.8177 35.6467 0.0000 -1.3567 0.0000
# 3 61.2677 35.6467 164.8769 0.0000 -6.9748 0.0000
# 4 0.0000 0.0000 0.0000 22.6393 0.0000 -2.1508
# 5 -7.1119 -1.3567 -6.9748 0.0000 6.6066 0.0000
# 6 0.0000 0.0000 0.0000 -2.1508 0.0000 12.5954
#
#
#
# Elastic Compliance Matrix: (Units=1/GPa)
#
#
# Indices 1 2 3 4 5 6 
#
# 1 0.015650 -0.003139 -0.004660 0.000000 0.011283 0.000000
# 2 -0.003139 0.038933 -0.007386 0.000000 -0.003181 0.000000
# 3 -0.004660 -0.007386 0.009543 0.000000 0.003543 0.000000
# 4 0.000000 0.000000 0.000000 0.044899 0.000000 0.007667
# 5 0.011283 -0.003181 0.003543 0.000000 0.166597 0.000000
# 6 0.000000 0.000000 0.000000 0.007667 0.000000 0.080704
#
#
# Mechanical properties :
#
#
# Convention : Reuss Voigt Hill
#
# Bulk Modulus (GPa) = 29.62231 57.80267 43.71249
# Shear Modulus (GPa) = 12.56449 19.99212 16.27830
#
# Velocity S-wave (km/s) = 2.71272 3.42186 3.08771
# Velocity P-wave (km/s) = 5.21164 7.03323 6.18981
#
# Compressibility (1/GPa) = 0.03375833
#
# Stress axis : x y z
#
# Youngs Moduli (GPa) = 63.89801 25.68494 104.78624
#
# Poissons Ratio (x) = 0.08062 0.48825
# Poissons Ratio (y) = 0.20057 0.77391
# Poissons Ratio (z) = 0.29773 0.18970
#
# Static dielectric constant tensor:
#      x y z
#    x 2.974540 0.000000 0.108030 
#    y 0.000000 2.876540 0.000000 
#    z 0.108030 0.000000 3.886720 
# 
# 
# High freq. dielectric constant tensor:
#      x y z
#    x 1.612430 0.000000 0.003600 
#    y 0.000000 1.618710 0.000000 
#    z 0.003600 0.000000 1.691870 
# 
# From -- ./inp_files/319210.got.cif
#   From: 2010.06.25/outbox.cif.g09.slc.cpg/sg12_160_cif.got.tgz:319210.got - 2010.06.28 00:19:55.
