data_PCOD8078773
_publ_section_title
;
Structure prediction by ZEFSAII (Michael W. Deem and Ramdas Pophale) SiO2 
 PCOD8078773
Probable space group: C 2/M
;
_chemical_formula_sum "Si O2"
_cell_formula_units_Z 56
_cell_length_a 17.238737
_cell_length_b 18.365939
_cell_length_c 28.296785
_cell_angle_alpha 90.000000
_cell_angle_beta 20.906865
_cell_angle_gamma 90.000000
_cell_volume 3196.990109
_symmetry_space_group_name_H-M "C 2/M"
_symmetry_group_IT_number 12
_symmetry_cell_setting 'monoclinic'
loop_
_space_group_symop_operation_xyz
x,y,z
-x,y,-z
-x,-y,-z
x,-y,z
1/2+x,1/2+y,z
1/2-x,1/2+y,-z
1/2-x,1/2-y,-z
1/2+x,1/2-y,z
loop_
_atom_site_type_symbol
_atom_site_label
_atom_site_fract_x
_atom_site_fract_y
_atom_site_fract_z
Si Si1 0.488988 0.581304 0.561163
Si Si2 0.344244 0.271262 0.496801
Si Si3 0.303808 0.920459 0.078647
Si Si4 0.284563 0.306278 0.022205
Si Si5 0.722126 0.258620 0.786175
Si Si6 0.082131 0.775099 0.223583
Si Si7 0.021834 0.386032 0.862564
O O1 0.500000 0.604377 0.500000
O O2 0.589376 0.500000 0.511319
O O3 0.624548 0.641107 0.514166
O O4 0.239650 0.576046 0.720106
O O5 0.250000 0.250000 0.500000
O O6 0.583974 0.234016 0.363001
O O7 0.178660 0.239041 0.629803
O O8 0.116211 0.860141 0.191898
O O9 0.213935 0.000000 0.146040
O O10 0.500000 0.894509 0.000000
O O11 0.390516 0.931797 0.976096
O O12 0.194741 0.275817 0.121951
O O13 0.143183 0.376763 0.088101
O O14 0.250000 0.250000 0.000000
O O15 0.544132 0.323868 0.881975
O O16 0.821616 0.250718 0.781352
O O17 0.578487 0.188256 0.857124
#
# Coordination Sequence:
#
# PCOD8078773 Si02
#       7
#     8   8   8   8   8   8   8
#     4  10  20  35  53  77 110 142 168 211 274 328
#     4   9  20  33  50  74 109 135 177 219 255 305
#     4  11  20  30  48  75 106 139 166 204 262 314
#     4  10  17  26  48  68  98 129 167 207 255 296
#     4   9  17  30  46  70 100 130 166 215 255 295
#     4  11  17  32  48  72 104 137 170 220 250 302
#     4  10  18  31  47  75 103 131 168 207 258 313
#
# _framework density 17.516476000000001
#
# number of rings (size 3 to 8) (size 9 to 14) (size 15 to 20)
#    0.000    2.000    4.286    1.714    0.000    0.000 
#    0.000    0.000    0.000    0.000    0.000   11.000 
#    0.000   23.429    0.000    0.000    0.000    0.000 
#
# Total GULP energy -346866.575910 kJ/mol
# GULP energy per Si atom -12388.091997 kJ/mol
# Density = 1.747661 g / cm^3
# Si number density = 17.516476 Si / 1000 Ang^3
#
#
#
# Elastic Constant Matrix: (Units=GPa)
#
#
# Indices 1 2 3 4 5 6 
#
# 1 71.7273 31.1132 35.6924 0.1036 -0.6983 0.0122
# 2 31.1132 81.6788 42.6656 0.0721 -8.4563 0.0463
# 3 35.6924 42.6656 136.7410 0.1564 0.1045 0.0468
# 4 0.1036 0.0721 0.1564 8.7489 0.1553 4.0949
# 5 -0.6983 -8.4563 0.1045 0.1553 19.1374 -0.0331
# 6 0.0122 0.0463 0.0468 4.0949 -0.0331 11.9853
#
#
#
# Elastic Compliance Matrix: (Units=1/GPa)
#
#
# Indices 1 2 3 4 5 6 
#
# 1 0.017730 -0.005394 -0.002943 -0.000103 -0.001720 0.000045
# 2 -0.005394 0.017121 -0.003940 -0.000151 0.007391 0.000027
# 3 -0.002943 -0.003940 0.009312 -0.000065 -0.001899 -0.000001
# 4 -0.000103 -0.000151 -0.000065 0.136089 -0.001255 -0.046499
# 5 -0.001720 0.007391 -0.001899 -0.001255 0.055479 0.000563
# 6 0.000045 0.000027 -0.000001 -0.046499 0.000563 0.099323
#
#
# Mechanical properties :
#
#
# Convention : Reuss Voigt Hill
#
# Bulk Modulus (GPa) = 50.99773 56.56551 53.78162
# Shear Modulus (GPa) = 13.65583 20.01940 16.83762
#
# Velocity S-wave (km/s) = 2.79516 3.38433 3.10376
# Velocity P-wave (km/s) = 6.29242 6.90177 6.60413
#
# Compressibility (1/GPa) = 0.01960871
#
# Stress axis : x y z
#
# Youngs Moduli (GPa) = 56.40311 58.40778 107.38705
#
# Poissons Ratio (x) = 0.31505 0.31608
# Poissons Ratio (y) = 0.30424 0.42306
# Poissons Ratio (z) = 0.16601 0.23010
#
# Static dielectric constant tensor:
#      x y z
#    x -10.435390 0.000170 -1.528660 
#    y 0.000170 3.082490 0.000460 
#    z -1.528660 0.000460 3.806580 
# 
# 
# High freq. dielectric constant tensor:
#      x y z
#    x 1.671770 0.000000 0.014460 
#    y 0.000000 1.639250 0.000030 
#    z 0.014460 0.000030 1.687900 
# 
# From -- ./inp_files/379788.got.cif
#   From: 2010.06.25/outbox.cif.g09.slc.cpg/sg12_190_cif.got.tgz:379788.got - 2010.06.28 00:19:55.
