data_PCOD8078265
_publ_section_title
;
Structure prediction by ZEFSAII (Michael W. Deem and Ramdas Pophale) SiO2 
 PCOD8078265
Probable space group: C 2/M
;
_chemical_formula_sum "Si O2"
_cell_formula_units_Z 56
_cell_length_a 18.920922
_cell_length_b 23.851130
_cell_length_c 12.285145
_cell_angle_alpha 90.000000
_cell_angle_beta 142.500333
_cell_angle_gamma 90.000000
_cell_volume 3375.012456
_symmetry_space_group_name_H-M "C 2/M"
_symmetry_group_IT_number 12
_symmetry_cell_setting 'monoclinic'
loop_
_space_group_symop_operation_xyz
x,y,z
-x,y,-z
-x,-y,-z
x,-y,z
1/2+x,1/2+y,z
1/2-x,1/2+y,-z
1/2-x,1/2-y,-z
1/2+x,1/2-y,z
loop_
_atom_site_type_symbol
_atom_site_label
_atom_site_fract_x
_atom_site_fract_y
_atom_site_fract_z
Si Si1 0.606104 0.224572 0.188621
Si Si2 0.732848 0.813607 0.952637
Si Si3 0.052530 0.562635 0.234067
Si Si4 0.470917 0.828210 0.685905
Si Si5 0.159449 0.604229 0.161998
Si Si6 0.869994 0.847696 0.312269
Si Si7 0.811926 0.725172 0.327955
O O1 0.577643 0.213177 0.279641
O O2 0.618770 0.167299 0.135950
O O3 0.717541 0.264707 0.308479
O O4 0.500000 0.256800 0.000000
O O5 0.609829 0.831791 0.853411
O O6 0.736719 0.817152 0.825574
O O7 0.750000 0.750000 0.000000
O O8 0.834485 0.849032 0.139430
O O9 0.054198 0.500000 0.285387
O O10 0.077618 0.608478 0.358081
O O11 0.152456 0.567728 0.263834
O O12 0.926640 0.576395 0.030073
O O13 0.424692 0.804560 0.515819
O O14 0.290332 0.606757 0.277328
O O15 0.851379 0.784504 0.329185
O O16 0.000000 0.866667 0.500000
#
# Coordination Sequence:
#
# PCOD8078265 Si02
#       7
#     8   8   8   8   8   8   8
#     4  10  16  28  44  67 102 130 159 197 246 290
#     4  10  18  30  46  65  96 137 163 190 236 295
#     4  10  18  30  52  72  91 124 167 211 255 284
#     4  11  18  31  46  70 100 127 165 207 241 285
#     4   9  15  29  47  71  96 122 154 207 253 289
#     4  10  18  29  45  72 101 130 157 187 241 304
#     4  10  20  28  44  69  99 141 165 187 233 297
#
# _framework density 16.592531000000001
#
# number of rings (size 3 to 8) (size 9 to 14) (size 15 to 20)
#    0.000    2.000    4.286    5.143    0.000    0.000 
#    0.000    0.000    0.000    3.429    0.000    0.000 
#    0.000    1.714    0.000    0.000    0.000    0.000 
#
# Total GULP energy -346930.533825 kJ/mol
# GULP energy per Si atom -12390.376208 kJ/mol
# Density = 1.655477 g / cm^3
# Si number density = 16.592531 Si / 1000 Ang^3
#
#
#
# Elastic Constant Matrix: (Units=GPa)
#
#
# Indices 1 2 3 4 5 6 
#
# 1 75.7938 22.4818 34.8880 0.0000 2.6602 0.0000
# 2 22.4818 52.1659 17.5633 0.0000 -3.2009 0.0000
# 3 34.8880 17.5633 96.3214 0.0000 1.7174 0.0000
# 4 0.0000 0.0000 0.0000 10.3559 0.0000 1.9172
# 5 2.6602 -3.2009 1.7174 0.0000 27.9391 0.0000
# 6 0.0000 0.0000 0.0000 1.9172 0.0000 11.3839
#
#
#
# Elastic Compliance Matrix: (Units=1/GPa)
#
#
# Indices 1 2 3 4 5 6 
#
# 1 0.017397 -0.005872 -0.005195 0.000000 -0.002010 0.000000
# 2 -0.005872 0.022592 -0.002051 0.000000 0.003273 0.000000
# 3 -0.005195 -0.002051 0.012647 0.000000 -0.000518 0.000000
# 4 0.000000 0.000000 0.000000 0.099672 0.000000 -0.016786
# 5 -0.002010 0.003273 -0.000518 0.000000 0.036390 0.000000
# 6 0.000000 0.000000 0.000000 -0.016786 0.000000 0.090670
#
#
# Mechanical properties :
#
#
# Convention : Reuss Voigt Hill
#
# Bulk Modulus (GPa) = 37.87855 41.57192 39.72523
# Shear Modulus (GPa) = 15.90318 19.89232 17.89775
#
# Velocity S-wave (km/s) = 3.09925 3.46623 3.28786
# Velocity P-wave (km/s) = 5.97372 6.41316 6.19734
#
# Compressibility (1/GPa) = 0.02640017
#
# Stress axis : x y z
#
# Youngs Moduli (GPa) = 57.48076 44.26431 79.07219
#
# Poissons Ratio (x) = 0.25992 0.41076
# Poissons Ratio (y) = 0.33752 0.16217
# Poissons Ratio (z) = 0.29860 0.09078
#
# Static dielectric constant tensor:
#      x y z
#    x 3.310600 0.000000 -0.024570 
#    y 0.000000 2.806140 0.000000 
#    z -0.024570 0.000000 3.271980 
# 
# 
# High freq. dielectric constant tensor:
#      x y z
#    x 1.637030 0.000000 0.000480 
#    y 0.000000 1.586150 0.000000 
#    z 0.000480 0.000000 1.632290 
# 
# From -- ./inp_files/160360.got.cif
#   From: 2010.06.25/outbox.cif.g09.slc.cpg/sg12_81_cif.got.tgz:160360.got - 2010.06.28 00:19:55.
