data_PCOD8078545
_publ_section_title
;
Structure prediction by ZEFSAII (Michael W. Deem and Ramdas Pophale) SiO2 
 PCOD8078545
Probable space group: C 2/M
;
_chemical_formula_sum "Si O2"
_cell_formula_units_Z 48
_cell_length_a 24.886462
_cell_length_b 9.280126
_cell_length_c 14.236329
_cell_angle_alpha 90.000000
_cell_angle_beta 69.742145
_cell_angle_gamma 90.000000
_cell_volume 3084.498021
_symmetry_space_group_name_H-M "C 2/M"
_symmetry_group_IT_number 12
_symmetry_cell_setting 'monoclinic'
loop_
_space_group_symop_operation_xyz
x,y,z
-x,y,-z
-x,-y,-z
x,-y,z
1/2+x,1/2+y,z
1/2-x,1/2+y,-z
1/2-x,1/2-y,-z
1/2+x,1/2-y,z
loop_
_atom_site_type_symbol
_atom_site_label
_atom_site_fract_x
_atom_site_fract_y
_atom_site_fract_z
Si Si1 0.020086 0.829989 0.778638
Si Si2 0.116149 0.667188 0.832724
Si Si3 0.667446 0.668535 0.497326
Si Si4 0.551124 0.839910 0.043664
Si Si5 0.285838 0.834810 0.355777
Si Si6 0.958704 0.829726 0.445973
O O1 0.076723 0.762167 0.788977
O O2 0.017877 0.786806 0.670714
O O3 0.962423 0.768881 0.863094
O O4 0.022201 0.000000 0.792550
O O5 0.098133 0.500000 0.829696
O O6 0.182645 0.692382 0.763305
O O7 0.107163 0.708236 0.948546
O O8 0.661514 0.500000 0.521273
O O9 0.683062 0.738776 0.586342
O O10 0.717848 0.702327 0.390737
O O11 0.606245 0.728863 0.498759
O O12 0.559378 0.000000 0.080947
O O13 0.500000 0.837340 0.000000
O O14 0.293148 0.000000 0.383156
O O15 0.000000 0.759653 0.500000
O O16 0.958695 0.000000 0.457770
#
# Coordination Sequence:
#
# PCOD8078545 Si02
#       6
#     8   8   8   8   8   8
#     4  10  17  25  39  58  79 103 135 169 196 229
#     4   9  16  26  39  57  82 109 129 153 199 248
#     4   9  16  27  41  59  80 105 136 165 199 238
#     4   8  15  26  38  53  78 108 131 155 197 245
#     4   9  16  25  41  61  82 105 130 163 200 242
#     4   9  17  28  41  58  82 110 137 167 201 234
#
# _framework density 15.561688999999999
#
# number of rings (size 3 to 8) (size 9 to 14) (size 15 to 20)
#    0.000    3.000    1.667    1.500    0.000    3.000 
#    0.000    0.000    0.000    4.500    0.000    1.167 
#    0.000    0.000    0.000    0.000    0.000    0.000 
#
# Total GULP energy -297330.802884 kJ/mol
# GULP energy per Si atom -12388.783453 kJ/mol
# Density = 1.552627 g / cm^3
# Si number density = 15.561689 Si / 1000 Ang^3
#
#
#
# Elastic Constant Matrix: (Units=GPa)
#
#
# Indices 1 2 3 4 5 6 
#
# 1 90.1070 22.6959 66.0296 0.0000 -16.9527 0.0000
# 2 22.6959 43.6460 38.7264 0.0000 -4.5542 0.0000
# 3 66.0296 38.7264 138.1758 0.0000 -31.8208 0.0000
# 4 0.0000 0.0000 0.0000 19.2574 0.0000 -4.8535
# 5 -16.9527 -4.5542 -31.8208 0.0000 27.7192 0.0000
# 6 0.0000 0.0000 0.0000 -4.8535 0.0000 9.7940
#
#
#
# Elastic Compliance Matrix: (Units=1/GPa)
#
#
# Indices 1 2 3 4 5 6 
#
# 1 0.017316 -0.002480 -0.007116 0.000000 0.002014 0.000000
# 2 -0.002480 0.031745 -0.009325 0.000000 -0.007007 0.000000
# 3 -0.007116 -0.009325 0.016171 0.000000 0.012680 0.000000
# 4 0.000000 0.000000 0.000000 0.059339 0.000000 0.029406
# 5 0.002014 -0.007007 0.012680 0.000000 0.050713 0.000000
# 6 0.000000 0.000000 0.000000 0.029406 0.000000 0.116676
#
#
# Mechanical properties :
#
#
# Convention : Reuss Voigt Hill
#
# Bulk Modulus (GPa) = 36.51122 58.53697 47.52409
# Shear Modulus (GPa) = 14.75221 20.98592 17.86907
#
# Velocity S-wave (km/s) = 3.08227 3.67626 3.39229
# Velocity P-wave (km/s) = 6.01501 7.46442 6.77857
#
# Compressibility (1/GPa) = 0.02738884
#
# Stress axis : x y z
#
# Youngs Moduli (GPa) = 57.75038 31.50150 61.83831
#
# Poissons Ratio (x) = 0.07814 0.44002
# Poissons Ratio (y) = 0.14325 0.57666
# Poissons Ratio (z) = 0.41093 0.29376
#
# Static dielectric constant tensor:
#      x y z
#    x 2.952670 0.000000 -0.447170 
#    y 0.000000 2.901490 0.000000 
#    z -0.447170 0.000000 3.408760 
# 
# 
# High freq. dielectric constant tensor:
#      x y z
#    x 1.550530 0.000000 -0.039800 
#    y 0.000000 1.586380 0.000000 
#    z -0.039800 0.000000 1.602460 
# 
# From -- ./inp_files/236593.got.cif
#   From: 2010.06.25/outbox.cif.g09.slc.cpg/sg12_119_cif.got.tgz:236593.got - 2010.06.28 00:19:55.
