data_PCOD8078907
_publ_section_title
;
Structure prediction by ZEFSAII (Michael W. Deem and Ramdas Pophale) SiO2 
 PCOD8078907
Probable space group: C 2/M
;
_chemical_formula_sum "Si O2"
_cell_formula_units_Z 48
_cell_length_a 14.142077
_cell_length_b 28.849821
_cell_length_c 9.957537
_cell_angle_alpha 90.000000
_cell_angle_beta 142.949859
_cell_angle_gamma 90.000000
_cell_volume 2447.795741
_symmetry_space_group_name_H-M "C 2/M"
_symmetry_group_IT_number 12
_symmetry_cell_setting 'monoclinic'
loop_
_space_group_symop_operation_xyz
x,y,z
-x,y,-z
-x,-y,-z
x,-y,z
1/2+x,1/2+y,z
1/2-x,1/2+y,-z
1/2-x,1/2-y,-z
1/2+x,1/2-y,z
loop_
_atom_site_type_symbol
_atom_site_label
_atom_site_fract_x
_atom_site_fract_y
_atom_site_fract_z
Si Si1 0.132954 0.266959 0.038021
Si Si2 0.181948 0.148126 0.683220
Si Si3 0.838870 0.595071 0.098394
Si Si4 0.124989 0.586695 0.260485
Si Si5 0.133779 0.309878 0.758387
Si Si6 0.183537 0.000000 0.884210
Si Si7 0.318486 0.500000 0.435625
O O1 0.277191 0.298264 0.252863
O O2 0.203089 0.216191 0.090762
O O3 0.068683 0.291210 0.828824
O O4 0.000000 0.264288 0.000000
O O5 0.259230 0.131192 0.630126
O O6 0.000000 0.140876 0.500000
O O7 0.258283 0.112911 0.873019
O O8 0.820514 0.635377 0.190000
O O9 0.026436 0.591494 0.286203
O O10 0.760409 0.545308 0.044085
O O11 0.239194 0.544027 0.411456
O O12 0.000000 0.578642 0.000000
O O13 0.000000 0.298889 0.500000
O O14 0.216671 0.000000 0.763152
O O15 0.997266 0.000000 0.687496
#
# Coordination Sequence:
#
# PCOD8078907 Si02
#       7
#     8   8   8   8   8   4   4
#     4  10  21  39  63  90 115 151 194 245 295 339
#     4  10  17  28  49  80 115 146 181 231 291 342
#     4  10  20  33  51  76 112 154 188 234 288 341
#     4  10  17  27  46  76 114 149 185 233 287 344
#     4  10  22  41  60  85 121 154 194 239 289 353
#     4  11  19  30  50  77 117 151 191 240 290 346
#     4  11  18  27  48  84 116 149 187 239 304 335
#
# _framework density 19.609480000000001
#
# number of rings (size 3 to 8) (size 9 to 14) (size 15 to 20)
#    0.000    1.833    3.333    4.750    0.000    0.667 
#    0.000    7.083    0.000    0.000    0.000    1.750 
#    0.000    0.000    0.000    0.000    0.000    0.000 
#
# Total GULP energy -297385.691493 kJ/mol
# GULP energy per Si atom -12391.070479 kJ/mol
# Density = 1.956485 g / cm^3
# Si number density = 19.609480 Si / 1000 Ang^3
#
#
#
# Elastic Constant Matrix: (Units=GPa)
#
#
# Indices 1 2 3 4 5 6 
#
# 1 82.0572 48.1164 49.5468 0.0000 23.2819 0.0000
# 2 48.1164 151.0055 44.2069 0.0000 14.3729 0.0000
# 3 49.5468 44.2069 84.9669 0.0000 23.9888 0.0000
# 4 0.0000 0.0000 0.0000 21.1630 0.0000 13.9277
# 5 23.2819 14.3729 23.9888 0.0000 34.3845 0.0000
# 6 0.0000 0.0000 0.0000 13.9277 0.0000 30.6089
#
#
#
# Elastic Compliance Matrix: (Units=1/GPa)
#
#
# Indices 1 2 3 4 5 6 
#
# 1 0.021573 -0.003661 -0.008696 0.000000 -0.007010 0.000000
# 2 -0.003661 0.008441 -0.002442 0.000000 0.000654 0.000000
# 3 -0.008696 -0.002442 0.020124 0.000000 -0.007131 0.000000
# 4 0.000000 0.000000 0.000000 0.067451 0.000000 -0.030692
# 5 -0.007010 0.000654 -0.007131 0.000000 0.038531 0.000000
# 6 0.000000 0.000000 0.000000 -0.030692 0.000000 0.046636
#
#
# Mechanical properties :
#
#
# Convention : Reuss Voigt Hill
#
# Bulk Modulus (GPa) = 48.68336 66.86331 57.77334
# Shear Modulus (GPa) = 20.90298 28.97524 24.93911
#
# Velocity S-wave (km/s) = 3.26845 3.84814 3.57008
# Velocity P-wave (km/s) = 6.25492 7.34273 6.82055
#
# Compressibility (1/GPa) = 0.02054090
#
# Stress axis : x y z
#
# Youngs Moduli (GPa) = 46.35423 118.46385 49.69240
#
# Poissons Ratio (x) = 0.43370 0.43212
# Poissons Ratio (y) = 0.16971 0.12133
# Poissons Ratio (z) = 0.40309 0.28924
#
# Static dielectric constant tensor:
#      x y z
#    x 3.666420 0.000000 0.430280 
#    y 0.000000 3.824900 0.000000 
#    z 0.430280 0.000000 3.452230 
# 
# 
# High freq. dielectric constant tensor:
#      x y z
#    x 1.731040 0.000000 0.034830 
#    y 0.000000 1.780520 0.000000 
#    z 0.034830 0.000000 1.739830 
# 
# From -- ./inp_files/150353.got.cif
#   From: 2010.06.25/outbox.cif.g09.slc.cpg/sg12_76_cif.got.tgz:150353.got - 2010.06.28 00:19:55.
