data_PCOD8078531
_publ_section_title
;
Structure prediction by ZEFSAII (Michael W. Deem and Ramdas Pophale) SiO2 
 PCOD8078531
Probable space group: C 2/M
;
_chemical_formula_sum "Si O2"
_cell_formula_units_Z 64
_cell_length_a 23.922778
_cell_length_b 9.381231
_cell_length_c 24.009483
_cell_angle_alpha 90.000000
_cell_angle_beta 49.977403
_cell_angle_gamma 90.000000
_cell_volume 4126.334534
_symmetry_space_group_name_H-M "C 2/M"
_symmetry_group_IT_number 12
_symmetry_cell_setting 'monoclinic'
loop_
_space_group_symop_operation_xyz
x,y,z
-x,y,-z
-x,-y,-z
x,-y,z
1/2+x,1/2+y,z
1/2-x,1/2+y,-z
1/2-x,1/2-y,-z
1/2+x,1/2-y,z
loop_
_atom_site_type_symbol
_atom_site_label
_atom_site_fract_x
_atom_site_fract_y
_atom_site_fract_z
Si Si1 0.544609 0.669412 0.522156
Si Si2 0.079228 0.336989 0.882099
Si Si3 0.195273 0.335640 0.197581
Si Si4 0.792051 0.166829 0.241590
Si Si5 0.678384 0.339429 0.373796
Si Si6 0.282035 0.669126 0.031880
Si Si7 0.080188 0.159814 0.326538
Si Si8 0.413042 0.163818 0.993857
O O1 0.500000 0.740447 0.500000
O O2 0.537959 0.500000 0.522201
O O3 0.630433 0.710499 0.459038
O O4 0.503077 0.715450 0.606259
O O5 0.103055 0.500000 0.857180
O O6 0.127804 0.235877 0.811882
O O7 0.995169 0.314893 0.918991
O O8 0.090850 0.295287 0.938891
O O9 0.175642 0.500000 0.212672
O O10 0.252407 0.294866 0.209112
O O11 0.229945 0.291940 0.116835
O O12 0.118489 0.254842 0.254838
O O13 0.746590 0.233772 0.322043
O O14 0.799803 0.000000 0.246982
O O15 0.708224 0.500000 0.363048
O O16 0.625557 0.334262 0.354518
O O17 0.286371 0.500000 0.018811
O O18 0.250000 0.750000 0.000000
O O19 0.362679 0.728915 0.991607
O O20 0.077977 0.000000 0.304136
O O21 0.388222 0.000000 0.000686
#
# Coordination Sequence:
#
# PCOD8078531 Si02
#       8
#     8   8   8   8   8   8   8   8
#     4   7  10  18  31  48  69  94 130 169 199 232
#     4   9  17  29  46  65  85 108 137 173 212 254
#     4   9  18  29  38  54  80 105 133 171 212 251
#     4  10  17  25  37  57  83 109 138 172 207 245
#     4   8  13  21  33  49  72 103 135 166 201 239
#     4  11  22  35  48  63  84 112 143 178 218 258
#     4   8  13  21  36  53  68  95 134 171 202 237
#     4   9  18  32  48  66  84 105 137 176 214 256
#
# _framework density 15.510134000000001
#
# number of rings (size 3 to 8) (size 9 to 14) (size 15 to 20)
#    0.000    3.125    1.250    3.000    0.000    2.000 
#    0.000    1.875    0.000    3.750    0.000    0.000 
#    0.000    0.000    0.000    1.125    0.000   13.625 
#
# Total GULP energy -396491.000669 kJ/mol
# GULP energy per Si atom -12390.343771 kJ/mol
# Density = 1.547483 g / cm^3
# Si number density = 15.510134 Si / 1000 Ang^3
#
#
#
# Elastic Constant Matrix: (Units=GPa)
#
#
# Indices 1 2 3 4 5 6 
#
# 1 46.0662 32.0250 33.2667 0.0002 -8.7109 -0.0002
# 2 32.0250 73.8892 56.8614 -0.0001 -16.9135 -0.0004
# 3 33.2667 56.8614 117.3661 0.0000 -31.9449 0.0002
# 4 0.0002 -0.0001 0.0000 21.2246 0.0000 -2.8922
# 5 -8.7109 -16.9135 -31.9449 0.0000 18.5726 -0.0001
# 6 -0.0002 -0.0004 0.0002 -2.8922 -0.0001 16.7946
#
#
#
# Elastic Compliance Matrix: (Units=1/GPa)
#
#
# Indices 1 2 3 4 5 6 
#
# 1 0.032149 -0.011121 -0.004469 0.000000 -0.002736 0.000000
# 2 -0.011121 0.025524 -0.008098 0.000000 0.004100 0.000001
# 3 -0.004469 -0.008098 0.020932 0.000000 0.026532 0.000000
# 4 0.000000 0.000000 0.000000 0.048247 0.000000 0.008309
# 5 -0.002736 0.004100 0.026532 0.000000 0.101929 0.000000
# 6 0.000000 0.000001 0.000000 0.008309 0.000000 0.060974
#
#
# Mechanical properties :
#
#
# Convention : Reuss Voigt Hill
#
# Bulk Modulus (GPa) = 32.02169 53.51421 42.76795
# Shear Modulus (GPa) = 14.38678 18.99625 16.69151
#
# Velocity S-wave (km/s) = 3.04891 3.50346 3.28406
# Velocity P-wave (km/s) = 5.75195 7.13746 6.48183
#
# Compressibility (1/GPa) = 0.03122883
#
# Stress axis : x y z
#
# Youngs Moduli (GPa) = 31.10484 39.17900 47.77379
#
# Poissons Ratio (x) = 0.43571 0.21352
# Poissons Ratio (y) = 0.34592 0.38686
# Poissons Ratio (z) = 0.13902 0.31726
#
# Static dielectric constant tensor:
#      x y z
#    x 2.472830 0.000000 -0.282970 
#    y 0.000000 2.885320 0.000000 
#    z -0.282970 0.000000 3.294140 
# 
# 
# High freq. dielectric constant tensor:
#      x y z
#    x 1.525400 0.000000 -0.033350 
#    y 0.000000 1.587970 0.000000 
#    z -0.033350 0.000000 1.604650 
# 
# From -- ./inp_files/348519.got.cif
#   From: 2010.06.25/outbox.cif.g09.slc.cpg/sg12_175_cif.got.tgz:348519.got - 2010.06.28 00:19:55.
