data_PCOD8078212
_publ_section_title
;
Structure prediction by ZEFSAII (Michael W. Deem and Ramdas Pophale) SiO2 
 PCOD8078212
Probable space group: C 2/M
;
_chemical_formula_sum "Si O2"
_cell_formula_units_Z 64
_cell_length_a 24.147694
_cell_length_b 12.789506
_cell_length_c 16.982601
_cell_angle_alpha 90.000000
_cell_angle_beta 52.299887
_cell_angle_gamma 90.000000
_cell_volume 4149.847847
_symmetry_space_group_name_H-M "C 2/M"
_symmetry_group_IT_number 12
_symmetry_cell_setting 'monoclinic'
loop_
_space_group_symop_operation_xyz
x,y,z
-x,y,-z
-x,-y,-z
x,-y,z
1/2+x,1/2+y,z
1/2-x,1/2+y,-z
1/2-x,1/2-y,-z
1/2+x,1/2-y,z
loop_
_atom_site_type_symbol
_atom_site_label
_atom_site_fract_x
_atom_site_fract_y
_atom_site_fract_z
Si Si1 0.355948 0.621080 0.529752
Si Si2 0.987480 0.380732 0.394481
Si Si3 0.606526 0.623365 0.919408
Si Si4 0.277248 0.770539 0.390270
Si Si5 0.493302 0.376318 0.133688
Si Si6 0.752488 0.876881 0.271796
Si Si7 0.578753 0.255165 0.671856
Si Si8 0.895711 0.298430 0.605073
O O1 0.374431 0.500000 0.522128
O O2 0.271037 0.636372 0.603558
O O3 0.389044 0.666392 0.420883
O O4 0.389410 0.680880 0.575980
O O5 0.013454 0.500000 0.364954
O O6 0.961601 0.341473 0.332461
O O7 0.923317 0.374948 0.511888
O O8 0.050473 0.304856 0.368946
O O9 0.602590 0.500000 0.924125
O O10 0.564699 0.660368 0.878707
O O11 0.686709 0.662511 0.841428
O O12 0.568935 0.661244 0.032861
O O13 0.250000 0.750000 0.500000
O O14 0.264993 0.668067 0.348028
O O15 0.360152 0.793872 0.325401
O O16 0.491020 0.500000 0.151371
O O17 0.478329 0.317834 0.228030
O O18 0.679105 0.839360 0.299825
O O19 0.755154 0.000000 0.279132
#
# Coordination Sequence:
#
# PCOD8078212 Si02
#       8
#     8   8   8   8   8   8   8   8
#     4   9  18  30  43  62  90 119 146 180 217 260
#     4  10  19  32  46  64  89 116 148 187 216 248
#     4   8  15  24  41  66  89 117 145 178 225 260
#     4   9  18  26  36  61  90 116 146 171 207 262
#     4   9  15  26  41  64  96 118 141 180 220 263
#     4  10  16  26  45  66  87 114 147 186 222 255
#     4  10  18  28  43  64  89 122 151 171 216 270
#     4   9  18  31  47  65  85 114 153 184 218 257
#
# _framework density 15.422252
#
# number of rings (size 3 to 8) (size 9 to 14) (size 15 to 20)
#    0.000    2.750    1.250    3.375    0.000    2.500 
#    0.000    5.625    0.000    0.750    0.000    5.250 
#    0.000    0.000    0.000    0.000    0.000    0.000 
#
# Total GULP energy -396520.959121 kJ/mol
# GULP energy per Si atom -12391.279973 kJ/mol
# Density = 1.538715 g / cm^3
# Si number density = 15.422252 Si / 1000 Ang^3
#
#
#
# Elastic Constant Matrix: (Units=GPa)
#
#
# Indices 1 2 3 4 5 6 
#
# 1 89.2151 35.4386 31.7940 0.0000 -13.6879 0.0000
# 2 35.4386 75.3836 26.7667 0.0000 -0.8656 0.0000
# 3 31.7940 26.7667 87.8904 0.0000 -20.4869 0.0000
# 4 0.0000 0.0000 0.0000 18.5502 0.0000 0.0198
# 5 -13.6879 -0.8656 -20.4869 0.0000 20.6445 0.0000
# 6 0.0000 0.0000 0.0000 0.0198 0.0000 15.2634
#
#
#
# Elastic Compliance Matrix: (Units=1/GPa)
#
#
# Indices 1 2 3 4 5 6 
#
# 1 0.015786 -0.006729 -0.001675 0.000000 0.008522 0.000000
# 2 -0.006729 0.018156 -0.005149 0.000000 -0.008809 0.000000
# 3 -0.001675 -0.005149 0.017227 0.000000 0.015770 0.000000
# 4 0.000000 0.000000 0.000000 0.053908 0.000000 -0.000070
# 5 0.008522 -0.008809 0.015770 0.000000 0.069370 0.000000
# 6 0.000000 0.000000 0.000000 -0.000070 0.000000 0.065516
#
#
# Mechanical properties :
#
#
# Convention : Reuss Voigt Hill
#
# Bulk Modulus (GPa) = 41.55398 48.94308 45.24853
# Shear Modulus (GPa) = 18.17594 21.45759 19.81677
#
# Velocity S-wave (km/s) = 3.43673 3.73411 3.58850
# Velocity P-wave (km/s) = 6.53841 7.09900 6.82446
#
# Compressibility (1/GPa) = 0.02406509
#
# Stress axis : x y z
#
# Youngs Moduli (GPa) = 63.34683 55.07916 58.04681
#
# Poissons Ratio (x) = 0.37061 0.09722
# Poissons Ratio (y) = 0.42624 0.29886
# Poissons Ratio (z) = 0.10610 0.28358
#
# Static dielectric constant tensor:
#      x y z
#    x 3.069550 0.000000 -0.289240 
#    y 0.000000 2.692780 0.000000 
#    z -0.289240 0.000000 3.094570 
# 
# 
# High freq. dielectric constant tensor:
#      x y z
#    x 1.584740 0.000000 -0.017460 
#    y 0.000000 1.561500 0.000000 
#    z -0.017460 0.000000 1.575930 
# 
# From -- ./inp_files/292745.got.cif
#   From: 2010.06.25/outbox.cif.g09.slc.cpg/sg12_147_cif.got.tgz:292745.got - 2010.06.28 00:19:55.
