data_PCOD8078002
_publ_section_title
;
Structure prediction by ZEFSAII (Michael W. Deem and Ramdas Pophale) SiO2 
 PCOD8078002
Probable space group: P 21/M
;
_chemical_formula_sum "Si O2"
_cell_formula_units_Z 28
_cell_length_a 30.000000
_cell_length_b 9.000000
_cell_length_c 30.000000
_cell_angle_alpha 90.000000
_cell_angle_beta 10.000000
_cell_angle_gamma 90.000000
_cell_volume 1406.550239
_symmetry_space_group_name_H-M "P 21/M"
_symmetry_group_IT_number 11
_symmetry_cell_setting 'monoclinic'
loop_
_space_group_symop_operation_xyz
x,y,z
-x,1/2+y,-z
-x,-y,-z
x,1/2-y,z
loop_
_atom_site_type_symbol
_atom_site_label
_atom_site_fract_x
_atom_site_fract_y
_atom_site_fract_z
Si Si1 0.239260 0.428194 0.239344
Si Si2 0.842144 0.572783 0.965977
Si Si3 0.982330 0.076693 0.917111
Si Si4 0.676862 0.928914 0.554485
Si Si5 0.203497 0.572766 0.180570
Si Si6 0.675421 0.575439 0.656446
Si Si7 0.496077 0.579436 0.550297
O O1 0.242678 0.250000 0.242681
O O2 0.212138 0.471503 0.215132
O O3 0.000000 0.500000 0.500000
O O4 0.500000 0.500000 0.000000
O O5 0.833322 0.750000 0.966726
O O6 0.926081 0.536198 0.933046
O O7 0.049313 0.494704 0.729848
O O8 0.560420 0.500571 0.238067
O O9 0.974855 0.250000 0.909019
O O10 0.263388 0.028459 0.656809
O O11 0.772260 0.045279 0.161700
O O12 0.678402 0.750000 0.546678
O O13 0.639574 0.982011 0.641847
O O14 0.211087 0.750000 0.183766
O O15 0.946831 0.522876 0.408190
O O16 0.442495 0.517374 0.915855
O O17 0.666246 0.750000 0.664952
O O18 0.500000 0.500000 0.500000
O O19 0.529876 0.750000 0.505995
#
# Coordination Sequence:
#
# PCOD8078002 Si02
#       7
#     4   4   4   4   4   4   4
#     4  12  25  42  63  91 123 161 204 249 302 360
#     4  12  25  40  60  92 126 158 199 256 311 351
#     4  10  21  38  58  82 112 154 199 238 284 354
#     4  11  22  41  66  90 119 163 208 245 292 365
#     4  10  19  36  60  88 119 153 196 249 297 349
#     4   9  19  35  60  88 115 153 202 243 288 354
#     4  10  21  36  57  83 112 146 191 240 291 347
#
# _framework density 19.906860999999999
#
# number of rings (size 3 to 8) (size 9 to 14) (size 15 to 20)
#    0.000    1.429    0.000    6.000    0.000    5.714 
#    0.000    4.286    0.000    0.000    0.000    0.000 
#    0.000    0.000    0.000    0.000    0.000    0.000 
#
# Total GULP energy -347221.097968 kJ/mol
# GULP energy per Si atom -12400.753499 kJ/mol
# Density = 1.986155 g / cm^3
# Si number density = 19.906861 Si / 1000 Ang^3
#
#
#
# Elastic Constant Matrix: (Units=GPa)
#
#
# Indices 1 2 3 4 5 6 
#
# 1 95.8411 33.2181 18.8150 0.0000 -2.2776 0.0000
# 2 33.2181 111.8771 30.5065 0.0000 -0.9394 0.0000
# 3 18.8150 30.5065 124.5174 0.0000 -8.6383 0.0000
# 4 0.0000 0.0000 0.0000 25.2708 0.0000 4.7742
# 5 -2.2776 -0.9394 -8.6383 0.0000 33.4985 0.0000
# 6 0.0000 0.0000 0.0000 4.7742 0.0000 31.9729
#
#
#
# Elastic Compliance Matrix: (Units=1/GPa)
#
#
# Indices 1 2 3 4 5 6 
#
# 1 0.011750 -0.003225 -0.000953 0.000000 0.000463 0.000000
# 2 -0.003225 0.010467 -0.002110 0.000000 -0.000470 0.000000
# 3 -0.000953 -0.002110 0.008842 0.000000 0.002156 0.000000
# 4 0.000000 0.000000 0.000000 0.040720 0.000000 -0.006080
# 5 0.000463 -0.000470 0.002156 0.000000 0.030426 0.000000
# 6 0.000000 0.000000 0.000000 -0.006080 0.000000 0.032184
#
#
# Mechanical properties :
#
#
# Convention : Reuss Voigt Hill
#
# Bulk Modulus (GPa) = 54.10449 55.25723 54.68086
# Shear Modulus (GPa) = 32.65282 34.79483 33.72382
#
# Velocity S-wave (km/s) = 4.05443 4.18530 4.12039
# Velocity P-wave (km/s) = 7.01111 7.15359 7.08271
#
# Compressibility (1/GPa) = 0.01848276
#
# Stress axis : x y z
#
# Youngs Moduli (GPa) = 85.10785 95.53614 113.10298
#
# Poissons Ratio (x) = 0.30809 0.10782
# Poissons Ratio (y) = 0.27446 0.23862
# Poissons Ratio (z) = 0.08113 0.20156
#
# Static dielectric constant tensor:
#      x y z
#    x 3.789200 0.000000 0.016640 
#    y 0.000000 3.554560 0.000000 
#    z 0.016640 0.000000 4.126380 
# 
# 
# High freq. dielectric constant tensor:
#      x y z
#    x 1.785600 0.000000 -0.001210 
#    y 0.000000 1.766680 0.000000 
#    z -0.001210 0.000000 1.808500 
# 
# From -- ./inp_files/9611.got.cif
#   From: 2010.06.25/outbox.ucp.g09.slc.cvg/sg11_5_cif.got.tgz:9611.got - 2010.06.28 13:43:20.
