data_PCOD8078022
_publ_section_title
;
Structure prediction by ZEFSAII (Michael W. Deem and Ramdas Pophale) SiO2 
 PCOD8078022
Probable space group: P 21/M
;
_chemical_formula_sum "Si O2"
_cell_formula_units_Z 32
_cell_length_a 15.000000
_cell_length_b 9.000000
_cell_length_c 24.000000
_cell_angle_alpha 90.000000
_cell_angle_beta 30.000000
_cell_angle_gamma 90.000000
_cell_volume 1620.000000
_symmetry_space_group_name_H-M "P 21/M"
_symmetry_group_IT_number 11
_symmetry_cell_setting 'monoclinic'
loop_
_space_group_symop_operation_xyz
x,y,z
-x,1/2+y,-z
-x,-y,-z
x,1/2-y,z
loop_
_atom_site_type_symbol
_atom_site_label
_atom_site_fract_x
_atom_site_fract_y
_atom_site_fract_z
Si Si1 0.381359 0.918547 0.989339
Si Si2 0.460591 0.070198 0.462223
Si Si3 0.269734 0.918948 0.176806
Si Si4 0.833395 0.420581 0.560871
Si Si5 0.890421 0.423379 0.399499
Si Si6 0.244795 0.428665 0.775205
Si Si7 0.432535 0.075376 0.787551
Si Si8 0.858233 0.572434 0.964661
O O1 0.388708 0.750000 0.961455
O O2 0.573784 0.996772 0.873125
O O3 0.337824 0.913432 0.077490
O O4 0.215911 0.012114 0.053702
O O5 0.457598 0.250000 0.464912
O O6 0.500000 0.000000 0.500000
O O7 0.268570 0.010518 0.545485
O O8 0.627358 0.010411 0.337062
O O9 0.247782 0.750000 0.211838
O O10 0.082017 0.004628 0.282164
O O11 0.842788 0.250000 0.574630
O O12 0.854302 0.438263 0.484004
O O13 0.636174 0.489304 0.683152
O O14 0.000000 0.500000 0.500000
O O15 0.890778 0.250000 0.380833
O O16 0.241473 0.250000 0.767745
O O17 0.330034 0.475490 0.787694
O O18 0.043587 0.492301 0.880007
O O19 0.456402 0.250000 0.773138
O O20 0.301910 0.023772 0.907394
O O21 0.888133 0.750000 0.947413
#
# Coordination Sequence:
#
# PCOD8078022 Si02
#       8
#     4   4   4   4   4   4   4   4
#     4  10  22  41  61  88 123 162 206 256 313 369
#     4  12  26  44  67  96 128 166 212 260 316 381
#     4  10  22  40  63  88 122 163 206 255 311 369
#     4  10  22  41  63  92 127 168 208 256 313 372
#     4  11  23  42  67  95 129 167 209 258 317 378
#     4  11  22  43  67  89 124 164 205 259 316 370
#     4   9  20  41  64  87 123 165 205 255 312 369
#     4  11  23  38  62  94 124 161 209 257 311 372
#
# _framework density 19.753086
#
# number of rings (size 3 to 8) (size 9 to 14) (size 15 to 20)
#    0.000    1.500    1.250    3.375    3.500    2.500 
#    0.000    2.500    0.000    0.000    0.000    0.000 
#    0.000    0.000    0.000    0.000    0.000    0.000 
#
# Total GULP energy -396654.518140 kJ/mol
# GULP energy per Si atom -12395.453692 kJ/mol
# Density = 1.970813 g / cm^3
# Si number density = 19.753086 Si / 1000 Ang^3
#
#
#
# Elastic Constant Matrix: (Units=GPa)
#
#
# Indices 1 2 3 4 5 6 
#
# 1 108.3922 45.3388 37.1000 0.0000 -40.8020 0.0000
# 2 45.3388 154.5947 52.1799 0.0000 -20.9616 0.0000
# 3 37.1000 52.1799 137.9184 0.0000 -46.5437 0.0000
# 4 0.0000 0.0000 0.0000 41.5816 0.0000 -13.2899
# 5 -40.8020 -20.9616 -46.5437 0.0000 50.4583 0.0000
# 6 0.0000 0.0000 0.0000 -13.2899 0.0000 35.9288
#
#
#
# Elastic Compliance Matrix: (Units=1/GPa)
#
#
# Indices 1 2 3 4 5 6 
#
# 1 0.014425 -0.003064 0.001141 0.000000 0.011444 0.000000
# 2 -0.003064 0.008084 -0.002813 0.000000 -0.001714 0.000000
# 3 0.001141 -0.002813 0.011507 0.000000 0.010368 0.000000
# 4 0.000000 0.000000 0.000000 0.027273 0.000000 0.010088
# 5 0.011444 -0.001714 0.010368 0.000000 0.037924 0.000000
# 6 0.000000 0.000000 0.000000 0.010088 0.000000 0.031564
#
#
# Mechanical properties :
#
#
# Convention : Reuss Voigt Hill
#
# Bulk Modulus (GPa) = 40.74243 74.46029 57.60136
# Shear Modulus (GPa) = 33.68591 43.34617 38.51604
#
# Velocity S-wave (km/s) = 4.13407 4.68952 4.42053
# Velocity P-wave (km/s) = 6.59227 8.19143 7.43497
#
# Compressibility (1/GPa) = 0.02454444
#
# Stress axis : x y z
#
# Youngs Moduli (GPa) = 69.32636 123.70025 86.90418
#
# Poissons Ratio (x) = 0.37899 -0.09915
# Poissons Ratio (y) = 0.21240 0.24443
# Poissons Ratio (z) = -0.07909 0.34792
#
# Static dielectric constant tensor:
#      x y z
#    x 3.890120 0.000000 -0.308960 
#    y 0.000000 3.936120 0.000000 
#    z -0.308960 0.000000 3.853410 
# 
# 
# High freq. dielectric constant tensor:
#      x y z
#    x 1.788120 0.000000 -0.020050 
#    y 0.000000 1.783840 0.000000 
#    z -0.020050 0.000000 1.799280 
# 
# From -- ./inp_files/69053.got.cif
#   From: 2010.06.25/outbox.ucp.g09.slc.cvg/sg11_35_cif.got.tgz:69053.got - 2010.06.28 13:43:20.
