data_PCOD8078598
_publ_section_title
;
Structure prediction by ZEFSAII (Michael W. Deem and Ramdas Pophale) SiO2 
 PCOD8078598
Probable space group: C 2/M
;
_chemical_formula_sum "Si O2"
_cell_formula_units_Z 40
_cell_length_a 18.708616
_cell_length_b 8.597459
_cell_length_c 23.119146
_cell_angle_alpha 90.000000
_cell_angle_beta 145.135953
_cell_angle_gamma 90.000000
_cell_volume 2125.687525
_symmetry_space_group_name_H-M "C 2/M"
_symmetry_group_IT_number 12
_symmetry_cell_setting 'monoclinic'
loop_
_space_group_symop_operation_xyz
x,y,z
-x,y,-z
-x,-y,-z
x,-y,z
1/2+x,1/2+y,z
1/2-x,1/2+y,-z
1/2-x,1/2-y,-z
1/2+x,1/2-y,z
loop_
_atom_site_type_symbol
_atom_site_label
_atom_site_fract_x
_atom_site_fract_y
_atom_site_fract_z
Si Si1 0.026750 0.681258 0.101568
Si Si2 0.894043 0.683999 0.317460
Si Si3 0.826312 0.315499 0.497628
Si Si4 0.218777 0.184379 0.304270
Si Si5 0.322818 0.680603 0.903151
O O1 0.048395 0.500000 0.104968
O O2 0.084506 0.733704 0.201505
O O3 0.096244 0.785610 0.100193
O O4 0.878462 0.722504 0.995010
O O5 0.901813 0.500000 0.328380
O O6 0.822010 0.745521 0.326737
O O7 0.819091 0.729836 0.208594
O O8 0.033122 0.754549 0.407020
O O9 0.830006 0.500000 0.503593
O O10 0.750000 0.250000 0.500000
O O11 0.761061 0.259359 0.395372
O O12 0.202082 0.000000 0.290172
O O13 0.329342 0.500000 0.923188
#
# Coordination Sequence:
#
# PCOD8078598 Si02
#       5
#     8   8   8   8   8
#     4  10  17  25  41  69 102 126 149 191 242 282
#     4   8  15  29  51  74  93 121 162 200 229 269
#     4  10  20  34  51  71  96 125 158 197 241 286
#     4   9  17  31  51  71  93 126 165 197 227 275
#     4   9  15  26  45  68  95 126 159 191 228 280
#
# _framework density 18.817440999999999
#
# number of rings (size 3 to 8) (size 9 to 14) (size 15 to 20)
#    0.000    2.800    0.000    5.400    0.000    3.200 
#    0.000    5.000    0.000    7.200    0.000    0.000 
#    0.000    0.000    0.000    0.000    0.000    0.000 
#
# Total GULP energy -247809.239542 kJ/mol
# GULP energy per Si atom -12390.461977 kJ/mol
# Density = 1.877461 g / cm^3
# Si number density = 18.817441 Si / 1000 Ang^3
#
#
#
# Elastic Constant Matrix: (Units=GPa)
#
#
# Indices 1 2 3 4 5 6 
#
# 1 69.1360 14.7607 66.5396 0.0000 -6.0613 0.0000
# 2 14.7607 33.6887 44.4488 0.0000 -0.0073 0.0000
# 3 66.5396 44.4488 225.5677 0.0000 -3.1423 0.0000
# 4 0.0000 0.0000 0.0000 17.9465 0.0000 -2.7224
# 5 -6.0613 -0.0073 -3.1423 0.0000 5.1344 0.0000
# 6 0.0000 0.0000 0.0000 -2.7224 0.0000 17.4361
#
#
#
# Elastic Compliance Matrix: (Units=1/GPa)
#
#
# Indices 1 2 3 4 5 6 
#
# 1 0.022664 -0.002066 -0.005957 0.000000 0.023107 0.000000
# 2 -0.002066 0.040419 -0.007452 0.000000 -0.006942 0.000000
# 3 -0.005957 -0.007452 0.007626 0.000000 -0.002376 0.000000
# 4 0.000000 0.000000 0.000000 0.057073 0.000000 0.008911
# 5 0.023107 -0.006942 -0.002376 0.000000 0.220579 0.000000
# 6 0.000000 0.000000 0.000000 0.008911 0.000000 0.058744
#
#
# Mechanical properties :
#
#
# Convention : Reuss Voigt Hill
#
# Bulk Modulus (GPa) = 25.15101 64.43227 44.79164
# Shear Modulus (GPa) = 11.07893 21.61297 16.34595
#
# Velocity S-wave (km/s) = 2.42907 3.39272 2.95050
# Velocity P-wave (km/s) = 4.61107 7.04716 5.95502
#
# Compressibility (1/GPa) = 0.03975984
#
# Stress axis : x y z
#
# Youngs Moduli (GPa) = 44.12265 24.74058 131.13517
#
# Poissons Ratio (x) = 0.05112 0.78112
# Poissons Ratio (y) = 0.09116 0.97722
# Poissons Ratio (z) = 0.26282 0.18437
#
# Static dielectric constant tensor:
#      x y z
#    x 3.034750 0.000000 0.201820 
#    y 0.000000 3.118900 0.000000 
#    z 0.201820 0.000000 4.565780 
# 
# 
# High freq. dielectric constant tensor:
#      x y z
#    x 1.660660 0.000000 0.004550 
#    y 0.000000 1.707500 0.000000 
#    z 0.004550 0.000000 1.768610 
# 
# From -- ./inp_files/313518.got.cif
#   From: 2010.06.25/outbox.cif.g09.slc.cpg/sg12_157_cif.got.tgz:313518.got - 2010.06.28 00:19:55.
