data_PCOD8078913
_publ_section_title
;
Structure prediction by ZEFSAII (Michael W. Deem and Ramdas Pophale) SiO2 
 PCOD8078913
Probable space group: C 2/M
;
_chemical_formula_sum "Si O2"
_cell_formula_units_Z 56
_cell_length_a 27.278129
_cell_length_b 9.198137
_cell_length_c 17.491267
_cell_angle_alpha 90.000000
_cell_angle_beta 53.239866
_cell_angle_gamma 90.000000
_cell_volume 3515.996713
_symmetry_space_group_name_H-M "C 2/M"
_symmetry_group_IT_number 12
_symmetry_cell_setting 'monoclinic'
loop_
_space_group_symop_operation_xyz
x,y,z
-x,y,-z
-x,-y,-z
x,-y,z
1/2+x,1/2+y,z
1/2-x,1/2+y,-z
1/2-x,1/2-y,-z
1/2+x,1/2-y,z
loop_
_atom_site_type_symbol
_atom_site_label
_atom_site_fract_x
_atom_site_fract_y
_atom_site_fract_z
Si Si1 0.852547 0.335746 0.882408
Si Si2 0.324297 0.164831 0.077103
Si Si3 0.099134 0.827777 0.391798
Si Si4 0.209070 0.331373 0.219025
Si Si5 0.535977 0.171152 0.040892
Si Si6 0.026899 0.170569 0.199966
Si Si7 0.987007 0.170350 0.397366
O O1 0.879881 0.500000 0.851933
O O2 0.810102 0.300958 0.850269
O O3 0.906294 0.218780 0.834849
O O4 0.812969 0.321548 0.996673
O O5 0.276852 0.266062 0.166700
O O6 0.314166 0.000000 0.114240
O O7 0.393131 0.216405 0.033162
O O8 0.163039 0.746569 0.320191
O O9 0.073168 0.780186 0.499721
O O10 0.049987 0.767958 0.375432
O O11 0.110557 0.000000 0.375058
O O12 0.210981 0.500000 0.237795
O O13 0.505796 0.247211 0.143104
O O14 0.529265 0.000000 0.059414
O O15 0.500000 0.225651 0.000000
O O16 0.981225 0.211111 0.313012
O O17 0.027608 0.000000 0.182588
O O18 0.993626 0.000000 0.402637
#
# Coordination Sequence:
#
# PCOD8078913 Si02
#       7
#     8   8   8   8   8   8   8
#     4   9  18  30  41  59  90 125 157 183 215 264
#     4   9  18  31  46  62  83 118 155 181 216 272
#     4   9  16  29  45  60  87 127 163 187 215 260
#     4  11  20  28  40  64  94 122 153 190 226 257
#     4   9  19  36  53  69  91 117 146 183 229 281
#     4  10  17  27  47  72  93 116 151 191 228 262
#     4   8  15  27  44  65  88 120 159 192 219 257
#
# _framework density 15.927204
#
# number of rings (size 3 to 8) (size 9 to 14) (size 15 to 20)
#    0.000    2.714    1.429    3.000    0.000    3.143 
#    0.000    2.857    0.000    0.000    0.000    1.000 
#    0.000    0.000    0.000    0.000    0.000    0.000 
#
# Total GULP energy -347061.430157 kJ/mol
# GULP energy per Si atom -12395.051077 kJ/mol
# Density = 1.589095 g / cm^3
# Si number density = 15.927204 Si / 1000 Ang^3
#
#
#
# Elastic Constant Matrix: (Units=GPa)
#
#
# Indices 1 2 3 4 5 6 
#
# 1 67.4734 30.1226 53.4946 0.0000 6.9125 0.0000
# 2 30.1226 58.7447 52.0891 -0.0002 0.9339 0.0000
# 3 53.4946 52.0891 128.0255 -0.0002 -0.3798 0.0001
# 4 0.0000 -0.0002 -0.0002 23.9024 0.0000 0.2500
# 5 6.9125 0.9339 -0.3798 0.0000 18.7529 0.0000
# 6 0.0000 0.0000 0.0001 0.2500 0.0000 17.5031
#
#
#
# Elastic Compliance Matrix: (Units=1/GPa)
#
#
# Indices 1 2 3 4 5 6 
#
# 1 0.024528 -0.005200 -0.008160 0.000000 -0.008948 0.000000
# 2 -0.005200 0.027777 -0.009128 0.000000 0.000348 0.000000
# 3 -0.008160 -0.009128 0.014946 0.000000 0.003765 0.000000
# 4 0.000000 0.000000 0.000000 0.041843 0.000000 -0.000598
# 5 -0.008948 0.000348 0.003765 0.000000 0.056682 0.000000
# 6 0.000000 0.000000 0.000000 -0.000598 0.000000 0.057141
#
#
# Mechanical properties :
#
#
# Convention : Reuss Voigt Hill
#
# Bulk Modulus (GPa) = 44.89155 58.40623 51.64889
# Shear Modulus (GPa) = 18.16087 19.93416 19.04752
#
# Velocity S-wave (km/s) = 3.38041 3.54161 3.46195
# Velocity P-wave (km/s) = 6.59416 7.31261 6.96266
#
# Compressibility (1/GPa) = 0.02227591
#
# Stress axis : x y z
#
# Youngs Moduli (GPa) = 40.76988 36.00067 66.90975
#
# Poissons Ratio (x) = 0.18719 0.54597
# Poissons Ratio (y) = 0.21199 0.61075
# Poissons Ratio (z) = 0.33268 0.32861
#
# Static dielectric constant tensor:
#      x y z
#    x 2.745760 0.000000 0.106860 
#    y 0.000000 2.907310 0.000000 
#    z 0.106860 0.000000 3.202840 
# 
# 
# High freq. dielectric constant tensor:
#      x y z
#    x 1.565720 0.000000 0.000420 
#    y 0.000000 1.605500 0.000000 
#    z 0.000420 0.000000 1.613180 
# 
# From -- ./inp_files/291851.got.cif
#   From: 2010.06.25/outbox.cif.g09.slc.cpg/sg12_146_cif.got.tgz:291851.got - 2010.06.28 00:19:55.
