data_PCOD8078680
_publ_section_title
;
Structure prediction by ZEFSAII (Michael W. Deem and Ramdas Pophale) SiO2 
 PCOD8078680
Probable space group: C 2/M
;
_chemical_formula_sum "Si O2"
_cell_formula_units_Z 56
_cell_length_a 28.822384
_cell_length_b 9.175915
_cell_length_c 13.781893
_cell_angle_alpha 90.000000
_cell_angle_beta 75.503406
_cell_angle_gamma 90.000000
_cell_volume 3528.876201
_symmetry_space_group_name_H-M "C 2/M"
_symmetry_group_IT_number 12
_symmetry_cell_setting 'monoclinic'
loop_
_space_group_symop_operation_xyz
x,y,z
-x,y,-z
-x,-y,-z
x,-y,z
1/2+x,1/2+y,z
1/2-x,1/2+y,-z
1/2-x,1/2-y,-z
1/2+x,1/2-y,z
loop_
_atom_site_type_symbol
_atom_site_label
_atom_site_fract_x
_atom_site_fract_y
_atom_site_fract_z
Si Si1 0.797706 0.170734 0.592468
Si Si2 0.938808 0.334943 0.411856
Si Si3 0.115282 0.669809 0.365036
Si Si4 0.100261 0.831624 0.743968
Si Si5 0.980971 0.673423 0.113698
Si Si6 0.463758 0.167717 0.730327
Si Si7 0.796721 0.167580 0.370553
O O1 0.836511 0.240344 0.644275
O O2 0.809493 0.212723 0.474865
O O3 0.745767 0.233201 0.648582
O O4 0.797706 0.000000 0.610529
O O5 0.925774 0.500000 0.385365
O O6 0.922138 0.304968 0.528817
O O7 0.912816 0.220635 0.356399
O O8 0.995878 0.311274 0.373572
O O9 0.128765 0.500000 0.348048
O O10 0.086759 0.730651 0.284410
O O11 0.157547 0.808530 0.723373
O O12 0.071723 0.740923 0.840704
O O13 0.086442 0.000000 0.762187
O O14 0.975846 0.500000 0.122191
O O15 0.017705 0.734943 0.176993
O O16 0.000000 0.726069 0.000000
O O17 0.453989 0.000000 0.755499
O O18 0.779800 0.000000 0.378741
#
# Coordination Sequence:
#
# PCOD8078680 Si02
#       7
#     8   8   8   8   8   8   8
#     4  10  19  29  42  61  89 121 155 190 219 255
#     4   9  16  26  41  61  87 120 155 183 209 252
#     4  10  17  26  42  62  88 122 154 182 216 259
#     4  10  18  29  46  67  92 118 147 185 226 267
#     4   9  18  33  51  70  91 115 148 188 225 266
#     4   8  15  27  43  64  87 115 151 184 216 261
#     4   9  18  31  43  60  87 120 155 186 219 261
#
# _framework density 15.869076
#
# number of rings (size 3 to 8) (size 9 to 14) (size 15 to 20)
#    0.000    2.714    1.429    2.143    0.000    3.714 
#    0.000    2.857    0.000    4.286    0.000    1.000 
#    0.000    0.000    0.000    0.000    0.000    0.000 
#
# Total GULP energy -347008.317933 kJ/mol
# GULP energy per Si atom -12393.154212 kJ/mol
# Density = 1.583296 g / cm^3
# Si number density = 15.869076 Si / 1000 Ang^3
#
#
#
# Elastic Constant Matrix: (Units=GPa)
#
#
# Indices 1 2 3 4 5 6 
#
# 1 116.8640 45.2410 51.8941 0.0000 -5.2756 0.0000
# 2 45.2410 53.7721 31.3424 0.0000 -5.9499 0.0000
# 3 51.8941 31.3424 68.5754 0.0000 -4.1462 0.0000
# 4 0.0000 0.0000 0.0000 15.2585 0.0000 -5.0652
# 5 -5.2756 -5.9499 -4.1462 0.0000 14.6111 0.0000
# 6 0.0000 0.0000 0.0000 -5.0652 0.0000 23.7168
#
#
#
# Elastic Compliance Matrix: (Units=1/GPa)
#
#
# Indices 1 2 3 4 5 6 
#
# 1 0.015186 -0.008294 -0.007706 0.000000 -0.000081 0.000000
# 2 -0.008294 0.030638 -0.007278 0.000000 0.007416 0.000000
# 3 -0.007706 -0.007278 0.023801 0.000000 0.001008 0.000000
# 4 0.000000 0.000000 0.000000 0.070538 0.000000 0.015065
# 5 -0.000081 0.007416 0.001008 0.000000 0.071718 0.000000
# 6 0.000000 0.000000 0.000000 0.015065 0.000000 0.045382
#
#
# Mechanical properties :
#
#
# Convention : Reuss Voigt Hill
#
# Bulk Modulus (GPa) = 43.34840 55.12960 49.23900
# Shear Modulus (GPa) = 16.05086 18.09955 17.07520
#
# Velocity S-wave (km/s) = 3.18379 3.38087 3.28381
# Velocity P-wave (km/s) = 6.39460 7.07503 6.74341
#
# Compressibility (1/GPa) = 0.02306890
#
# Stress axis : x y z
#
# Youngs Moduli (GPa) = 65.84993 32.63908 42.01416
#
# Poissons Ratio (x) = 0.27071 0.32376
# Poissons Ratio (y) = 0.54616 0.30579
# Poissons Ratio (z) = 0.50745 0.23756
#
# Static dielectric constant tensor:
#      x y z
#    x 3.117300 0.000000 -0.012570 
#    y 0.000000 2.895540 0.000000 
#    z -0.012570 0.000000 2.814180 
# 
# 
# High freq. dielectric constant tensor:
#      x y z
#    x 1.608470 0.000000 -0.010220 
#    y 0.000000 1.598530 0.000000 
#    z -0.010220 0.000000 1.567740 
# 
# From -- ./inp_files/247881.got.cif
#   From: 2010.06.25/outbox.cif.g09.slc.cpg/sg12_124_cif.got.tgz:247881.got - 2010.06.28 00:19:55.
