data_PCOD8078798
_publ_section_title
;
Structure prediction by ZEFSAII (Michael W. Deem and Ramdas Pophale) SiO2 
 PCOD8078798
Probable space group: C 2/M
;
_chemical_formula_sum "Si O2"
_cell_formula_units_Z 56
_cell_length_a 24.412365
_cell_length_b 9.229699
_cell_length_c 17.463578
_cell_angle_alpha 90.000000
_cell_angle_beta 64.173178
_cell_angle_gamma 90.000000
_cell_volume 3541.837117
_symmetry_space_group_name_H-M "C 2/M"
_symmetry_group_IT_number 12
_symmetry_cell_setting 'monoclinic'
loop_
_space_group_symop_operation_xyz
x,y,z
-x,y,-z
-x,-y,-z
x,-y,z
1/2+x,1/2+y,z
1/2-x,1/2+y,-z
1/2-x,1/2-y,-z
1/2+x,1/2-y,z
loop_
_atom_site_type_symbol
_atom_site_label
_atom_site_fract_x
_atom_site_fract_y
_atom_site_fract_z
Si Si1 0.353495 0.328470 0.722909
Si Si2 0.206455 0.834200 0.623766
Si Si3 0.692319 0.162226 0.943629
Si Si4 0.667036 0.339816 0.097331
Si Si5 0.272378 0.330624 0.219151
Si Si6 0.337310 0.168797 0.484345
Si Si7 0.070260 0.668557 0.443372
O O1 0.344887 0.500000 0.714523
O O2 0.368432 0.296410 0.803381
O O3 0.292426 0.247219 0.734782
O O4 0.409446 0.265772 0.640637
O O5 0.192630 0.809355 0.721776
O O6 0.275551 0.783781 0.564905
O O7 0.158884 0.745168 0.600925
O O8 0.198332 0.000000 0.605587
O O9 0.762052 0.160950 0.925525
O O10 0.685224 0.259534 0.871890
O O11 0.668632 0.000000 0.941590
O O12 0.652414 0.229351 0.037302
O O13 0.647695 0.500000 0.081698
O O14 0.261614 0.500000 0.207457
O O15 0.393488 0.218195 0.502879
O O16 0.339985 0.000000 0.466779
O O17 0.083438 0.500000 0.417047
O O18 0.000000 0.699282 0.500000
#
# Coordination Sequence:
#
# PCOD8078798 Si02
#       7
#     8   8   8   8   8   8   8
#     4  10  19  29  43  62  84 111 148 185 218 256
#     4   9  17  28  43  63  85 113 146 178 215 259
#     4   9  16  24  36  58  83 110 144 176 210 251
#     4   8  15  26  37  53  79 112 143 173 211 254
#     4  10  17  27  42  60  87 117 146 176 213 262
#     4   9  17  30  44  62  84 110 145 181 218 256
#     4  10  20  34  49  64  86 116 149 183 221 264
#
# _framework density 15.811005
#
# number of rings (size 3 to 8) (size 9 to 14) (size 15 to 20)
#    0.000    2.714    1.429    2.143    0.000    6.000 
#    0.000    0.000    0.000    0.000    0.000    0.000 
#    0.000    1.143    0.000   12.857    0.000    6.000 
#
# Total GULP energy -347111.451842 kJ/mol
# GULP energy per Si atom -12396.837566 kJ/mol
# Density = 1.577502 g / cm^3
# Si number density = 15.811005 Si / 1000 Ang^3
#
#
#
# Elastic Constant Matrix: (Units=GPa)
#
#
# Indices 1 2 3 4 5 6 
#
# 1 59.9297 32.9847 44.4487 0.0000 10.2824 0.0000
# 2 32.9847 98.2553 70.2808 0.0000 14.2190 0.0000
# 3 44.4487 70.2808 116.2434 0.0000 23.8378 0.0000
# 4 0.0000 0.0000 0.0000 31.2255 0.0000 7.1893
# 5 10.2824 14.2190 23.8378 0.0000 16.8957 0.0000
# 6 0.0000 0.0000 0.0000 7.1893 0.0000 16.0100
#
#
#
# Elastic Compliance Matrix: (Units=1/GPa)
#
#
# Indices 1 2 3 4 5 6 
#
# 1 0.023727 -0.002608 -0.007014 0.000000 -0.002349 0.000000
# 2 -0.002608 0.018221 -0.010131 0.000000 0.000547 0.000000
# 3 -0.007014 -0.010131 0.020806 0.000000 -0.016560 0.000000
# 4 0.000000 0.000000 0.000000 0.035718 0.000000 -0.016039
# 5 -0.002349 0.000547 -0.016560 0.000000 0.083520 0.000000
# 6 0.000000 0.000000 0.000000 -0.016039 0.000000 0.069664
#
#
# Mechanical properties :
#
#
# Convention : Reuss Voigt Hill
#
# Bulk Modulus (GPa) = 43.01685 63.31744 53.16715
# Shear Modulus (GPa) = 16.72744 21.27384 19.00064
#
# Velocity S-wave (km/s) = 3.25616 3.67210 3.47037
# Velocity P-wave (km/s) = 6.43450 7.62315 7.05391
#
# Compressibility (1/GPa) = 0.02324670
#
# Stress axis : x y z
#
# Youngs Moduli (GPa) = 42.14627 54.88290 48.06375
#
# Poissons Ratio (x) = 0.14315 0.33712
# Poissons Ratio (y) = 0.10993 0.48693
# Poissons Ratio (z) = 0.29561 0.55602
#
# Static dielectric constant tensor:
#      x y z
#    x 2.588300 0.000000 0.288670 
#    y 0.000000 3.136660 0.000000 
#    z 0.288670 0.000000 3.153900 
# 
# 
# High freq. dielectric constant tensor:
#      x y z
#    x 1.545500 0.000000 0.033130 
#    y 0.000000 1.618050 0.000000 
#    z 0.033130 0.000000 1.606030 
# 
# From -- ./inp_files/287328.got.cif
#   From: 2010.06.25/outbox.cif.g09.slc.cpg/sg12_144_cif.got.tgz:287328.got - 2010.06.28 00:19:55.
