data_PCOD8078288
_publ_section_title
;
Structure prediction by ZEFSAII (Michael W. Deem and Ramdas Pophale) SiO2 
 PCOD8078288
Probable space group: C 2/M
;
_chemical_formula_sum "Si O2"
_cell_formula_units_Z 52
_cell_length_a 13.991820
_cell_length_b 18.089267
_cell_length_c 16.294329
_cell_angle_alpha 90.000000
_cell_angle_beta 44.989736
_cell_angle_gamma 90.000000
_cell_volume 2915.673220
_symmetry_space_group_name_H-M "C 2/M"
_symmetry_group_IT_number 12
_symmetry_cell_setting 'monoclinic'
loop_
_space_group_symop_operation_xyz
x,y,z
-x,y,-z
-x,-y,-z
x,-y,z
1/2+x,1/2+y,z
1/2-x,1/2+y,-z
1/2-x,1/2-y,-z
1/2+x,1/2-y,z
loop_
_atom_site_type_symbol
_atom_site_label
_atom_site_fract_x
_atom_site_fract_y
_atom_site_fract_z
Si Si1 0.574820 0.224504 0.325688
Si Si2 0.051156 0.124787 0.552779
Si Si3 0.480261 0.416462 0.773703
Si Si4 0.000000 0.737079 0.000000
Si Si5 0.656481 0.301548 0.756383
Si Si6 0.179231 0.690958 0.600310
Si Si7 0.236448 0.198118 0.085709
O O1 0.503557 0.291082 0.417704
O O2 0.686374 0.184074 0.314564
O O3 0.460280 0.167143 0.361360
O O4 0.644198 0.258350 0.204435
O O5 0.216115 0.123234 0.452296
O O6 0.000000 0.085268 0.500000
O O7 0.994620 0.082329 0.666292
O O8 0.480652 0.500000 0.806556
O O9 0.606415 0.372569 0.736229
O O10 0.338243 0.379314 0.888170
O O11 0.062780 0.790875 0.892948
O O12 0.115243 0.683346 0.966663
O O13 0.644618 0.227529 0.709161
O O14 0.250000 0.750000 0.500000
O O15 0.250000 0.250000 0.000000
#
# Coordination Sequence:
#
# PCOD8078288 Si02
#       7
#     8   8   8   4   8   8   8
#     4   9  18  26  49  82 106 127 170 233 267 302
#     4  10  18  31  53  81 105 134 180 223 272 316
#     4  11  23  37  51  77 115 147 172 214 282 338
#     4  10  20  30  58  86 102 130 184 242 264 300
#     4  11  18  32  52  81 110 135 179 226 275 313
#     4  10  16  28  49  82 106 130 177 237 274 298
#     4  10  17  34  54  78 105 134 180 225 262 306
#
# _framework density 17.834645999999999
#
# number of rings (size 3 to 8) (size 9 to 14) (size 15 to 20)
#    0.000    1.846    7.692    0.000    0.000    0.308 
#    0.000    0.769    0.000    1.846    0.000    0.000 
#    0.000    0.000    0.000    0.000    0.000    0.000 
#
# Total GULP energy -322201.720391 kJ/mol
# GULP energy per Si atom -12392.373861 kJ/mol
# Density = 1.779405 g / cm^3
# Si number density = 17.834646 Si / 1000 Ang^3
#
#
#
# Elastic Constant Matrix: (Units=GPa)
#
#
# Indices 1 2 3 4 5 6 
#
# 1 133.3610 23.8509 39.9214 0.0002 -27.6266 -0.0001
# 2 23.8509 62.3148 15.7484 0.0001 -8.6687 -0.0001
# 3 39.9214 15.7484 73.7645 0.0003 -2.4693 -0.0003
# 4 0.0002 0.0001 0.0003 10.6247 -0.0002 -0.9342
# 5 -27.6266 -8.6687 -2.4693 -0.0002 45.7918 0.0002
# 6 -0.0001 -0.0001 -0.0003 -0.9342 0.0002 7.6020
#
#
#
# Elastic Compliance Matrix: (Units=1/GPa)
#
#
# Indices 1 2 3 4 5 6 
#
# 1 0.010564 -0.001956 -0.005108 0.000000 0.005728 0.000000
# 2 -0.001956 0.017753 -0.002664 0.000000 0.002037 0.000000
# 3 -0.005108 -0.002664 0.016800 0.000000 -0.002680 0.000000
# 4 0.000000 0.000000 0.000000 0.095148 0.000000 0.011693
# 5 0.005728 0.002037 -0.002680 0.000000 0.025535 -0.000001
# 6 0.000000 0.000000 0.000000 0.011693 -0.000001 0.132981
#
#
# Mechanical properties :
#
#
# Convention : Reuss Voigt Hill
#
# Bulk Modulus (GPa) = 38.96765 47.60909 43.28837
# Shear Modulus (GPa) = 15.30040 25.46499 20.38270
#
# Velocity S-wave (km/s) = 2.93218 3.78277 3.38430
# Velocity P-wave (km/s) = 5.77585 6.76992 6.29254
#
# Compressibility (1/GPa) = 0.02566231
#
# Stress axis : x y z
#
# Youngs Moduli (GPa) = 94.66367 56.32974 59.52394
#
# Poissons Ratio (x) = 0.11016 0.30404
# Poissons Ratio (y) = 0.18512 0.15854
# Poissons Ratio (z) = 0.48353 0.15004
#
# Static dielectric constant tensor:
#      x y z
#    x 3.941210 0.000000 -0.265110 
#    y 0.000000 2.805630 0.000000 
#    z -0.265110 0.000000 3.626860 
# 
# 
# High freq. dielectric constant tensor:
#      x y z
#    x 1.718930 0.000000 -0.001040 
#    y 0.000000 1.605420 0.000000 
#    z -0.001040 0.000000 1.703520 
# 
# From -- ./inp_files/270578.got.cif
#   From: 2010.06.25/outbox.cif.g09.slc.cpg/sg12_136_cif.got.tgz:270578.got - 2010.06.28 00:19:55.
