data_PCOD8078205
_publ_section_title
;
Structure prediction by ZEFSAII (Michael W. Deem and Ramdas Pophale) SiO2 
 PCOD8078205
Probable space group: C 2/M
;
_chemical_formula_sum "Si O2"
_cell_formula_units_Z 64
_cell_length_a 25.654057
_cell_length_b 17.991818
_cell_length_c 15.914035
_cell_angle_alpha 90.000000
_cell_angle_beta 144.493321
_cell_angle_gamma 90.000000
_cell_volume 4266.152896
_symmetry_space_group_name_H-M "C 2/M"
_symmetry_group_IT_number 12
_symmetry_cell_setting 'monoclinic'
loop_
_space_group_symop_operation_xyz
x,y,z
-x,y,-z
-x,-y,-z
x,-y,z
1/2+x,1/2+y,z
1/2-x,1/2+y,-z
1/2-x,1/2-y,-z
1/2+x,1/2-y,z
loop_
_atom_site_type_symbol
_atom_site_label
_atom_site_fract_x
_atom_site_fract_y
_atom_site_fract_z
Si Si1 0.664424 0.157343 0.341505
Si Si2 0.319309 0.335527 0.831398
Si Si3 0.510696 0.583162 0.914620
Si Si4 0.092846 0.316956 0.077635
Si Si5 0.340340 0.668662 0.664613
Si Si6 0.528064 0.913204 0.663958
Si Si7 0.989631 0.412430 0.173862
Si Si8 0.355801 0.088017 0.337484
O O1 0.652205 0.140746 0.226163
O O2 0.645734 0.244330 0.332920
O O3 0.764104 0.136081 0.502655
O O4 0.593936 0.108678 0.301232
O O5 0.349083 0.250295 0.884043
O O6 0.312001 0.351319 0.722413
O O7 0.225752 0.356802 0.750713
O O8 0.391276 0.385152 0.976064
O O9 0.503965 0.500000 0.871559
O O10 0.434422 0.629796 0.766346
O O11 0.500000 0.588313 0.000000
O O12 0.072194 0.374187 0.976949
O O13 0.000000 0.287321 0.000000
O O14 0.542597 0.882556 0.777246
O O15 0.614371 0.895951 0.719550
O O16 0.436031 0.883257 0.502504
O O17 0.512759 0.000000 0.649164
O O18 0.977660 0.500000 0.147677
O O19 0.332506 0.000000 0.319865
#
# Coordination Sequence:
#
# PCOD8078205 Si02
#       8
#     8   8   8   8   8   8   8   8
#     4   9  17  28  42  59  78 107 140 168 201 245
#     4  10  16  26  42  59  82 113 139 161 194 243
#     4   9  16  24  35  54  80 107 133 160 189 227
#     4   9  18  30  42  59  84 110 137 171 206 239
#     4   9  17  28  40  57  84 111 136 165 201 239
#     4   8  16  29  43  63  88 108 129 167 213 246
#     4  10  18  29  45  61  80 108 141 174 210 248
#     4   9  16  27  44  65  87 109 135 165 200 246
#
# _framework density 15.001806
#
# number of rings (size 3 to 8) (size 9 to 14) (size 15 to 20)
#    0.000    2.875    0.000    4.500    0.000    3.250 
#    0.000    0.625    0.000    0.000    0.000    0.000 
#    0.000    0.000    0.000    8.000    0.000    0.000 
#
# Total GULP energy -396611.818151 kJ/mol
# GULP energy per Si atom -12394.119317 kJ/mol
# Density = 1.496766 g / cm^3
# Si number density = 15.001806 Si / 1000 Ang^3
#
#
#
# Elastic Constant Matrix: (Units=GPa)
#
#
# Indices 1 2 3 4 5 6 
#
# 1 79.7566 36.7485 44.1259 0.0000 0.6659 0.0000
# 2 36.7485 58.0810 36.9700 0.0000 1.9651 0.0000
# 3 44.1259 36.9700 114.3905 0.0000 -2.9893 0.0000
# 4 0.0000 0.0000 0.0000 19.0133 0.0000 2.4394
# 5 0.6659 1.9651 -2.9893 0.0000 24.2608 0.0000
# 6 0.0000 0.0000 0.0000 2.4394 0.0000 18.5329
#
#
#
# Elastic Compliance Matrix: (Units=1/GPa)
#
#
# Indices 1 2 3 4 5 6 
#
# 1 0.019317 -0.009396 -0.004423 0.000000 -0.000314 0.000000
# 2 -0.009396 0.026415 -0.004978 0.000000 -0.002495 0.000000
# 3 -0.004423 -0.004978 0.012110 0.000000 0.002017 0.000000
# 4 0.000000 0.000000 0.000000 0.053498 0.000000 -0.007042
# 5 -0.000314 -0.002495 0.002017 0.000000 0.041678 0.000000
# 6 0.000000 0.000000 0.000000 -0.007042 0.000000 0.054885
#
#
# Mechanical properties :
#
#
# Convention : Reuss Voigt Hill
#
# Bulk Modulus (GPa) = 49.38742 54.21300 51.80021
# Shear Modulus (GPa) = 19.82183 21.32030 20.57107
#
# Velocity S-wave (km/s) = 3.63891 3.77395 3.70704
# Velocity P-wave (km/s) = 7.11674 7.43010 7.27511
#
# Compressibility (1/GPa) = 0.02024807
#
# Stress axis : x y z
#
# Youngs Moduli (GPa) = 51.76721 37.85675 82.57882
#
# Poissons Ratio (x) = 0.35571 0.36525
# Poissons Ratio (y) = 0.48642 0.41106
# Poissons Ratio (z) = 0.22897 0.18844
#
# Static dielectric constant tensor:
#      x y z
#    x 2.874090 0.000000 -0.192920 
#    y 0.000000 2.717300 0.000000 
#    z -0.192920 0.000000 3.142480 
# 
# 
# High freq. dielectric constant tensor:
#      x y z
#    x 1.541260 0.000000 -0.002280 
#    y 0.000000 1.558400 0.000000 
#    z -0.002280 0.000000 1.582220 
# 
# From -- ./inp_files/293731.got.cif
#   From: 2010.06.25/outbox.cif.g09.slc.cpg/sg12_147_cif.got.tgz:293731.got - 2010.06.28 00:19:55.
