data_PCOD8078825
_publ_section_title
;
Structure prediction by ZEFSAII (Michael W. Deem and Ramdas Pophale) SiO2 
 PCOD8078825
Probable space group: C 2/M
;
_chemical_formula_sum "Si O2"
_cell_formula_units_Z 56
_cell_length_a 27.091586
_cell_length_b 9.198557
_cell_length_c 17.025733
_cell_angle_alpha 90.000000
_cell_angle_beta 124.650959
_cell_angle_gamma 90.000000
_cell_volume 3490.318224
_symmetry_space_group_name_H-M "C 2/M"
_symmetry_group_IT_number 12
_symmetry_cell_setting 'monoclinic'
loop_
_space_group_symop_operation_xyz
x,y,z
-x,y,-z
-x,-y,-z
x,-y,z
1/2+x,1/2+y,z
1/2-x,1/2+y,-z
1/2-x,1/2-y,-z
1/2+x,1/2-y,z
loop_
_atom_site_type_symbol
_atom_site_label
_atom_site_fract_x
_atom_site_fract_y
_atom_site_fract_z
Si Si1 0.983518 0.172134 0.611019
Si Si2 0.841635 0.336998 0.110861
Si Si3 0.336946 0.831591 0.927062
Si Si4 0.044483 0.167595 0.968310
Si Si5 0.020994 0.332423 0.790312
Si Si6 0.408053 0.671951 0.400106
Si Si7 0.706462 0.670848 0.789412
O O1 0.927513 0.221715 0.505184
O O2 0.976959 0.255409 0.687825
O O3 0.044059 0.223828 0.621560
O O4 0.983572 0.000000 0.626941
O O5 0.822768 0.500000 0.116159
O O6 0.912635 0.316264 0.184004
O O7 0.806851 0.230170 0.136388
O O8 0.823143 0.299728 0.005528
O O9 0.274918 0.791813 0.825260
O O10 0.355437 0.000000 0.932055
O O11 0.391340 0.732298 0.946361
O O12 0.016190 0.253863 0.869784
O O13 0.053255 0.000000 0.952352
O O14 0.000000 0.185820 0.000000
O O15 0.002316 0.500000 0.784698
O O16 0.408691 0.500000 0.400233
O O17 0.341722 0.732926 0.317684
O O18 0.698891 0.500000 0.790072
#
# Coordination Sequence:
#
# PCOD8078825 Si02
#       7
#     8   8   8   8   8   8   8
#     4   9  15  27  44  63  90 126 163 194 223 256
#     4   9  17  27  37  58  91 122 153 186 219 260
#     4   9  19  31  44  65  92 119 149 185 227 273
#     4  10  21  36  53  71  88 111 147 187 229 280
#     4  10  19  30  46  69  95 121 151 188 231 274
#     4   8  15  25  41  64  91 125 164 196 219 251
#     4  10  17  27  43  63  89 125 161 187 216 258
#
# _framework density 16.044383
#
# number of rings (size 3 to 8) (size 9 to 14) (size 15 to 20)
#    0.000    2.714    1.429    3.000    0.000    4.000 
#    0.000    2.143    0.000    0.000    0.000    1.000 
#    0.000    0.000    0.000    0.000    0.000    0.000 
#
# Total GULP energy -347034.883920 kJ/mol
# GULP energy per Si atom -12394.102997 kJ/mol
# Density = 1.600787 g / cm^3
# Si number density = 16.044383 Si / 1000 Ang^3
#
#
#
# Elastic Constant Matrix: (Units=GPa)
#
#
# Indices 1 2 3 4 5 6 
#
# 1 59.7654 39.3822 44.0986 0.0000 5.4308 0.0000
# 2 39.3822 71.8008 45.8732 0.0000 0.9239 0.0000
# 3 44.0986 45.8732 115.3301 0.0000 13.9555 0.0000
# 4 0.0000 0.0000 0.0000 19.6091 0.0000 0.5954
# 5 5.4308 0.9239 13.9555 0.0000 16.1088 0.0000
# 6 0.0000 0.0000 0.0000 0.5954 0.0000 18.2946
#
#
#
# Elastic Compliance Matrix: (Units=1/GPa)
#
#
# Indices 1 2 3 4 5 6 
#
# 1 0.029660 -0.012459 -0.005878 0.000000 -0.004192 0.000000
# 2 -0.012459 0.024438 -0.005915 0.000000 0.007923 0.000000
# 3 -0.005878 -0.005915 0.014512 0.000000 -0.010251 0.000000
# 4 0.000000 0.000000 0.000000 0.051047 0.000000 -0.001661
# 5 -0.004192 0.007923 -0.010251 0.000000 0.071918 0.000000
# 6 0.000000 0.000000 0.000000 -0.001661 0.000000 0.054715
#
#
# Mechanical properties :
#
#
# Convention : Reuss Voigt Hill
#
# Bulk Modulus (GPa) = 49.73824 56.17826 52.95825
# Shear Modulus (GPa) = 16.58394 18.63864 17.61129
#
# Velocity S-wave (km/s) = 3.21850 3.41206 3.31669
# Velocity P-wave (km/s) = 6.69920 7.11429 6.90987
#
# Compressibility (1/GPa) = 0.02010526
#
# Stress axis : x y z
#
# Youngs Moduli (GPa) = 33.71545 40.91933 68.90976
#
# Poissons Ratio (x) = 0.50980 0.40507
# Poissons Ratio (y) = 0.42005 0.40763
# Poissons Ratio (z) = 0.19819 0.24206
#
# Static dielectric constant tensor:
#      x y z
#    x 2.698090 0.000000 0.269920 
#    y 0.000000 2.960200 0.000000 
#    z 0.269920 0.000000 3.501330 
# 
# 
# High freq. dielectric constant tensor:
#      x y z
#    x 1.568990 0.000000 0.011320 
#    y 0.000000 1.609170 0.000000 
#    z 0.011320 0.000000 1.622260 
# 
# From -- ./inp_files/291447.got.cif
#   From: 2010.06.25/outbox.cif.g09.slc.cpg/sg12_146_cif.got.tgz:291447.got - 2010.06.28 00:19:55.
