data_PCOD8078285
_publ_section_title
;
Structure prediction by ZEFSAII (Michael W. Deem and Ramdas Pophale) SiO2 
 PCOD8078285
Probable space group: C 2/M
;
_chemical_formula_sum "Si O2"
_cell_formula_units_Z 64
_cell_length_a 28.864783
_cell_length_b 9.049756
_cell_length_c 26.934801
_cell_angle_alpha 90.000000
_cell_angle_beta 145.429405
_cell_angle_gamma 90.000000
_cell_volume 3992.312377
_symmetry_space_group_name_H-M "C 2/M"
_symmetry_group_IT_number 12
_symmetry_cell_setting 'monoclinic'
loop_
_space_group_symop_operation_xyz
x,y,z
-x,y,-z
-x,-y,-z
x,-y,z
1/2+x,1/2+y,z
1/2-x,1/2+y,-z
1/2-x,1/2-y,-z
1/2+x,1/2-y,z
loop_
_atom_site_type_symbol
_atom_site_label
_atom_site_fract_x
_atom_site_fract_y
_atom_site_fract_z
Si Si1 0.852068 0.674082 0.956572
Si Si2 0.527255 0.666335 0.871838
Si Si3 0.351570 0.664981 0.756514
Si Si4 0.775574 0.173618 0.073685
Si Si5 0.871853 0.825858 0.592942
Si Si6 0.906003 0.823311 0.909649
Si Si7 0.256414 0.675319 0.581665
Si Si8 0.455639 0.673577 0.222296
O O1 0.850422 0.500000 0.946642
O O2 0.779050 0.727692 0.928331
O O3 0.846335 0.754996 0.898533
O O4 0.936977 0.724266 0.055568
O O5 0.563425 0.500000 0.910868
O O6 0.430882 0.661184 0.792058
O O7 0.548592 0.736277 0.837335
O O8 0.323124 0.500000 0.744332
O O9 0.370860 0.742122 0.826395
O O10 0.282656 0.737285 0.659690
O O11 0.869240 0.213127 0.171611
O O12 0.765164 0.000000 0.055636
O O13 0.750000 0.250000 0.000000
O O14 0.829906 0.747856 0.508739
O O15 0.824992 0.779444 0.601850
O O16 0.965550 0.765195 0.678465
O O17 0.868274 0.000000 0.580890
O O18 0.902648 0.000000 0.908453
O O19 0.000000 0.771421 0.000000
O O20 0.246785 0.500000 0.574772
O O21 0.469672 0.500000 0.229217
#
# Coordination Sequence:
#
# PCOD8078285 Si02
#       8
#     8   8   8   8   8   8   8   8
#     4  11  22  32  42  66 100 123 145 190 243 272
#     4  10  16  28  49  66  86 122 162 190 213 258
#     4   9  16  28  47  69  87 115 160 193 213 255
#     4  10  20  32  47  67  91 122 157 190 226 267
#     4   9  16  27  44  66  90 117 148 179 217 269
#     4  10  19  32  51  68  84 118 166 196 214 262
#     4   9  16  27  43  65  93 117 140 180 229 267
#     4   9  16  28  48  67  86 121 161 188 213 257
#
# _framework density 16.030809999999999
#
# number of rings (size 3 to 8) (size 9 to 14) (size 15 to 20)
#    0.000    2.375    3.750    0.375    0.000    0.750 
#    0.000    2.500    0.000    0.000    0.000    0.875 
#    0.000    7.000    0.000    0.000    0.000    0.000 
#
# Total GULP energy -396539.343299 kJ/mol
# GULP energy per Si atom -12391.854478 kJ/mol
# Density = 1.599432 g / cm^3
# Si number density = 16.030810 Si / 1000 Ang^3
#
#
#
# Elastic Constant Matrix: (Units=GPa)
#
#
# Indices 1 2 3 4 5 6 
#
# 1 95.8402 22.0516 51.4394 0.0000 -11.7194 0.0000
# 2 22.0516 21.4060 24.3207 0.0001 -3.0433 0.0002
# 3 51.4394 24.3207 127.3154 0.0000 -16.1948 0.0000
# 4 0.0000 0.0001 0.0000 20.1369 0.0000 -2.0912
# 5 -11.7194 -3.0433 -16.1948 0.0000 27.6376 0.0000
# 6 0.0000 0.0002 0.0000 -2.0912 0.0000 19.8832
#
#
#
# Elastic Compliance Matrix: (Units=1/GPa)
#
#
# Indices 1 2 3 4 5 6 
#
# 1 0.015366 -0.011218 -0.003667 0.000000 0.003132 0.000000
# 2 -0.011218 0.067856 -0.008736 0.000000 -0.002404 -0.000001
# 3 -0.003667 -0.008736 0.011545 0.000000 0.004248 0.000000
# 4 0.000000 0.000000 0.000000 0.050209 0.000000 0.005281
# 5 0.003132 -0.002404 0.004248 0.000000 0.039735 0.000000
# 6 0.000000 -0.000001 0.000000 0.005281 0.000000 0.050849
#
#
# Mechanical properties :
#
#
# Convention : Reuss Voigt Hill
#
# Bulk Modulus (GPa) = 21.04130 48.90944 34.97537
# Shear Modulus (GPa) = 16.74236 23.31485 20.02861
#
# Velocity S-wave (km/s) = 3.23520 3.81777 3.53849
# Velocity P-wave (km/s) = 5.20667 7.07175 6.20963
#
# Compressibility (1/GPa) = 0.04752559
#
# Stress axis : x y z
#
# Youngs Moduli (GPa) = 65.07708 14.73719 86.61563
#
# Poissons Ratio (x) = 0.16532 0.31763
# Poissons Ratio (y) = 0.73004 0.75663
# Poissons Ratio (z) = 0.23865 0.12874
#
# Static dielectric constant tensor:
#      x y z
#    x 3.012870 0.000000 -0.063910 
#    y 0.000000 2.787550 0.000000 
#    z -0.063910 0.000000 3.196630 
# 
# 
# High freq. dielectric constant tensor:
#      x y z
#    x 1.593990 0.000000 -0.008080 
#    y 0.000000 1.588030 0.000000 
#    z -0.008080 0.000000 1.611880 
# 
# From -- ./inp_files/384622.got.cif
#   From: 2010.06.25/outbox.cif.g09.slc.cpg/sg12_193_cif.got.tgz:384622.got - 2010.06.28 00:19:55.
