data_PCOD8078890
_publ_section_title
;
Structure prediction by ZEFSAII (Michael W. Deem and Ramdas Pophale) SiO2 
 PCOD8078890
Probable space group: C 2/M
;
_chemical_formula_sum "Si O2"
_cell_formula_units_Z 48
_cell_length_a 27.137855
_cell_length_b 8.955273
_cell_length_c 20.563995
_cell_angle_alpha 90.000000
_cell_angle_beta 146.190159
_cell_angle_gamma 90.000000
_cell_volume 2780.858428
_symmetry_space_group_name_H-M "C 2/M"
_symmetry_group_IT_number 12
_symmetry_cell_setting 'monoclinic'
loop_
_space_group_symop_operation_xyz
x,y,z
-x,y,-z
-x,-y,-z
x,-y,z
1/2+x,1/2+y,z
1/2-x,1/2+y,-z
1/2-x,1/2-y,-z
1/2+x,1/2-y,z
loop_
_atom_site_type_symbol
_atom_site_label
_atom_site_fract_x
_atom_site_fract_y
_atom_site_fract_z
Si Si1 0.776627 0.173823 0.126497
Si Si2 0.445571 0.323460 0.502234
Si Si3 0.080707 0.826613 0.040673
Si Si4 0.453807 0.677354 0.260425
Si Si5 0.078328 0.674951 0.900842
Si Si6 0.257994 0.676497 0.250393
O O1 0.855285 0.239736 0.169017
O O2 0.783309 0.236468 0.206735
O O3 0.795053 0.000000 0.151420
O O4 0.680065 0.210418 0.992336
O O5 0.500000 0.256121 0.500000
O O6 0.457160 0.500000 0.511756
O O7 0.482768 0.265160 0.611946
O O8 0.341544 0.279573 0.386978
O O9 0.057028 0.746365 0.947014
O O10 0.096239 0.000000 0.043522
O O11 0.167723 0.759611 0.171872
O O12 0.000000 0.797563 0.000000
O O13 0.459015 0.500000 0.257272
O O14 0.481418 0.753205 0.222084
O O15 0.059304 0.500000 0.885282
O O16 0.238887 0.500000 0.230285
#
# Coordination Sequence:
#
# PCOD8078890 Si02
#       6
#     8   8   8   8   8   8
#     4   8  14  25  43  67  96 131 165 197 231 276
#     4   9  15  26  48  74 103 139 174 200 227 278
#     4  10  21  37  56  75  94 120 158 208 262 308
#     4  10  17  27  46  70 101 140 171 195 230 280
#     4  10  20  32  47  71 100 128 163 205 249 293
#     4   9  16  29  50  77 103 129 166 205 240 284
#
# _framework density 17.260857000000001
#
# number of rings (size 3 to 8) (size 9 to 14) (size 15 to 20)
#    0.000    2.667    1.667    2.500    0.000    1.333 
#    0.000    4.167    0.000    2.000    0.000    0.000 
#    0.000    0.000    0.000    0.000    0.000    0.000 
#
# Total GULP energy -297408.015451 kJ/mol
# GULP energy per Si atom -12392.000644 kJ/mol
# Density = 1.722157 g / cm^3
# Si number density = 17.260857 Si / 1000 Ang^3
#
#
#
# Elastic Constant Matrix: (Units=GPa)
#
#
# Indices 1 2 3 4 5 6 
#
# 1 81.6278 47.7538 65.1151 0.0000 -4.4478 0.0000
# 2 47.7538 60.6906 51.1337 0.0000 -8.0730 0.0000
# 3 65.1151 51.1337 115.9071 0.0000 -15.6352 0.0000
# 4 0.0000 0.0000 0.0000 18.1105 0.0000 -4.1604
# 5 -4.4478 -8.0730 -15.6352 0.0000 22.2712 0.0000
# 6 0.0000 0.0000 0.0000 -4.1604 0.0000 20.8253
#
#
#
# Elastic Compliance Matrix: (Units=1/GPa)
#
#
# Indices 1 2 3 4 5 6 
#
# 1 0.029113 -0.014747 -0.010810 0.000000 -0.007121 0.000000
# 2 -0.014747 0.033741 -0.005908 0.000000 0.005138 0.000000
# 3 -0.010810 -0.005908 0.018477 0.000000 0.008671 0.000000
# 4 0.000000 0.000000 0.000000 0.057873 0.000000 0.011562
# 5 -0.007121 0.005138 0.008671 0.000000 0.051429 0.000000
# 6 0.000000 0.000000 0.000000 0.011562 0.000000 0.050328
#
#
# Mechanical properties :
#
#
# Convention : Reuss Voigt Hill
#
# Bulk Modulus (GPa) = 54.34277 65.13674 59.73976
# Shear Modulus (GPa) = 16.12776 18.52290 17.32533
#
# Velocity S-wave (km/s) = 3.06004 3.27940 3.17162
# Velocity P-wave (km/s) = 6.63601 7.22204 6.93522
#
# Compressibility (1/GPa) = 0.01840171
#
# Stress axis : x y z
#
# Youngs Moduli (GPa) = 34.34851 29.63743 54.12234
#
# Poissons Ratio (x) = 0.43705 0.58508
# Poissons Ratio (y) = 0.50652 0.31974
# Poissons Ratio (z) = 0.37132 0.17509
#
# Static dielectric constant tensor:
#      x y z
#    x 3.032760 0.000000 -0.054880 
#    y 0.000000 2.913910 0.000000 
#    z -0.054880 0.000000 3.401340 
# 
# 
# High freq. dielectric constant tensor:
#      x y z
#    x 1.643130 0.000000 -0.013700 
#    y 0.000000 1.638300 0.000000 
#    z -0.013700 0.000000 1.665530 
# 
# From -- ./inp_files/287950.got.cif
#   From: 2010.06.25/outbox.cif.g09.slc.cpg/sg12_144_cif.got.tgz:287950.got - 2010.06.28 00:19:55.
