data_PCOD8078777
_publ_section_title
;
Structure prediction by ZEFSAII (Michael W. Deem and Ramdas Pophale) SiO2 
 PCOD8078777
Probable space group: C 2/M
;
_chemical_formula_sum "Si O2"
_cell_formula_units_Z 40
_cell_length_a 22.033114
_cell_length_b 21.494035
_cell_length_c 10.284515
_cell_angle_alpha 90.000000
_cell_angle_beta 25.447524
_cell_angle_gamma 90.000000
_cell_volume 2092.796940
_symmetry_space_group_name_H-M "C 2/M"
_symmetry_group_IT_number 12
_symmetry_cell_setting 'monoclinic'
loop_
_space_group_symop_operation_xyz
x,y,z
-x,y,-z
-x,-y,-z
x,-y,z
1/2+x,1/2+y,z
1/2-x,1/2+y,-z
1/2-x,1/2-y,-z
1/2+x,1/2-y,z
loop_
_atom_site_type_symbol
_atom_site_label
_atom_site_fract_x
_atom_site_fract_y
_atom_site_fract_z
Si Si1 0.232825 0.825485 0.799030
Si Si2 0.974112 0.248600 0.258171
Si Si3 0.920036 0.428687 0.523931
Si Si4 0.918339 0.620970 0.031210
Si Si5 0.352948 0.354952 0.318231
O O1 0.356080 0.774460 0.585767
O O2 0.276247 0.887689 0.792980
O O3 0.237547 0.841832 0.636296
O O4 0.080608 0.797431 0.132358
O O5 0.900690 0.210928 0.284818
O O6 0.063171 0.305239 0.025318
O O7 0.871521 0.500000 0.619180
O O8 0.000000 0.409886 0.500000
O O9 0.028219 0.417201 0.196202
O O10 0.749957 0.608826 0.382172
O O11 0.000000 0.596722 0.000000
O O12 0.500000 0.392355 0.000000
#
# Coordination Sequence:
#
# PCOD8078777 Si02
#       5
#     8   8   8   8   8
#     4  10  18  30  52  85 110 145 177 216 267 329
#     4  10  17  26  53  86 123 142 167 213 276 334
#     4  10  23  41  58  74 103 148 193 231 269 320
#     4  11  18  32  55  88 109 140 183 224 268 318
#     4  10  18  26  49  87 122 145 167 211 276 328
#
# _framework density 19.113177
#
# number of rings (size 3 to 8) (size 9 to 14) (size 15 to 20)
#    0.000    1.800    6.000    2.400    0.000    0.400 
#    0.000    4.000    0.000   14.400    0.000   11.200 
#    0.000    0.000    0.000    0.000    0.000    0.000 
#
# Total GULP energy -247824.041371 kJ/mol
# GULP energy per Si atom -12391.202069 kJ/mol
# Density = 1.906968 g / cm^3
# Si number density = 19.113177 Si / 1000 Ang^3
#
#
#
# Elastic Constant Matrix: (Units=GPa)
#
#
# Indices 1 2 3 4 5 6 
#
# 1 105.8076 61.7706 34.3390 0.0016 -9.7421 -0.0020
# 2 61.7706 72.5196 10.2635 -0.0010 -11.4487 0.0008
# 3 34.3390 10.2635 69.1512 0.0001 -16.5306 0.0002
# 4 0.0016 -0.0010 0.0001 2.2308 -0.0003 8.5976
# 5 -9.7421 -11.4487 -16.5306 -0.0003 26.7633 0.0004
# 6 -0.0020 0.0008 0.0002 8.5976 0.0004 12.1877
#
#
#
# Elastic Compliance Matrix: (Units=1/GPa)
#
#
# Indices 1 2 3 4 5 6 
#
# 1 0.023785 -0.019772 -0.010358 0.000028 -0.006198 -0.000014
# 2 -0.019772 0.031262 0.007808 -0.000030 0.010998 0.000016
# 3 -0.010358 0.007808 0.021521 -0.000014 0.012862 0.000007
# 4 0.000028 -0.000030 -0.000014 -0.260809 -0.000016 0.183983
# 5 -0.006198 0.010998 0.012862 -0.000016 0.047758 0.000008
# 6 -0.000014 0.000016 0.000007 0.183983 0.000008 -0.047737
#
#
# Mechanical properties :
#
#
# Convention : Reuss Voigt Hill
#
# Bulk Modulus (GPa) = 31.32591 51.13607 41.23099
# Shear Modulus (GPa) = -38.77930 17.64338 -10.56796
#
# Velocity S-wave (km/s) = -4.50925 3.04155 -2.35397
# Velocity P-wave (km/s) = 3.26892 6.25677 3.77235
#
# Compressibility (1/GPa) = 0.03192245
#
# Stress axis : x y z
#
# Youngs Moduli (GPa) = 42.04311 31.98756 46.46724
#
# Poissons Ratio (x) = 0.63246 0.48132
# Poissons Ratio (y) = 0.83128 -0.36280
# Poissons Ratio (z) = 0.43549 -0.24975
#
# Static dielectric constant tensor:
#      x y z
#    x 3.366790 0.000000 -0.327260 
#    y 0.000000 3.179090 0.000000 
#    z -0.327260 0.000000 3.651290 
# 
# 
# High freq. dielectric constant tensor:
#      x y z
#    x 1.726260 0.000000 -0.025460 
#    y 0.000000 1.705850 0.000000 
#    z -0.025460 0.000000 1.736650 
# 
# From -- ./inp_files/90559.got.cif
#   From: 2010.06.25/outbox.cif.g09.slc.cpg/sg12_46_cif.got.tgz:90559.got - 2010.06.28 00:19:55.
