data_PCOD8078707
_publ_section_title
;
Structure prediction by ZEFSAII (Michael W. Deem and Ramdas Pophale) SiO2 
 PCOD8078707
Probable space group: C 2/M
;
_chemical_formula_sum "Si O2"
_cell_formula_units_Z 56
_cell_length_a 31.988213
_cell_length_b 8.952359
_cell_length_c 16.180124
_cell_angle_alpha 90.000000
_cell_angle_beta 49.850333
_cell_angle_gamma 90.000000
_cell_volume 3541.676016
_symmetry_space_group_name_H-M "C 2/M"
_symmetry_group_IT_number 12
_symmetry_cell_setting 'monoclinic'
loop_
_space_group_symop_operation_xyz
x,y,z
-x,y,-z
-x,-y,-z
x,-y,z
1/2+x,1/2+y,z
1/2-x,1/2+y,-z
1/2-x,1/2-y,-z
1/2+x,1/2-y,z
loop_
_atom_site_type_symbol
_atom_site_label
_atom_site_fract_x
_atom_site_fract_y
_atom_site_fract_z
Si Si1 0.987116 0.676308 0.889912
Si Si2 0.556344 0.664752 0.379184
Si Si3 0.308784 0.826138 0.519209
Si Si4 0.604973 0.677090 0.482545
Si Si5 0.998003 0.676347 0.691368
Si Si6 0.317073 0.673795 0.338174
Si Si7 0.087663 0.676972 0.869759
O O1 0.989175 0.500000 0.890784
O O2 0.980548 0.733113 0.804605
O O3 0.044212 0.732268 0.856159
O O4 0.935420 0.727863 0.011124
O O5 0.500000 0.657061 0.500000
O O6 0.570972 0.500000 0.326125
O O7 0.601272 0.718431 0.389307
O O8 0.550695 0.777308 0.309381
O O9 0.338355 0.743577 0.557076
O O10 0.330476 0.760560 0.405386
O O11 0.244654 0.795670 0.612076
O O12 0.323453 0.000000 0.502199
O O13 0.602889 0.500000 0.497468
O O14 0.555035 0.747145 0.596877
O O15 0.006143 0.500000 0.677282
O O16 0.327677 0.500000 0.340251
O O17 0.355815 0.736447 0.216829
O O18 0.098118 0.500000 0.852263
#
# Coordination Sequence:
#
# PCOD8078707 Si02
#       7
#     8   8   8   8   8   8   8
#     4   8  16  28  43  65  88 114 148 180 210 249
#     4   8  16  29  41  58  87 118 144 175 218 261
#     4  10  20  32  46  64  87 116 147 176 212 259
#     4  10  19  30  44  63  89 117 146 181 218 257
#     4  10  17  26  43  66  91 118 149 180 212 255
#     4  10  20  32  45  65  91 114 142 180 216 252
#     4   9  16  30  48  62  85 119 149 177 211 251
#
# _framework density 15.811722
#
# number of rings (size 3 to 8) (size 9 to 14) (size 15 to 20)
#    0.000    2.714    0.000    4.286    0.000    6.000 
#    0.000    3.571    0.000    0.000    0.000    1.000 
#    0.000    0.000    0.000    0.000    0.000    0.000 
#
# Total GULP energy -347105.445365 kJ/mol
# GULP energy per Si atom -12396.623049 kJ/mol
# Density = 1.577573 g / cm^3
# Si number density = 15.811722 Si / 1000 Ang^3
#
#
#
# Elastic Constant Matrix: (Units=GPa)
#
#
# Indices 1 2 3 4 5 6 
#
# 1 109.2238 47.6659 49.1206 0.0000 17.4574 -0.0002
# 2 47.6659 71.7905 39.5880 0.0002 6.3444 -0.0007
# 3 49.1206 39.5880 96.2116 0.0000 8.3247 0.0000
# 4 0.0000 0.0002 0.0000 18.7792 0.0000 -0.5558
# 5 17.4574 6.3444 8.3247 0.0000 24.3837 0.0000
# 6 -0.0002 -0.0007 0.0000 -0.5558 0.0000 27.1239
#
#
#
# Elastic Compliance Matrix: (Units=1/GPa)
#
#
# Indices 1 2 3 4 5 6 
#
# 1 0.015461 -0.007241 -0.004245 0.000000 -0.007736 0.000000
# 2 -0.007241 0.021527 -0.005281 0.000000 0.001386 0.000001
# 3 -0.004245 -0.005281 0.014789 0.000000 -0.000636 0.000000
# 4 0.000000 0.000000 0.000000 0.053283 0.000000 0.001092
# 5 -0.007736 0.001386 -0.000636 0.000000 0.046406 0.000000
# 6 0.000000 0.000001 0.000000 0.001092 0.000000 0.036890
#
#
# Mechanical properties :
#
#
# Convention : Reuss Voigt Hill
#
# Bulk Modulus (GPa) = 54.81374 61.10832 57.96103
# Shear Modulus (GPa) = 21.93279 23.44744 22.69011
#
# Velocity S-wave (km/s) = 3.72845 3.85504 3.79227
# Velocity P-wave (km/s) = 7.29910 7.65157 7.47741
#
# Compressibility (1/GPa) = 0.01824360
#
# Stress axis : x y z
#
# Youngs Moduli (GPa) = 64.67905 46.45423 67.61921
#
# Poissons Ratio (x) = 0.33638 0.28703
# Poissons Ratio (y) = 0.46834 0.35706
# Poissons Ratio (z) = 0.27455 0.24530
#
# Static dielectric constant tensor:
#      x y z
#    x 3.237530 0.000000 0.230120 
#    y 0.000000 2.969130 0.000000 
#    z 0.230120 0.000000 2.989060 
# 
# 
# High freq. dielectric constant tensor:
#      x y z
#    x 1.600920 0.000000 0.011750 
#    y 0.000000 1.607260 0.000000 
#    z 0.011750 0.000000 1.580800 
# 
# From -- ./inp_files/248580.got.cif
#   From: 2010.06.25/outbox.cif.g09.slc.cpg/sg12_125_cif.got.tgz:248580.got - 2010.06.28 00:19:55.
