data_PCOD8078604
_publ_section_title
;
Structure prediction by ZEFSAII (Michael W. Deem and Ramdas Pophale) SiO2 
 PCOD8078604
Probable space group: C 2/M
;
_chemical_formula_sum "Si O2"
_cell_formula_units_Z 64
_cell_length_a 23.165544
_cell_length_b 9.042411
_cell_length_c 22.995890
_cell_angle_alpha 90.000000
_cell_angle_beta 130.851913
_cell_angle_gamma 90.000000
_cell_volume 3643.594566
_symmetry_space_group_name_H-M "C 2/M"
_symmetry_group_IT_number 12
_symmetry_cell_setting 'monoclinic'
loop_
_space_group_symop_operation_xyz
x,y,z
-x,y,-z
-x,-y,-z
x,-y,z
1/2+x,1/2+y,z
1/2-x,1/2+y,-z
1/2-x,1/2-y,-z
1/2+x,1/2-y,z
loop_
_atom_site_type_symbol
_atom_site_label
_atom_site_fract_x
_atom_site_fract_y
_atom_site_fract_z
Si Si1 0.573963 0.327496 0.769690
Si Si2 0.764387 0.824577 0.070660
Si Si3 0.642541 0.825036 0.202364
Si Si4 0.074254 0.824341 0.261523
Si Si5 0.200356 0.168445 0.134307
Si Si6 0.727462 0.668142 0.427381
Si Si7 0.714553 0.170827 0.653337
Si Si8 0.869809 0.336919 0.296544
O O1 0.565745 0.500000 0.758984
O O2 0.650140 0.280348 0.853765
O O3 0.501153 0.264013 0.755848
O O4 0.575756 0.270062 0.704241
O O5 0.703401 0.757674 0.075741
O O6 0.753591 0.000000 0.059799
O O7 0.750000 0.750000 0.000000
O O8 0.576966 0.756395 0.200633
O O9 0.639478 0.749379 0.136480
O O10 0.723203 0.788059 0.284756
O O11 0.631740 0.000000 0.188859
O O12 0.146771 0.776699 0.348312
O O13 0.072617 0.000000 0.249945
O O14 0.282913 0.173575 0.218096
O O15 0.174160 0.000000 0.105291
O O16 0.719448 0.500000 0.440668
O O17 0.750000 0.750000 0.500000
O O18 0.793805 0.690580 0.421871
O O19 0.635704 0.201018 0.637468
O O20 0.742031 0.000000 0.684038
O O21 0.903406 0.500000 0.309210
#
# Coordination Sequence:
#
# PCOD8078604 Si02
#       8
#     8   8   8   8   8   8   8   8
#     4   9  18  31  48  68  91 120 155 187 220 267
#     4  10  19  31  48  72  97 122 153 190 228 271
#     4  10  17  25  42  69  93 114 148 194 231 265
#     4   9  18  33  48  64  91 126 154 183 226 274
#     4   9  16  28  45  65  91 123 153 186 228 271
#     4   9  17  29  46  66  90 118 151 188 229 272
#     4   8  15  28  43  61  88 122 151 182 227 275
#     4   8  14  25  43  65  88 113 146 186 228 265
#
# _framework density 17.565072000000001
#
# number of rings (size 3 to 8) (size 9 to 14) (size 15 to 20)
#    0.000    3.000    0.000    3.375    0.000    6.000 
#    0.000    0.000    0.000    1.500    0.000   10.500 
#    0.000    0.000    0.000    0.000    0.000    0.000 
#
# Total GULP energy -396513.702375 kJ/mol
# GULP energy per Si atom -12391.053199 kJ/mol
# Density = 1.752509 g / cm^3
# Si number density = 17.565072 Si / 1000 Ang^3
#
#
#
# Elastic Constant Matrix: (Units=GPa)
#
#
# Indices 1 2 3 4 5 6 
#
# 1 167.9324 56.6198 52.4796 0.0000 -38.3607 0.0000
# 2 56.6198 74.3853 33.8891 0.0000 -16.1176 0.0000
# 3 52.4796 33.8891 59.1737 0.0000 -29.0049 0.0000
# 4 0.0000 0.0000 0.0000 22.9168 0.0000 -11.0367
# 5 -38.3607 -16.1176 -29.0049 0.0000 29.6767 0.0000
# 6 0.0000 0.0000 0.0000 -11.0367 0.0000 31.1120
#
#
#
# Elastic Compliance Matrix: (Units=1/GPa)
#
#
# Indices 1 2 3 4 5 6 
#
# 1 0.010222 -0.005016 -0.002019 0.000000 0.008516 0.000000
# 2 -0.005016 0.020656 -0.009714 0.000000 -0.004760 0.000000
# 3 -0.002019 -0.009714 0.039138 0.000000 0.030367 0.000000
# 4 0.000000 0.000000 0.000000 0.052627 0.000000 0.018669
# 5 0.008516 -0.004760 0.030367 0.000000 0.071799 0.000000
# 6 0.000000 0.000000 0.000000 0.018669 0.000000 0.038765
#
#
# Mechanical properties :
#
#
# Convention : Reuss Voigt Hill
#
# Bulk Modulus (GPa) = 27.38381 65.27424 46.32903
# Shear Modulus (GPa) = 17.92904 27.30795 22.61850
#
# Velocity S-wave (km/s) = 3.19834 3.94721 3.59234
# Velocity P-wave (km/s) = 5.40952 7.61683 6.60602
#
# Compressibility (1/GPa) = 0.03651793
#
# Stress axis : x y z
#
# Youngs Moduli (GPa) = 97.82730 48.41261 25.55055
#
# Poissons Ratio (x) = 0.24282 0.05159
# Poissons Ratio (y) = 0.49067 0.24821
# Poissons Ratio (z) = 0.19751 0.47030
#
# Static dielectric constant tensor:
#      x y z
#    x 3.760290 0.000000 -0.389990 
#    y 0.000000 3.226000 0.000000 
#    z -0.389990 0.000000 2.900580 
# 
# 
# High freq. dielectric constant tensor:
#      x y z
#    x 1.688240 0.000000 -0.041700 
#    y 0.000000 1.678030 0.000000 
#    z -0.041700 0.000000 1.624430 
# 
# From -- ./inp_files/323711.got.cif
#   From: 2010.06.25/outbox.cif.g09.slc.cpg/sg12_162_cif.got.tgz:323711.got - 2010.06.28 00:19:55.
