data_PCOD8078145
_publ_section_title
;
Structure prediction by ZEFSAII (Michael W. Deem and Ramdas Pophale) SiO2 
 PCOD8078145
Probable space group: C 2/M
;
_chemical_formula_sum "Si O2"
_cell_formula_units_Z 64
_cell_length_a 20.989481
_cell_length_b 17.274064
_cell_length_c 17.757033
_cell_angle_alpha 90.000000
_cell_angle_beta 28.962244
_cell_angle_gamma 90.000000
_cell_volume 3117.605518
_symmetry_space_group_name_H-M "C 2/M"
_symmetry_group_IT_number 12
_symmetry_cell_setting 'monoclinic'
loop_
_space_group_symop_operation_xyz
x,y,z
-x,y,-z
-x,-y,-z
x,-y,z
1/2+x,1/2+y,z
1/2-x,1/2+y,-z
1/2-x,1/2-y,-z
1/2+x,1/2-y,z
loop_
_atom_site_type_symbol
_atom_site_label
_atom_site_fract_x
_atom_site_fract_y
_atom_site_fract_z
Si Si1 0.792191 0.088893 0.421354
Si Si2 0.078542 0.090229 0.156094
Si Si3 0.235211 0.330675 0.328789
Si Si4 0.991347 0.588513 0.249829
Si Si5 0.857972 0.202899 0.666964
Si Si6 0.313624 0.414484 0.109789
Si Si7 0.264427 0.090316 0.096626
Si Si8 0.053180 0.353191 0.342414
O O1 0.788948 0.149828 0.355700
O O2 0.664476 0.100440 0.607114
O O3 0.924058 0.106142 0.332825
O O4 0.795510 0.000000 0.386820
O O5 0.167565 0.123574 0.131374
O O6 0.112103 0.000000 0.115834
O O7 0.115355 0.125896 0.035952
O O8 0.216555 0.238758 0.330049
O O9 0.336411 0.366254 0.162974
O O10 0.087232 0.366679 0.470837
O O11 0.016494 0.500000 0.250079
O O12 0.029122 0.646475 0.277712
O O13 0.083261 0.606549 0.083021
O O14 0.765422 0.136320 0.796239
O O15 0.880298 0.271601 0.704129
O O16 0.000000 0.166054 0.500000
O O17 0.370421 0.500000 0.064757
O O18 0.157177 0.419819 0.255037
O O19 0.238929 0.000000 0.138440
#
# Coordination Sequence:
#
# PCOD8078145 Si02
#       8
#     8   8   8   8   8   8   8   8
#     4   9  17  30  49  74 106 142 167 190 236 302
#     4   9  18  30  45  72 107 134 164 202 247 298
#     4   9  18  29  43  68 100 137 173 200 237 289
#     4   9  16  28  48  74 100 128 166 207 242 288
#     4   9  19  33  49  73  98 130 164 212 255 299
#     4  10  16  24  40  67 101 134 169 201 232 284
#     4  10  19  33  53  78  99 123 164 217 260 294
#     4   9  16  28  44  67  96 129 164 203 246 286
#
# _framework density 20.528575
#
# number of rings (size 3 to 8) (size 9 to 14) (size 15 to 20)
#    0.000    2.750    1.250    1.875    0.000    3.250 
#    0.000    1.875    0.000    6.750   13.000    0.000 
#    0.000    5.000    0.000    2.750    0.000    0.000 
#
# Total GULP energy -396479.752630 kJ/mol
# GULP energy per Si atom -12389.992270 kJ/mol
# Density = 2.048185 g / cm^3
# Si number density = 20.528575 Si / 1000 Ang^3
#
#
#
# Elastic Constant Matrix: (Units=GPa)
#
#
# Indices 1 2 3 4 5 6 
#
# 1 34.1148 13.5248 32.5540 0.0002 -5.4909 -0.0004
# 2 13.5248 46.3378 38.6156 -0.0001 9.5868 -0.0002
# 3 32.5540 38.6156 132.3948 -0.0001 0.5026 -0.0003
# 4 0.0002 -0.0001 -0.0001 24.6172 -0.0001 10.3514
# 5 -5.4909 9.5868 0.5026 -0.0001 24.9515 0.0004
# 6 -0.0004 -0.0002 -0.0003 10.3514 0.0004 16.9076
#
#
#
# Elastic Compliance Matrix: (Units=1/GPa)
#
#
# Indices 1 2 3 4 5 6 
#
# 1 0.042293 -0.008262 -0.008037 -0.000001 0.012643 0.000001
# 2 -0.008262 0.033357 -0.007643 0.000000 -0.014481 0.000000
# 3 -0.008037 -0.007643 0.011755 0.000000 0.000931 0.000000
# 4 -0.000001 0.000000 0.000000 0.054706 0.000001 -0.033493
# 5 0.012643 -0.014481 0.000931 0.000001 0.048405 -0.000001
# 6 0.000001 0.000000 0.000000 -0.033493 -0.000001 0.079650
#
#
# Mechanical properties :
#
#
# Convention : Reuss Voigt Hill
#
# Bulk Modulus (GPa) = 25.30318 42.47068 33.88693
# Shear Modulus (GPa) = 15.09553 21.83879 18.46716
#
# Velocity S-wave (km/s) = 2.71466 3.26517 3.00256
# Velocity P-wave (km/s) = 4.70940 5.91173 5.34448
#
# Compressibility (1/GPa) = 0.03952072
#
# Stress axis : x y z
#
# Youngs Moduli (GPa) = 23.64461 29.97864 85.06936
#
# Poissons Ratio (x) = 0.24768 0.68374
# Poissons Ratio (y) = 0.19535 0.65017
# Poissons Ratio (z) = 0.19004 0.22912
#
# Static dielectric constant tensor:
#      x y z
#    x 3.305690 0.000000 -0.091010 
#    y 0.000000 3.301920 0.000000 
#    z -0.091010 0.000000 3.913480 
# 
# 
# High freq. dielectric constant tensor:
#      x y z
#    x 1.758310 0.000000 -0.005680 
#    y 0.000000 1.757900 0.000000 
#    z -0.005680 0.000000 1.815060 
# 
# From -- ./inp_files/285191.got.cif
#   From: 2010.06.25/outbox.cif.g09.slc.cpg/sg12_143_cif.got.tgz:285191.got - 2010.06.28 00:19:55.
