data_PCOD8078090
_publ_section_title
;
Structure prediction by ZEFSAII (Michael W. Deem and Ramdas Pophale) SiO2 
 PCOD8078090
Probable space group: C 2/M
;
_chemical_formula_sum "Si O2"
_cell_formula_units_Z 48
_cell_length_a 23.249411
_cell_length_b 13.505264
_cell_length_c 14.362442
_cell_angle_alpha 90.000000
_cell_angle_beta 40.700465
_cell_angle_gamma 90.000000
_cell_volume 2940.766591
_symmetry_space_group_name_H-M "C 2/M"
_symmetry_group_IT_number 12
_symmetry_cell_setting 'monoclinic'
loop_
_space_group_symop_operation_xyz
x,y,z
-x,y,-z
-x,-y,-z
x,-y,z
1/2+x,1/2+y,z
1/2-x,1/2+y,-z
1/2-x,1/2-y,-z
1/2+x,1/2-y,z
loop_
_atom_site_type_symbol
_atom_site_label
_atom_site_fract_x
_atom_site_fract_y
_atom_site_fract_z
Si Si1 0.092290 0.890464 0.834282
Si Si2 0.818183 0.799737 0.112632
Si Si3 0.250817 0.387805 0.889325
Si Si4 0.164156 0.387582 0.194368
Si Si5 0.557824 0.699543 0.339156
Si Si6 0.016561 0.117562 0.200019
O O1 0.158095 0.816257 0.807483
O O2 0.069923 0.855501 0.756298
O O3 0.135388 0.000000 0.781217
O O4 0.000000 0.895725 0.000000
O O5 0.801094 0.683071 0.118454
O O6 0.730300 0.861716 0.197274
O O7 0.895796 0.835779 0.950715
O O8 0.233653 0.500000 0.878260
O O9 0.354224 0.365610 0.762147
O O10 0.215966 0.367890 0.035478
O O11 0.130639 0.500000 0.244296
O O12 0.079445 0.316197 0.303094
O O13 0.500000 0.678772 0.500000
O O14 0.500704 0.663801 0.320863
O O15 0.030047 0.000000 0.188236
#
# Coordination Sequence:
#
# PCOD8078090 Si02
#       6
#     8   8   8   8   8   8
#     4   8  15  24  42  70  94 119 150 192 238 270
#     4  10  15  28  48  71  93 118 153 200 236 270
#     4  10  19  31  49  70  94 127 159 192 233 277
#     4  10  18  31  51  70  92 124 160 197 233 270
#     4  11  21  32  47  71 100 127 153 187 238 286
#     4  10  17  28  45  69  99 123 151 193 235 276
#
# _framework density 16.322275000000001
#
# number of rings (size 3 to 8) (size 9 to 14) (size 15 to 20)
#    0.000    2.167    3.333    4.000    0.000    1.667 
#    0.000    0.000    0.000    9.500    0.000    2.333 
#    0.000    0.000    0.000    0.000    0.000    0.000 
#
# Total GULP energy -297527.471024 kJ/mol
# GULP energy per Si atom -12396.977959 kJ/mol
# Density = 1.628512 g / cm^3
# Si number density = 16.322275 Si / 1000 Ang^3
#
#
#
# Elastic Constant Matrix: (Units=GPa)
#
#
# Indices 1 2 3 4 5 6 
#
# 1 150.2108 70.9040 32.7885 0.0000 13.0761 0.0000
# 2 70.9040 104.6076 8.0842 0.0000 5.1374 0.0000
# 3 32.7885 8.0842 42.9447 0.0000 16.1687 0.0000
# 4 0.0000 0.0000 0.0000 5.1707 0.0000 -0.6992
# 5 13.0761 5.1374 16.1687 0.0000 14.9999 0.0000
# 6 0.0000 0.0000 0.0000 -0.6992 0.0000 27.5937
#
#
#
# Elastic Compliance Matrix: (Units=1/GPa)
#
#
# Indices 1 2 3 4 5 6 
#
# 1 0.011836 -0.007448 -0.007928 0.000000 0.000779 0.000000
# 2 -0.007448 0.014434 0.004016 0.000000 -0.002780 0.000000
# 3 -0.007928 0.004016 0.044598 0.000000 -0.042537 0.000000
# 4 0.000000 0.000000 0.000000 0.194064 0.000000 0.004918
# 5 0.000779 -0.002780 -0.042537 0.000000 0.112792 0.000000
# 6 0.000000 0.000000 0.000000 0.004918 0.000000 0.036365
#
#
# Mechanical properties :
#
#
# Convention : Reuss Voigt Hill
#
# Bulk Modulus (GPa) = 20.76918 57.92405 39.34661
# Shear Modulus (GPa) = 11.04102 21.95196 16.49649
#
# Velocity S-wave (km/s) = 2.60367 3.67128 3.18256
# Velocity P-wave (km/s) = 4.66807 7.31682 6.13704
#
# Compressibility (1/GPa) = 0.04814826
#
# Stress axis : x y z
#
# Youngs Moduli (GPa) = 84.49062 69.28116 22.42257
#
# Poissons Ratio (x) = 0.51600 0.17776
# Poissons Ratio (y) = 0.62928 -0.09005
# Poissons Ratio (z) = 0.66981 -0.27823
#
# Static dielectric constant tensor:
#      x y z
#    x 3.418780 0.000000 0.082560 
#    y 0.000000 3.175170 0.000000 
#    z 0.082560 0.000000 2.670180 
# 
# 
# High freq. dielectric constant tensor:
#      x y z
#    x 1.628300 0.000000 0.004060 
#    y 0.000000 1.630020 0.000000 
#    z 0.004060 0.000000 1.581350 
# 
# From -- ./inp_files/155236.got.cif
#   From: 2010.06.25/outbox.cif.g09.slc.cpg/sg12_78_cif.got.tgz:155236.got - 2010.06.28 00:19:55.
