data_PCOD8078523
_publ_section_title
;
Structure prediction by ZEFSAII (Michael W. Deem and Ramdas Pophale) SiO2 
 PCOD8078523
Probable space group: C 2/M
;
_chemical_formula_sum "Si O2"
_cell_formula_units_Z 48
_cell_length_a 20.651162
_cell_length_b 8.834746
_cell_length_c 23.121407
_cell_angle_alpha 90.000000
_cell_angle_beta 40.194952
_cell_angle_gamma 90.000000
_cell_volume 2722.546559
_symmetry_space_group_name_H-M "C 2/M"
_symmetry_group_IT_number 12
_symmetry_cell_setting 'monoclinic'
loop_
_space_group_symop_operation_xyz
x,y,z
-x,y,-z
-x,-y,-z
x,-y,z
1/2+x,1/2+y,z
1/2-x,1/2+y,-z
1/2-x,1/2-y,-z
1/2+x,1/2-y,z
loop_
_atom_site_type_symbol
_atom_site_label
_atom_site_fract_x
_atom_site_fract_y
_atom_site_fract_z
Si Si1 0.985129 0.177138 0.944075
Si Si2 0.680853 0.173796 0.776693
Si Si3 0.164643 0.823530 0.229178
Si Si4 0.362233 0.324060 0.580495
Si Si5 0.991867 0.678234 0.592452
Si Si6 0.284317 0.177849 0.035801
O O1 0.892340 0.262901 0.980049
O O2 0.083752 0.220305 0.840228
O O3 0.965072 0.000000 0.953169
O O4 0.000000 0.229901 0.000000
O O5 0.748903 0.223863 0.784627
O O6 0.743441 0.196338 0.674050
O O7 0.646838 0.000000 0.807203
O O8 0.060553 0.734343 0.312474
O O9 0.141201 0.000000 0.251667
O O10 0.201811 0.778608 0.140204
O O11 0.391616 0.500000 0.565402
O O12 0.420008 0.229795 0.589798
O O13 0.398353 0.256306 0.493784
O O14 0.006137 0.500000 0.584503
O O15 0.292050 0.000000 0.022909
O O16 0.250000 0.250000 0.000000
#
# Coordination Sequence:
#
# PCOD8078523 Si02
#       6
#     8   8   8   8   8   8
#     4  11  22  34  52  79 107 137 174 217 263 310
#     4   9  17  30  49  72  98 134 175 210 254 306
#     4   9  18  32  49  69  97 136 172 207 256 311
#     4   9  16  27  41  62  96 133 167 203 251 309
#     4  10  17  24  40  66  96 129 165 208 254 300
#     4  11  23  39  57  76 104 139 178 220 263 312
#
# _framework density 17.630552999999999
#
# number of rings (size 3 to 8) (size 9 to 14) (size 15 to 20)
#    0.000    2.167    1.667    5.000    0.000    5.333 
#    0.000    0.000    0.000    0.000    0.000    1.167 
#    0.000    0.000    0.000    0.000    0.000    0.000 
#
# Total GULP energy -297494.809622 kJ/mol
# GULP energy per Si atom -12395.617068 kJ/mol
# Density = 1.759042 g / cm^3
# Si number density = 17.630553 Si / 1000 Ang^3
#
#
#
# Elastic Constant Matrix: (Units=GPa)
#
#
# Indices 1 2 3 4 5 6 
#
# 1 63.7455 28.7900 53.9206 0.0001 5.0502 0.0001
# 2 28.7900 73.5182 72.6773 0.0001 1.6942 0.0003
# 3 53.9206 72.6773 172.3879 0.0000 0.5196 0.0000
# 4 0.0001 0.0001 0.0000 25.8565 0.0000 1.5526
# 5 5.0502 1.6942 0.5196 0.0000 13.7612 0.0000
# 6 0.0001 0.0003 0.0000 1.5526 0.0000 19.6636
#
#
#
# Elastic Compliance Matrix: (Units=1/GPa)
#
#
# Indices 1 2 3 4 5 6 
#
# 1 0.022509 -0.002916 -0.005788 0.000000 -0.007683 0.000000
# 2 -0.002916 0.023786 -0.009111 0.000000 -0.001514 0.000000
# 3 -0.005788 -0.009111 0.011444 0.000000 0.002814 0.000000
# 4 0.000000 0.000000 0.000000 0.038859 0.000000 -0.003068
# 5 -0.007683 -0.001514 0.002814 0.000000 0.075568 0.000000
# 6 0.000000 0.000000 0.000000 -0.003068 0.000000 0.051098
#
#
# Mechanical properties :
#
#
# Convention : Reuss Voigt Hill
#
# Bulk Modulus (GPa) = 45.23112 68.93637 57.08375
# Shear Modulus (GPa) = 18.77837 22.14050 20.45944
#
# Velocity S-wave (km/s) = 3.26713 3.54758 3.41024
# Velocity P-wave (km/s) = 6.32004 7.48103 6.92491
#
# Compressibility (1/GPa) = 0.02210867
#
# Stress axis : x y z
#
# Youngs Moduli (GPa) = 44.42697 42.04161 87.38088
#
# Poissons Ratio (x) = 0.12257 0.50577
# Poissons Ratio (y) = 0.12953 0.79617
# Poissons Ratio (z) = 0.25715 0.38306
#
# Static dielectric constant tensor:
#      x y z
#    x 2.682380 0.000000 0.052330 
#    y 0.000000 3.269880 0.000000 
#    z 0.052330 0.000000 4.068980 
# 
# 
# High freq. dielectric constant tensor:
#      x y z
#    x 1.605320 0.000000 -0.003690 
#    y 0.000000 1.690400 0.000000 
#    z -0.003690 0.000000 1.711800 
# 
# From -- ./inp_files/345392.got.cif
#   From: 2010.06.25/outbox.cif.g09.slc.cpg/sg12_173_cif.got.tgz:345392.got - 2010.06.28 00:19:55.
