data_PCOD8078461
_publ_section_title
;
Structure prediction by ZEFSAII (Michael W. Deem and Ramdas Pophale) SiO2 
 PCOD8078461
Probable space group: C 2/M
;
_chemical_formula_sum "Si O2"
_cell_formula_units_Z 44
_cell_length_a 18.234063
_cell_length_b 28.393078
_cell_length_c 9.563075
_cell_angle_alpha 90.000000
_cell_angle_beta 26.437355
_cell_angle_gamma 90.000000
_cell_volume 2204.282418
_symmetry_space_group_name_H-M "C 2/M"
_symmetry_group_IT_number 12
_symmetry_cell_setting 'monoclinic'
loop_
_space_group_symop_operation_xyz
x,y,z
-x,y,-z
-x,-y,-z
x,-y,z
1/2+x,1/2+y,z
1/2-x,1/2+y,-z
1/2-x,1/2-y,-z
1/2+x,1/2-y,z
loop_
_atom_site_type_symbol
_atom_site_label
_atom_site_fract_x
_atom_site_fract_y
_atom_site_fract_z
Si Si1 0.616058 0.598189 0.523830
Si Si2 0.468983 0.780639 0.257805
Si Si3 0.448490 0.500000 0.248479
Si Si4 0.329202 0.500000 0.887791
Si Si5 0.274779 0.308854 0.547080
Si Si6 0.000000 0.327300 0.500000
Si Si7 0.732940 0.600068 0.029408
O O1 0.652287 0.547381 0.534466
O O2 0.655562 0.638337 0.568350
O O3 0.731186 0.611726 0.196547
O O4 0.434678 0.601068 0.771052
O O5 0.433474 0.724942 0.297717
O O6 0.310064 0.805940 0.460202
O O7 0.484413 0.793270 0.394107
O O8 0.638829 0.795106 0.894908
O O9 0.619907 0.500000 0.037445
O O10 0.500000 0.500000 0.000000
O O11 0.500000 0.500000 0.500000
O O12 0.212890 0.545126 0.061395
O O13 0.153524 0.362305 0.238897
#
# Coordination Sequence:
#
# PCOD8078461 Si02
#       7
#     8   8   4   4   8   4   8
#     4  10  19  39  64  85 120 163 198 245 310 356
#     4  10  24  41  59  87 123 158 206 248 296 364
#     4  10  20  34  60  99 115 143 210 258 285 350
#     4  10  16  37  58  79 118 159 199 242 291 369
#     4  10  22  43  62  83 121 167 197 244 314 357
#     4  12  24  37  58  96 124 149 208 262 290 358
#     4  10  20  35  61  90 116 162 203 245 304 360
#
# _framework density 19.961144000000001
#
# number of rings (size 3 to 8) (size 9 to 14) (size 15 to 20)
#    0.000    1.818    5.455    0.000    2.545    5.455 
#    3.273    0.000    0.000    3.273    0.000    0.000 
#    0.000    0.000    0.000    0.000    0.000    0.000 
#
# Total GULP energy -272545.720168 kJ/mol
# GULP energy per Si atom -12388.441826 kJ/mol
# Density = 1.991571 g / cm^3
# Si number density = 19.961144 Si / 1000 Ang^3
#
#
#
# Elastic Constant Matrix: (Units=GPa)
#
#
# Indices 1 2 3 4 5 6 
#
# 1 102.1073 41.8614 18.6370 -0.0035 21.2091 0.0012
# 2 41.8614 147.2334 13.2282 -0.0021 -9.5236 0.0010
# 3 18.6370 13.2282 44.4600 -0.0189 10.3894 0.0074
# 4 -0.0035 -0.0021 -0.0189 26.3536 0.0121 -0.2249
# 5 21.2091 -9.5236 10.3894 0.0121 17.9249 -0.0052
# 6 0.0012 0.0010 0.0074 -0.2249 -0.0052 32.7983
#
#
#
# Elastic Compliance Matrix: (Units=1/GPa)
#
#
# Indices 1 2 3 4 5 6 
#
# 1 0.017499 -0.006582 0.000322 0.000013 -0.024389 -0.000004
# 2 -0.006582 0.009993 -0.003788 -0.000010 0.015292 0.000003
# 3 0.000322 -0.003788 0.027810 0.000028 -0.018513 -0.000009
# 4 0.000013 -0.000010 0.000028 0.037948 -0.000063 0.000260
# 5 -0.024389 0.015292 -0.018513 -0.000063 0.103501 0.000020
# 6 -0.000004 0.000003 -0.000009 0.000260 0.000020 0.030491
#
#
# Mechanical properties :
#
#
# Convention : Reuss Voigt Hill
#
# Bulk Modulus (GPa) = 28.40328 49.02822 38.71575
# Shear Modulus (GPa) = 19.29961 30.08696 24.69328
#
# Velocity S-wave (km/s) = 3.11281 3.88658 3.52101
# Velocity P-wave (km/s) = 5.21341 6.68998 5.99731
#
# Compressibility (1/GPa) = 0.03520721
#
# Stress axis : x y z
#
# Youngs Moduli (GPa) = 57.14553 100.07229 35.95823
#
# Poissons Ratio (x) = 0.65866 -0.01158
# Poissons Ratio (y) = 0.37613 0.13620
# Poissons Ratio (z) = -0.01841 0.37904
#
# Static dielectric constant tensor:
#      x y z
#    x 3.561780 0.000000 0.197340 
#    y 0.000000 3.904700 0.000010 
#    z 0.197340 0.000010 3.377770 
# 
# 
# High freq. dielectric constant tensor:
#      x y z
#    x 1.774650 0.000000 0.016510 
#    y 0.000000 1.795250 0.000000 
#    z 0.016510 0.000000 1.751910 
# 
# From -- ./inp_files/80400.got.cif
#   From: 2010.06.25/outbox.cif.g09.slc.cpg/sg12_41_cif.got.tgz:80400.got - 2010.06.28 00:19:55.
