data_PCOD8078412
_publ_section_title
;
Structure prediction by ZEFSAII (Michael W. Deem and Ramdas Pophale) SiO2 
 PCOD8078412
Probable space group: C 2/M
;
_chemical_formula_sum "Si O2"
_cell_formula_units_Z 48
_cell_length_a 25.983905
_cell_length_b 14.821140
_cell_length_c 9.680254
_cell_angle_alpha 90.000000
_cell_angle_beta 136.774191
_cell_angle_gamma 90.000000
_cell_volume 2553.197147
_symmetry_space_group_name_H-M "C 2/M"
_symmetry_group_IT_number 12
_symmetry_cell_setting 'monoclinic'
loop_
_space_group_symop_operation_xyz
x,y,z
-x,y,-z
-x,-y,-z
x,-y,z
1/2+x,1/2+y,z
1/2-x,1/2+y,-z
1/2-x,1/2-y,-z
1/2+x,1/2-y,z
loop_
_atom_site_type_symbol
_atom_site_label
_atom_site_fract_x
_atom_site_fract_y
_atom_site_fract_z
Si Si1 0.182307 0.898560 0.647584
Si Si2 0.192045 0.599723 0.564910
Si Si3 0.329071 0.769785 0.221822
Si Si4 0.185625 0.824663 0.357142
Si Si5 0.584929 0.169139 0.119214
Si Si6 0.641724 0.101706 0.950919
O O1 0.139215 0.828268 0.666536
O O2 0.162466 0.875489 0.451438
O O3 0.155602 0.000000 0.631030
O O4 0.271593 0.887866 0.837830
O O5 0.179344 0.500000 0.600832
O O6 0.178625 0.671926 0.656111
O O7 0.279045 0.605054 0.682981
O O8 0.135205 0.615499 0.327551
O O9 0.379655 0.825487 0.211033
O O10 0.250000 0.750000 0.000000
O O11 0.250000 0.750000 0.500000
O O12 0.111996 0.773242 0.156242
O O13 0.500000 0.167098 0.000000
O O14 0.589967 0.120395 0.981475
O O15 0.625771 0.000000 0.866277
#
# Coordination Sequence:
#
# PCOD8078412 Si02
#       6
#     8   8   8   8   8   8
#     4  10  17  30  55  82 107 138 183 236 284 326
#     4  11  20  34  60  87 113 146 189 236 281 338
#     4  10  19  33  51  82 118 143 182 232 289 341
#     4  10  16  32  54  81 107 142 189 230 275 322
#     4  11  22  36  56  82 117 157 189 227 279 342
#     4  10  19  32  51  80 116 146 174 223 284 339
#
# _framework density 18.799958
#
# number of rings (size 3 to 8) (size 9 to 14) (size 15 to 20)
#    0.000    1.667    6.667    2.500    0.000    2.000 
#    0.000    0.833    0.000    4.000    0.000    1.167 
#    0.000    0.000    0.000    0.000    0.000    0.000 
#
# Total GULP energy -297413.143033 kJ/mol
# GULP energy per Si atom -12392.214293 kJ/mol
# Density = 1.875717 g / cm^3
# Si number density = 18.799958 Si / 1000 Ang^3
#
#
#
# Elastic Constant Matrix: (Units=GPa)
#
#
# Indices 1 2 3 4 5 6 
#
# 1 97.5874 54.1220 33.3058 0.0000 -15.9551 0.0000
# 2 54.1220 155.5524 37.0351 0.0000 -14.8212 0.0000
# 3 33.3058 37.0351 23.7035 0.0000 -19.2586 0.0000
# 4 0.0000 0.0000 0.0000 19.4862 0.0000 -10.8520
# 5 -15.9551 -14.8212 -19.2586 0.0000 31.2412 0.0000
# 6 0.0000 0.0000 0.0000 -10.8520 0.0000 17.9487
#
#
#
# Elastic Compliance Matrix: (Units=1/GPa)
#
#
# Indices 1 2 3 4 5 6 
#
# 1 0.023840 0.002533 -0.053263 0.000000 -0.019457 0.000000
# 2 0.002533 0.012356 -0.034159 0.000000 -0.013902 0.000000
# 3 -0.053263 -0.034159 0.270723 0.000000 0.123479 0.000000
# 4 0.000000 0.000000 0.000000 0.077370 0.000000 0.046779
# 5 -0.019457 -0.013902 0.123479 0.000000 0.091596 0.000000
# 6 0.000000 0.000000 0.000000 0.046779 0.000000 0.083998
#
#
# Mechanical properties :
#
#
# Convention : Reuss Voigt Hill
#
# Bulk Modulus (GPa) = 7.29179 58.41878 32.85528
# Shear Modulus (GPa) = 6.44852 23.89390 15.17121
#
# Velocity S-wave (km/s) = 1.85405 3.56891 2.84382
# Velocity P-wave (km/s) = 2.91039 6.93716 5.31952
#
# Compressibility (1/GPa) = 0.13714061
#
# Stress axis : x y z
#
# Youngs Moduli (GPa) = 41.94695 80.93476 3.69381
#
# Poissons Ratio (x) = -0.20499 0.19674
# Poissons Ratio (y) = -0.10624 0.12618
# Poissons Ratio (z) = 2.23422 2.76461
#
# Static dielectric constant tensor:
#      x y z
#    x 3.455340 0.000000 -0.263550 
#    y 0.000000 4.013200 0.000000 
#    z -0.263550 0.000000 3.218830 
# 
# 
# High freq. dielectric constant tensor:
#      x y z
#    x 1.705050 0.000000 -0.038270 
#    y 0.000000 1.746550 0.000000 
#    z -0.038270 0.000000 1.690670 
# 
# From -- ./inp_files/85179.got.cif
#   From: 2010.06.25/outbox.cif.g09.slc.cpg/sg12_43_cif.got.tgz:85179.got - 2010.06.28 00:19:55.
