data_PCOD8078245
_publ_section_title
;
Structure prediction by ZEFSAII (Michael W. Deem and Ramdas Pophale) SiO2 
 PCOD8078245
Probable space group: C 2/M
;
_chemical_formula_sum "Si O2"
_cell_formula_units_Z 60
_cell_length_a 21.413048
_cell_length_b 23.477078
_cell_length_c 13.620287
_cell_angle_alpha 90.000000
_cell_angle_beta 31.153857
_cell_angle_gamma 90.000000
_cell_volume 3542.282162
_symmetry_space_group_name_H-M "C 2/M"
_symmetry_group_IT_number 12
_symmetry_cell_setting 'monoclinic'
loop_
_space_group_symop_operation_xyz
x,y,z
-x,y,-z
-x,-y,-z
x,-y,z
1/2+x,1/2+y,z
1/2-x,1/2+y,-z
1/2-x,1/2-y,-z
1/2+x,1/2-y,z
loop_
_atom_site_type_symbol
_atom_site_label
_atom_site_fract_x
_atom_site_fract_y
_atom_site_fract_z
Si Si1 0.789720 0.062209 0.027468
Si Si2 0.816310 0.126879 0.809438
Si Si3 0.657039 0.769359 0.045317
Si Si4 0.062337 0.061477 0.716233
Si Si5 0.000000 0.115120 0.000000
Si Si6 0.710411 0.667576 0.835342
Si Si7 0.437674 0.233229 0.477120
Si Si8 0.077707 0.141817 0.529233
O O1 0.748065 0.113004 0.155496
O O2 0.729577 0.000000 0.132810
O O3 0.758461 0.077573 0.955617
O O4 0.931682 0.054778 0.845411
O O5 0.866354 0.105337 0.636802
O O6 0.931931 0.150502 0.716130
O O7 0.713645 0.173506 0.923335
O O8 0.529111 0.783641 0.267301
O O9 0.750000 0.750000 0.000000
O O10 0.647245 0.718193 0.981109
O O11 0.122944 0.111142 0.568537
O O12 0.129265 0.000000 0.616611
O O13 0.055991 0.076421 0.839092
O O14 0.889791 0.152694 0.109901
O O15 0.832213 0.686687 0.617830
O O16 0.500000 0.235734 0.500000
O O17 0.373629 0.293672 0.539956
#
# Coordination Sequence:
#
# PCOD8078245 Si02
#       8
#     8   8   8   8   4   8   8   8
#     4   9  17  29  46  71 102 134 167 205 254 304
#     4  10  16  27  46  72 106 131 156 200 258 310
#     4  12  17  30  52  76 102 133 170 207 252 313
#     4   9  18  31  49  70  96 133 173 210 251 301
#     4  10  21  36  50  68 106 138 171 212 248 296
#     4  11  21  34  51  77 103 139 173 208 255 301
#     4  12  18  28  52  79 104 133 166 203 256 312
#     4  10  16  27  46  75 103 128 159 204 254 311
#
# _framework density 16.938233
#
# number of rings (size 3 to 8) (size 9 to 14) (size 15 to 20)
#    0.000    1.600    6.667    1.800    0.000    1.067 
#    0.000    5.333    0.000    3.600    0.000    0.000 
#    0.000    1.067    0.000    0.000    0.000    0.000 
#
# Total GULP energy -371693.426913 kJ/mol
# GULP energy per Si atom -12389.780897 kJ/mol
# Density = 1.689968 g / cm^3
# Si number density = 16.938233 Si / 1000 Ang^3
#
#
#
# Elastic Constant Matrix: (Units=GPa)
#
#
# Indices 1 2 3 4 5 6 
#
# 1 70.3905 45.3535 29.9297 -0.0011 18.1832 0.0010
# 2 45.3535 120.7984 46.5230 -0.0005 9.0318 0.0007
# 3 29.9297 46.5230 99.6742 0.0003 12.2112 0.0012
# 4 -0.0011 -0.0005 0.0003 19.8152 0.0006 7.9834
# 5 18.1832 9.0318 12.2112 0.0006 20.9580 -0.0012
# 6 0.0010 0.0007 0.0012 7.9834 -0.0012 -10.1448
#
#
#
# Elastic Compliance Matrix: (Units=1/GPa)
#
#
# Indices 1 2 3 4 5 6 
#
# 1 0.023754 -0.006968 -0.001856 0.000000 -0.016525 0.000004
# 2 -0.006968 0.012195 -0.003981 0.000000 0.003109 -0.000001
# 3 -0.001856 -0.003981 0.012966 -0.000001 -0.004229 0.000001
# 4 0.000000 0.000000 -0.000001 0.038318 0.000001 0.030154
# 5 -0.016525 0.003109 -0.004229 0.000001 0.063175 -0.000009
# 6 0.000004 -0.000001 0.000001 0.030154 -0.000009 -0.074843
#
#
# Mechanical properties :
#
#
# Convention : Reuss Voigt Hill
#
# Bulk Modulus (GPa) = 42.90795 59.38618 51.14706
# Shear Modulus (GPa) = 45.89587 17.39615 31.64601
#
# Velocity S-wave (km/s) = 5.21103 3.20821 4.32709
# Velocity P-wave (km/s) = 7.84815 6.99000 7.43147
#
# Compressibility (1/GPa) = 0.02330571
#
# Stress axis : x y z
#
# Youngs Moduli (GPa) = 42.09845 82.00101 77.12470
#
# Poissons Ratio (x) = 0.57139 0.14313
# Poissons Ratio (y) = 0.29334 0.30700
# Poissons Ratio (z) = 0.07813 0.32641
#
# Static dielectric constant tensor:
#      x y z
#    x 2.875130 0.000000 0.132390 
#    y 0.000000 3.776860 0.000000 
#    z 0.132390 0.000000 3.330140 
# 
# 
# High freq. dielectric constant tensor:
#      x y z
#    x 1.611260 0.000000 0.034980 
#    y 0.000000 1.654070 0.000000 
#    z 0.034980 0.000000 1.636230 
# 
# From -- ./inp_files/241746.got.cif
#   From: 2010.06.25/outbox.cif.g09.slc.cpg/sg12_121_cif.got.tgz:241746.got - 2010.06.28 00:19:55.
