data_PCOD8078824
_publ_section_title
;
Structure prediction by ZEFSAII (Michael W. Deem and Ramdas Pophale) SiO2 
 PCOD8078824
Probable space group: C 2/M
;
_chemical_formula_sum "Si O2"
_cell_formula_units_Z 56
_cell_length_a 28.292511
_cell_length_b 9.041661
_cell_length_c 28.634173
_cell_angle_alpha 90.000000
_cell_angle_beta 28.464385
_cell_angle_gamma 90.000000
_cell_volume 3491.159507
_symmetry_space_group_name_H-M "C 2/M"
_symmetry_group_IT_number 12
_symmetry_cell_setting 'monoclinic'
loop_
_space_group_symop_operation_xyz
x,y,z
-x,y,-z
-x,-y,-z
x,-y,z
1/2+x,1/2+y,z
1/2-x,1/2+y,-z
1/2-x,1/2-y,-z
1/2+x,1/2-y,z
loop_
_atom_site_type_symbol
_atom_site_label
_atom_site_fract_x
_atom_site_fract_y
_atom_site_fract_z
Si Si1 0.825134 0.828990 0.468825
Si Si2 0.651622 0.173819 0.067767
Si Si3 0.967171 0.168101 0.266735
Si Si4 0.858325 0.326663 0.208592
Si Si5 0.617176 0.667021 0.904593
Si Si6 0.087713 0.671611 0.020747
Si Si7 0.220086 0.173624 0.635438
O O1 0.750000 0.750000 0.500000
O O2 0.933041 0.814728 0.350632
O O3 0.816232 0.747194 0.526590
O O4 0.795189 0.000000 0.500590
O O5 0.559021 0.224200 0.179341
O O6 0.635073 0.220001 0.028500
O O7 0.662690 0.000000 0.063547
O O8 0.750000 0.250000 0.000000
O O9 0.878091 0.211038 0.309142
O O10 0.000667 0.000000 0.227746
O O11 0.835984 0.500000 0.228459
O O12 0.831982 0.262362 0.180470
O O13 0.788174 0.245215 0.306492
O O14 0.971504 0.290598 0.123571
O O15 0.657698 0.500000 0.867404
O O16 0.500000 0.672324 0.000000
O O17 0.643648 0.737135 0.931752
O O18 0.103778 0.500000 0.995799
O O19 0.238123 0.000000 0.624418
#
# Coordination Sequence:
#
# PCOD8078824 Si02
#       7
#     8   8   8   8   8   8   8
#     4   9  17  28  42  62  86 115 148 181 220 267
#     4  11  22  34  48  66  87 116 155 194 230 267
#     4   9  18  31  45  61  85 116 149 187 226 264
#     4  10  17  27  43  63  89 119 150 182 218 265
#     4   9  17  27  41  62  85 113 146 180 220 266
#     4   9  18  31  44  60  83 115 150 185 225 266
#     4  10  18  27  42  65  91 119 150 183 219 265
#
# _framework density 16.040517000000001
#
# number of rings (size 3 to 8) (size 9 to 14) (size 15 to 20)
#    0.000    2.429    1.429    3.000    0.000    6.286 
#    0.000    0.000    0.000    0.000    0.000    0.000 
#    0.000    1.143    0.000   12.000    0.000    5.714 
#
# Total GULP energy -347145.467330 kJ/mol
# GULP energy per Si atom -12398.052405 kJ/mol
# Density = 1.600401 g / cm^3
# Si number density = 16.040517 Si / 1000 Ang^3
#
#
#
# Elastic Constant Matrix: (Units=GPa)
#
#
# Indices 1 2 3 4 5 6 
#
# 1 68.9496 46.1921 50.1949 -0.0064 22.4926 0.0061
# 2 46.1921 108.4296 58.1012 -0.0069 23.2419 0.0133
# 3 50.1949 58.1012 86.0071 -0.0030 31.5496 0.0095
# 4 -0.0064 -0.0069 -0.0030 30.3227 0.0011 8.9999
# 5 22.4926 23.2419 31.5496 0.0011 29.9978 -0.0032
# 6 0.0061 0.0133 0.0095 8.9999 -0.0032 24.4367
#
#
#
# Elastic Compliance Matrix: (Units=1/GPa)
#
#
# Indices 1 2 3 4 5 6 
#
# 1 0.027238 -0.004682 -0.010701 0.000005 -0.005541 -0.000003
# 2 -0.004682 0.015302 -0.007397 0.000003 -0.000565 -0.000006
# 3 -0.010701 -0.007397 0.029019 0.000002 -0.016766 -0.000007
# 4 0.000005 0.000003 0.000002 0.037026 -0.000011 -0.013636
# 5 -0.005541 -0.000565 -0.016766 -0.000011 0.055561 0.000019
# 6 -0.000003 -0.000006 -0.000007 -0.013636 0.000019 0.045944
#
#
# Mechanical properties :
#
#
# Convention : Reuss Voigt Hill
#
# Bulk Modulus (GPa) = 38.46309 63.59583 51.02946
# Shear Modulus (GPa) = 18.91666 24.21132 21.56399
#
# Velocity S-wave (km/s) = 3.43783 3.88930 3.67051
# Velocity P-wave (km/s) = 6.30785 7.73963 7.06013
#
# Compressibility (1/GPa) = 0.02599895
#
# Stress axis : x y z
#
# Youngs Moduli (GPa) = 36.71392 65.35049 34.45965
#
# Poissons Ratio (x) = 0.30595 0.36875
# Poissons Ratio (y) = 0.17189 0.25491
# Poissons Ratio (z) = 0.39287 0.48343
#
# Static dielectric constant tensor:
#      x y z
#    x 2.843080 -0.000010 0.406710 
#    y -0.000010 3.209980 0.000040 
#    z 0.406710 0.000040 3.041170 
# 
# 
# High freq. dielectric constant tensor:
#      x y z
#    x 1.574960 0.000000 0.045900 
#    y 0.000000 1.634150 0.000000 
#    z 0.045900 0.000000 1.597220 
# 
# From -- ./inp_files/237347.got.cif
#   From: 2010.06.25/outbox.cif.g09.slc.cpg/sg12_119_cif.got.tgz:237347.got - 2010.06.28 00:19:55.
