data_PCOD8078025
_publ_section_title
;
Structure prediction by ZEFSAII (Michael W. Deem and Ramdas Pophale) SiO2 
 PCOD8078025
Probable space group: P 21/M
;
_chemical_formula_sum "Si O2"
_cell_formula_units_Z 20
_cell_length_a 12.000000
_cell_length_b 9.000000
_cell_length_c 18.000000
_cell_angle_alpha 90.000000
_cell_angle_beta 150.000000
_cell_angle_gamma 90.000000
_cell_volume 972.000000
_symmetry_space_group_name_H-M "P 21/M"
_symmetry_group_IT_number 11
_symmetry_cell_setting 'monoclinic'
loop_
_space_group_symop_operation_xyz
x,y,z
-x,1/2+y,-z
-x,-y,-z
x,1/2-y,z
loop_
_atom_site_type_symbol
_atom_site_label
_atom_site_fract_x
_atom_site_fract_y
_atom_site_fract_z
Si Si1 0.118670 0.075848 0.138040
Si Si2 0.629215 0.424664 0.395029
Si Si3 0.177495 0.070082 0.915797
Si Si4 0.950260 0.069680 0.308130
Si Si5 0.623094 0.929551 0.235329
O O1 0.052058 0.250000 0.103062
O O2 0.383405 0.056835 0.286341
O O3 0.039367 0.988649 0.165568
O O4 0.000000 0.000000 0.000000
O O5 0.679489 0.250000 0.408198
O O6 0.664301 0.528240 0.343975
O O7 0.803815 0.495901 0.554116
O O8 0.179565 0.250000 0.912503
O O9 0.184116 0.993112 0.839631
O O10 0.394274 0.010344 0.082448
O O11 0.955827 0.250000 0.311801
O O12 0.824805 0.003837 0.307030
O O13 0.614145 0.750000 0.219767
#
# Coordination Sequence:
#
# PCOD8078025 Si02
#       5
#     4   4   4   4   4
#     4  11  23  41  68  97 129 167 215 265 318 381
#     4  11  24  43  67  97 131 170 215 264 319 380
#     4  12  25  43  67  96 131 170 216 267 321 382
#     4  12  26  44  65  94 132 171 215 266 325 384
#     4  12  24  42  68  96 130 171 217 264 319 384
#
# _framework density 20.576132000000001
#
# number of rings (size 3 to 8) (size 9 to 14) (size 15 to 20)
#    0.000    0.400    2.000    7.800    0.000    3.200 
#    0.000    0.000    0.000    0.000    0.000    0.000 
#    0.000    0.000    0.000    0.000    0.000    0.000 
#
# Total GULP energy -248043.882520 kJ/mol
# GULP energy per Si atom -12402.194126 kJ/mol
# Density = 2.052930 g / cm^3
# Si number density = 20.576132 Si / 1000 Ang^3
#
#
#
# Elastic Constant Matrix: (Units=GPa)
#
#
# Indices 1 2 3 4 5 6 
#
# 1 56.3124 39.2419 33.1696 0.0000 18.1390 0.0000
# 2 39.2419 226.2070 33.1406 0.0000 14.5056 0.0000
# 3 33.1696 33.1406 42.0217 0.0000 6.4908 0.0000
# 4 0.0000 0.0000 0.0000 41.1267 0.0000 -4.9965
# 5 18.1390 14.5056 6.4908 0.0000 33.8295 0.0000
# 6 0.0000 0.0000 0.0000 -4.9965 0.0000 42.7537
#
#
#
# Elastic Compliance Matrix: (Units=1/GPa)
#
#
# Indices 1 2 3 4 5 6 
#
# 1 0.040774 -0.001934 -0.028248 0.000000 -0.015613 0.000000
# 2 -0.001934 0.005158 -0.002432 0.000000 -0.000708 0.000000
# 3 -0.028248 -0.002432 0.046902 0.000000 0.007190 0.000000
# 4 0.000000 0.000000 0.000000 0.024665 0.000000 0.002883
# 5 -0.015613 -0.000708 0.007190 0.000000 0.036856 0.000000
# 6 0.000000 0.000000 0.000000 0.002883 0.000000 0.023727
#
#
# Mechanical properties :
#
#
# Convention : Reuss Voigt Hill
#
# Bulk Modulus (GPa) = 36.22344 59.51614 47.86979
# Shear Modulus (GPa) = 19.80112 38.14123 28.97118
#
# Velocity S-wave (km/s) = 3.10552 4.31009 3.75640
# Velocity P-wave (km/s) = 5.52284 7.33190 6.49071
#
# Compressibility (1/GPa) = 0.02760644
#
# Stress axis : x y z
#
# Youngs Moduli (GPa) = 24.52562 193.87718 21.32101
#
# Poissons Ratio (x) = 0.37489 0.60227
# Poissons Ratio (y) = 0.04742 0.05186
# Poissons Ratio (z) = 0.69280 0.47153
#
# Static dielectric constant tensor:
#      x y z
#    x 3.949480 0.000000 0.127770 
#    y 0.000000 4.269290 0.000000 
#    z 0.127770 0.000000 3.855240 
# 
# 
# High freq. dielectric constant tensor:
#      x y z
#    x 1.816650 0.000000 0.009170 
#    y 0.000000 1.848120 0.000000 
#    z 0.009170 0.000000 1.822550 
# 
# From -- ./inp_files/30640.got.cif
#   From: 2010.06.25/outbox.ucp.g09.slc.cvg/sg11_16_cif.got.tgz:30640.got - 2010.06.28 13:43:20.
