data_PCOD8078477
_publ_section_title
;
Structure prediction by ZEFSAII (Michael W. Deem and Ramdas Pophale) SiO2 
 PCOD8078477
Probable space group: C 2/M
;
_chemical_formula_sum "Si O2"
_cell_formula_units_Z 56
_cell_length_a 19.479585
_cell_length_b 9.195285
_cell_length_c 21.150794
_cell_angle_alpha 90.000000
_cell_angle_beta 58.561459
_cell_angle_gamma 90.000000
_cell_volume 3232.380567
_symmetry_space_group_name_H-M "C 2/M"
_symmetry_group_IT_number 12
_symmetry_cell_setting 'monoclinic'
loop_
_space_group_symop_operation_xyz
x,y,z
-x,y,-z
-x,-y,-z
x,-y,z
1/2+x,1/2+y,z
1/2-x,1/2+y,-z
1/2-x,1/2-y,-z
1/2+x,1/2-y,z
loop_
_atom_site_type_symbol
_atom_site_label
_atom_site_fract_x
_atom_site_fract_y
_atom_site_fract_z
Si Si1 0.782838 0.164766 0.817112
Si Si2 0.627279 0.328087 0.928360
Si Si3 0.865609 0.832377 0.655767
Si Si4 0.039200 0.829215 0.220587
Si Si5 0.013365 0.827414 0.092396
Si Si6 0.515834 0.828418 0.636700
Si Si7 0.916185 0.838677 0.502497
O O1 0.716090 0.265613 0.879725
O O2 0.787839 0.189014 0.738186
O O3 0.868551 0.204853 0.806434
O O4 0.759288 0.000000 0.844353
O O5 0.634563 0.500000 0.924726
O O6 0.571240 0.275159 0.896974
O O7 0.587230 0.272752 0.013067
O O8 0.931876 0.717903 0.646370
O O9 0.847990 0.804059 0.589348
O O10 0.897509 0.000000 0.649578
O O11 0.022675 0.765957 0.158575
O O12 0.978455 0.745228 0.296931
O O13 0.020886 0.000000 0.234399
O O14 0.015983 0.000000 0.092375
O O15 0.586653 0.772121 0.555300
O O16 0.522761 0.000000 0.640248
O O17 0.000000 0.828711 0.500000
O O18 0.903085 0.000000 0.481075
#
# Coordination Sequence:
#
# PCOD8078477 Si02
#       7
#     8   8   8   8   8   8   8
#     4   9  17  28  43  66  93 118 144 177 218 260
#     4   9  17  31  50  69  87 110 145 186 223 259
#     4   8  15  27  40  55  82 120 154 177 204 256
#     4   9  17  31  47  61  85 122 155 178 208 261
#     4   8  16  32  51  66  83 114 153 184 211 256
#     4  10  17  23  35  60  90 113 139 182 228 258
#     4   8  13  23  38  54  77 115 154 178 204 253
#
# _framework density 17.324691999999999
#
# number of rings (size 3 to 8) (size 9 to 14) (size 15 to 20)
#    0.000    3.286    0.000    3.857    0.000    5.429 
#    0.000    2.857    0.000    0.000    0.000    1.000 
#    0.000    0.000    0.000    0.000    0.000    0.000 
#
# Total GULP energy -346880.566112 kJ/mol
# GULP energy per Si atom -12388.591647 kJ/mol
# Density = 1.728526 g / cm^3
# Si number density = 17.324692 Si / 1000 Ang^3
#
#
#
# Elastic Constant Matrix: (Units=GPa)
#
#
# Indices 1 2 3 4 5 6 
#
# 1 26.7174 15.5399 31.6971 0.0000 13.5503 0.0000
# 2 15.5399 63.0591 44.3222 0.0000 11.6664 0.0000
# 3 31.6971 44.3222 140.2633 0.0000 32.5555 0.0000
# 4 0.0000 0.0000 0.0000 25.0318 0.0000 -6.4945
# 5 13.5503 11.6664 32.5555 0.0000 13.4376 0.0000
# 6 0.0000 0.0000 0.0000 -6.4945 0.0000 12.0589
#
#
#
# Elastic Compliance Matrix: (Units=1/GPa)
#
#
# Indices 1 2 3 4 5 6 
#
# 1 0.078787 -0.006583 0.003174 0.000000 -0.081421 0.000000
# 2 -0.006583 0.021071 -0.005633 0.000000 0.001991 0.000000
# 3 0.003174 -0.005633 0.017821 0.000000 -0.041485 0.000000
# 4 0.000000 0.000000 0.000000 0.046438 0.000000 0.025010
# 5 -0.081421 0.001991 -0.041485 0.000000 0.255298 0.000001
# 6 0.000000 0.000000 0.000000 0.025010 0.000001 0.096396
#
#
# Mechanical properties :
#
#
# Convention : Reuss Voigt Hill
#
# Bulk Modulus (GPa) = 10.04067 45.90647 27.97357
# Shear Modulus (GPa) = 8.81689 19.33770 14.07729
#
# Velocity S-wave (km/s) = 2.25837 3.34457 2.85363
# Velocity P-wave (km/s) = 3.55085 6.43973 5.19993
#
# Compressibility (1/GPa) = 0.09959493
#
# Stress axis : x y z
#
# Youngs Moduli (GPa) = 12.69247 47.45816 56.11389
#
# Poissons Ratio (x) = 0.31241 -0.17809
# Poissons Ratio (y) = 0.08355 0.31608
# Poissons Ratio (z) = -0.04028 0.26732
#
# Static dielectric constant tensor:
#      x y z
#    x 2.744710 0.000000 0.137210 
#    y 0.000000 2.940910 0.000000 
#    z 0.137210 0.000000 3.951360 
# 
# 
# High freq. dielectric constant tensor:
#      x y z
#    x 1.601790 0.000000 0.004160 
#    y 0.000000 1.646440 0.000000 
#    z 0.004160 0.000000 1.696790 
# 
# From -- ./inp_files/287416.got.cif
#   From: 2010.06.25/outbox.cif.g09.slc.cpg/sg12_144_cif.got.tgz:287416.got - 2010.06.28 00:19:55.
