data_PCOD8078891
_publ_section_title
;
Structure prediction by ZEFSAII (Michael W. Deem and Ramdas Pophale) SiO2 
 PCOD8078891
Probable space group: C 2/M
;
_chemical_formula_sum "Si O2"
_cell_formula_units_Z 64
_cell_length_a 30.157006
_cell_length_b 9.258630
_cell_length_c 15.009997
_cell_angle_alpha 90.000000
_cell_angle_beta 79.719900
_cell_angle_gamma 90.000000
_cell_volume 4123.702234
_symmetry_space_group_name_H-M "C 2/M"
_symmetry_group_IT_number 12
_symmetry_cell_setting 'monoclinic'
loop_
_space_group_symop_operation_xyz
x,y,z
-x,y,-z
-x,-y,-z
x,-y,z
1/2+x,1/2+y,z
1/2-x,1/2+y,-z
1/2-x,1/2-y,-z
1/2+x,1/2-y,z
loop_
_atom_site_type_symbol
_atom_site_label
_atom_site_fract_x
_atom_site_fract_y
_atom_site_fract_z
Si Si1 0.191314 0.332994 0.583317
Si Si2 0.540739 0.829777 0.875990
Si Si3 0.791463 0.332559 0.807608
Si Si4 0.557947 0.828701 0.069436
Si Si5 0.645875 0.670640 0.081306
Si Si6 0.811969 0.832311 0.121903
Si Si7 0.871212 0.669011 0.243074
Si Si8 0.723157 0.167413 0.385409
O O1 0.203474 0.500000 0.589402
O O2 0.143882 0.297856 0.649535
O O3 0.230079 0.249140 0.620938
O O4 0.189262 0.291078 0.479106
O O5 0.490151 0.776160 0.871616
O O6 0.577267 0.775858 0.789696
O O7 0.537178 0.000000 0.881476
O O8 0.557946 0.778190 0.966467
O O9 0.802661 0.500000 0.823107
O O10 0.824685 0.229579 0.848492
O O11 0.740727 0.295854 0.854862
O O12 0.799363 0.293975 0.700638
O O13 0.596922 0.743348 0.106287
O O14 0.565836 0.000000 0.077173
O O15 0.640817 0.500000 0.092673
O O16 0.669943 0.715439 0.980865
O O17 0.837369 0.744223 0.187973
O O18 0.820941 0.000000 0.137029
O O19 0.868860 0.500000 0.222229
O O20 0.735976 0.000000 0.382614
#
# Coordination Sequence:
#
# PCOD8078891 Si02
#       8
#     8   8   8   8   8   8   8   8
#     4   9  17  27  44  69  92 114 143 182 224 259
#     4   8  15  27  46  68  88 115 148 181 215 263
#     4  10  20  33  47  60  84 125 161 182 211 260
#     4   9  16  30  48  64  86 117 152 181 215 267
#     4  11  22  32  44  65  91 116 151 194 227 253
#     4  10  20  32  43  62  91 122 153 182 215 259
#     4  10  17  27  46  70  93 118 147 179 218 261
#     4   9  17  30  45  63  89 119 149 181 217 262
#
# _framework density 15.520035
#
# number of rings (size 3 to 8) (size 9 to 14) (size 15 to 20)
#    0.000    2.500    2.500    1.500    0.000    1.500 
#    0.000    1.875    0.000    0.000    0.000    0.875 
#    0.000    7.000    0.000    0.000    0.000    0.000 
#
# Total GULP energy -396627.755583 kJ/mol
# GULP energy per Si atom -12394.617362 kJ/mol
# Density = 1.548471 g / cm^3
# Si number density = 15.520035 Si / 1000 Ang^3
#
#
#
# Elastic Constant Matrix: (Units=GPa)
#
#
# Indices 1 2 3 4 5 6 
#
# 1 111.3044 37.4562 62.3158 0.0000 -14.1710 0.0000
# 2 37.4562 39.9941 31.9020 0.0000 -0.7874 0.0000
# 3 62.3158 31.9020 104.7535 0.0000 -15.4777 0.0000
# 4 0.0000 0.0000 0.0000 16.7427 0.0000 2.4012
# 5 -14.1710 -0.7874 -15.4777 0.0000 22.0944 0.0000
# 6 0.0000 0.0000 0.0000 2.4012 0.0000 21.9342
#
#
#
# Elastic Compliance Matrix: (Units=1/GPa)
#
#
# Indices 1 2 3 4 5 6 
#
# 1 0.016625 -0.010968 -0.005613 0.000000 0.006340 0.000000
# 2 -0.010968 0.041134 -0.007613 0.000000 -0.010902 0.000000
# 3 -0.005613 -0.007613 0.016321 0.000000 0.007562 0.000000
# 4 0.000000 0.000000 0.000000 0.060680 0.000000 -0.006643
# 5 0.006340 -0.010902 0.007562 0.000000 0.054236 0.000000
# 6 0.000000 0.000000 0.000000 -0.006643 0.000000 0.046318
#
#
# Mechanical properties :
#
#
# Convention : Reuss Voigt Hill
#
# Bulk Modulus (GPa) = 38.92295 57.71113 48.31704
# Shear Modulus (GPa) = 17.10768 20.44613 18.77690
#
# Velocity S-wave (km/s) = 3.32369 3.63354 3.48206
# Velocity P-wave (km/s) = 6.31370 7.40737 6.88229
#
# Compressibility (1/GPa) = 0.02569178
#
# Stress axis : x y z
#
# Youngs Moduli (GPa) = 60.15028 24.31077 61.27045
#
# Poissons Ratio (x) = 0.26664 0.34390
# Poissons Ratio (y) = 0.65973 0.46647
# Poissons Ratio (z) = 0.33761 0.18508
#
# Static dielectric constant tensor:
#      x y z
#    x 3.033970 0.000000 -0.329870 
#    y 0.000000 2.880640 0.000000 
#    z -0.329870 0.000000 3.246370 
# 
# 
# High freq. dielectric constant tensor:
#      x y z
#    x 1.579300 0.000000 -0.017670 
#    y 0.000000 1.586480 0.000000 
#    z -0.017670 0.000000 1.587710 
# 
# From -- ./inp_files/248265.got.cif
#   From: 2010.06.25/outbox.cif.g09.slc.cpg/sg12_125_cif.got.tgz:248265.got - 2010.06.28 00:19:55.
