data_PCOD8078362
_publ_section_title
;
Structure prediction by ZEFSAII (Michael W. Deem and Ramdas Pophale) SiO2 
 PCOD8078362
Probable space group: C 2/M
;
_chemical_formula_sum "Si O2"
_cell_formula_units_Z 32
_cell_length_a 27.862053
_cell_length_b 15.602937
_cell_length_c 12.604853
_cell_angle_alpha 90.000000
_cell_angle_beta 160.161122
_cell_angle_gamma 90.000000
_cell_volume 1859.682199
_symmetry_space_group_name_H-M "C 2/M"
_symmetry_group_IT_number 12
_symmetry_cell_setting 'monoclinic'
loop_
_space_group_symop_operation_xyz
x,y,z
-x,y,-z
-x,-y,-z
x,-y,z
1/2+x,1/2+y,z
1/2-x,1/2+y,-z
1/2-x,1/2-y,-z
1/2+x,1/2-y,z
loop_
_atom_site_type_symbol
_atom_site_label
_atom_site_fract_x
_atom_site_fract_y
_atom_site_fract_z
Si Si1 0.866629 0.221302 0.660417
Si Si2 0.255747 0.833019 0.797995
Si Si3 0.578686 0.177396 0.420933
Si Si4 0.706538 0.000000 0.007611
Si Si5 0.884579 0.500000 0.411396
O O1 0.750000 0.250000 0.500000
O O2 0.800769 0.152142 0.440763
O O3 0.919863 0.304398 0.702929
O O4 0.000000 0.180893 0.000000
O O5 0.176516 0.749573 0.682102
O O6 0.422670 0.815153 0.144902
O O7 0.216620 0.915696 0.786635
O O8 0.645929 0.084078 0.581813
O O9 0.545856 0.000000 0.710871
O O10 0.717410 0.000000 0.903039
#
# Coordination Sequence:
#
# PCOD8078362 Si02
#       5
#     8   8   8   4   4
#     4  10  16  30  51  73 100 134 163 204 248 291
#     4   9  18  32  53  75 102 130 171 201 247 300
#     4   9  18  32  53  76 101 130 169 204 247 301
#     4   9  18  34  53  75 102 133 165 209 250 299
#     4   9  18  34  53  76 102 128 171 211 244 295
#
# _framework density 17.207241
#
# number of rings (size 3 to 8) (size 9 to 14) (size 15 to 20)
#    1.500    1.250    2.500    0.000    0.000    1.000 
#    0.000    3.750    0.000    1.500    0.000    0.000 
#    0.000    0.000    0.000    0.000    0.000    0.000 
#
# Total GULP energy -198215.477617 kJ/mol
# GULP energy per Si atom -12388.467351 kJ/mol
# Density = 1.716808 g / cm^3
# Si number density = 17.207241 Si / 1000 Ang^3
#
#
#
# Elastic Constant Matrix: (Units=GPa)
#
#
# Indices 1 2 3 4 5 6 
#
# 1 41.5090 28.1325 27.1495 0.0000 -4.4079 0.0000
# 2 28.1325 136.8543 56.8065 0.0000 -7.4205 0.0000
# 3 27.1495 56.8065 94.4512 0.0000 -7.3997 0.0000
# 4 0.0000 0.0000 0.0000 28.3436 0.0000 -6.7415
# 5 -4.4079 -7.4205 -7.3997 0.0000 30.9532 0.0000
# 6 0.0000 0.0000 0.0000 -6.7415 0.0000 23.3159
#
#
#
# Elastic Compliance Matrix: (Units=1/GPa)
#
#
# Indices 1 2 3 4 5 6 
#
# 1 0.031033 -0.003510 -0.006654 0.000000 0.001987 0.000000
# 2 -0.003510 0.010163 -0.005046 0.000000 0.000730 0.000000
# 3 -0.006654 -0.005046 0.015659 0.000000 0.001586 0.000000
# 4 0.000000 0.000000 0.000000 0.037887 0.000000 0.010955
# 5 0.001987 0.000730 0.001586 0.000000 0.033144 0.000000
# 6 0.000000 0.000000 0.000000 0.010955 0.000000 0.046056
#
#
# Mechanical properties :
#
#
# Convention : Reuss Voigt Hill
#
# Bulk Modulus (GPa) = 37.82761 55.22126 46.52443
# Shear Modulus (GPa) = 23.45512 27.23763 25.34638
#
# Velocity S-wave (km/s) = 3.69602 3.98290 3.84214
# Velocity P-wave (km/s) = 6.34392 7.30157 6.83953
#
# Compressibility (1/GPa) = 0.02643572
#
# Stress axis : x y z
#
# Youngs Moduli (GPa) = 32.22403 98.39894 63.85991
#
# Poissons Ratio (x) = 0.34535 0.42490
# Poissons Ratio (y) = 0.11309 0.32225
# Poissons Ratio (z) = 0.21441 0.49654
#
# Static dielectric constant tensor:
#      x y z
#    x 2.995170 0.000000 -0.181720 
#    y 0.000000 3.150630 0.000000 
#    z -0.181720 0.000000 3.472330 
# 
# 
# High freq. dielectric constant tensor:
#      x y z
#    x 1.646640 0.000000 -0.006760 
#    y 0.000000 1.643000 0.000000 
#    z -0.006760 0.000000 1.664790 
# 
# From -- ./inp_files/189812.got.cif
#   From: 2010.06.25/outbox.cif.g09.slc.cpg/sg12_95_cif.got.tgz:189812.got - 2010.06.28 00:19:55.
