data_PCOD8078388
_publ_section_title
;
Structure prediction by ZEFSAII (Michael W. Deem and Ramdas Pophale) SiO2 
 PCOD8078388
Probable space group: C 2/M
;
_chemical_formula_sum "Si O2"
_cell_formula_units_Z 40
_cell_length_a 15.391062
_cell_length_b 14.407167
_cell_length_c 11.703577
_cell_angle_alpha 90.000000
_cell_angle_beta 44.438026
_cell_angle_gamma 90.000000
_cell_volume 1816.975417
_symmetry_space_group_name_H-M "C 2/M"
_symmetry_group_IT_number 12
_symmetry_cell_setting 'monoclinic'
loop_
_space_group_symop_operation_xyz
x,y,z
-x,y,-z
-x,-y,-z
x,-y,z
1/2+x,1/2+y,z
1/2-x,1/2+y,-z
1/2-x,1/2-y,-z
1/2+x,1/2-y,z
loop_
_atom_site_type_symbol
_atom_site_label
_atom_site_fract_x
_atom_site_fract_y
_atom_site_fract_z
Si Si1 0.503102 0.103790 0.123105
Si Si2 0.657036 0.894372 0.305537
Si Si3 0.917642 0.698126 0.416318
Si Si4 0.262788 0.358701 0.984334
Si Si5 0.485179 0.398373 0.379555
O O1 0.410808 0.160292 0.293566
O O2 0.448726 0.000000 0.166952
O O3 0.500000 0.150189 0.000000
O O4 0.643539 0.097892 0.035321
O O5 0.687175 0.845354 0.399988
O O6 0.548734 0.834171 0.346658
O O7 0.614664 0.000000 0.368074
O O8 0.771700 0.892669 0.108953
O O9 0.902030 0.809954 0.420828
O O10 0.382191 0.392593 0.805537
O O11 0.250000 0.250000 0.000000
O O12 0.500000 0.391345 0.500000
O O13 0.426538 0.500000 0.402970
#
# Coordination Sequence:
#
# PCOD8078388 Si02
#       5
#     8   8   8   8   8
#     4  10  20  33  53  81 113 144 172 216 277 328
#     4  10  17  27  49  77 103 129 166 226 276 306
#     4  10  16  31  47  76 104 133 170 218 269 313
#     4  11  18  33  53  80 108 137 179 225 268 314
#     4  11  20  31  49  77 108 140 177 219 265 311
#
# _framework density 22.014607999999999
#
# number of rings (size 3 to 8) (size 9 to 14) (size 15 to 20)
#    0.000    1.600    6.000    5.400    0.000    0.000 
#    0.000    0.000    0.000    5.400    0.000    2.800 
#    0.000    0.000    0.000    0.000    0.000    0.000 
#
# Total GULP energy -247771.410002 kJ/mol
# GULP energy per Si atom -12388.570500 kJ/mol
# Density = 2.196450 g / cm^3
# Si number density = 22.014608 Si / 1000 Ang^3
#
#
#
# Elastic Constant Matrix: (Units=GPa)
#
#
# Indices 1 2 3 4 5 6 
#
# 1 16.0264 9.4370 31.3693 0.0000 18.7996 0.0000
# 2 9.4370 186.9180 52.2407 0.0000 22.6154 0.0000
# 3 31.3693 52.2407 225.5248 0.0000 41.1620 0.0000
# 4 0.0000 0.0000 0.0000 37.7771 0.0000 -0.1965
# 5 18.7996 22.6154 41.1620 0.0000 33.9376 0.0000
# 6 0.0000 0.0000 0.0000 -0.1965 0.0000 24.3415
#
#
#
# Elastic Compliance Matrix: (Units=1/GPa)
#
#
# Indices 1 2 3 4 5 6 
#
# 1 0.196674 0.005025 -0.010306 0.000000 -0.099795 0.000000
# 2 0.005025 0.006069 -0.001103 0.000000 -0.005490 0.000000
# 3 -0.010306 -0.001103 0.006353 0.000000 -0.001262 0.000000
# 4 0.000000 0.000000 0.000000 0.026472 0.000000 0.000214
# 5 -0.099795 -0.005490 -0.001262 0.000000 0.089936 0.000000
# 6 0.000000 0.000000 0.000000 0.000214 0.000000 0.041084
#
#
# Mechanical properties :
#
#
# Convention : Reuss Voigt Hill
#
# Bulk Modulus (GPa) = 5.09348 68.28479 36.68914
# Shear Modulus (GPa) = 11.24103 41.57273 26.40688
#
# Velocity S-wave (km/s) = 2.26214 4.35030 3.46716
# Velocity P-wave (km/s) = 3.02353 7.50459 5.72104
#
# Compressibility (1/GPa) = 0.19632936
#
# Stress axis : x y z
#
# Youngs Moduli (GPa) = 5.08455 164.78030 157.39616
#
# Poissons Ratio (x) = -0.82805 1.62214
# Poissons Ratio (y) = -0.02555 0.17355
# Poissons Ratio (z) = 0.05240 0.18170
#
# Static dielectric constant tensor:
#      x y z
#    x 3.390200 0.000000 -0.034850 
#    y 0.000000 4.431460 0.000000 
#    z -0.034850 0.000000 5.715690 
# 
# 
# High freq. dielectric constant tensor:
#      x y z
#    x 1.770130 0.000000 0.024890 
#    y 0.000000 1.887440 0.000000 
#    z 0.024890 0.000000 1.903010 
# 
# From -- ./inp_files/166107.got.cif
#   From: 2010.06.25/outbox.cif.g09.slc.cpg/sg12_84_cif.got.tgz:166107.got - 2010.06.28 00:19:55.
