data_PCOD8078011
_publ_section_title
;
Structure prediction by ZEFSAII (Michael W. Deem and Ramdas Pophale) SiO2 
 PCOD8078011
Probable space group: P 21/M
;
_chemical_formula_sum "Si O2"
_cell_formula_units_Z 32
_cell_length_a 21.000000
_cell_length_b 9.000000
_cell_length_c 27.000000
_cell_angle_alpha 90.000000
_cell_angle_beta 20.000000
_cell_angle_gamma 90.000000
_cell_volume 1745.328791
_symmetry_space_group_name_H-M "P 21/M"
_symmetry_group_IT_number 11
_symmetry_cell_setting 'monoclinic'
loop_
_space_group_symop_operation_xyz
x,y,z
-x,1/2+y,-z
-x,-y,-z
x,1/2-y,z
loop_
_atom_site_type_symbol
_atom_site_label
_atom_site_fract_x
_atom_site_fract_y
_atom_site_fract_z
Si Si1 0.570927 0.924218 0.847680
Si Si2 0.793247 0.070957 0.149263
Si Si3 0.507227 0.419596 0.442867
Si Si4 0.122817 0.573378 0.306502
Si Si5 0.820898 0.570484 0.841007
Si Si6 0.699747 0.919968 0.641864
Si Si7 0.519893 0.071968 0.685233
Si Si8 0.189386 0.424637 0.599445
O O1 0.553002 0.750000 0.875449
O O2 0.642389 0.943420 0.740087
O O3 0.720457 0.005773 0.772715
O O4 0.372583 0.005446 0.997449
O O5 0.805262 0.250000 0.134467
O O6 0.677685 0.025322 0.283238
O O7 0.676075 0.001267 0.189117
O O8 0.000000 0.000000 0.000000
O O9 0.500000 0.500000 0.500000
O O10 0.543783 0.250000 0.428240
O O11 0.306583 0.443600 0.564088
O O12 0.155279 0.750000 0.276706
O O13 0.143320 0.489653 0.239843
O O14 0.917546 0.537702 0.477526
O O15 0.818623 0.750000 0.844091
O O16 0.990176 0.506159 0.751153
O O17 0.668186 0.750000 0.647842
O O18 0.562814 0.026834 0.710471
O O19 0.509045 0.250000 0.687193
O O20 0.695102 0.004447 0.528053
O O21 0.162575 0.250000 0.605791
#
# Coordination Sequence:
#
# PCOD8078011 Si02
#       8
#     4   4   4   4   4   4   4   4
#     4  11  24  41  59  85 120 156 194 244 298 351
#     4  10  21  39  61  88 121 157 197 243 290 346
#     4   9  20  37  60  88 119 152 191 237 286 343
#     4  11  22  39  64  88 115 153 195 245 295 352
#     4  12  24  39  60  88 117 154 199 245 294 349
#     4  10  22  40  62  86 117 157 197 240 295 350
#     4  11  21  35  61  91 118 154 198 243 289 347
#     4  10  20  38  61  86 117 155 198 243 288 345
#
# _framework density 18.334654
#
# number of rings (size 3 to 8) (size 9 to 14) (size 15 to 20)
#    0.000    1.500    1.250    5.250    0.000    4.500 
#    2.250    0.000    0.000    0.000    0.000    0.000 
#    0.000    0.000    0.000    0.000    0.000    0.000 
#
# Total GULP energy -396780.306699 kJ/mol
# GULP energy per Si atom -12399.384584 kJ/mol
# Density = 1.829292 g / cm^3
# Si number density = 18.334654 Si / 1000 Ang^3
#
#
#
# Elastic Constant Matrix: (Units=GPa)
#
#
# Indices 1 2 3 4 5 6 
#
# 1 102.4388 53.1817 59.4631 0.0000 -13.9827 0.0000
# 2 53.1817 155.7989 63.5750 0.0000 -11.9258 0.0000
# 3 59.4631 63.5750 159.0769 0.0000 -21.4637 0.0000
# 4 0.0000 0.0000 0.0000 37.6567 0.0000 -6.9417
# 5 -13.9827 -11.9258 -21.4637 0.0000 38.6327 0.0000
# 6 0.0000 0.0000 0.0000 -6.9417 0.0000 40.2629
#
#
#
# Elastic Compliance Matrix: (Units=1/GPa)
#
#
# Indices 1 2 3 4 5 6 
#
# 1 0.013733 -0.003047 -0.003645 0.000000 0.002005 0.000000
# 2 -0.003047 0.008364 -0.002166 0.000000 0.000275 0.000000
# 3 -0.003645 -0.002166 0.008915 0.000000 0.002965 0.000000
# 4 0.000000 0.000000 0.000000 0.027427 0.000000 0.004729
# 5 0.002005 0.000275 0.002965 0.000000 0.028343 0.000000
# 6 0.000000 0.000000 0.000000 0.004729 0.000000 0.025652
#
#
# Mechanical properties :
#
#
# Convention : Reuss Voigt Hill
#
# Bulk Modulus (GPa) = 75.21948 85.52824 80.37386
# Shear Modulus (GPa) = 37.15184 39.38346 38.26765
#
# Velocity S-wave (km/s) = 4.50635 4.63972 4.57352
# Velocity P-wave (km/s) = 8.25779 8.68633 8.47477
#
# Compressibility (1/GPa) = 0.01329443
#
# Stress axis : x y z
#
# Youngs Moduli (GPa) = 72.81496 119.56427 112.17359
#
# Poissons Ratio (x) = 0.36430 0.40892
# Poissons Ratio (y) = 0.22186 0.24302
# Poissons Ratio (z) = 0.26544 0.25903
#
# Static dielectric constant tensor:
#      x y z
#    x 3.563940 0.000000 -0.249650 
#    y 0.000000 3.717730 0.000000 
#    z -0.249650 0.000000 3.702080 
# 
# 
# High freq. dielectric constant tensor:
#      x y z
#    x 1.720970 0.000000 -0.015420 
#    y 0.000000 1.737360 0.000000 
#    z -0.015420 0.000000 1.726720 
# 
# From -- ./inp_files/72107.got.cif
#   From: 2010.06.25/outbox.ucp.g09.slc.cvg/sg11_37_cif.got.tgz:72107.got - 2010.06.28 13:43:20.
