data_PCOD8078650
_publ_section_title
;
Structure prediction by ZEFSAII (Michael W. Deem and Ramdas Pophale) SiO2 
 PCOD8078650
Probable space group: C 2/M
;
_chemical_formula_sum "Si O2"
_cell_formula_units_Z 56
_cell_length_a 24.259315
_cell_length_b 9.039024
_cell_length_c 25.640980
_cell_angle_alpha 90.000000
_cell_angle_beta 38.572304
_cell_angle_gamma 90.000000
_cell_volume 3505.680784
_symmetry_space_group_name_H-M "C 2/M"
_symmetry_group_IT_number 12
_symmetry_cell_setting 'monoclinic'
loop_
_space_group_symop_operation_xyz
x,y,z
-x,y,-z
-x,-y,-z
x,-y,z
1/2+x,1/2+y,z
1/2-x,1/2+y,-z
1/2-x,1/2-y,-z
1/2+x,1/2-y,z
loop_
_atom_site_type_symbol
_atom_site_label
_atom_site_fract_x
_atom_site_fract_y
_atom_site_fract_z
Si Si1 0.367972 0.670358 0.898322
Si Si2 0.608759 0.828930 0.365364
Si Si3 0.512596 0.329264 0.277716
Si Si4 0.663675 0.324115 0.541184
Si Si5 0.594061 0.172133 0.494438
Si Si6 0.180973 0.825939 0.218200
Si Si7 0.726959 0.669555 0.934575
O O1 0.338997 0.500000 0.906789
O O2 0.465288 0.696862 0.800424
O O3 0.303247 0.785310 0.918461
O O4 0.364397 0.694335 0.964081
O O5 0.508456 0.780854 0.426930
O O6 0.630869 0.797189 0.409276
O O7 0.677224 0.736188 0.279604
O O8 0.621624 0.000000 0.342811
O O9 0.504505 0.500000 0.297653
O O10 0.418810 0.259575 0.363536
O O11 0.593794 0.266751 0.252264
O O12 0.673507 0.500000 0.536698
O O13 0.750000 0.250000 0.500000
O O14 0.650378 0.273873 0.491456
O O15 0.605425 0.000000 0.500572
O O16 0.267009 0.764836 0.123060
O O17 0.188922 0.000000 0.214478
O O18 0.737976 0.500000 0.910089
#
# Coordination Sequence:
#
# PCOD8078650 Si02
#       7
#     8   8   8   8   8   8   8
#     4   8  14  25  38  53  77 108 142 176 211 256
#     4   9  17  29  46  66  89 114 143 180 221 264
#     4   8  15  27  41  57  79 110 146 181 215 253
#     4  11  21  33  47  64  87 117 153 189 224 259
#     4   9  18  32  47  65  88 113 143 183 226 265
#     4  10  17  26  40  60  87 116 147 177 208 255
#     4   9  15  22  35  56  81 110 140 172 212 254
#
# _framework density 15.974073000000001
#
# number of rings (size 3 to 8) (size 9 to 14) (size 15 to 20)
#    0.000    2.857    1.429    3.000    0.000    1.143 
#    0.000    2.143    0.000    0.000    0.000    0.000 
#    0.000    1.143    0.000   13.143    0.000    4.000 
#
# Total GULP energy -346882.710041 kJ/mol
# GULP energy per Si atom -12388.668216 kJ/mol
# Density = 1.593772 g / cm^3
# Si number density = 15.974073 Si / 1000 Ang^3
#
#
#
# Elastic Constant Matrix: (Units=GPa)
#
#
# Indices 1 2 3 4 5 6 
#
# 1 55.8968 28.8464 37.4289 0.0002 8.7076 -0.0005
# 2 28.8464 65.8117 44.0939 0.0001 14.4925 -0.0005
# 3 37.4289 44.0939 126.7004 0.0000 31.2507 -0.0003
# 4 0.0002 0.0001 0.0000 23.9906 -0.0001 6.5629
# 5 8.7076 14.4925 31.2507 -0.0001 21.8077 0.0001
# 6 -0.0005 -0.0005 -0.0003 6.5629 0.0001 19.6423
#
#
#
# Elastic Compliance Matrix: (Units=1/GPa)
#
#
# Indices 1 2 3 4 5 6 
#
# 1 0.025201 -0.008116 -0.005365 0.000000 0.003019 0.000000
# 2 -0.008116 0.022800 -0.004020 0.000000 -0.006150 0.000000
# 3 -0.005365 -0.004020 0.014986 0.000000 -0.016662 0.000000
# 4 0.000000 0.000000 0.000000 0.045876 0.000001 -0.015328
# 5 0.003019 -0.006150 -0.016662 0.000001 0.072614 -0.000001
# 6 0.000000 0.000000 0.000000 -0.015328 -0.000001 0.056032
#
#
# Mechanical properties :
#
#
# Convention : Reuss Voigt Hill
#
# Bulk Modulus (GPa) = 35.73388 52.12749 43.93069
# Shear Modulus (GPa) = 17.74059 22.29075 20.01567
#
# Velocity S-wave (km/s) = 3.33616 3.73960 3.54363
# Velocity P-wave (km/s) = 6.10397 7.16586 6.65613
#
# Compressibility (1/GPa) = 0.02798464
#
# Stress axis : x y z
#
# Youngs Moduli (GPa) = 39.68159 43.85891 66.72847
#
# Poissons Ratio (x) = 0.35598 0.35797
# Poissons Ratio (y) = 0.32207 0.26826
# Poissons Ratio (z) = 0.21288 0.17632
#
# Static dielectric constant tensor:
#      x y z
#    x 2.537970 0.000000 0.257720 
#    y 0.000000 2.948900 0.000000 
#    z 0.257720 0.000000 3.527060 
# 
# 
# High freq. dielectric constant tensor:
#      x y z
#    x 1.541370 0.000000 0.034560 
#    y 0.000000 1.612670 0.000000 
#    z 0.034560 0.000000 1.629930 
# 
# From -- ./inp_files/348453.got.cif
#   From: 2010.06.25/outbox.cif.g09.slc.cpg/sg12_175_cif.got.tgz:348453.got - 2010.06.28 00:19:55.
