data_PCOD8078248
_publ_section_title
;
Structure prediction by ZEFSAII (Michael W. Deem and Ramdas Pophale) SiO2 
 PCOD8078248
Probable space group: C 2/M
;
_chemical_formula_sum "Si O2"
_cell_formula_units_Z 64
_cell_length_a 21.218588
_cell_length_b 23.095542
_cell_length_c 6.218339
_cell_angle_alpha 90.000000
_cell_angle_beta 113.206797
_cell_angle_gamma 90.000000
_cell_volume 2800.763334
_symmetry_space_group_name_H-M "C 2/M"
_symmetry_group_IT_number 12
_symmetry_cell_setting 'monoclinic'
loop_
_space_group_symop_operation_xyz
x,y,z
-x,y,-z
-x,-y,-z
x,-y,z
1/2+x,1/2+y,z
1/2-x,1/2+y,-z
1/2-x,1/2-y,-z
1/2+x,1/2-y,z
loop_
_atom_site_type_symbol
_atom_site_label
_atom_site_fract_x
_atom_site_fract_y
_atom_site_fract_z
Si Si1 0.372942 0.230300 0.485988
Si Si2 0.291220 0.345919 0.360505
Si Si3 0.020982 0.256989 0.801278
Si Si4 0.659630 0.436095 0.972609
Si Si5 0.164109 0.717664 0.076539
Si Si6 0.386764 0.563090 0.625266
Si Si7 0.254734 0.666497 0.799228
Si Si8 0.021613 0.871650 0.761971
O O1 0.346688 0.295345 0.421397
O O2 0.455977 0.232068 0.549950
O O3 0.360883 0.209921 0.713142
O O4 0.325152 0.187576 0.269901
O O5 0.224926 0.330846 0.116064
O O6 0.336983 0.405167 0.376769
O O7 0.261214 0.350829 0.559105
O O8 0.039214 0.190160 0.890533
O O9 0.094971 0.285866 0.829942
O O10 0.000000 0.286263 0.000000
O O11 0.677591 0.500000 0.899643
O O12 0.660403 0.442253 0.231608
O O13 0.718297 0.386389 0.007983
O O14 0.582389 0.417218 0.810678
O O15 0.195353 0.780580 0.083324
O O16 0.407938 0.500000 0.562527
O O17 0.454855 0.598948 0.788025
O O18 0.000000 0.852190 0.500000
#
# Coordination Sequence:
#
# PCOD8078248 Si02
#       8
#     8   8   8   8   8   8   8   8
#     4   8  13  21  40  64  84 103 130 174 213 239
#     4   8  13  23  39  63  85 101 131 176 214 237
#     4  10  16  27  47  66  83 111 146 173 200 246
#     4  10  19  31  47  62  79 110 149 179 200 236
#     4   8  13  21  40  64  84 103 130 174 213 239
#     4  10  19  31  47  62  79 110 149 179 200 236
#     4   8  13  23  39  63  85 101 131 176 214 237
#     4  12  23  31  40  59  90 119 139 170 210 246
#
# _framework density 22.850912000000001
#
# number of rings (size 3 to 8) (size 9 to 14) (size 15 to 20)
#    0.000    2.750    2.500    3.000    0.000    2.000 
#    0.000    0.000    0.000    3.000    0.000    0.875 
#    0.000    7.000    0.000    0.000    0.000    4.125 
#
# Total GULP energy -396571.009197 kJ/mol
# GULP energy per Si atom -12392.844037 kJ/mol
# Density = 2.279890 g / cm^3
# Si number density = 22.850912 Si / 1000 Ang^3
#
#
#
# Elastic Constant Matrix: (Units=GPa)
#
#
# Indices 1 2 3 4 5 6 
#
# 1 152.3130 70.5545 47.5052 0.0000 42.9059 0.0000
# 2 70.5545 119.5744 48.0857 0.0000 32.6641 0.0000
# 3 47.5052 48.0857 146.0202 0.0000 47.8744 0.0000
# 4 0.0000 0.0000 0.0000 25.3116 0.0000 7.5305
# 5 42.9059 32.6641 47.8744 0.0000 39.5886 0.0000
# 6 0.0000 0.0000 0.0000 7.5305 0.0000 31.2651
#
#
#
# Elastic Compliance Matrix: (Units=1/GPa)
#
#
# Indices 1 2 3 4 5 6 
#
# 1 0.010893 -0.004223 0.000953 0.000000 -0.009474 0.000000
# 2 -0.004223 0.012532 -0.001431 0.000000 -0.004033 0.000000
# 3 0.000953 -0.001431 0.011534 0.000000 -0.013800 0.000000
# 4 0.000000 0.000000 0.000000 0.042557 0.000000 -0.010250
# 5 -0.009474 -0.004033 -0.013800 0.000000 0.055544 0.000000
# 6 0.000000 0.000000 0.000000 -0.010250 0.000000 0.034453
#
#
# Mechanical properties :
#
#
# Convention : Reuss Voigt Hill
#
# Bulk Modulus (GPa) = 39.12672 83.35537 61.24104
# Shear Modulus (GPa) = 26.96380 36.01720 31.49050
#
# Velocity S-wave (km/s) = 3.43882 3.97442 3.71628
# Velocity P-wave (km/s) = 5.73821 7.59068 6.72851
#
# Compressibility (1/GPa) = 0.02555798
#
# Stress axis : x y z
#
# Youngs Moduli (GPa) = 91.80194 79.79848 86.69899
#
# Poissons Ratio (x) = 0.33695 -0.08261
# Poissons Ratio (y) = 0.38764 0.12404
# Poissons Ratio (z) = -0.08747 0.11417
#
# Static dielectric constant tensor:
#      x y z
#    x 4.849390 0.000000 -0.222110 
#    y 0.000000 4.157050 0.000000 
#    z -0.222110 0.000000 4.942280 
# 
# 
# High freq. dielectric constant tensor:
#      x y z
#    x 1.941620 0.000000 -0.040700 
#    y 0.000000 1.835190 0.000000 
#    z -0.040700 0.000000 1.967510 
# 
# From -- ./inp_files/106722.got.cif
#   From: 2010.06.25/outbox.cif.g09.slc.cpg/sg12_54_cif.got.tgz:106722.got - 2010.06.28 00:19:55.
