data_PCOD8078670
_publ_section_title
;
Structure prediction by ZEFSAII (Michael W. Deem and Ramdas Pophale) SiO2 
 PCOD8078670
Probable space group: C 2/M
;
_chemical_formula_sum "Si O2"
_cell_formula_units_Z 56
_cell_length_a 29.371285
_cell_length_b 8.856729
_cell_length_c 13.824235
_cell_angle_alpha 90.000000
_cell_angle_beta 104.684100
_cell_angle_gamma 90.000000
_cell_volume 3478.689936
_symmetry_space_group_name_H-M "C 2/M"
_symmetry_group_IT_number 12
_symmetry_cell_setting 'monoclinic'
loop_
_space_group_symop_operation_xyz
x,y,z
-x,y,-z
-x,-y,-z
x,-y,z
1/2+x,1/2+y,z
1/2-x,1/2+y,-z
1/2-x,1/2-y,-z
1/2+x,1/2-y,z
loop_
_atom_site_type_symbol
_atom_site_label
_atom_site_fract_x
_atom_site_fract_y
_atom_site_fract_z
Si Si1 0.359862 0.178138 0.626452
Si Si2 0.262466 0.325955 0.106304
Si Si3 0.800349 0.676868 0.416194
Si Si4 0.215696 0.678080 0.274169
Si Si5 0.649891 0.327525 0.727273
Si Si6 0.045778 0.319947 0.413607
Si Si7 0.451604 0.324368 0.376231
O O1 0.325342 0.242587 0.525268
O O2 0.337504 0.222827 0.719554
O O3 0.413391 0.235301 0.639223
O O4 0.360794 0.000000 0.614803
O O5 0.250932 0.500000 0.086968
O O6 0.229384 0.258259 0.175208
O O7 0.317785 0.298132 0.160562
O O8 0.250000 0.250000 0.000000
O O9 0.790854 0.500000 0.417050
O O10 0.750883 0.760065 0.374727
O O11 0.835119 0.711035 0.346463
O O12 0.222384 0.500000 0.275867
O O13 0.658659 0.500000 0.696471
O O14 0.594262 0.301845 0.717116
O O15 0.042652 0.500000 0.419524
O O16 0.057294 0.253383 0.525150
O O17 0.996251 0.253829 0.348085
O O18 0.462466 0.500000 0.398887
#
# Coordination Sequence:
#
# PCOD8078670 Si02
#       7
#     8   8   8   8   8   8   8
#     4   9  17  28  42  61  88 121 151 177 211 255
#     4   9  18  32  49  67  86 110 140 181 227 268
#     4  10  17  26  41  64  89 115 149 183 211 246
#     4   9  18  32  45  60  86 119 148 174 216 269
#     4   9  18  31  46  63  88 121 150 177 219 266
#     4  10  18  28  42  62  90 121 151 184 216 246
#     4  10  18  29  43  62  87 119 155 184 211 253
#
# _framework density 16.098013999999999
#
# number of rings (size 3 to 8) (size 9 to 14) (size 15 to 20)
#    0.000    2.571    1.429    3.429    0.000    2.857 
#    0.000    2.143    0.000    0.000    0.000    1.000 
#    0.000    8.000    0.000    0.000    0.000    0.000 
#
# Total GULP energy -346901.383611 kJ/mol
# GULP energy per Si atom -12389.335129 kJ/mol
# Density = 1.606137 g / cm^3
# Si number density = 16.098014 Si / 1000 Ang^3
#
#
#
# Elastic Constant Matrix: (Units=GPa)
#
#
# Indices 1 2 3 4 5 6 
#
# 1 158.7788 31.7892 58.6218 0.0000 -4.8257 0.0000
# 2 31.7892 44.4858 21.4332 0.0000 -0.0757 0.0000
# 3 58.6218 21.4332 76.6159 0.0000 1.0988 0.0000
# 4 0.0000 0.0000 0.0000 18.6884 0.0000 4.0667
# 5 -4.8257 -0.0757 1.0988 0.0000 15.7784 0.0000
# 6 0.0000 0.0000 0.0000 4.0667 0.0000 19.3168
#
#
#
# Elastic Compliance Matrix: (Units=1/GPa)
#
#
# Indices 1 2 3 4 5 6 
#
# 1 0.009448 -0.003745 -0.006229 0.000000 0.003305 0.000000
# 2 -0.003745 0.027471 -0.004810 0.000000 -0.000679 0.000000
# 3 -0.006229 -0.004810 0.019210 0.000000 -0.003266 0.000000
# 4 0.000000 0.000000 0.000000 0.056078 0.000000 -0.011806
# 5 0.003305 -0.000679 -0.003266 0.000000 0.064613 0.000000
# 6 0.000000 0.000000 0.000000 -0.011806 0.000000 0.054254
#
#
# Mechanical properties :
#
#
# Convention : Reuss Voigt Hill
#
# Bulk Modulus (GPa) = 37.64707 55.95208 46.79958
# Shear Modulus (GPa) = 18.55316 21.95916 20.25616
#
# Velocity S-wave (km/s) = 3.39855 3.69737 3.55110
# Velocity P-wave (km/s) = 6.23194 7.28423 6.77854
#
# Compressibility (1/GPa) = 0.02656250
#
# Stress axis : x y z
#
# Youngs Moduli (GPa) = 105.84276 36.40154 52.05498
#
# Poissons Ratio (x) = 0.13632 0.32424
# Poissons Ratio (y) = 0.39636 0.25039
# Poissons Ratio (z) = 0.65927 0.17509
#
# Static dielectric constant tensor:
#      x y z
#    x 3.515890 0.000000 -0.046840 
#    y 0.000000 2.974230 0.000000 
#    z -0.046840 0.000000 2.790300 
# 
# 
# High freq. dielectric constant tensor:
#      x y z
#    x 1.629210 0.000000 0.000730 
#    y 0.000000 1.614590 0.000000 
#    z 0.000730 0.000000 1.566510 
# 
# From -- ./inp_files/247896.got.cif
#   From: 2010.06.25/outbox.cif.g09.slc.cpg/sg12_124_cif.got.tgz:247896.got - 2010.06.28 00:19:55.
