data_PCOD8078596
_publ_section_title
;
Structure prediction by ZEFSAII (Michael W. Deem and Ramdas Pophale) SiO2 
 PCOD8078596
Probable space group: C 2/M
;
_chemical_formula_sum "Si O2"
_cell_formula_units_Z 48
_cell_length_a 19.613651
_cell_length_b 8.846722
_cell_length_c 18.819258
_cell_angle_alpha 90.000000
_cell_angle_beta 55.083873
_cell_angle_gamma 90.000000
_cell_volume 2677.640699
_symmetry_space_group_name_H-M "C 2/M"
_symmetry_group_IT_number 12
_symmetry_cell_setting 'monoclinic'
loop_
_space_group_symop_operation_xyz
x,y,z
-x,y,-z
-x,-y,-z
x,-y,z
1/2+x,1/2+y,z
1/2-x,1/2+y,-z
1/2-x,1/2-y,-z
1/2+x,1/2-y,z
loop_
_atom_site_type_symbol
_atom_site_label
_atom_site_fract_x
_atom_site_fract_y
_atom_site_fract_z
Si Si1 0.130625 0.321507 0.916814
Si Si2 0.889110 0.676436 0.593289
Si Si3 0.300519 0.173204 0.783049
Si Si4 0.048230 0.178881 0.570573
Si Si5 0.506127 0.179630 0.108361
Si Si6 0.476503 0.179113 0.742911
O O1 0.130625 0.500000 0.916585
O O2 0.224655 0.267255 0.858815
O O3 0.078336 0.263151 0.879581
O O4 0.085721 0.262810 0.015524
O O5 0.913061 0.500000 0.574823
O O6 0.809336 0.698400 0.692233
O O7 0.876490 0.746110 0.521453
O O8 0.963235 0.769427 0.584859
O O9 0.384286 0.226162 0.772749
O O10 0.282370 0.000000 0.811406
O O11 0.046841 0.241725 0.651888
O O12 0.058506 0.000000 0.564734
O O13 0.510450 0.243545 0.185563
O O14 0.507624 0.000000 0.110275
O O15 0.488703 0.000000 0.729756
#
# Coordination Sequence:
#
# PCOD8078596 Si02
#       6
#     8   8   8   8   8   8
#     4   9  17  31  51  70  89 117 155 195 230 268
#     4   9  16  28  44  62  90 128 159 179 216 278
#     4   9  18  29  44  69  96 121 150 185 226 272
#     4  10  17  25  41  68  96 117 148 194 233 263
#     4   8  16  32  51  68  87 120 161 190 221 274
#     4   9  17  31  48  65  92 127 157 184 222 277
#
# _framework density 17.926227999999998
#
# number of rings (size 3 to 8) (size 9 to 14) (size 15 to 20)
#    0.000    3.000    0.000    5.000    0.000    4.000 
#    0.000    3.333    0.000    1.000    0.000    0.000 
#    0.000    0.000    0.000    0.000    0.000    0.000 
#
# Total GULP energy -297369.761104 kJ/mol
# GULP energy per Si atom -12390.406713 kJ/mol
# Density = 1.788543 g / cm^3
# Si number density = 17.926228 Si / 1000 Ang^3
#
#
#
# Elastic Constant Matrix: (Units=GPa)
#
#
# Indices 1 2 3 4 5 6 
#
# 1 48.8806 14.2189 36.6318 0.0000 25.2547 0.0001
# 2 14.2189 45.3326 25.1660 0.0006 10.1897 -0.0002
# 3 36.6318 25.1660 94.0163 -0.0002 42.2842 0.0001
# 4 0.0000 0.0006 -0.0002 28.5771 0.0000 -4.7703
# 5 25.2547 10.1897 42.2842 0.0000 27.9864 0.0000
# 6 0.0001 -0.0002 0.0001 -4.7703 0.0000 12.0289
#
#
#
# Elastic Compliance Matrix: (Units=1/GPa)
#
#
# Indices 1 2 3 4 5 6 
#
# 1 0.039648 -0.005690 0.003852 0.000000 -0.039526 0.000000
# 2 -0.005690 0.026822 -0.008986 -0.000001 0.008945 0.000000
# 3 0.003852 -0.008986 0.036299 0.000000 -0.055047 0.000000
# 4 0.000000 -0.000001 0.000000 0.037474 -0.000001 0.014861
# 5 -0.039526 0.008945 -0.055047 -0.000001 0.151313 0.000000
# 6 0.000000 0.000000 0.000000 0.014861 0.000000 0.089026
#
#
# Mechanical properties :
#
#
# Convention : Reuss Voigt Hill
#
# Bulk Modulus (GPa) = 12.32726 37.80699 25.06713
# Shear Modulus (GPa) = 11.64771 21.19934 16.42353
#
# Velocity S-wave (km/s) = 2.55180 3.44261 3.03012
# Velocity P-wave (km/s) = 3.94637 6.07768 5.12406
#
# Compressibility (1/GPa) = 0.08112101
#
# Stress axis : x y z
#
# Youngs Moduli (GPa) = 25.22187 37.28347 27.54923
#
# Poissons Ratio (x) = 0.21213 -0.10612
# Poissons Ratio (y) = 0.14351 0.24755
# Poissons Ratio (z) = -0.09715 0.33502
#
# Static dielectric constant tensor:
#      x y z
#    x 3.099320 0.000000 0.351340 
#    y 0.000000 3.047680 0.000000 
#    z 0.351340 0.000000 4.032250 
# 
# 
# High freq. dielectric constant tensor:
#      x y z
#    x 1.644750 0.000000 0.018540 
#    y 0.000000 1.674960 0.000000 
#    z 0.018540 0.000000 1.714420 
# 
# From -- ./inp_files/280061.got.cif
#   From: 2010.06.25/outbox.cif.g09.slc.cpg/sg12_141_cif.got.tgz:280061.got - 2010.06.28 00:19:55.
