data_PCOD8078600
_publ_section_title
;
Structure prediction by ZEFSAII (Michael W. Deem and Ramdas Pophale) SiO2 
 PCOD8078600
Probable space group: C 2/M
;
_chemical_formula_sum "Si O2"
_cell_formula_units_Z 40
_cell_length_a 31.889477
_cell_length_b 13.340618
_cell_length_c 9.711215
_cell_angle_alpha 90.000000
_cell_angle_beta 142.338785
_cell_angle_gamma 90.000000
_cell_volume 2524.247537
_symmetry_space_group_name_H-M "C 2/M"
_symmetry_group_IT_number 12
_symmetry_cell_setting 'monoclinic'
loop_
_space_group_symop_operation_xyz
x,y,z
-x,y,-z
-x,-y,-z
x,-y,z
1/2+x,1/2+y,z
1/2-x,1/2+y,-z
1/2-x,1/2-y,-z
1/2+x,1/2-y,z
loop_
_atom_site_type_symbol
_atom_site_label
_atom_site_fract_x
_atom_site_fract_y
_atom_site_fract_z
Si Si1 0.355119 0.882426 0.080562
Si Si2 0.656049 0.803450 0.369314
Si Si3 0.613143 0.118790 0.537838
Si Si4 0.739869 0.385424 0.571573
Si Si5 0.044635 0.618656 0.891837
O O1 0.358797 0.837339 0.243922
O O2 0.418695 0.843861 0.153125
O O3 0.364008 0.000000 0.117984
O O4 0.283539 0.855342 0.820924
O O5 0.657698 0.829823 0.534668
O O6 0.673647 0.686043 0.394147
O O7 0.712667 0.871275 0.439370
O O8 0.580453 0.826130 0.113770
O O9 0.533988 0.150628 0.318164
O O10 0.621442 0.000000 0.548098
O O11 0.714545 0.500000 0.511610
O O12 0.054043 0.500000 0.937849
#
# Coordination Sequence:
#
# PCOD8078600 Si02
#       5
#     8   8   8   8   8
#     4   8  15  27  42  61  86 113 134 159 206 257
#     4  10  18  27  44  64  83 109 141 171 204 243
#     4  10  17  25  42  67  89 107 133 171 209 247
#     4   9  18  32  44  57  84 115 140 169 204 243
#     4   9  16  27  42  63  91 113 130 163 212 256
#
# _framework density 15.846306999999999
#
# number of rings (size 3 to 8) (size 9 to 14) (size 15 to 20)
#    0.000    2.800    0.000    4.200    0.000    4.800 
#    0.000    0.000    0.000    2.400    0.000    0.000 
#    0.000   16.000    0.000    0.000    0.000    0.000 
#
# Total GULP energy -247943.451543 kJ/mol
# GULP energy per Si atom -12397.172577 kJ/mol
# Density = 1.581024 g / cm^3
# Si number density = 15.846307 Si / 1000 Ang^3
#
#
#
# Elastic Constant Matrix: (Units=GPa)
#
#
# Indices 1 2 3 4 5 6 
#
# 1 69.0636 20.6821 39.3515 0.0000 -26.0992 0.0000
# 2 20.6821 55.8443 34.6356 0.0000 2.9470 0.0000
# 3 39.3515 34.6356 72.6403 0.0000 -17.3397 0.0000
# 4 0.0000 0.0000 0.0000 12.0406 0.0000 2.1651
# 5 -26.0992 2.9470 -17.3397 0.0000 27.7397 0.0000
# 6 0.0000 0.0000 0.0000 2.1651 0.0000 17.2101
#
#
#
# Elastic Compliance Matrix: (Units=1/GPa)
#
#
# Indices 1 2 3 4 5 6 
#
# 1 0.030246 -0.008769 -0.006099 0.000000 0.025576 0.000000
# 2 -0.008769 0.031953 -0.015592 0.000000 -0.021391 0.000000
# 3 -0.006099 -0.015592 0.027657 0.000000 0.013206 0.000000
# 4 0.000000 0.000000 0.000000 0.084974 0.000000 -0.010690
# 5 0.025576 -0.021391 0.013206 0.000000 0.070641 0.000000
# 6 0.000000 0.000000 0.000000 -0.010690 0.000000 0.059450
#
#
# Mechanical properties :
#
#
# Convention : Reuss Voigt Hill
#
# Bulk Modulus (GPa) = 34.55664 42.98740 38.77202
# Shear Modulus (GPa) = 13.31608 18.25667 15.78637
#
# Velocity S-wave (km/s) = 2.90198 3.39795 3.15972
# Velocity P-wave (km/s) = 5.75182 6.52544 6.15080
#
# Compressibility (1/GPa) = 0.02893800
#
# Stress axis : x y z
#
# Youngs Moduli (GPa) = 33.06256 31.29554 36.15716
#
# Poissons Ratio (x) = 0.27442 0.22052
# Poissons Ratio (y) = 0.28992 0.56375
# Poissons Ratio (z) = 0.20164 0.48795
#
# Static dielectric constant tensor:
#      x y z
#    x 3.072880 0.000000 -0.266560 
#    y 0.000000 2.668090 0.000000 
#    z -0.266560 0.000000 3.164340 
# 
# 
# High freq. dielectric constant tensor:
#      x y z
#    x 1.611110 0.000000 -0.016180 
#    y 0.000000 1.561970 0.000000 
#    z -0.016180 0.000000 1.606420 
# 
# From -- ./inp_files/72328.got.cif
#   From: 2010.06.25/outbox.cif.g09.slc.cpg/sg12_37_cif.got.tgz:72328.got - 2010.06.28 00:19:55.
