data_PCOD8078368
_publ_section_title
;
Structure prediction by ZEFSAII (Michael W. Deem and Ramdas Pophale) SiO2 
 PCOD8078368
Probable space group: C 2/M
;
_chemical_formula_sum "Si O2"
_cell_formula_units_Z 48
_cell_length_a 5.299753
_cell_length_b 35.371810
_cell_length_c 13.827424
_cell_angle_alpha 90.000000
_cell_angle_beta 67.464066
_cell_angle_gamma 90.000000
_cell_volume 2394.179002
_symmetry_space_group_name_H-M "C 2/M"
_symmetry_group_IT_number 12
_symmetry_cell_setting 'monoclinic'
loop_
_space_group_symop_operation_xyz
x,y,z
-x,y,-z
-x,-y,-z
x,-y,z
1/2+x,1/2+y,z
1/2-x,1/2+y,-z
1/2-x,1/2-y,-z
1/2+x,1/2-y,z
loop_
_atom_site_type_symbol
_atom_site_label
_atom_site_fract_x
_atom_site_fract_y
_atom_site_fract_z
Si Si1 0.039747 0.343836 0.210230
Si Si2 0.684898 0.456530 0.065111
Si Si3 0.632347 0.765980 0.117654
Si Si4 0.474690 0.608621 0.775333
Si Si5 0.215274 0.912286 0.534727
Si Si6 0.303423 0.169945 0.446575
O O1 0.128713 0.311502 0.121278
O O2 0.306942 0.368566 0.193235
O O3 0.806514 0.368559 0.193234
O O4 0.927502 0.322707 0.322492
O O5 0.648731 0.500000 0.101327
O O6 0.581204 0.431651 0.168785
O O7 0.500000 0.446856 0.000000
O O8 0.000000 0.446845 0.000000
O O9 0.324432 0.749999 0.175574
O O10 0.750000 0.750000 0.000000
O O11 0.596622 0.600222 0.653383
O O12 0.500000 0.935771 0.500000
O O13 0.289228 0.875235 0.460770
O O14 0.000000 0.935771 0.500000
O O15 0.500000 0.187957 0.500000
O O16 0.000000 0.187957 0.500000
#
# Coordination Sequence:
#
# PCOD8078368 Si02
#       6
#     8   8   8   8   8   8
#     4  12  21  35  63  90 115 150 207 247 282 359
#     4  10  23  45  62  82 128 167 196 248 312 351
#     4  10  23  45  59  75 113 164 187 236 318 368
#     4  12  21  35  62 101 112 150 212 252 285 352
#     4  10  16  30  51  85 128 150 174 243 307 337
#     4  10  16  30  51  84 118 152 175 241 303 336
#
# _framework density 20.048625999999999
#
# number of rings (size 3 to 8) (size 9 to 14) (size 15 to 20)
#    0.000    1.333    6.667    2.000    0.000    0.000 
#   18.000    0.000    0.000    4.000    0.000    0.000 
#    0.000    0.000    0.000    0.000    0.000    0.000 
#
# Total GULP energy -297489.939763 kJ/mol
# GULP energy per Si atom -12395.414157 kJ/mol
# Density = 2.000299 g / cm^3
# Si number density = 20.048626 Si / 1000 Ang^3
#
#
#
# Elastic Constant Matrix: (Units=GPa)
#
#
# Indices 1 2 3 4 5 6 
#
# 1 229.7598 50.0916 30.1742 0.0000 -9.3185 0.0000
# 2 50.0916 81.3845 49.6287 0.0000 -0.0408 0.0000
# 3 30.1742 49.6287 76.4093 0.0000 0.8801 0.0000
# 4 0.0000 0.0000 0.0000 5.7987 0.0000 -3.5696
# 5 -9.3185 -0.0408 0.8801 0.0000 15.5735 0.0000
# 6 0.0000 0.0000 0.0000 -3.5696 0.0000 71.0434
#
#
#
# Elastic Compliance Matrix: (Units=1/GPa)
#
#
# Indices 1 2 3 4 5 6 
#
# 1 0.005171 -0.003170 -0.000019 0.000000 0.003087 0.000000
# 2 -0.003170 0.022299 -0.013219 0.000000 -0.001091 0.000000
# 3 -0.000019 -0.013219 0.021695 0.000000 -0.001272 0.000000
# 4 0.000000 0.000000 0.000000 0.177957 0.000000 0.008942
# 5 0.003087 -0.001091 -0.001272 0.000000 0.066128 0.000000
# 6 0.000000 0.000000 0.000000 0.008942 0.000000 0.014525
#
#
# Mechanical properties :
#
#
# Convention : Reuss Voigt Hill
#
# Bulk Modulus (GPa) = 61.16172 71.92696 66.54434
# Shear Modulus (GPa) = 14.44918 35.66040 25.05479
#
# Velocity S-wave (km/s) = 2.68751 4.22203 3.53895
# Velocity P-wave (km/s) = 6.34060 7.72797 7.06841
#
# Compressibility (1/GPa) = 0.01635009
#
# Stress axis : x y z
#
# Youngs Moduli (GPa) = 193.38235 44.84558 46.09275
#
# Poissons Ratio (x) = 0.14215 0.00087
# Poissons Ratio (y) = 0.61297 0.60930
# Poissons Ratio (z) = 0.00365 0.59281
#
# Static dielectric constant tensor:
#      x y z
#    x 5.745800 0.000000 -0.124720 
#    y 0.000000 3.178230 0.000000 
#    z -0.124720 0.000000 3.470850 
# 
# 
# High freq. dielectric constant tensor:
#      x y z
#    x 1.827820 0.000000 -0.003130 
#    y 0.000000 1.729270 0.000000 
#    z -0.003130 0.000000 1.770830 
# 
# From -- ./inp_files/192515.got.cif
#   From: 2010.06.25/outbox.cif.g09.slc.cpg/sg12_97_cif.got.tgz:192515.got - 2010.06.28 00:19:55.
