data_PCOD8078749
_publ_section_title
;
Structure prediction by ZEFSAII (Michael W. Deem and Ramdas Pophale) SiO2 
 PCOD8078749
Probable space group: C 2/M
;
_chemical_formula_sum "Si O2"
_cell_formula_units_Z 64
_cell_length_a 19.666891
_cell_length_b 8.694965
_cell_length_c 25.305285
_cell_angle_alpha 90.000000
_cell_angle_beta 125.881737
_cell_angle_gamma 90.000000
_cell_volume 3506.083865
_symmetry_space_group_name_H-M "C 2/M"
_symmetry_group_IT_number 12
_symmetry_cell_setting 'monoclinic'
loop_
_space_group_symop_operation_xyz
x,y,z
-x,y,-z
-x,-y,-z
x,-y,z
1/2+x,1/2+y,z
1/2-x,1/2+y,-z
1/2-x,1/2-y,-z
1/2+x,1/2-y,z
loop_
_atom_site_type_symbol
_atom_site_label
_atom_site_fract_x
_atom_site_fract_y
_atom_site_fract_z
Si Si1 0.090922 0.680532 0.197951
Si Si2 0.234615 0.324975 0.704468
Si Si3 0.008325 0.677816 0.946236
Si Si4 0.571869 0.180029 0.699794
Si Si5 0.615264 0.821531 0.561431
Si Si6 0.972025 0.180385 0.565997
Si Si7 0.446196 0.318565 0.195021
Si Si8 0.162259 0.678264 0.945223
O O1 0.072861 0.500000 0.193150
O O2 0.188988 0.712568 0.248432
O O3 0.057677 0.746830 0.126445
O O4 0.038483 0.759038 0.221029
O O5 0.263924 0.500000 0.727008
O O6 0.157659 0.283208 0.707757
O O7 0.206305 0.300800 0.630230
O O8 0.985744 0.500000 0.942626
O O9 0.102404 0.702669 0.968387
O O10 0.000000 0.759386 0.000000
O O11 0.491293 0.250487 0.632534
O O12 0.579288 0.256857 0.759708
O O13 0.556929 0.000000 0.698719
O O14 0.550669 0.718077 0.564780
O O15 0.610809 0.760405 0.498708
O O16 0.588108 0.000000 0.552670
O O17 0.956463 0.000000 0.563814
O O18 0.447460 0.500000 0.196732
O O19 0.375139 0.262463 0.122519
O O20 0.172406 0.500000 0.935717
O O21 0.250000 0.750000 0.000000
#
# Coordination Sequence:
#
# PCOD8078749 Si02
#       8
#     8   8   8   8   8   8   8   8
#     4  10  20  34  54  77 104 139 174 211 259 314
#     4   9  19  33  51  76 105 136 171 215 261 308
#     4   8  16  32  52  74  99 129 167 208 249 297
#     4  10  20  35  53  76 107 138 173 218 266 313
#     4   9  16  28  45  67  99 138 173 210 262 310
#     4  10  17  26  44  72 102 132 170 214 260 310
#     4  11  22  37  56  76 103 140 180 218 259 310
#     4  10  20  35  55  79 106 136 171 212 261 311
#
# _framework density 18.253983999999999
#
# number of rings (size 3 to 8) (size 9 to 14) (size 15 to 20)
#    0.000    2.375    0.000    6.000    0.000    4.000 
#    0.000    1.250    0.000   13.500    0.000    0.000 
#    0.000    0.000    0.000    0.000    0.000    0.000 
#
# Total GULP energy -396672.245086 kJ/mol
# GULP energy per Si atom -12396.007659 kJ/mol
# Density = 1.821244 g / cm^3
# Si number density = 18.253984 Si / 1000 Ang^3
#
#
#
# Elastic Constant Matrix: (Units=GPa)
#
#
# Indices 1 2 3 4 5 6 
#
# 1 59.5845 39.1376 59.6183 0.0000 1.1832 0.0000
# 2 39.1376 104.8493 46.1015 0.0000 -0.6255 0.0000
# 3 59.6183 46.1015 117.4600 0.0000 1.7367 0.0000
# 4 0.0000 0.0000 0.0000 33.0952 0.0000 3.2713
# 5 1.1832 -0.6255 1.7367 0.0000 23.2518 0.0000
# 6 0.0000 0.0000 0.0000 3.2713 0.0000 23.8775
#
#
#
# Elastic Compliance Matrix: (Units=1/GPa)
#
#
# Indices 1 2 3 4 5 6 
#
# 1 0.037797 -0.006870 -0.016475 0.000000 -0.000878 0.000000
# 2 -0.006870 0.012785 -0.001543 0.000000 0.000809 0.000000
# 3 -0.016475 -0.001543 0.017489 0.000000 -0.000509 0.000000
# 4 0.000000 0.000000 0.000000 0.030631 0.000000 -0.004197
# 5 -0.000878 0.000809 -0.000509 0.000000 0.043112 0.000000
# 6 0.000000 0.000000 0.000000 -0.004197 0.000000 0.042455
#
#
# Mechanical properties :
#
#
# Convention : Reuss Voigt Hill
#
# Bulk Modulus (GPa) = 54.65973 63.51206 59.08589
# Shear Modulus (GPa) = 20.82086 25.18067 23.00076
#
# Velocity S-wave (km/s) = 3.38097 3.71814 3.55356
# Velocity P-wave (km/s) = 6.72683 7.30081 7.01969
#
# Compressibility (1/GPa) = 0.01829500
#
# Stress axis : x y z
#
# Youngs Moduli (GPa) = 26.45692 78.21557 57.17939
#
# Poissons Ratio (x) = 0.53734 0.94204
# Poissons Ratio (y) = 0.18176 0.08823
# Poissons Ratio (z) = 0.43588 0.12069
#
# Static dielectric constant tensor:
#      x y z
#    x 3.050300 0.000000 -0.116350 
#    y 0.000000 3.310790 0.000000 
#    z -0.116350 0.000000 3.896890 
# 
# 
# High freq. dielectric constant tensor:
#      x y z
#    x 1.666640 0.000000 -0.002280 
#    y 0.000000 1.708920 0.000000 
#    z -0.002280 0.000000 1.727760 
# 
# From -- ./inp_files/346106.got.cif
#   From: 2010.06.25/outbox.cif.g09.slc.cpg/sg12_174_cif.got.tgz:346106.got - 2010.06.28 00:19:55.
