data_PCOD8078406
_publ_section_title
;
Structure prediction by ZEFSAII (Michael W. Deem and Ramdas Pophale) SiO2 
 PCOD8078406
Probable space group: C 2/M
;
_chemical_formula_sum "Si O2"
_cell_formula_units_Z 40
_cell_length_a 16.912786
_cell_length_b 15.097750
_cell_length_c 13.449207
_cell_angle_alpha 90.000000
_cell_angle_beta 44.701473
_cell_angle_gamma 90.000000
_cell_volume 2415.652375
_symmetry_space_group_name_H-M "C 2/M"
_symmetry_group_IT_number 12
_symmetry_cell_setting 'monoclinic'
loop_
_space_group_symop_operation_xyz
x,y,z
-x,y,-z
-x,-y,-z
x,-y,z
1/2+x,1/2+y,z
1/2-x,1/2+y,-z
1/2-x,1/2-y,-z
1/2+x,1/2-y,z
loop_
_atom_site_type_symbol
_atom_site_label
_atom_site_fract_x
_atom_site_fract_y
_atom_site_fract_z
Si Si1 0.551030 0.000000 0.063472
Si Si2 0.808813 0.500000 0.300559
Si Si3 0.090645 0.098136 0.178028
Si Si4 0.369252 0.500000 0.149198
Si Si5 0.381545 0.500000 0.370126
Si Si6 0.781749 0.365374 0.151532
Si Si7 0.118857 0.821988 0.946757
O O1 0.437247 0.000000 0.231601
O O2 0.500000 0.000000 0.000000
O O3 0.628311 0.911885 0.004786
O O4 0.730061 0.500000 0.466073
O O5 0.784441 0.413271 0.255818
O O6 0.158070 0.127996 0.215141
O O7 0.957973 0.087669 0.324793
O O8 0.132489 0.000000 0.104134
O O9 0.104767 0.169525 0.078059
O O10 0.348802 0.500000 0.284269
O O11 0.316562 0.409475 0.152163
O O12 0.500000 0.500000 0.000000
O O13 0.806804 0.262781 0.144633
O O14 0.000000 0.809374 0.000000
#
# Coordination Sequence:
#
# PCOD8078406 Si02
#       7
#     4   4   8   4   4   8   8
#     4   8  15  32  46  69 101 134 172 196 240 301
#     4  10  19  33  50  78 106 144 160 208 261 307
#     4  10  17  31  51  80 103 129 168 211 263 295
#     4  10  16  32  52  72 101 129 174 217 245 295
#     4  10  18  33  54  76 108 130 171 209 259 312
#     4  10  19  30  51  77 107 134 169 211 254 305
#     4  11  17  31  53  76 100 131 174 217 249 289
#
# _framework density 16.558672999999999
#
# number of rings (size 3 to 8) (size 9 to 14) (size 15 to 20)
#    0.600    1.600    7.000    2.400    0.000    1.600 
#    0.000    1.000    0.000    0.000    0.000    1.400 
#    0.000    0.000    0.000    0.000    0.000    0.000 
#
# Total GULP energy -247765.660128 kJ/mol
# GULP energy per Si atom -12388.283006 kJ/mol
# Density = 1.652098 g / cm^3
# Si number density = 16.558673 Si / 1000 Ang^3
#
#
#
# Elastic Constant Matrix: (Units=GPa)
#
#
# Indices 1 2 3 4 5 6 
#
# 1 42.3089 10.9945 24.2874 0.0000 -3.6111 0.0000
# 2 10.9945 119.3767 30.7287 0.0000 -3.2759 0.0000
# 3 24.2874 30.7287 109.8722 0.0000 -5.9291 0.0000
# 4 0.0000 0.0000 0.0000 11.7023 0.0000 -2.1915
# 5 -3.6111 -3.2759 -5.9291 0.0000 15.4329 0.0000
# 6 0.0000 0.0000 0.0000 -2.1915 0.0000 18.1399
#
#
#
# Elastic Compliance Matrix: (Units=1/GPa)
#
#
# Indices 1 2 3 4 5 6 
#
# 1 0.027436 -0.000981 -0.005571 0.000000 0.004071 0.000000
# 2 -0.000981 0.009076 -0.002277 0.000000 0.000822 0.000000
# 3 -0.005571 -0.002277 0.011103 0.000000 0.002479 0.000000
# 4 0.000000 0.000000 0.000000 0.087431 0.000000 0.010562
# 5 0.004071 0.000822 0.002479 0.000000 0.066876 0.000000
# 6 0.000000 0.000000 0.000000 0.010562 0.000000 0.056403
#
#
# Mechanical properties :
#
#
# Convention : Reuss Voigt Hill
#
# Bulk Modulus (GPa) = 33.38053 44.84211 39.11132
# Shear Modulus (GPa) = 17.48440 22.75819 20.12130
#
# Velocity S-wave (km/s) = 3.25300 3.71131 3.48968
# Velocity P-wave (km/s) = 5.85765 6.74571 6.31730
#
# Compressibility (1/GPa) = 0.02995758
#
# Stress axis : x y z
#
# Youngs Moduli (GPa) = 36.44856 110.18185 90.06173
#
# Poissons Ratio (x) = 0.10811 0.50170
# Poissons Ratio (y) = 0.03576 0.20508
# Poissons Ratio (z) = 0.20304 0.25089
#
# Static dielectric constant tensor:
#      x y z
#    x 3.330080 0.000000 -0.224170 
#    y 0.000000 3.286450 0.000000 
#    z -0.224170 0.000000 2.921830 
# 
# 
# High freq. dielectric constant tensor:
#      x y z
#    x 1.635710 0.000000 0.006020 
#    y 0.000000 1.633830 0.000000 
#    z 0.006020 0.000000 1.589050 
# 
# From -- ./inp_files/155152.got.cif
#   From: 2010.06.25/outbox.cif.g09.slc.cpg/sg12_78_cif.got.tgz:155152.got - 2010.06.28 00:19:55.
