data_PCOD8078733
_publ_section_title
;
Structure prediction by ZEFSAII (Michael W. Deem and Ramdas Pophale) SiO2 
 PCOD8078733
Probable space group: C 2/M
;
_chemical_formula_sum "Si O2"
_cell_formula_units_Z 48
_cell_length_a 31.276109
_cell_length_b 7.798856
_cell_length_c 12.305807
_cell_angle_alpha 90.000000
_cell_angle_beta 72.561921
_cell_angle_gamma 90.000000
_cell_volume 2863.656538
_symmetry_space_group_name_H-M "C 2/M"
_symmetry_group_IT_number 12
_symmetry_cell_setting 'monoclinic'
loop_
_space_group_symop_operation_xyz
x,y,z
-x,y,-z
-x,-y,-z
x,-y,z
1/2+x,1/2+y,z
1/2-x,1/2+y,-z
1/2-x,1/2-y,-z
1/2+x,1/2-y,z
loop_
_atom_site_type_symbol
_atom_site_label
_atom_site_fract_x
_atom_site_fract_y
_atom_site_fract_z
Si Si1 0.594191 0.311178 0.739744
Si Si2 0.823475 0.305685 0.440742
Si Si3 0.535242 0.000000 0.818093
Si Si4 0.376467 0.301386 0.038457
Si Si5 0.723865 0.299687 0.912838
Si Si6 0.938378 0.500000 0.952088
Si Si7 0.252286 0.796550 0.660945
O O1 0.571835 0.500000 0.753426
O O2 0.632475 0.305175 0.618138
O O3 0.555857 0.170428 0.747359
O O4 0.618257 0.279296 0.836549
O O5 0.840018 0.500000 0.438357
O O6 0.787716 0.295289 0.371313
O O7 0.799988 0.243147 0.571015
O O8 0.481698 0.000000 0.840499
O O9 0.545846 0.000000 0.936509
O O10 0.385032 0.500000 0.996948
O O11 0.410539 0.174419 0.949882
O O12 0.327068 0.232496 0.044829
O O13 0.720756 0.500000 0.903028
O O14 0.750703 0.230446 0.786744
O O15 0.750000 0.250000 0.000000
O O16 0.245246 0.000000 0.655230
#
# Coordination Sequence:
#
# PCOD8078733 Si02
#       7
#     8   8   4   8   8   4   8
#     4  10  17  28  46  64  94 125 151 189 236 285
#     4  10  17  26  44  66  91 123 159 193 229 285
#     4   9  18  30  42  72  89 119 161 195 232 284
#     4   9  18  30  45  64  89 125 158 193 236 280
#     4  10  20  32  45  64  92 125 166 202 233 273
#     4   9  18  30  48  62  93 121 159 199 232 286
#     4   9  18  30  42  62  91 123 159 197 233 274
#
# _framework density 16.761787000000002
#
# number of rings (size 3 to 8) (size 9 to 14) (size 15 to 20)
#    0.000    2.500    2.500    0.500    1.167    2.000 
#    0.000    3.333    0.000    0.000    0.000    0.000 
#    0.000    2.667    0.000    5.167    0.000    0.333 
#
# Total GULP energy -297470.476787 kJ/mol
# GULP energy per Si atom -12394.603199 kJ/mol
# Density = 1.672364 g / cm^3
# Si number density = 16.761787 Si / 1000 Ang^3
#
#
#
# Elastic Constant Matrix: (Units=GPa)
#
#
# Indices 1 2 3 4 5 6 
#
# 1 86.6422 43.8657 54.7494 0.0000 -27.0455 0.0000
# 2 43.8657 86.3314 31.7790 0.0000 -21.7569 0.0000
# 3 54.7494 31.7790 89.1951 0.0000 -16.4405 0.0000
# 4 0.0000 0.0000 0.0000 16.5845 0.0000 -3.9924
# 5 -27.0455 -21.7569 -16.4405 0.0000 29.8380 0.0000
# 6 0.0000 0.0000 0.0000 -3.9924 0.0000 20.9023
#
#
#
# Elastic Compliance Matrix: (Units=1/GPa)
#
#
# Indices 1 2 3 4 5 6 
#
# 1 0.025514 -0.005565 -0.011312 0.000000 0.012835 0.000000
# 2 -0.005565 0.016463 -0.001298 0.000000 0.006244 0.000000
# 3 -0.011312 -0.001298 0.018424 0.000000 -0.001049 0.000000
# 4 0.000000 0.000000 0.000000 0.063203 0.000000 0.012072
# 5 0.012835 0.006244 -0.001049 0.000000 0.049124 0.000000
# 6 0.000000 0.000000 0.000000 0.012072 0.000000 0.050147
#
#
# Mechanical properties :
#
#
# Convention : Reuss Voigt Hill
#
# Bulk Modulus (GPa) = 41.58149 58.10632 49.84390
# Shear Modulus (GPa) = 18.70948 22.24992 20.47970
#
# Velocity S-wave (km/s) = 3.34458 3.64733 3.49923
# Velocity P-wave (km/s) = 6.30683 7.24421 6.79171
#
# Compressibility (1/GPa) = 0.02404916
#
# Stress axis : x y z
#
# Youngs Moduli (GPa) = 39.19383 60.74390 54.27563
#
# Poissons Ratio (x) = 0.33805 0.61399
# Poissons Ratio (y) = 0.21812 0.07048
# Poissons Ratio (z) = 0.44338 0.07888
#
# Static dielectric constant tensor:
#      x y z
#    x 2.883090 0.000000 -0.405940 
#    y 0.000000 3.270830 0.000000 
#    z -0.405940 0.000000 3.074330 
# 
# 
# High freq. dielectric constant tensor:
#      x y z
#    x 1.605090 0.000000 -0.035450 
#    y 0.000000 1.657330 0.000000 
#    z -0.035450 0.000000 1.618090 
# 
# From -- ./inp_files/185756.got.cif
#   From: 2010.06.25/outbox.cif.g09.slc.cpg/sg12_93_cif.got.tgz:185756.got - 2010.06.28 00:19:55.
