data_PCOD8078352
_publ_section_title
;
Structure prediction by ZEFSAII (Michael W. Deem and Ramdas Pophale) SiO2 
 PCOD8078352
Probable space group: C 2/M
;
_chemical_formula_sum "Si O2"
_cell_formula_units_Z 48
_cell_length_a 5.250890
_cell_length_b 15.729380
_cell_length_c 28.717884
_cell_angle_alpha 90.000000
_cell_angle_beta 73.810283
_cell_angle_gamma 90.000000
_cell_volume 2277.842398
_symmetry_space_group_name_H-M "C 2/M"
_symmetry_group_IT_number 12
_symmetry_cell_setting 'monoclinic'
loop_
_space_group_symop_operation_xyz
x,y,z
-x,y,-z
-x,-y,-z
x,-y,z
1/2+x,1/2+y,z
1/2-x,1/2+y,-z
1/2-x,1/2-y,-z
1/2+x,1/2-y,z
loop_
_atom_site_type_symbol
_atom_site_label
_atom_site_fract_x
_atom_site_fract_y
_atom_site_fract_z
Si Si1 0.027724 0.803989 0.129985
Si Si2 0.718322 0.654393 0.020810
Si Si3 0.418144 0.600528 0.227083
Si Si4 0.836029 0.601473 0.280967
Si Si5 0.333544 0.398607 0.609264
Si Si6 0.583503 0.101411 0.445140
O O1 0.236754 0.732761 0.134835
O O2 0.134301 0.850144 0.078614
O O3 0.004440 0.873790 0.171162
O O4 0.500000 0.607010 0.000000
O O5 0.750000 0.750000 0.000000
O O6 0.000000 0.607000 0.000000
O O7 0.413432 0.500000 0.230155
O O8 0.629244 0.637351 0.253433
O O9 0.127823 0.637379 0.254208
O O10 0.836939 0.500000 0.280374
O O11 0.750192 0.635676 0.335860
O O12 0.334331 0.500000 0.608729
O O13 0.625062 0.363419 0.582104
O O14 0.125114 0.363429 0.582043
O O15 0.500000 0.135829 0.500000
O O16 0.584258 0.000000 0.444679
#
# Coordination Sequence:
#
# PCOD8078352 Si02
#       6
#     8   8   8   8   8   8
#     4  12  21  33  55  81 101 129 168 206 247 297
#     4  10  16  30  49  75  97 124 159 201 232 281
#     4  10  21  35  50  71 102 132 164 211 256 289
#     4   9  17  31  47  63  87 127 172 206 238 292
#     4   9  15  23  37  53  73 111 161 198 229 285
#     4   9  15  21  30  50  79 108 146 202 250 278
#
# _framework density 21.072572000000001
#
# number of rings (size 3 to 8) (size 9 to 14) (size 15 to 20)
#    0.000    2.167    3.333    2.500    0.000    6.000 
#    0.000    0.000    0.000    1.000    0.000    0.000 
#    0.000    0.000    0.000    0.000    0.000  210.000 
#
# Total GULP energy -297573.849567 kJ/mol
# GULP energy per Si atom -12398.910399 kJ/mol
# Density = 2.102461 g / cm^3
# Si number density = 21.072572 Si / 1000 Ang^3
#
#
#
# Elastic Constant Matrix: (Units=GPa)
#
#
# Indices 1 2 3 4 5 6 
#
# 1 220.7447 7.4743 102.3087 0.0000 5.6958 0.0000
# 2 7.4743 2.3208 10.2923 0.0000 0.0314 0.0000
# 3 102.3087 10.2923 223.5666 0.0000 3.7886 0.0000
# 4 0.0000 0.0000 0.0000 11.2386 0.0000 0.7469
# 5 5.6958 0.0314 3.7886 0.0000 47.2220 0.0000
# 6 0.0000 0.0000 0.0000 0.7469 0.0000 -0.5198
#
#
#
# Elastic Compliance Matrix: (Units=1/GPa)
#
#
# Indices 1 2 3 4 5 6 
#
# 1 0.005903 -0.008875 -0.002284 0.000000 -0.000523 0.000000
# 2 -0.008875 0.554888 -0.021525 0.000000 0.002428 0.000000
# 3 -0.002284 -0.021525 0.006513 0.000000 -0.000233 0.000000
# 4 0.000000 0.000000 0.000000 0.081222 0.000000 0.116715
# 5 -0.000523 0.002428 -0.000233 0.000000 0.021257 0.000000
# 6 0.000000 0.000000 0.000000 0.116715 0.000000 -1.756164
#
#
# Mechanical properties :
#
#
# Convention : Reuss Voigt Hill
#
# Bulk Modulus (GPa) = 1.99228 76.30920 39.15074
# Shear Modulus (GPa) = -5.85684 33.35861 13.75088
#
# Velocity S-wave (km/s) = -1.66895 3.98305 2.55727
# Velocity P-wave (km/s) = 1.66324 7.57919 5.22866
#
# Compressibility (1/GPa) = 0.50193650
#
# Stress axis : x y z
#
# Youngs Moduli (GPa) = 169.41896 1.80217 153.54129
#
# Poissons Ratio (x) = 0.01599 0.35064
# Poissons Ratio (y) = 1.50352 3.30501
# Poissons Ratio (z) = 0.38690 0.03879
#
# Static dielectric constant tensor:
#      x y z
#    x 8.400020 0.000000 0.138930 
#    y 0.000000 2.883600 0.000000 
#    z 0.138930 0.000000 4.014180 
# 
# 
# High freq. dielectric constant tensor:
#      x y z
#    x 1.854930 0.000000 0.001200 
#    y 0.000000 1.746650 0.000000 
#    z 0.001200 0.000000 1.843090 
# 
# From -- ./inp_files/331057.got.cif
#   From: 2010.06.25/outbox.cif.g09.slc.cpg/sg12_166_cif.got.tgz:331057.got - 2010.06.28 00:19:55.
