data_PCOD8078881
_publ_section_title
;
Structure prediction by ZEFSAII (Michael W. Deem and Ramdas Pophale) SiO2 
 PCOD8078881
Probable space group: C 2/M
;
_chemical_formula_sum "Si O2"
_cell_formula_units_Z 56
_cell_length_a 22.908800
_cell_length_b 16.015053
_cell_length_c 12.242655
_cell_angle_alpha 90.000000
_cell_angle_beta 51.818745
_cell_angle_gamma 90.000000
_cell_volume 3530.706126
_symmetry_space_group_name_H-M "C 2/M"
_symmetry_group_IT_number 12
_symmetry_cell_setting 'monoclinic'
loop_
_space_group_symop_operation_xyz
x,y,z
-x,y,-z
-x,-y,-z
x,-y,z
1/2+x,1/2+y,z
1/2-x,1/2+y,-z
1/2-x,1/2-y,-z
1/2+x,1/2-y,z
loop_
_atom_site_type_symbol
_atom_site_label
_atom_site_fract_x
_atom_site_fract_y
_atom_site_fract_z
Si Si1 0.393130 0.000000 0.654723
Si Si2 0.332238 0.833586 0.653414
Si Si3 0.946280 0.676261 0.333947
Si Si4 0.549114 0.682682 0.840872
Si Si5 0.514008 0.000000 0.675195
Si Si6 0.059961 0.222518 0.343048
Si Si7 0.676517 0.597860 0.821958
Si Si8 0.425237 0.405284 0.855196
O O1 0.343457 0.081618 0.707059
O O2 0.429039 0.000000 0.734064
O O3 0.446252 0.000000 0.488381
O O4 0.371489 0.828049 0.490923
O O5 0.365483 0.758843 0.687922
O O6 0.243889 0.835468 0.736733
O O7 0.929416 0.733012 0.248539
O O8 0.966015 0.581362 0.275781
O O9 0.016890 0.707528 0.322479
O O10 0.620183 0.629544 0.794353
O O11 0.503571 0.621153 0.815712
O O12 0.500000 0.711697 0.000000
O O13 0.091019 0.148130 0.233543
O O14 0.000000 0.188121 0.500000
O O15 0.696980 0.500000 0.775051
O O16 0.640775 0.607277 0.982506
O O17 0.431517 0.500000 0.809897
#
# Coordination Sequence:
#
# PCOD8078881 Si02
#       8
#     4   8   8   8   4   8   8   8
#     4   9  14  24  42  68  97 114 133 179 220 265
#     4  10  17  27  45  71  97 114 141 179 224 273
#     4   9  17  28  46  69  92 116 147 183 220 264
#     4   9  18  33  48  63  87 118 154 191 222 253
#     4   9  14  24  45  68  90 116 141 175 226 259
#     4   9  17  29  46  70  94 117 144 178 222 269
#     4  10  19  30  47  68  89 117 150 186 225 260
#     4   9  18  32  48  66  88 116 153 189 219 257
#
# _framework density 15.860849999999999
#
# number of rings (size 3 to 8) (size 9 to 14) (size 15 to 20)
#    0.000    2.714    2.143    0.429    0.000    3.143 
#    0.000    0.357    0.000    0.000    1.857    0.000 
#    0.000    0.000    0.000    0.000    0.000    0.000 
#
# Total GULP energy -347015.204032 kJ/mol
# GULP energy per Si atom -12393.400144 kJ/mol
# Density = 1.582475 g / cm^3
# Si number density = 15.860850 Si / 1000 Ang^3
#
#
#
# Elastic Constant Matrix: (Units=GPa)
#
#
# Indices 1 2 3 4 5 6 
#
# 1 77.8942 38.6998 39.8899 0.0000 -7.8553 0.0000
# 2 38.6998 104.7047 48.9364 0.0000 4.2368 0.0000
# 3 39.8899 48.9364 56.9240 0.0000 -2.4052 0.0000
# 4 0.0000 0.0000 0.0000 26.8462 0.0000 3.9799
# 5 -7.8553 4.2368 -2.4052 0.0000 23.1595 0.0000
# 6 0.0000 0.0000 0.0000 3.9799 0.0000 19.9346
#
#
#
# Elastic Compliance Matrix: (Units=1/GPa)
#
#
# Indices 1 2 3 4 5 6 
#
# 1 0.020973 -0.002098 -0.012632 0.000000 0.006186 0.000000
# 2 -0.002098 0.016627 -0.013040 0.000000 -0.005108 0.000000
# 3 -0.012632 -0.013040 0.037714 0.000000 0.002018 0.000000
# 4 0.000000 0.000000 0.000000 0.038385 0.000000 -0.007663
# 5 0.006186 -0.005108 0.002018 0.000000 0.046421 0.000000
# 6 0.000000 0.000000 0.000000 -0.007663 0.000000 0.051694
#
#
# Mechanical properties :
#
#
# Convention : Reuss Voigt Hill
#
# Bulk Modulus (GPa) = 50.56832 54.95279 52.76056
# Shear Modulus (GPa) = 18.25181 21.45451 19.85316
#
# Velocity S-wave (km/s) = 3.39594 3.68186 3.54179
# Velocity P-wave (km/s) = 6.87956 7.26614 7.07549
#
# Compressibility (1/GPa) = 0.01977523
#
# Stress axis : x y z
#
# Youngs Moduli (GPa) = 47.68043 60.14212 26.51529
#
# Poissons Ratio (x) = 0.12620 0.33493
# Poissons Ratio (y) = 0.10005 0.34575
# Poissons Ratio (z) = 0.60228 0.78422
#
# Static dielectric constant tensor:
#      x y z
#    x 2.939810 0.000000 -0.024490 
#    y 0.000000 3.071860 0.000000 
#    z -0.024490 0.000000 2.846330 
# 
# 
# High freq. dielectric constant tensor:
#      x y z
#    x 1.598700 0.000000 -0.005670 
#    y 0.000000 1.608730 0.000000 
#    z -0.005670 0.000000 1.587140 
# 
# From -- ./inp_files/168422.got.cif
#   From: 2010.06.25/outbox.cif.g09.slc.cpg/sg12_85_cif.got.tgz:168422.got - 2010.06.28 00:19:55.
