data_PCOD8078723
_publ_section_title
;
Structure prediction by ZEFSAII (Michael W. Deem and Ramdas Pophale) SiO2 
 PCOD8078723
Probable space group: C 2/M
;
_chemical_formula_sum "Si O2"
_cell_formula_units_Z 60
_cell_length_a 19.312372
_cell_length_b 15.972686
_cell_length_c 14.323146
_cell_angle_alpha 90.000000
_cell_angle_beta 124.538400
_cell_angle_gamma 90.000000
_cell_volume 3639.531797
_symmetry_space_group_name_H-M "C 2/M"
_symmetry_group_IT_number 12
_symmetry_cell_setting 'monoclinic'
loop_
_space_group_symop_operation_xyz
x,y,z
-x,y,-z
-x,-y,-z
x,-y,z
1/2+x,1/2+y,z
1/2-x,1/2+y,-z
1/2-x,1/2-y,-z
1/2+x,1/2-y,z
loop_
_atom_site_type_symbol
_atom_site_label
_atom_site_fract_x
_atom_site_fract_y
_atom_site_fract_z
Si Si1 0.281303 0.176368 0.088612
Si Si2 0.386068 0.715162 0.807190
Si Si3 0.119912 0.093293 0.024184
Si Si4 0.500000 0.836663 0.000000
Si Si5 0.727149 0.293177 0.760060
Si Si6 0.431293 0.403231 0.368896
Si Si7 0.516877 0.403284 0.238983
Si Si8 0.654271 0.905832 0.024191
O O1 0.208314 0.107656 0.042437
O O2 0.309699 0.213254 0.210521
O O3 0.250000 0.250000 0.000000
O O4 0.354901 0.127768 0.089691
O O5 0.391060 0.655644 0.899891
O O6 0.292375 0.758224 0.730261
O O7 0.406584 0.661327 0.728553
O O8 0.456897 0.784157 0.883261
O O9 0.114534 0.000000 0.060772
O O10 0.048088 0.108818 0.893931
O O11 0.564283 0.899141 0.001302
O O12 0.648440 0.346179 0.661483
O O13 0.777968 0.351118 0.869529
O O14 0.500000 0.388393 0.500000
O O15 0.402239 0.500000 0.342901
O O16 0.471788 0.376209 0.300779
O O17 0.548854 0.500000 0.270863
O O18 0.686802 0.000000 0.051255
#
# Coordination Sequence:
#
# PCOD8078723 Si02
#       8
#     8   8   8   4   8   8   8   8
#     4   9  17  26  41  63  89 122 153 187 223 271
#     4  10  18  29  44  70 103 128 154 182 227 282
#     4  10  17  26  43  69 100 127 154 182 222 282
#     4  10  19  26  39  60  96 132 160 182 211 254
#     4   9  19  31  47  67  92 124 152 190 242 279
#     4  10  21  36  53  71  90 116 159 208 247 283
#     4  10  18  28  48  72  97 130 157 193 240 279
#     4  10  18  28  41  62  94 130 161 182 212 269
#
# _framework density 16.485636
#
# number of rings (size 3 to 8) (size 9 to 14) (size 15 to 20)
#    0.000    2.267    1.333    3.800    1.867    2.133 
#    0.000    0.667    0.000    0.000    0.000    0.000 
#    0.000   18.133    0.000    0.000    0.000    0.000 
#
# Total GULP energy -371723.420604 kJ/mol
# GULP energy per Si atom -12390.780687 kJ/mol
# Density = 1.644811 g / cm^3
# Si number density = 16.485636 Si / 1000 Ang^3
#
#
#
# Elastic Constant Matrix: (Units=GPa)
#
#
# Indices 1 2 3 4 5 6 
#
# 1 89.1379 39.0964 28.0354 0.0000 9.6498 0.0000
# 2 39.0964 73.6928 20.4383 0.0000 6.5594 0.0000
# 3 28.0354 20.4383 31.2925 0.0000 11.6941 0.0000
# 4 0.0000 0.0000 0.0000 9.1878 0.0000 -3.9972
# 5 9.6498 6.5594 11.6941 0.0000 12.6349 0.0000
# 6 0.0000 0.0000 0.0000 -3.9972 0.0000 24.1283
#
#
#
# Elastic Compliance Matrix: (Units=1/GPa)
#
#
# Indices 1 2 3 4 5 6 
#
# 1 0.017595 -0.006043 -0.012180 0.000000 0.000972 0.000000
# 2 -0.006043 0.018686 -0.007476 0.000000 0.001833 0.000000
# 3 -0.012180 -0.007476 0.065469 0.000000 -0.047411 0.000000
# 4 0.000000 0.000000 0.000000 0.117294 0.000000 0.019431
# 5 0.000972 0.001833 -0.047411 0.000000 0.121331 0.000000
# 6 0.000000 0.000000 0.000000 0.019431 0.000000 0.044664
#
#
# Mechanical properties :
#
#
# Convention : Reuss Voigt Hill
#
# Bulk Modulus (GPa) = 19.85998 41.02928 30.44463
# Shear Modulus (GPa) = 11.03218 16.29375 13.66297
#
# Velocity S-wave (km/s) = 2.58970 3.14723 2.88198
# Velocity P-wave (km/s) = 4.58421 6.17646 5.43892
#
# Compressibility (1/GPa) = 0.05035251
#
# Stress axis : x y z
#
# Youngs Moduli (GPa) = 56.83589 53.51592 15.27450
#
# Poissons Ratio (x) = 0.32340 0.18604
# Poissons Ratio (y) = 0.34346 0.11419
# Poissons Ratio (z) = 0.69224 0.40007
#
# Static dielectric constant tensor:
#      x y z
#    x 3.556910 0.000000 -0.013210 
#    y 0.000000 3.334280 0.000000 
#    z -0.013210 0.000000 2.640740 
# 
# 
# High freq. dielectric constant tensor:
#      x y z
#    x 1.652020 0.000000 0.000010 
#    y 0.000000 1.642280 0.000000 
#    z 0.000010 0.000000 1.566850 
# 
# From -- ./inp_files/226334.got.cif
#   From: 2010.06.25/outbox.cif.g09.slc.cpg/sg12_114_cif.got.tgz:226334.got - 2010.06.28 00:19:55.
