data_PCOD8078312
_publ_section_title
;
Structure prediction by ZEFSAII (Michael W. Deem and Ramdas Pophale) SiO2 
 PCOD8078312
Probable space group: C 2/M
;
_chemical_formula_sum "Si O2"
_cell_formula_units_Z 64
_cell_length_a 24.154700
_cell_length_b 18.641918
_cell_length_c 20.059221
_cell_angle_alpha 90.000000
_cell_angle_beta 160.742497
_cell_angle_gamma 90.000000
_cell_volume 2979.035993
_symmetry_space_group_name_H-M "C 2/M"
_symmetry_group_IT_number 12
_symmetry_cell_setting 'monoclinic'
loop_
_space_group_symop_operation_xyz
x,y,z
-x,y,-z
-x,-y,-z
x,-y,z
1/2+x,1/2+y,z
1/2-x,1/2+y,-z
1/2-x,1/2-y,-z
1/2+x,1/2-y,z
loop_
_atom_site_type_symbol
_atom_site_label
_atom_site_fract_x
_atom_site_fract_y
_atom_site_fract_z
Si Si1 0.698452 0.212343 0.149642
Si Si2 0.189635 0.354850 0.515947
Si Si3 0.800052 0.710260 0.697010
Si Si4 0.297600 0.921532 0.928483
Si Si5 0.802281 0.580642 0.611705
Si Si6 0.674211 0.083552 0.895174
Si Si7 0.826188 0.582934 0.370138
Si Si8 0.695975 0.143375 0.787094
O O1 0.765226 0.219392 0.301328
O O2 0.763840 0.136721 0.194512
O O3 0.775543 0.272103 0.188721
O O4 0.499414 0.217329 0.921124
O O5 0.222160 0.269995 0.559677
O O6 0.270114 0.386806 0.539922
O O7 0.273423 0.394209 0.676040
O O8 0.991902 0.368464 0.290179
O O9 0.744447 0.632018 0.606603
O O10 0.237879 0.000000 0.835406
O O11 0.497568 0.921619 0.164052
O O12 0.224035 0.906405 0.919701
O O13 0.730723 0.500000 0.541470
O O14 0.779648 0.113161 0.950932
O O15 0.626158 0.000000 0.829900
O O16 0.869252 0.500000 0.419385
O O17 0.722768 0.604202 0.185814
O O18 0.998775 0.627203 0.565649
#
# Coordination Sequence:
#
# PCOD8078312 Si02
#       8
#     8   8   8   8   8   8   8   8
#     4  10  20  32  45  67 101 131 154 182 225 289
#     4  10  16  29  49  74  96 118 149 197 241 274
#     4  10  20  32  45  67 101 131 154 185 231 279
#     4   8  16  31  49  70  93 120 156 196 236 271
#     4   9  17  30  50  71  90 119 162 204 232 263
#     4   9  17  30  52  76  93 113 154 207 240 263
#     4  10  18  29  50  73  92 118 153 196 235 266
#     4  10  17  28  45  71  97 119 150 190 235 272
#
# _framework density 21.483460999999998
#
# number of rings (size 3 to 8) (size 9 to 14) (size 15 to 20)
#    0.000    2.500    1.250    4.500    0.000    1.000 
#    0.000    2.500    0.000    7.500    0.000    8.750 
#    0.000    0.000    0.000    0.000    0.000    0.000 
#
# Total GULP energy -396521.218687 kJ/mol
# GULP energy per Si atom -12391.288084 kJ/mol
# Density = 2.143456 g / cm^3
# Si number density = 21.483461 Si / 1000 Ang^3
#
#
#
# Elastic Constant Matrix: (Units=GPa)
#
#
# Indices 1 2 3 4 5 6 
#
# 1 100.9987 65.6803 12.9312 0.0188 -17.1165 0.0015
# 2 65.6803 188.8567 24.4316 0.0214 -13.5666 0.0081
# 3 12.9312 24.4316 12.2645 0.0690 -5.6574 0.0308
# 4 0.0188 0.0214 0.0690 24.1646 0.0405 -6.0503
# 5 -17.1165 -13.5666 -5.6574 0.0405 11.0625 0.0125
# 6 0.0015 0.0081 0.0308 -6.0503 0.0125 44.1750
#
#
#
# Elastic Compliance Matrix: (Units=1/GPa)
#
#
# Indices 1 2 3 4 5 6 
#
# 1 0.015898 -0.004202 0.000758 -0.000047 0.019832 -0.000012
# 2 -0.004202 0.008276 -0.013576 0.000044 -0.003296 0.000015
# 3 0.000758 -0.013576 0.131718 -0.000495 0.051886 -0.000172
# 4 -0.000047 0.000044 -0.000495 0.042855 -0.000435 0.005870
# 5 0.019832 -0.003296 0.051886 -0.000435 0.143575 -0.000136
# 6 -0.000012 0.000015 -0.000172 0.005870 -0.000136 0.023441
#
#
# Mechanical properties :
#
#
# Convention : Reuss Voigt Hill
#
# Bulk Modulus (GPa) = 8.20674 56.46734 32.33704
# Shear Modulus (GPa) = 11.35275 29.15223 20.25249
#
# Velocity S-wave (km/s) = 2.30128 3.68769 3.07367
# Velocity P-wave (km/s) = 3.29992 6.66883 5.26131
#
# Compressibility (1/GPa) = 0.12185104
#
# Stress axis : x y z
#
# Youngs Moduli (GPa) = 62.90131 120.83118 7.59195
#
# Poissons Ratio (x) = 0.50777 -0.00575
# Poissons Ratio (y) = 0.26433 0.10307
# Poissons Ratio (z) = -0.04766 1.64041
#
# Static dielectric constant tensor:
#      x y z
#    x 4.884140 -0.000050 -0.423630 
#    y -0.000050 4.000420 -0.000050 
#    z -0.423630 -0.000050 3.145760 
# 
# 
# High freq. dielectric constant tensor:
#      x y z
#    x 1.860550 0.000000 -0.023910 
#    y 0.000000 1.851690 -0.000010 
#    z -0.023910 -0.000010 1.767590 
# 
# From -- ./inp_files/326155.got.cif
#   From: 2010.06.25/outbox.cif.g09.slc.cpg/sg12_164_cif.got.tgz:326155.got - 2010.06.28 00:19:55.
