data_PCOD8078740
_publ_section_title
;
Structure prediction by ZEFSAII (Michael W. Deem and Ramdas Pophale) SiO2 
 PCOD8078740
Probable space group: C 2/M
;
_chemical_formula_sum "Si O2"
_cell_formula_units_Z 64
_cell_length_a 22.451714
_cell_length_b 12.640166
_cell_length_c 14.818700
_cell_angle_alpha 90.000000
_cell_angle_beta 75.116175
_cell_angle_gamma 90.000000
_cell_volume 4064.350562
_symmetry_space_group_name_H-M "C 2/M"
_symmetry_group_IT_number 12
_symmetry_cell_setting 'monoclinic'
loop_
_space_group_symop_operation_xyz
x,y,z
-x,y,-z
-x,-y,-z
x,-y,z
1/2+x,1/2+y,z
1/2-x,1/2+y,-z
1/2-x,1/2-y,-z
1/2+x,1/2-y,z
loop_
_atom_site_type_symbol
_atom_site_label
_atom_site_fract_x
_atom_site_fract_y
_atom_site_fract_z
Si Si1 0.931940 0.250454 0.501353
Si Si2 0.851656 0.876128 0.667651
Si Si3 0.820696 0.376373 0.485144
Si Si4 0.853128 0.880379 0.204760
Si Si5 0.420823 0.623624 0.813871
Si Si6 0.263977 0.250822 0.353081
Si Si7 0.431205 0.374000 0.008340
Si Si8 0.455254 0.380830 0.317581
O O1 0.907449 0.175952 0.590739
O O2 0.886839 0.350083 0.503953
O O3 0.930891 0.183694 0.411137
O O4 0.000000 0.292036 0.500000
O O5 0.863502 0.853956 0.769576
O O6 0.786496 0.828905 0.665934
O O7 0.851364 0.000000 0.646119
O O8 0.815869 0.500000 0.469260
O O9 0.766152 0.341949 0.573696
O O10 0.812686 0.315739 0.393283
O O11 0.796796 0.805584 0.255389
O O12 0.883262 0.831952 0.101984
O O13 0.903531 0.880539 0.262522
O O14 0.828737 0.000000 0.198310
O O15 0.433780 0.500000 0.820363
O O16 0.483108 0.672915 0.747189
O O17 0.408427 0.668724 0.919210
O O18 0.432247 0.500000 0.014790
O O19 0.500000 0.330083 0.000000
O O20 0.469301 0.500000 0.345155
#
# Coordination Sequence:
#
# PCOD8078740 Si02
#       8
#     8   8   8   8   8   8   8   8
#     4  11  20  30  47  72  96 122 154 187 228 284
#     4  10  20  31  46  67  96 129 156 190 228 266
#     4  10  21  35  48  64  92 125 157 194 227 265
#     4  10  18  29  48  71  95 121 152 190 230 275
#     4   9  16  27  43  67  98 124 146 183 236 278
#     4  10  20  34  48  66  88 125 165 191 219 269
#     4   9  15  25  43  69  97 121 144 179 235 287
#     4  10  17  26  44  71 100 123 147 185 232 278
#
# _framework density 15.746672999999999
#
# number of rings (size 3 to 8) (size 9 to 14) (size 15 to 20)
#    0.000    2.125    3.750    1.125    0.000    0.750 
#    0.000    0.625    0.000    0.000    0.000    0.000 
#    0.000   10.000    0.000    0.000    0.000    0.000 
#
# Total GULP energy -396737.689613 kJ/mol
# GULP energy per Si atom -12398.052800 kJ/mol
# Density = 1.571083 g / cm^3
# Si number density = 15.746673 Si / 1000 Ang^3
#
#
#
# Elastic Constant Matrix: (Units=GPa)
#
#
# Indices 1 2 3 4 5 6 
#
# 1 82.2392 30.8895 32.6482 0.0000 -2.5822 0.0000
# 2 30.8895 59.6228 29.7319 0.0000 -5.3795 0.0000
# 3 32.6482 29.7319 116.9876 0.0000 -0.9374 0.0000
# 4 0.0000 0.0000 0.0000 12.7586 0.0000 -4.7456
# 5 -2.5822 -5.3795 -0.9374 0.0000 24.4542 0.0000
# 6 0.0000 0.0000 0.0000 -4.7456 0.0000 9.4753
#
#
#
# Elastic Compliance Matrix: (Units=1/GPa)
#
#
# Indices 1 2 3 4 5 6 
#
# 1 0.015792 -0.006846 -0.002667 0.000000 0.000059 0.000000
# 2 -0.006846 0.022582 -0.003796 0.000000 0.004099 0.000000
# 3 -0.002667 -0.003796 0.010251 0.000000 -0.000724 0.000000
# 4 0.000000 0.000000 0.000000 0.096323 0.000000 0.048242
# 5 0.000059 0.004099 -0.000724 0.000000 0.041773 0.000000
# 6 0.000000 0.000000 0.000000 0.048242 0.000000 0.129699
#
#
# Mechanical properties :
#
#
# Convention : Reuss Voigt Hill
#
# Bulk Modulus (GPa) = 45.43952 49.48766 47.46359
# Shear Modulus (GPa) = 14.27057 20.37628 17.32343
#
# Velocity S-wave (km/s) = 3.01368 3.60113 3.32042
# Velocity P-wave (km/s) = 6.40538 6.98473 6.70132
#
# Compressibility (1/GPa) = 0.02200728
#
# Stress axis : x y z
#
# Youngs Moduli (GPa) = 63.32476 44.28387 97.55216
#
# Poissons Ratio (x) = 0.30318 0.26013
# Poissons Ratio (y) = 0.43354 0.37027
# Poissons Ratio (z) = 0.16886 0.16808
#
# Static dielectric constant tensor:
#      x y z
#    x 2.985210 0.000000 0.029340 
#    y 0.000000 2.644460 0.000000 
#    z 0.029340 0.000000 3.222950 
# 
# 
# High freq. dielectric constant tensor:
#      x y z
#    x 1.606230 0.000000 0.004960 
#    y 0.000000 1.559650 0.000000 
#    z 0.004960 0.000000 1.608700 
# 
# From -- ./inp_files/232509.got.cif
#   From: 2010.06.25/outbox.cif.g09.slc.cpg/sg12_117_cif.got.tgz:232509.got - 2010.06.28 00:19:55.
