data_PCOD8078289
_publ_section_title
;
Structure prediction by ZEFSAII (Michael W. Deem and Ramdas Pophale) SiO2 
 PCOD8078289
Probable space group: C 2/M
;
_chemical_formula_sum "Si O2"
_cell_formula_units_Z 48
_cell_length_a 19.637779
_cell_length_b 20.287049
_cell_length_c 18.076068
_cell_angle_alpha 90.000000
_cell_angle_beta 157.127591
_cell_angle_gamma 90.000000
_cell_volume 2799.031251
_symmetry_space_group_name_H-M "C 2/M"
_symmetry_group_IT_number 12
_symmetry_cell_setting 'monoclinic'
loop_
_space_group_symop_operation_xyz
x,y,z
-x,y,-z
-x,-y,-z
x,-y,z
1/2+x,1/2+y,z
1/2-x,1/2+y,-z
1/2-x,1/2-y,-z
1/2+x,1/2-y,z
loop_
_atom_site_type_symbol
_atom_site_label
_atom_site_fract_x
_atom_site_fract_y
_atom_site_fract_z
Si Si1 0.021158 0.381447 0.605202
Si Si2 0.841839 0.922512 0.017949
Si Si3 0.877166 0.680734 0.677849
Si Si4 0.064906 0.753780 0.416812
Si Si5 0.764468 0.926055 0.568521
Si Si6 0.253912 0.682492 0.050329
O O1 0.975969 0.303901 0.566398
O O2 0.883733 0.421166 0.517339
O O3 0.000000 0.404341 0.500000
O O4 0.220448 0.397253 0.828885
O O5 0.809840 0.000000 0.999532
O O6 0.786035 0.882210 0.033975
O O7 0.046685 0.906673 0.206715
O O8 0.919366 0.728562 0.651516
O O9 0.754363 0.712005 0.619376
O O10 0.780561 0.616653 0.548564
O O11 0.068090 0.668100 0.905182
O O12 0.909055 0.808061 0.265665
O O13 0.772937 0.000000 0.547214
O O14 0.250000 0.750000 0.000000
#
# Coordination Sequence:
#
# PCOD8078289 Si02
#       6
#     8   8   8   8   8   8
#     4  11  23  35  48  64  94 141 175 194 222 275
#     4  11  21  32  48  71  99 128 160 201 241 282
#     4   9  16  26  48  71  88 112 150 199 253 288
#     4   9  17  29  47  69  90 112 158 205 242 278
#     4  10  20  32  47  68  97 128 160 198 238 282
#     4  10  16  28  50  71  89 117 153 198 254 290
#
# _framework density 17.148790000000002
#
# number of rings (size 3 to 8) (size 9 to 14) (size 15 to 20)
#    0.000    2.000    6.667    0.500    2.333    2.000 
#    0.000    1.667    0.000    0.000    0.000    0.000 
#    0.000    2.667    0.000    3.000    0.000    0.000 
#
# Total GULP energy -297336.022806 kJ/mol
# GULP energy per Si atom -12389.000950 kJ/mol
# Density = 1.710976 g / cm^3
# Si number density = 17.148790 Si / 1000 Ang^3
#
#
#
# Elastic Constant Matrix: (Units=GPa)
#
#
# Indices 1 2 3 4 5 6 
#
# 1 18.4608 21.8184 21.3250 -0.0086 12.2280 0.0059
# 2 21.8184 79.4116 37.1930 0.0197 5.1183 0.0180
# 3 21.3250 37.1930 115.9260 0.0204 37.4115 0.0315
# 4 -0.0086 0.0197 0.0204 22.8145 -0.0052 8.0916
# 5 12.2280 5.1183 37.4115 -0.0052 22.6434 -0.0143
# 6 0.0059 0.0180 0.0315 8.0916 -0.0143 10.8187
#
#
#
# Elastic Compliance Matrix: (Units=1/GPa)
#
#
# Indices 1 2 3 4 5 6 
#
# 1 0.155635 -0.045604 0.020991 0.000178 -0.108421 -0.000347
# 2 -0.045604 0.029237 -0.014581 -0.000063 0.042109 0.000122
# 3 0.020991 -0.014581 0.025787 0.000043 -0.050646 -0.000162
# 4 0.000178 -0.000063 0.000043 0.059657 -0.000167 -0.044620
# 5 -0.108421 0.042109 -0.050646 -0.000167 0.176872 0.000497
# 6 -0.000347 0.000122 -0.000162 -0.044620 0.000497 0.125807
#
#
# Mechanical properties :
#
#
# Convention : Reuss Voigt Hill
#
# Bulk Modulus (GPa) = 7.56018 41.60791 24.58405
# Shear Modulus (GPa) = 7.18934 20.15277 13.67105
#
# Velocity S-wave (km/s) = 2.04974 3.43180 2.82654
# Velocity P-wave (km/s) = 3.16545 6.32602 5.00193
#
# Compressibility (1/GPa) = 0.13227200
#
# Stress axis : x y z
#
# Youngs Moduli (GPa) = 6.42529 34.20280 38.77902
#
# Poissons Ratio (x) = 1.55979 -0.81402
# Poissons Ratio (y) = 0.29302 0.56542
# Poissons Ratio (z) = -0.13487 0.49870
#
# Static dielectric constant tensor:
#      x y z
#    x 2.901080 -0.000040 0.815170 
#    y -0.000040 3.238730 -0.000060 
#    z 0.815170 -0.000060 4.099590 
# 
# 
# High freq. dielectric constant tensor:
#      x y z
#    x 1.597560 0.000000 0.051690 
#    y 0.000000 1.661530 0.000000 
#    z 0.051690 0.000000 1.675700 
# 
# From -- ./inp_files/285936.got.cif
#   From: 2010.06.25/outbox.cif.g09.slc.cpg/sg12_143_cif.got.tgz:285936.got - 2010.06.28 00:19:55.
