data_PCOD8078141
_publ_section_title
;
Structure prediction by ZEFSAII (Michael W. Deem and Ramdas Pophale) SiO2 
 PCOD8078141
Probable space group: C 2/M
;
_chemical_formula_sum "Si O2"
_cell_formula_units_Z 56
_cell_length_a 29.646450
_cell_length_b 13.387513
_cell_length_c 9.711896
_cell_angle_alpha 90.000000
_cell_angle_beta 85.633092
_cell_angle_gamma 90.000000
_cell_volume 3843.385872
_symmetry_space_group_name_H-M "C 2/M"
_symmetry_group_IT_number 12
_symmetry_cell_setting 'monoclinic'
loop_
_space_group_symop_operation_xyz
x,y,z
-x,y,-z
-x,-y,-z
x,-y,z
1/2+x,1/2+y,z
1/2-x,1/2+y,-z
1/2-x,1/2-y,-z
1/2+x,1/2-y,z
loop_
_atom_site_type_symbol
_atom_site_label
_atom_site_fract_x
_atom_site_fract_y
_atom_site_fract_z
Si Si1 0.382458 0.381384 0.373619
Si Si2 0.240833 0.386065 0.402595
Si Si3 0.687913 0.383470 0.833646
Si Si4 0.186058 0.803435 0.414256
Si Si5 0.660903 0.381046 0.134847
Si Si6 0.061621 0.118527 0.096343
Si Si7 0.466189 0.618386 0.194561
O O1 0.377900 0.500000 0.398796
O O2 0.352743 0.342593 0.251541
O O3 0.364045 0.325428 0.513882
O O4 0.434402 0.348427 0.330247
O O5 0.223535 0.500000 0.410072
O O6 0.264262 0.359706 0.250275
O O7 0.198125 0.313329 0.431635
O O8 0.277248 0.371732 0.515848
O O9 0.679633 0.500000 0.847599
O O10 0.684989 0.340709 0.989323
O O11 0.187327 0.830357 0.253711
O O12 0.663818 0.500000 0.149528
O O13 0.608802 0.342357 0.147214
O O14 0.018567 0.153097 0.200735
O O15 0.063887 0.000000 0.089237
O O16 0.054091 0.160912 0.943891
O O17 0.464451 0.500000 0.184674
#
# Coordination Sequence:
#
# PCOD8078141 Si02
#       7
#     8   8   8   8   8   8   8
#     4   9  14  24  38  56  80 110 137 155 179 230
#     4   9  18  33  44  54  73 102 135 161 191 239
#     4   8  14  24  40  55  74 103 131 156 186 223
#     4  10  19  27  42  60  76 100 131 161 201 229
#     4  10  16  24  37  60  85 103 127 163 191 217
#     4   8  13  20  33  55  80 107 135 157 179 213
#     4   8  12  20  35  53  77 111 140 153 171 218
#
# _framework density 14.570485
#
# number of rings (size 3 to 8) (size 9 to 14) (size 15 to 20)
#    0.000    3.143    1.429    3.000    0.000    0.571 
#    0.000    0.714    0.000    3.429    0.000    0.000 
#    0.000    2.286    0.000    3.143    0.000    0.286 
#
# Total GULP energy -346889.032229 kJ/mol
# GULP energy per Si atom -12388.894008 kJ/mol
# Density = 1.453732 g / cm^3
# Si number density = 14.570485 Si / 1000 Ang^3
#
#
#
# Elastic Constant Matrix: (Units=GPa)
#
#
# Indices 1 2 3 4 5 6 
#
# 1 55.6256 28.5888 26.9466 0.0000 -13.3697 0.0000
# 2 28.5888 41.2232 20.6580 0.0000 -8.5001 0.0000
# 3 26.9466 20.6580 86.3578 0.0000 -6.7783 0.0000
# 4 0.0000 0.0000 0.0000 8.8074 0.0000 0.8584
# 5 -13.3697 -8.5001 -6.7783 0.0000 22.7655 0.0000
# 6 0.0000 0.0000 0.0000 0.8584 0.0000 9.4650
#
#
#
# Elastic Compliance Matrix: (Units=1/GPa)
#
#
# Indices 1 2 3 4 5 6 
#
# 1 0.031924 -0.017443 -0.004944 0.000000 0.010764 0.000000
# 2 -0.017443 0.038810 -0.003592 0.000000 0.003178 0.000000
# 3 -0.004944 -0.003592 0.013975 0.000000 -0.000084 0.000000
# 4 0.000000 0.000000 0.000000 0.114553 0.000000 -0.010389
# 5 0.010764 0.003178 -0.000084 0.000000 0.051409 0.000000
# 6 0.000000 0.000000 0.000000 -0.010389 0.000000 0.106595
#
#
# Mechanical properties :
#
#
# Convention : Reuss Voigt Hill
#
# Bulk Modulus (GPa) = 30.53234 37.28817 33.91025
# Shear Modulus (GPa) = 11.90076 15.34177 13.62127
#
# Velocity S-wave (km/s) = 2.86102 3.24842 3.06085
# Velocity P-wave (km/s) = 5.64928 6.30212 5.98461
#
# Compressibility (1/GPa) = 0.03275216
#
# Stress axis : x y z
#
# Youngs Moduli (GPa) = 31.32421 25.76643 71.55597
#
# Poissons Ratio (x) = 0.44944 0.35377
# Poissons Ratio (y) = 0.54638 0.25701
# Poissons Ratio (z) = 0.15487 0.09255
#
# Static dielectric constant tensor:
#      x y z
#    x 2.971560 0.000000 -0.238220 
#    y 0.000000 2.314360 0.000000 
#    z -0.238220 0.000000 2.983050 
# 
# 
# High freq. dielectric constant tensor:
#      x y z
#    x 1.551360 0.000000 -0.014690 
#    y 0.000000 1.483510 0.000000 
#    z -0.014690 0.000000 1.559770 
# 
# From -- ./inp_files/110859.got.cif
#   From: 2010.06.25/outbox.cif.g09.slc.cpg/sg12_56_cif.got.tgz:110859.got - 2010.06.28 00:19:55.
