data_PCOD8078001
_publ_section_title
;
Structure prediction by ZEFSAII (Michael W. Deem and Ramdas Pophale) SiO2 
 PCOD8078001
Probable space group: P 21/M
;
_chemical_formula_sum "Si O2"
_cell_formula_units_Z 28
_cell_length_a 30.000000
_cell_length_b 9.000000
_cell_length_c 30.000000
_cell_angle_alpha 90.000000
_cell_angle_beta 10.000000
_cell_angle_gamma 90.000000
_cell_volume 1406.550239
_symmetry_space_group_name_H-M "P 21/M"
_symmetry_group_IT_number 11
_symmetry_cell_setting 'monoclinic'
loop_
_space_group_symop_operation_xyz
x,y,z
-x,1/2+y,-z
-x,-y,-z
x,1/2-y,z
loop_
_atom_site_type_symbol
_atom_site_label
_atom_site_fract_x
_atom_site_fract_y
_atom_site_fract_z
Si Si1 0.044337 0.919112 0.001676
Si Si2 0.559747 0.577755 0.540961
Si Si3 0.739794 0.071385 0.739422
Si Si4 0.705200 0.075915 0.673687
Si Si5 0.612350 0.426414 0.579857
Si Si6 0.867579 0.073048 0.899202
Si Si7 0.175546 0.073387 0.151211
O O1 0.082154 0.750000 0.951852
O O2 0.304167 0.977513 0.768137
O O3 0.804610 0.946440 0.269303
O O4 0.000000 0.000000 0.000000
O O5 0.537897 0.750000 0.578675
O O6 0.590205 0.459946 0.549966
O O7 0.741156 0.250000 0.743246
O O8 0.716138 0.013533 0.712425
O O9 0.000000 0.000000 0.500000
O O10 0.500000 0.000000 0.000000
O O11 0.723470 0.250000 0.657879
O O12 0.946872 0.017565 0.407928
O O13 0.440830 0.025766 0.912197
O O14 0.614066 0.250000 0.587509
O O15 0.873521 0.499499 0.338732
O O16 0.373376 0.502065 0.838983
O O17 0.873750 0.250000 0.900699
O O18 0.844201 0.032350 0.871196
O O19 0.161845 0.250000 0.153221
#
# Coordination Sequence:
#
# PCOD8078001 Si02
#       7
#     4   4   4   4   4   4   4
#     4  10  21  36  57  83 115 153 195 240 293 351
#     4  10  21  38  58  84 117 155 194 243 302 352
#     4  11  22  39  61  89 121 159 202 247 300 358
#     4   9  19  35  58  83 114 155 198 241 294 354
#     4  12  25  42  65  93 121 159 208 253 293 355
#     4  12  25  42  63  91 126 161 194 245 310 365
#     4  10  19  36  60  85 112 152 202 247 287 349
#
# _framework density 19.906860999999999
#
# number of rings (size 3 to 8) (size 9 to 14) (size 15 to 20)
#    0.000    1.429    0.000    6.000    0.000    5.714 
#    0.000    4.286    0.000    0.000    0.000    0.000 
#    0.000    0.000    0.000    0.000    0.000    0.000 
#
# Total GULP energy -347207.062481 kJ/mol
# GULP energy per Si atom -12400.252231 kJ/mol
# Density = 1.986155 g / cm^3
# Si number density = 19.906861 Si / 1000 Ang^3
#
#
#
# Elastic Constant Matrix: (Units=GPa)
#
#
# Indices 1 2 3 4 5 6 
#
# 1 123.1058 58.3398 54.7975 0.0000 -9.7978 0.0000
# 2 58.3398 128.1054 62.0561 0.0000 -3.6965 0.0000
# 3 54.7975 62.0561 168.5518 0.0000 -18.4167 0.0000
# 4 0.0000 0.0000 0.0000 61.9653 0.0000 -1.8475
# 5 -9.7978 -3.6965 -18.4167 0.0000 25.4317 0.0000
# 6 0.0000 0.0000 0.0000 -1.8475 0.0000 38.4788
#
#
#
# Elastic Compliance Matrix: (Units=1/GPa)
#
#
# Indices 1 2 3 4 5 6 
#
# 1 0.011061 -0.004079 -0.001839 0.000000 0.002337 0.000000
# 2 -0.004079 0.011041 -0.002970 0.000000 -0.002118 0.000000
# 3 -0.001839 -0.002970 0.008144 0.000000 0.004758 0.000000
# 4 0.000000 0.000000 0.000000 0.016161 0.000000 0.000776
# 5 0.002337 -0.002118 0.004758 0.000000 0.043359 0.000000
# 6 0.000000 0.000000 0.000000 0.000776 0.000000 0.026026
#
#
# Mechanical properties :
#
#
# Convention : Reuss Voigt Hill
#
# Bulk Modulus (GPa) = 80.19328 85.57219 82.88273
# Shear Modulus (GPa) = 36.30438 41.47981 38.89209
#
# Velocity S-wave (km/s) = 4.27513 4.56970 4.42487
# Velocity P-wave (km/s) = 8.04616 8.42155 8.23599
#
# Compressibility (1/GPa) = 0.01246987
#
# Stress axis : x y z
#
# Youngs Moduli (GPa) = 90.41151 90.56801 122.78694
#
# Poissons Ratio (x) = 0.36941 0.22578
# Poissons Ratio (y) = 0.36877 0.36473
# Poissons Ratio (z) = 0.16625 0.26903
#
# Static dielectric constant tensor:
#      x y z
#    x 3.882070 0.000000 0.048510 
#    y 0.000000 3.454830 0.000000 
#    z 0.048510 0.000000 3.664830 
# 
# 
# High freq. dielectric constant tensor:
#      x y z
#    x 1.782940 0.000000 -0.002020 
#    y 0.000000 1.768560 0.000000 
#    z -0.002020 0.000000 1.804900 
# 
# From -- ./inp_files/73857.got.cif
#   From: 2010.06.25/outbox.ucp.g09.slc.cvg/sg11_37_cif.got.tgz:73857.got - 2010.06.28 13:43:20.
