data_PCOD8078065
_publ_section_title
;
Structure prediction by ZEFSAII (Michael W. Deem and Ramdas Pophale) SiO2 
 PCOD8078065
Probable space group: C 2/M
;
_chemical_formula_sum "Si O2"
_cell_formula_units_Z 52
_cell_length_a 13.503057
_cell_length_b 22.889987
_cell_length_c 17.186679
_cell_angle_alpha 90.000000
_cell_angle_beta 138.505915
_cell_angle_gamma 90.000000
_cell_volume 3519.520526
_symmetry_space_group_name_H-M "C 2/M"
_symmetry_group_IT_number 12
_symmetry_cell_setting 'monoclinic'
loop_
_space_group_symop_operation_xyz
x,y,z
-x,y,-z
-x,-y,-z
x,-y,z
1/2+x,1/2+y,z
1/2-x,1/2+y,-z
1/2-x,1/2-y,-z
1/2+x,1/2-y,z
loop_
_atom_site_type_symbol
_atom_site_label
_atom_site_fract_x
_atom_site_fract_y
_atom_site_fract_z
Si Si1 0.380477 0.724572 0.862312
Si Si2 0.828501 0.063596 0.174057
Si Si3 0.891209 0.173891 0.110667
Si Si4 0.103241 0.658385 0.211199
Si Si5 0.141535 0.933026 0.634811
Si Si6 0.000000 0.400613 0.000000
Si Si7 0.647554 0.205294 0.844057
O O1 0.456851 0.677315 0.850412
O O2 0.329720 0.780655 0.781870
O O3 0.231265 0.694930 0.811154
O O4 0.500000 0.742830 0.000000
O O5 0.887241 0.111439 0.149073
O O6 0.905241 0.074879 0.302733
O O7 0.650274 0.061647 0.083722
O O8 0.874997 0.000000 0.168579
O O9 0.884647 0.225381 0.170432
O O10 0.749217 0.182114 0.973205
O O11 0.227194 0.611934 0.309769
O O12 0.000506 0.636647 0.079503
O O13 0.006420 0.669831 0.233081
O O14 0.000000 0.916038 0.500000
O O15 0.193621 0.000000 0.649266
#
# Coordination Sequence:
#
# PCOD8078065 Si02
#       7
#     8   8   8   8   8   4   8
#     4   9  16  25  43  64  91 118 141 167 203 257
#     4  10  18  27  42  61  85 110 137 176 214 250
#     4   9  16  25  40  63  88 115 140 167 207 256
#     4  10  16  25  45  63  87 110 139 177 208 250
#     4   9  19  32  44  61  85 114 145 173 212 259
#     4  10  15  24  38  66  88 102 129 172 216 258
#     4   9  15  25  40  63  89 113 140 168 206 255
#
# _framework density 14.774739
#
# number of rings (size 3 to 8) (size 9 to 14) (size 15 to 20)
#    0.000    2.615    2.308    3.000    0.000    0.615 
#    0.000    0.000    0.000   13.385    0.000    0.000 
#    0.000    3.692    0.000    0.000    0.000    0.000 
#
# Total GULP energy -322143.771373 kJ/mol
# GULP energy per Si atom -12390.145053 kJ/mol
# Density = 1.474111 g / cm^3
# Si number density = 14.774739 Si / 1000 Ang^3
#
#
#
# Elastic Constant Matrix: (Units=GPa)
#
#
# Indices 1 2 3 4 5 6 
#
# 1 119.6113 59.4680 27.0415 -0.0005 5.6408 -0.0004
# 2 59.4680 107.4385 35.0445 -0.0003 3.3246 -0.0003
# 3 27.0415 35.0445 59.4626 -0.0006 3.1211 -0.0005
# 4 -0.0005 -0.0003 -0.0006 15.8727 -0.0005 -1.6533
# 5 5.6408 3.3246 3.1211 -0.0005 9.7403 -0.0005
# 6 -0.0004 -0.0003 -0.0005 -1.6533 -0.0005 16.1738
#
#
#
# Elastic Compliance Matrix: (Units=1/GPa)
#
#
# Indices 1 2 3 4 5 6 
#
# 1 0.011875 -0.005882 -0.001707 0.000000 -0.004322 0.000000
# 2 -0.005882 0.014467 -0.005870 0.000000 0.000349 0.000000
# 3 -0.001707 -0.005870 0.021253 0.000001 -0.003818 0.000001
# 4 0.000000 0.000000 0.000001 0.063679 0.000003 0.006509
# 5 -0.004322 0.000349 -0.003818 0.000003 0.106273 0.000003
# 6 0.000000 0.000000 0.000001 0.006509 0.000003 0.062494
#
#
# Mechanical properties :
#
#
# Convention : Reuss Voigt Hill
#
# Bulk Modulus (GPa) = 48.36044 58.84672 53.60358
# Shear Modulus (GPa) = 15.93114 19.35461 17.64287
#
# Velocity S-wave (km/s) = 3.28726 3.62329 3.45936
# Velocity P-wave (km/s) = 6.87103 7.57760 7.23295
#
# Compressibility (1/GPa) = 0.02067806
#
# Stress axis : x y z
#
# Youngs Moduli (GPa) = 84.21350 69.12144 47.05199
#
# Poissons Ratio (x) = 0.40659 0.08030
# Poissons Ratio (y) = 0.49537 0.27618
# Poissons Ratio (z) = 0.14371 0.40572
#
# Static dielectric constant tensor:
#      x y z
#    x 2.902940 0.000000 -0.011960 
#    y 0.000000 2.781630 0.000000 
#    z -0.011960 0.000000 2.543970 
# 
# 
# High freq. dielectric constant tensor:
#      x y z
#    x 1.560950 0.000000 0.000780 
#    y 0.000000 1.558420 0.000000 
#    z 0.000780 0.000000 1.521440 
# 
# From -- ./inp_files/190316.got.cif
#   From: 2010.06.25/outbox.cif.g09.slc.cpg/sg12_96_cif.got.tgz:190316.got - 2010.06.28 00:19:55.
