data_PCOD8078853
_publ_section_title
;
Structure prediction by ZEFSAII (Michael W. Deem and Ramdas Pophale) SiO2 
 PCOD8078853
Probable space group: C 2/M
;
_chemical_formula_sum "Si O2"
_cell_formula_units_Z 64
_cell_length_a 31.255989
_cell_length_b 8.905326
_cell_length_c 22.729202
_cell_angle_alpha 90.000000
_cell_angle_beta 147.293697
_cell_angle_gamma 90.000000
_cell_volume 3418.445498
_symmetry_space_group_name_H-M "C 2/M"
_symmetry_group_IT_number 12
_symmetry_cell_setting 'monoclinic'
loop_
_space_group_symop_operation_xyz
x,y,z
-x,y,-z
-x,-y,-z
x,-y,z
1/2+x,1/2+y,z
1/2-x,1/2+y,-z
1/2-x,1/2-y,-z
1/2+x,1/2-y,z
loop_
_atom_site_type_symbol
_atom_site_label
_atom_site_fract_x
_atom_site_fract_y
_atom_site_fract_z
Si Si1 0.572792 0.171283 0.959035
Si Si2 0.784732 0.324922 0.798395
Si Si3 0.697228 0.677609 0.810458
Si Si4 0.905999 0.821288 0.606916
Si Si5 0.163799 0.175796 0.965520
Si Si6 0.432239 0.322636 0.256617
Si Si7 0.256845 0.820771 0.637167
Si Si8 0.098153 0.673315 0.272022
O O1 0.623774 0.205649 0.077057
O O2 0.598737 0.287219 0.939419
O O3 0.591659 0.000000 0.960776
O O4 0.478700 0.192040 0.859374
O O5 0.767540 0.500000 0.772722
O O6 0.723673 0.257773 0.777138
O O7 0.768104 0.251086 0.715638
O O8 0.706472 0.500000 0.820373
O O9 0.755168 0.737429 0.928180
O O10 0.607046 0.723257 0.725480
O O11 0.825864 0.760864 0.484313
O O12 0.913815 0.762967 0.681920
O O13 0.979316 0.758511 0.651952
O O14 0.905746 0.000000 0.609087
O O15 0.181175 0.000000 0.985318
O O16 0.127787 0.235164 0.862771
O O17 0.438860 0.500000 0.259412
O O18 0.327095 0.760219 0.676805
O O19 0.260221 0.000000 0.643238
O O20 0.111976 0.500000 0.304403
#
# Coordination Sequence:
#
# PCOD8078853 Si02
#       8
#     8   8   8   8   8   8   8   8
#     4   9  17  29  47  70  97 126 153 192 238 276
#     4   8  15  29  47  68  94 124 156 193 233 275
#     4   9  17  30  47  67  94 124 156 192 230 275
#     4  10  19  33  50  69  97 128 155 192 237 280
#     4  10  17  27  44  68  98 127 153 186 231 283
#     4   9  17  28  44  68  95 124 154 189 233 278
#     4   9  18  31  49  71  94 123 161 198 234 275
#     4  10  19  31  49  74  97 120 156 199 237 279
#
# _framework density 18.721961
#
# number of rings (size 3 to 8) (size 9 to 14) (size 15 to 20)
#    0.000    2.750    1.250    1.875    0.000    0.500 
#    0.000    4.375    0.000    9.750    0.000    4.375 
#    0.000    5.000    0.000    0.000    0.000    0.000 
#
# Total GULP energy -396503.580349 kJ/mol
# GULP energy per Si atom -12390.736886 kJ/mol
# Density = 1.867935 g / cm^3
# Si number density = 18.721961 Si / 1000 Ang^3
#
#
#
# Elastic Constant Matrix: (Units=GPa)
#
#
# Indices 1 2 3 4 5 6 
#
# 1 117.6124 8.9563 88.4435 0.0000 21.7032 0.0000
# 2 8.9563 13.8697 10.2531 0.0000 0.8473 0.0000
# 3 88.4435 10.2531 123.8601 0.0000 14.6901 0.0000
# 4 0.0000 0.0000 0.0000 15.4972 0.0000 0.3544
# 5 21.7032 0.8473 14.6901 0.0000 35.0119 0.0000
# 6 0.0000 0.0000 0.0000 0.3544 0.0000 16.4055
#
#
#
# Elastic Compliance Matrix: (Units=1/GPa)
#
#
# Indices 1 2 3 4 5 6 
#
# 1 0.019825 -0.002679 -0.013138 0.000000 -0.006712 0.000000
# 2 -0.002679 0.077186 -0.004685 0.000000 0.001759 0.000000
# 3 -0.013138 -0.004685 0.017747 0.000000 0.000812 0.000000
# 4 0.000000 0.000000 0.000000 0.064560 0.000000 -0.001395
# 5 -0.006712 0.001759 0.000812 0.000000 0.032339 0.000000
# 6 0.000000 0.000000 0.000000 -0.001395 0.000000 0.060985
#
#
# Mechanical properties :
#
#
# Convention : Reuss Voigt Hill
#
# Bulk Modulus (GPa) = 13.55887 52.29424 32.92655
# Shear Modulus (GPa) = 14.78279 23.22889 19.00584
#
# Velocity S-wave (km/s) = 2.81302 3.52622 3.18962
# Velocity P-wave (km/s) = 4.22004 6.67620 5.58482
#
# Compressibility (1/GPa) = 0.07375249
#
# Stress axis : x y z
#
# Youngs Moduli (GPa) = 50.44107 12.95575 56.34813
#
# Poissons Ratio (x) = 0.03471 0.74033
# Poissons Ratio (y) = 0.13516 0.26397
# Poissons Ratio (z) = 0.66272 0.06069
#
# Static dielectric constant tensor:
#      x y z
#    x 3.716330 0.000000 0.180380 
#    y 0.000000 2.994410 0.000000 
#    z 0.180380 0.000000 3.627640 
# 
# 
# High freq. dielectric constant tensor:
#      x y z
#    x 1.728490 0.000000 0.015350 
#    y 0.000000 1.677920 0.000000 
#    z 0.015350 0.000000 1.722600 
# 
# From -- ./inp_files/353570.got.cif
#   From: 2010.06.25/outbox.cif.g09.slc.cpg/sg12_177_cif.got.tgz:353570.got - 2010.06.28 00:19:55.
