data_PCOD8078330
_publ_section_title
;
Structure prediction by ZEFSAII (Michael W. Deem and Ramdas Pophale) SiO2 
 PCOD8078330
Probable space group: C 2/M
;
_chemical_formula_sum "Si O2"
_cell_formula_units_Z 44
_cell_length_a 20.673820
_cell_length_b 7.836679
_cell_length_c 15.414793
_cell_angle_alpha 90.000000
_cell_angle_beta 99.030436
_cell_angle_gamma 90.000000
_cell_volume 2466.458489
_symmetry_space_group_name_H-M "C 2/M"
_symmetry_group_IT_number 12
_symmetry_cell_setting 'monoclinic'
loop_
_space_group_symop_operation_xyz
x,y,z
-x,y,-z
-x,-y,-z
x,-y,z
1/2+x,1/2+y,z
1/2-x,1/2+y,-z
1/2-x,1/2-y,-z
1/2+x,1/2-y,z
loop_
_atom_site_type_symbol
_atom_site_label
_atom_site_fract_x
_atom_site_fract_y
_atom_site_fract_z
Si Si1 0.346723 0.807259 0.955113
Si Si2 0.596083 0.803567 0.731924
Si Si3 0.577114 0.816968 0.529190
Si Si4 0.006557 0.000000 0.757856
Si Si5 0.441290 0.500000 0.559299
Si Si6 0.561540 0.500000 0.076109
Si Si7 0.287367 0.804771 0.124290
O O1 0.398313 0.673206 0.929518
O O2 0.279104 0.804251 0.885652
O O3 0.375481 0.000000 0.955497
O O4 0.331531 0.753438 0.050872
O O5 0.594001 0.760853 0.630171
O O6 0.549200 0.672467 0.772052
O O7 0.670110 0.773231 0.780434
O O8 0.573937 0.000000 0.745679
O O9 0.500000 0.837694 0.500000
O O10 0.602263 0.669690 0.468732
O O11 0.610695 0.000000 0.514874
O O12 0.958392 0.000000 0.828183
O O13 0.964179 0.000000 0.661905
O O14 0.500000 0.500000 0.500000
O O15 0.500000 0.500000 0.000000
O O16 0.265345 0.000000 0.110260
#
# Coordination Sequence:
#
# PCOD8078330 Si02
#       7
#     8   8   8   4   4   4   8
#     4  10  21  38  56  77 106 141 180 222 267 306
#     4  10  19  30  49  82 111 134 175 218 268 320
#     4   9  15  26  44  68 109 135 158 216 268 311
#     4  12  22  32  52  78 112 150 176 207 270 327
#     4  10  16  30  46  70 108 136 174 218 254 313
#     4  12  26  40  54  76 114 152 177 213 256 329
#     4   9  18  34  58  81 105 134 175 233 269 302
#
# _framework density 17.839343
#
# number of rings (size 3 to 8) (size 9 to 14) (size 15 to 20)
#    0.000    2.000    4.545    1.091    2.545    1.091 
#    0.000    0.000    0.000    0.000    0.000    1.273 
#    0.000    0.000    0.000    0.000    0.000    0.000 
#
# Total GULP energy -272661.954365 kJ/mol
# GULP energy per Si atom -12393.725198 kJ/mol
# Density = 1.779874 g / cm^3
# Si number density = 17.839343 Si / 1000 Ang^3
#
#
#
# Elastic Constant Matrix: (Units=GPa)
#
#
# Indices 1 2 3 4 5 6 
#
# 1 64.2406 49.7817 47.9115 0.0000 7.1589 0.0000
# 2 49.7817 137.5368 36.1052 0.0000 -3.5716 0.0000
# 3 47.9115 36.1052 118.4680 0.0000 20.3321 0.0000
# 4 0.0000 0.0000 0.0000 24.2867 0.0000 2.3072
# 5 7.1589 -3.5716 20.3321 0.0000 22.5948 0.0000
# 6 0.0000 0.0000 0.0000 2.3072 0.0000 24.2344
#
#
#
# Elastic Compliance Matrix: (Units=1/GPa)
#
#
# Indices 1 2 3 4 5 6 
#
# 1 0.028625 -0.008158 -0.008648 0.000000 -0.002577 0.000000
# 2 -0.008158 0.010553 -0.000765 0.000000 0.004941 0.000000
# 3 -0.008648 -0.000765 0.013863 0.000000 -0.009856 0.000000
# 4 0.000000 0.000000 0.000000 0.041551 0.000000 -0.003956
# 5 -0.002577 0.004941 -0.009856 0.000000 0.054724 0.000000
# 6 0.000000 0.000000 0.000000 -0.003956 0.000000 0.041640
#
#
# Mechanical properties :
#
#
# Convention : Reuss Voigt Hill
#
# Bulk Modulus (GPa) = 55.86797 65.31580 60.59189
# Shear Modulus (GPa) = 21.54574 26.65298 24.09936
#
# Velocity S-wave (km/s) = 3.47906 3.86950 3.67946
# Velocity P-wave (km/s) = 6.89375 7.52707 7.21736
#
# Compressibility (1/GPa) = 0.01789934
#
# Stress axis : x y z
#
# Youngs Moduli (GPa) = 34.93428 94.76397 72.13249
#
# Poissons Ratio (x) = 0.77304 0.62383
# Poissons Ratio (y) = 0.28498 0.05518
# Poissons Ratio (z) = 0.30212 0.07249
#
# Static dielectric constant tensor:
#      x y z
#    x 2.890000 0.000000 0.288060 
#    y 0.000000 4.776310 0.000000 
#    z 0.288060 0.000000 3.331100 
# 
# 
# High freq. dielectric constant tensor:
#      x y z
#    x 1.627960 0.000000 0.035230 
#    y 0.000000 1.720770 0.000000 
#    z 0.035230 0.000000 1.691210 
# 
# From -- ./inp_files/221099.got.cif
#   From: 2010.06.25/outbox.cif.g09.slc.cpg/sg12_111_cif.got.tgz:221099.got - 2010.06.28 00:19:55.
