data_PCOD8078727
_publ_section_title
;
Structure prediction by ZEFSAII (Michael W. Deem and Ramdas Pophale) SiO2 
 PCOD8078727
Probable space group: C 2/M
;
_chemical_formula_sum "Si O2"
_cell_formula_units_Z 48
_cell_length_a 18.520012
_cell_length_b 8.531060
_cell_length_c 28.098907
_cell_angle_alpha 90.000000
_cell_angle_beta 34.234056
_cell_angle_gamma 90.000000
_cell_volume 2497.549062
_symmetry_space_group_name_H-M "C 2/M"
_symmetry_group_IT_number 12
_symmetry_cell_setting 'monoclinic'
loop_
_space_group_symop_operation_xyz
x,y,z
-x,y,-z
-x,-y,-z
x,-y,z
1/2+x,1/2+y,z
1/2-x,1/2+y,-z
1/2-x,1/2-y,-z
1/2+x,1/2-y,z
loop_
_atom_site_type_symbol
_atom_site_label
_atom_site_fract_x
_atom_site_fract_y
_atom_site_fract_z
Si Si1 0.854441 0.313016 0.580958
Si Si2 0.748560 0.183046 0.264504
Si Si3 0.973488 0.816568 0.080164
Si Si4 0.805253 0.184707 0.421325
Si Si5 0.306180 0.183116 0.087596
Si Si6 0.586619 0.185259 0.262873
O O1 0.849800 0.500000 0.583948
O O2 0.787917 0.241753 0.664846
O O3 0.779407 0.247442 0.576032
O O4 0.000000 0.251767 0.500000
O O5 0.899713 0.215292 0.170363
O O6 0.657691 0.248538 0.271791
O O7 0.721267 0.000000 0.282295
O O8 0.896599 0.718506 0.082928
O O9 0.966481 0.000000 0.070982
O O10 0.121294 0.755781 0.998825
O O11 0.750000 0.250000 0.500000
O O12 0.950365 0.233627 0.333782
O O13 0.794447 0.000000 0.428939
O O14 0.168662 0.264585 0.171585
O O15 0.284980 0.000000 0.091465
O O16 0.569642 0.000000 0.272856
#
# Coordination Sequence:
#
# PCOD8078727 Si02
#       6
#     8   8   8   8   8   8
#     4   9  17  31  52  76  99 127 166 207 246 292
#     4   8  15  28  49  75  99 129 170 211 248 290
#     4   9  15  25  43  69 101 135 171 209 251 295
#     4  11  22  35  54  77 102 131 164 204 248 298
#     4  10  17  26  43  70 103 134 168 208 249 295
#     4  10  19  33  53  75 102 133 167 208 252 298
#
# _framework density 19.218843
#
# number of rings (size 3 to 8) (size 9 to 14) (size 15 to 20)
#    0.000    2.500    0.000    6.000    0.000    2.667 
#    0.000    0.000    0.000   20.000    0.000    0.000 
#    0.000    0.000    0.000    0.000    0.000    0.000 
#
# Total GULP energy -297420.331168 kJ/mol
# GULP energy per Si atom -12392.513799 kJ/mol
# Density = 1.917510 g / cm^3
# Si number density = 19.218843 Si / 1000 Ang^3
#
#
#
# Elastic Constant Matrix: (Units=GPa)
#
#
# Indices 1 2 3 4 5 6 
#
# 1 96.5557 18.1594 75.1247 0.0112 1.3820 -0.0436
# 2 18.1594 40.0269 15.8429 0.0238 5.2776 -0.0513
# 3 75.1247 15.8429 201.2954 0.0036 4.1329 -0.0254
# 4 0.0112 0.0238 0.0036 28.8175 0.0005 -6.6364
# 5 1.3820 5.2776 4.1329 0.0005 25.7204 0.0136
# 6 -0.0436 -0.0513 -0.0254 -6.6364 0.0136 14.0290
#
#
#
# Elastic Compliance Matrix: (Units=1/GPa)
#
#
# Indices 1 2 3 4 5 6 
#
# 1 0.015496 -0.005030 -0.005409 0.000004 0.001069 0.000021
# 2 -0.005030 0.028072 -0.000220 0.000000 -0.005455 0.000092
# 3 -0.005409 -0.000220 0.007020 0.000001 -0.000792 -0.000004
# 4 0.000004 0.000000 0.000001 0.038944 -0.000011 0.018422
# 5 0.001069 -0.005455 -0.000792 -0.000011 0.040069 -0.000062
# 6 0.000021 0.000092 -0.000004 0.018422 -0.000062 0.079996
#
#
# Mechanical properties :
#
#
# Convention : Reuss Voigt Hill
#
# Bulk Modulus (GPa) = 34.16586 61.79243 47.97915
# Shear Modulus (GPa) = 20.77516 28.96342 24.86929
#
# Velocity S-wave (km/s) = 3.29139 3.88626 3.60113
# Velocity P-wave (km/s) = 5.67981 7.23596 6.50459
#
# Compressibility (1/GPa) = 0.02926898
#
# Stress axis : x y z
#
# Youngs Moduli (GPa) = 64.53222 35.62303 142.44618
#
# Poissons Ratio (x) = 0.17919 0.77053
# Poissons Ratio (y) = 0.32461 0.03135
# Poissons Ratio (z) = 0.34907 0.00784
#
# Static dielectric constant tensor:
#      x y z
#    x 3.288510 -0.000010 0.133300 
#    y -0.000010 3.227140 -0.000030 
#    z 0.133300 -0.000030 4.307710 
# 
# 
# High freq. dielectric constant tensor:
#      x y z
#    x 1.695150 0.000000 -0.000160 
#    y 0.000000 1.723940 0.000000 
#    z -0.000160 0.000000 1.781970 
# 
# From -- ./inp_files/380134.got.cif
#   From: 2010.06.25/outbox.cif.g09.slc.cpg/sg12_191_cif.got.tgz:380134.got - 2010.06.28 00:19:55.
