data_PCOD8078666
_publ_section_title
;
Structure prediction by ZEFSAII (Michael W. Deem and Ramdas Pophale) SiO2 
 PCOD8078666
Probable space group: C 2/M
;
_chemical_formula_sum "Si O2"
_cell_formula_units_Z 56
_cell_length_a 24.155854
_cell_length_b 9.151614
_cell_length_c 16.175188
_cell_angle_alpha 90.000000
_cell_angle_beta 105.229742
_cell_angle_gamma 90.000000
_cell_volume 3450.188712
_symmetry_space_group_name_H-M "C 2/M"
_symmetry_group_IT_number 12
_symmetry_cell_setting 'monoclinic'
loop_
_space_group_symop_operation_xyz
x,y,z
-x,y,-z
-x,-y,-z
x,-y,z
1/2+x,1/2+y,z
1/2-x,1/2+y,-z
1/2-x,1/2-y,-z
1/2+x,1/2-y,z
loop_
_atom_site_type_symbol
_atom_site_label
_atom_site_fract_x
_atom_site_fract_y
_atom_site_fract_z
Si Si1 0.971968 0.168181 0.861647
Si Si2 0.279104 0.835118 0.392103
Si Si3 0.218497 0.668617 0.233542
Si Si4 0.588248 0.331485 0.992124
Si Si5 0.796095 0.327760 0.961605
Si Si6 0.662623 0.334645 0.449608
Si Si7 0.896054 0.670107 0.712190
O O1 0.953332 0.267475 0.777181
O O2 0.039402 0.192664 0.903843
O O3 0.959132 0.000000 0.835303
O O4 0.936483 0.214915 0.928744
O O5 0.267370 0.762229 0.298614
O O6 0.328573 0.745936 0.459291
O O7 0.221475 0.831658 0.422535
O O8 0.300637 0.000000 0.386914
O O9 0.234335 0.500000 0.252463
O O10 0.218039 0.714434 0.138114
O O11 0.156289 0.702876 0.246578
O O12 0.607965 0.500000 0.001140
O O13 0.641208 0.229476 0.989083
O O14 0.794130 0.500000 0.975303
O O15 0.750000 0.250000 0.000000
O O16 0.642386 0.500000 0.458179
O O17 0.613838 0.250481 0.378897
O O18 0.903860 0.500000 0.697170
#
# Coordination Sequence:
#
# PCOD8078666 Si02
#       7
#     8   8   8   8   8   8   8
#     4   9  17  29  46  67  91 119 151 186 228 276
#     4   9  16  25  39  58  80 111 148 183 219 263
#     4   9  18  30  42  59  85 116 150 186 226 271
#     4   9  18  32  48  66  89 118 152 190 230 275
#     4  11  22  35  49  67  90 120 157 197 236 273
#     4   9  16  25  37  56  84 117 147 178 219 265
#     4  10  17  26  41  63  90 118 151 187 221 266
#
# _framework density 16.230996000000001
#
# number of rings (size 3 to 8) (size 9 to 14) (size 15 to 20)
#    0.000    2.571    1.429    2.571    0.000    5.714 
#    0.000    1.429    0.000    0.000    0.000    0.000 
#    0.000    1.143    0.000   12.000    0.000    6.286 
#
# Total GULP energy -347211.113960 kJ/mol
# GULP energy per Si atom -12400.396927 kJ/mol
# Density = 1.619405 g / cm^3
# Si number density = 16.230996 Si / 1000 Ang^3
#
#
#
# Elastic Constant Matrix: (Units=GPa)
#
#
# Indices 1 2 3 4 5 6 
#
# 1 56.2358 37.1249 34.6758 0.0000 8.3583 0.0000
# 2 37.1249 111.9367 67.5241 0.0000 18.4309 0.0000
# 3 34.6758 67.5241 111.4126 0.0000 27.7275 0.0000
# 4 0.0000 0.0000 0.0000 33.4968 0.0000 7.2443
# 5 8.3583 18.4309 27.7275 0.0000 20.0072 0.0000
# 6 0.0000 0.0000 0.0000 7.2443 0.0000 21.1099
#
#
#
# Elastic Compliance Matrix: (Units=1/GPa)
#
#
# Indices 1 2 3 4 5 6 
#
# 1 0.023948 -0.005459 -0.004437 0.000000 0.001173 0.000000
# 2 -0.005459 0.015367 -0.007112 0.000000 -0.002019 0.000000
# 3 -0.004437 -0.007112 0.019196 0.000000 -0.018198 0.000000
# 4 0.000000 0.000000 0.000000 0.032247 0.000000 -0.011066
# 5 0.001173 -0.002019 -0.018198 0.000000 0.076572 0.000000
# 6 0.000000 0.000000 0.000000 -0.011066 0.000000 0.051169
#
#
# Mechanical properties :
#
#
# Convention : Reuss Voigt Hill
#
# Bulk Modulus (GPa) = 40.82505 62.02607 51.42556
# Shear Modulus (GPa) = 19.18077 24.27348 21.72712
#
# Velocity S-wave (km/s) = 3.44137 3.87137 3.66268
# Velocity P-wave (km/s) = 6.40295 7.63419 7.04552
#
# Compressibility (1/GPa) = 0.02449477
#
# Stress axis : x y z
#
# Youngs Moduli (GPa) = 41.75780 65.07561 52.09522
#
# Poissons Ratio (x) = 0.35527 0.23113
# Poissons Ratio (y) = 0.22797 0.37048
# Poissons Ratio (z) = 0.18527 0.46279
#
# Static dielectric constant tensor:
#      x y z
#    x 2.585820 0.000000 0.214830 
#    y 0.000000 3.151090 0.000000 
#    z 0.214830 0.000000 3.131370 
# 
# 
# High freq. dielectric constant tensor:
#      x y z
#    x 1.560500 0.000000 0.029050 
#    y 0.000000 1.636880 0.000000 
#    z 0.029050 0.000000 1.627440 
# 
# From -- ./inp_files/237845.got.cif
#   From: 2010.06.25/outbox.cif.g09.slc.cpg/sg12_119_cif.got.tgz:237845.got - 2010.06.28 00:19:55.
