data_PCOD8078846
_publ_section_title
;
Structure prediction by ZEFSAII (Michael W. Deem and Ramdas Pophale) SiO2 
 PCOD8078846
Probable space group: C 2/M
;
_chemical_formula_sum "Si O2"
_cell_formula_units_Z 56
_cell_length_a 27.176638
_cell_length_b 8.850569
_cell_length_c 14.452198
_cell_angle_alpha 90.000000
_cell_angle_beta 76.872285
_cell_angle_gamma 90.000000
_cell_volume 3385.323108
_symmetry_space_group_name_H-M "C 2/M"
_symmetry_group_IT_number 12
_symmetry_cell_setting 'monoclinic'
loop_
_space_group_symop_operation_xyz
x,y,z
-x,y,-z
-x,-y,-z
x,-y,z
1/2+x,1/2+y,z
1/2-x,1/2+y,-z
1/2-x,1/2-y,-z
1/2+x,1/2-y,z
loop_
_atom_site_type_symbol
_atom_site_label
_atom_site_fract_x
_atom_site_fract_y
_atom_site_fract_z
Si Si1 0.956204 0.177154 0.394751
Si Si2 0.540067 0.824717 0.116391
Si Si3 0.372783 0.820985 0.787123
Si Si4 0.066441 0.321414 0.779758
Si Si5 0.618668 0.824206 0.936290
Si Si6 0.304027 0.321074 0.960549
Si Si7 0.931339 0.177735 0.609718
O O1 0.924526 0.254467 0.325897
O O2 0.928899 0.219832 0.502432
O O3 0.014543 0.232767 0.372489
O O4 0.955103 0.000000 0.379775
O O5 0.579922 0.761631 0.173373
O O6 0.485467 0.749342 0.156332
O O7 0.532955 0.000000 0.137439
O O8 0.563053 0.795180 0.004756
O O9 0.323885 0.743360 0.853823
O O10 0.384503 0.764012 0.678315
O O11 0.364877 0.000000 0.792632
O O12 0.063030 0.500000 0.772811
O O13 0.112317 0.279937 0.830651
O O14 0.633774 0.000000 0.943405
O O15 0.660746 0.723259 0.967469
O O16 0.300120 0.500000 0.956044
O O17 0.250000 0.250000 0.000000
O O18 0.924998 0.000000 0.627248
#
# Coordination Sequence:
#
# PCOD8078846 Si02
#       7
#     8   8   8   8   8   8   8
#     4   9  18  29  42  62  96 135 170 206 240 276
#     4   8  14  25  41  63  92 126 159 191 228 272
#     4  10  18  30  50  73  97 125 161 202 242 285
#     4  10  17  27  44  67  95 131 167 199 235 276
#     4   9  18  31  47  68  96 126 160 197 238 286
#     4  11  22  37  55  74  97 122 154 196 243 292
#     4   9  17  30  44  63  94 134 170 203 243 280
#
# _framework density 16.541996999999999
#
# number of rings (size 3 to 8) (size 9 to 14) (size 15 to 20)
#    0.000    2.571    1.429    3.857    0.000    2.857 
#    0.000    1.429    0.000    2.571    0.000    1.000 
#    0.000    0.000    0.000    0.000    0.000    0.000 
#
# Total GULP energy -347010.418617 kJ/mol
# GULP energy per Si atom -12393.229236 kJ/mol
# Density = 1.650435 g / cm^3
# Si number density = 16.541997 Si / 1000 Ang^3
#
#
#
# Elastic Constant Matrix: (Units=GPa)
#
#
# Indices 1 2 3 4 5 6 
#
# 1 60.5645 33.9231 49.2808 0.0000 -8.3561 0.0000
# 2 33.9231 70.9476 45.1424 0.0000 -6.8715 0.0000
# 3 49.2808 45.1424 122.5747 0.0000 -1.8335 0.0000
# 4 0.0000 0.0000 0.0000 29.2628 0.0000 0.8292
# 5 -8.3561 -6.8715 -1.8335 0.0000 22.5670 0.0000
# 6 0.0000 0.0000 0.0000 0.8292 0.0000 20.3155
#
#
#
# Elastic Compliance Matrix: (Units=1/GPa)
#
#
# Indices 1 2 3 4 5 6 
#
# 1 0.028885 -0.007509 -0.008733 0.000000 0.007700 0.000000
# 2 -0.007509 0.020957 -0.004651 0.000000 0.003223 0.000000
# 3 -0.008733 -0.004651 0.013329 0.000000 -0.003567 0.000000
# 4 0.000000 0.000000 0.000000 0.034213 0.000000 -0.001396
# 5 0.007700 0.003223 -0.003567 0.000000 0.047855 0.000000
# 6 0.000000 0.000000 0.000000 -0.001396 0.000000 0.049280
#
#
# Mechanical properties :
#
#
# Convention : Reuss Voigt Hill
#
# Bulk Modulus (GPa) = 46.76050 56.75326 51.75688
# Shear Modulus (GPa) = 20.53959 22.81178 21.67569
#
# Velocity S-wave (km/s) = 3.52755 3.71755 3.62379
# Velocity P-wave (km/s) = 6.70228 7.26705 6.99037
#
# Compressibility (1/GPa) = 0.02138557
#
# Stress axis : x y z
#
# Youngs Moduli (GPa) = 34.61968 47.71738 75.02648
#
# Poissons Ratio (x) = 0.35832 0.65517
# Poissons Ratio (y) = 0.25997 0.34893
# Poissons Ratio (z) = 0.30232 0.22192
#
# Static dielectric constant tensor:
#      x y z
#    x 2.879650 0.000000 0.045930 
#    y 0.000000 2.913320 0.000000 
#    z 0.045930 0.000000 3.346770 
# 
# 
# High freq. dielectric constant tensor:
#      x y z
#    x 1.593810 0.000000 0.006440 
#    y 0.000000 1.624660 0.000000 
#    z 0.006440 0.000000 1.640290 
# 
# From -- ./inp_files/247733.got.cif
#   From: 2010.06.25/outbox.cif.g09.slc.cpg/sg12_124_cif.got.tgz:247733.got - 2010.06.28 00:19:55.
