data_PCOD8078331
_publ_section_title
;
Structure prediction by ZEFSAII (Michael W. Deem and Ramdas Pophale) SiO2 
 PCOD8078331
Probable space group: C 2/M
;
_chemical_formula_sum "Si O2"
_cell_formula_units_Z 56
_cell_length_a 5.232589
_cell_length_b 26.385574
_cell_length_c 26.387816
_cell_angle_alpha 90.000000
_cell_angle_beta 60.679170
_cell_angle_gamma 90.000000
_cell_volume 3176.500741
_symmetry_space_group_name_H-M "C 2/M"
_symmetry_group_IT_number 12
_symmetry_cell_setting 'monoclinic'
loop_
_space_group_symop_operation_xyz
x,y,z
-x,y,-z
-x,-y,-z
x,-y,z
1/2+x,1/2+y,z
1/2-x,1/2+y,-z
1/2-x,1/2-y,-z
1/2+x,1/2-y,z
loop_
_atom_site_type_symbol
_atom_site_label
_atom_site_fract_x
_atom_site_fract_y
_atom_site_fract_z
Si Si1 0.156353 0.115170 0.133253
Si Si2 0.848411 0.718333 0.066740
Si Si3 0.685294 0.384224 0.728585
Si Si4 0.186452 0.557112 0.728238
Si Si5 0.844452 0.443079 0.866519
Si Si6 0.312420 0.193344 0.474724
Si Si7 0.359652 0.783379 0.658090
O O1 0.208076 0.170928 0.107959
O O2 0.465181 0.086563 0.110191
O O3 0.986063 0.119280 0.202327
O O4 0.966084 0.084549 0.110571
O O5 0.588441 0.757797 0.080898
O O6 0.000000 0.700588 0.000000
O O7 0.493869 0.413878 0.705317
O O8 0.743710 0.327561 0.704990
O O9 0.991483 0.413855 0.705531
O O10 0.247860 0.500000 0.703213
O O11 0.016802 0.555367 0.797367
O O12 0.787366 0.500000 0.891645
O O13 0.500000 0.164849 0.500000
O O14 0.250000 0.250000 0.500000
O O15 0.483105 0.192332 0.405610
O O16 0.000000 0.164849 0.500000
O O17 0.585195 0.750032 0.668038
#
# Coordination Sequence:
#
# PCOD8078331 Si02
#       7
#     8   8   8   8   8   8   8
#     4  10  19  33  51  71 101 128 156 205 244 287
#     4  10  21  36  54  72  91 127 177 213 234 272
#     4  10  21  31  46  77 101 126 164 190 245 305
#     4   9  17  33  51  68  96 129 163 206 237 278
#     4   9  17  30  52  76  96 126 160 190 243 304
#     4  10  16  30  47  63  84 128 166 193 220 266
#     4  12  21  31  46  68 104 137 153 195 233 280
#
# _framework density 17.629460999999999
#
# number of rings (size 3 to 8) (size 9 to 14) (size 15 to 20)
#    0.000    2.000    2.857    2.571    0.000    4.571 
#    0.000    0.000    0.000    2.571    0.000    0.000 
#    0.000   11.429    0.000    0.000    0.000    0.000 
#
# Total GULP energy -347200.263901 kJ/mol
# GULP energy per Si atom -12400.009425 kJ/mol
# Density = 1.758934 g / cm^3
# Si number density = 17.629461 Si / 1000 Ang^3
#
#
#
# Elastic Constant Matrix: (Units=GPa)
#
#
# Indices 1 2 3 4 5 6 
#
# 1 180.3805 58.3364 25.5830 0.0000 0.6047 0.0000
# 2 58.3364 100.6031 29.8418 0.0000 -1.5610 0.0000
# 3 25.5830 29.8418 28.2406 0.0000 -0.4592 0.0000
# 4 0.0000 0.0000 0.0000 -1.0987 0.0000 -0.0108
# 5 0.6047 -1.5610 -0.4592 0.0000 14.8210 0.0000
# 6 0.0000 0.0000 0.0000 -0.0108 0.0000 -13.3741
#
#
#
# Elastic Compliance Matrix: (Units=1/GPa)
#
#
# Indices 1 2 3 4 5 6 
#
# 1 0.007000 -0.003183 -0.002989 0.000000 -0.000713 0.000000
# 2 -0.003183 0.015942 -0.013940 0.000000 0.001377 0.000000
# 3 -0.002989 -0.013940 0.052853 0.000000 0.000291 0.000000
# 4 0.000000 0.000000 0.000000 -0.910176 0.000000 0.000734
# 5 -0.000713 0.001377 0.000291 0.000000 0.067655 0.000000
# 6 0.000000 0.000000 0.000000 0.000734 0.000000 -0.074772
#
#
# Mechanical properties :
#
#
# Convention : Reuss Voigt Hill
#
# Bulk Modulus (GPa) = 28.11324 59.63851 43.87588
# Shear Modulus (GPa) = -6.33379 13.10050 3.38335
#
# Velocity S-wave (km/s) = -1.89751 2.72895 1.38684
# Velocity P-wave (km/s) = 3.34375 6.62056 5.24464
#
# Compressibility (1/GPa) = 0.03557042
#
# Stress axis : x y z
#
# Youngs Moduli (GPa) = 142.86452 62.72573 18.92051
#
# Poissons Ratio (x) = 0.19968 0.05655
# Poissons Ratio (y) = 0.45480 0.26375
# Poissons Ratio (z) = 0.42697 0.87440
#
# Static dielectric constant tensor:
#      x y z
#    x 2.439560 0.000000 -0.017840 
#    y 0.000000 3.101170 0.000000 
#    z -0.017840 0.000000 2.932180 
# 
# 
# High freq. dielectric constant tensor:
#      x y z
#    x 1.714440 0.000000 0.001220 
#    y 0.000000 1.664470 0.000000 
#    z 0.001220 0.000000 1.642190 
# 
# From -- ./inp_files/298107.got.cif
#   From: 2010.06.25/outbox.cif.g09.slc.cpg/sg12_150_cif.got.tgz:298107.got - 2010.06.28 00:19:55.
