data_PCOD8078220
_publ_section_title
;
Structure prediction by ZEFSAII (Michael W. Deem and Ramdas Pophale) SiO2 
 PCOD8078220
Probable space group: C 2/M
;
_chemical_formula_sum "Si O2"
_cell_formula_units_Z 36
_cell_length_a 15.584504
_cell_length_b 26.311890
_cell_length_c 10.170276
_cell_angle_alpha 90.000000
_cell_angle_beta 155.892713
_cell_angle_gamma 90.000000
_cell_volume 1703.385728
_symmetry_space_group_name_H-M "C 2/M"
_symmetry_group_IT_number 12
_symmetry_cell_setting 'monoclinic'
loop_
_space_group_symop_operation_xyz
x,y,z
-x,y,-z
-x,-y,-z
x,-y,z
1/2+x,1/2+y,z
1/2-x,1/2+y,-z
1/2-x,1/2-y,-z
1/2+x,1/2-y,z
loop_
_atom_site_type_symbol
_atom_site_label
_atom_site_fract_x
_atom_site_fract_y
_atom_site_fract_z
Si Si1 0.500000 0.741357 0.000000
Si Si2 0.064471 0.107330 0.244032
Si Si3 0.164976 0.000000 0.345630
Si Si4 0.422528 0.000000 0.242263
Si Si5 0.890630 0.317971 0.629662
Si Si6 0.833588 0.608959 0.154804
O O1 0.288923 0.707004 0.715490
O O2 0.500564 0.774808 0.869408
O O3 0.125719 0.050517 0.376805
O O4 0.267153 0.142566 0.550757
O O5 0.000000 0.107249 0.000000
O O6 0.881772 0.128930 0.082118
O O7 0.393168 0.000000 0.604521
O O8 0.000000 0.000000 0.000000
O O9 0.500000 0.000000 0.500000
O O10 0.296021 0.052890 0.036918
O O11 0.076278 0.347419 0.814047
O O12 0.000000 0.598668 0.500000
#
# Coordination Sequence:
#
# PCOD8078220 Si02
#       6
#     4   8   4   4   8   8
#     4  10  24  42  64  78 114 146 194 254 284 342
#     4  11  18  32  56  84 120 150 182 229 280 338
#     4  10  16  26  46  85 120 150 178 222 278 330
#     4  10  16  26  46  87 122 146 182 224 277 339
#     4  11  21  42  59  85 112 149 193 238 295 336
#     4  11  18  31  56  87 119 150 185 231 282 342
#
# _framework density 21.134378000000002
#
# number of rings (size 3 to 8) (size 9 to 14) (size 15 to 20)
#    0.000    1.333    5.556    4.667    0.000    0.000 
#    0.000   13.333    0.000    2.667    0.000    3.111 
#    0.000    0.000    0.000    0.000    0.000    0.000 
#
# Total GULP energy -223033.951094 kJ/mol
# GULP energy per Si atom -12390.775061 kJ/mol
# Density = 2.108628 g / cm^3
# Si number density = 21.134378 Si / 1000 Ang^3
#
#
#
# Elastic Constant Matrix: (Units=GPa)
#
#
# Indices 1 2 3 4 5 6 
#
# 1 113.4018 57.5864 48.0596 0.0000 51.1865 0.0000
# 2 57.5864 162.6619 36.2195 0.0000 14.8074 0.0000
# 3 48.0596 36.2195 54.1380 0.0000 23.3141 0.0000
# 4 0.0000 0.0000 0.0000 6.8274 0.0000 5.9042
# 5 51.1865 14.8074 23.3141 0.0000 42.6737 0.0000
# 6 0.0000 0.0000 0.0000 5.9042 0.0000 33.8678
#
#
#
# Elastic Compliance Matrix: (Units=1/GPa)
#
#
# Indices 1 2 3 4 5 6 
#
# 1 0.026808 -0.005069 -0.009568 0.000000 -0.025170 0.000000
# 2 -0.005069 0.008183 -0.003100 0.000000 0.004934 0.000000
# 3 -0.009568 -0.003100 0.030904 0.000000 -0.004332 0.000000
# 4 0.000000 0.000000 0.000000 0.172470 0.000000 -0.030067
# 5 -0.025170 0.004934 -0.004332 0.000000 0.054279 0.000000
# 6 0.000000 0.000000 0.000000 -0.030067 0.000000 0.034768
#
#
# Mechanical properties :
#
#
# Convention : Reuss Voigt Hill
#
# Bulk Modulus (GPa) = 32.87033 68.21475 50.54254
# Shear Modulus (GPa) = 13.40384 29.22952 21.31668
#
# Velocity S-wave (km/s) = 2.52110 3.72295 3.17933
# Velocity P-wave (km/s) = 4.90524 7.12932 6.11918
#
# Compressibility (1/GPa) = 0.03042258
#
# Stress axis : x y z
#
# Youngs Moduli (GPa) = 37.30210 122.19926 32.35808
#
# Poissons Ratio (x) = 0.61944 0.30959
# Poissons Ratio (y) = 0.18909 0.10030
# Poissons Ratio (z) = 0.35689 0.37879
#
# Static dielectric constant tensor:
#      x y z
#    x 3.455850 0.000000 0.327830 
#    y 0.000000 4.849580 0.000000 
#    z 0.327830 0.000000 3.473150 
# 
# 
# High freq. dielectric constant tensor:
#      x y z
#    x 1.794740 0.000000 0.040780 
#    y 0.000000 1.861160 0.000000 
#    z 0.040780 0.000000 1.785360 
# 
# From -- ./inp_files/161046.got.cif
#   From: 2010.06.25/outbox.cif.g09.slc.cpg/sg12_81_cif.got.tgz:161046.got - 2010.06.28 00:19:55.
