data_PCOD8078413
_publ_section_title
;
Structure prediction by ZEFSAII (Michael W. Deem and Ramdas Pophale) SiO2 
 PCOD8078413
Probable space group: C 2/M
;
_chemical_formula_sum "Si O2"
_cell_formula_units_Z 44
_cell_length_a 25.529801
_cell_length_b 8.957187
_cell_length_c 29.428388
_cell_angle_alpha 90.000000
_cell_angle_beta 160.565283
_cell_angle_gamma 90.000000
_cell_volume 2239.138152
_symmetry_space_group_name_H-M "C 2/M"
_symmetry_group_IT_number 12
_symmetry_cell_setting 'monoclinic'
loop_
_space_group_symop_operation_xyz
x,y,z
-x,y,-z
-x,-y,-z
x,-y,z
1/2+x,1/2+y,z
1/2-x,1/2+y,-z
1/2-x,1/2-y,-z
1/2+x,1/2-y,z
loop_
_atom_site_type_symbol
_atom_site_label
_atom_site_fract_x
_atom_site_fract_y
_atom_site_fract_z
Si Si1 0.003226 0.177767 0.598804
Si Si2 0.000000 0.753354 0.000000
Si Si3 0.134027 0.320683 0.941214
Si Si4 0.762510 0.665199 0.877660
Si Si5 0.723822 0.835613 0.713994
Si Si6 0.806721 0.176760 0.680654
O O1 0.837207 0.260846 0.467146
O O2 0.110046 0.238103 0.728394
O O3 0.091859 0.222965 0.624671
O O4 0.982194 0.000000 0.582062
O O5 0.908024 0.653899 0.961602
O O6 0.874260 0.852704 0.870072
O O7 0.133025 0.500000 0.937938
O O8 0.961239 0.259105 0.788923
O O9 0.250000 0.250000 0.000000
O O10 0.187831 0.255681 0.034700
O O11 0.712278 0.500000 0.850326
O O12 0.779060 0.776801 0.710264
O O13 0.647110 0.000000 0.647009
O O14 0.823880 0.000000 0.688123
#
# Coordination Sequence:
#
# PCOD8078413 Si02
#       6
#     8   4   8   8   8   8
#     4  10  21  36  56  85 118 156 194 235 286 349
#     4  10  16  32  54  86 117 156 189 232 291 346
#     4  11  23  42  64  88 114 151 196 246 291 341
#     4   9  19  35  58  86 119 150 191 240 289 343
#     4  10  20  32  51  82 121 158 193 233 284 345
#     4  11  22  38  57  84 118 155 194 240 289 343
#
# _framework density 19.650418999999999
#
# number of rings (size 3 to 8) (size 9 to 14) (size 15 to 20)
#    0.000    1.818    1.818    2.727    0.000    4.364 
#    0.000    3.636    0.000    0.000    0.000    0.000 
#    0.000    0.000    0.000    0.000    0.000    0.000 
#
# Total GULP energy -272709.745271 kJ/mol
# GULP energy per Si atom -12395.897512 kJ/mol
# Density = 1.960569 g / cm^3
# Si number density = 19.650419 Si / 1000 Ang^3
#
#
#
# Elastic Constant Matrix: (Units=GPa)
#
#
# Indices 1 2 3 4 5 6 
#
# 1 102.8886 29.1155 67.0720 -0.0036 7.0228 -0.0030
# 2 29.1155 87.4224 47.4001 0.0761 6.2859 -0.0138
# 3 67.0720 47.4001 163.6309 0.0996 8.8586 -0.0203
# 4 -0.0036 0.0761 0.0996 29.6423 0.0051 7.0651
# 5 7.0228 6.2859 8.8586 0.0051 23.2104 0.0029
# 6 -0.0030 -0.0138 -0.0203 7.0651 0.0029 22.8306
#
#
#
# Elastic Compliance Matrix: (Units=1/GPa)
#
#
# Indices 1 2 3 4 5 6 
#
# 1 0.013560 -0.001694 -0.004973 0.000026 -0.001746 -0.000011
# 2 -0.001694 0.013895 -0.003221 -0.000028 -0.002021 0.000014
# 3 -0.004973 -0.003221 0.009143 -0.000026 -0.001113 0.000014
# 4 0.000026 -0.000028 -0.000026 0.036422 0.000003 -0.011271
# 5 -0.001746 -0.002021 -0.001113 0.000003 0.044584 -0.000009
# 6 -0.000011 0.000014 0.000014 -0.011271 -0.000009 0.047289
#
#
# Mechanical properties :
#
#
# Convention : Reuss Voigt Hill
#
# Bulk Modulus (GPa) = 59.44900 71.23526 65.34213
# Shear Modulus (GPa) = 26.27764 29.16028 27.71896
#
# Velocity S-wave (km/s) = 3.66082 3.85639 3.75988
# Velocity P-wave (km/s) = 6.94174 7.49393 7.22311
#
# Compressibility (1/GPa) = 0.01682114
#
# Stress axis : x y z
#
# Youngs Moduli (GPa) = 73.74882 71.96950 109.37359
#
# Poissons Ratio (x) = 0.12193 0.54389
# Poissons Ratio (y) = 0.12495 0.35231
# Poissons Ratio (z) = 0.36673 0.23182
#
# Static dielectric constant tensor:
#      x y z
#    x 3.491340 0.000030 -0.225960 
#    y 0.000030 3.345130 -0.000100 
#    z -0.225960 -0.000100 3.809830 
# 
# 
# High freq. dielectric constant tensor:
#      x y z
#    x 1.741830 0.000000 -0.012510 
#    y 0.000000 1.754360 -0.000010 
#    z -0.012510 -0.000010 1.780520 
# 
# From -- ./inp_files/382580.got.cif
#   From: 2010.06.25/outbox.cif.g09.slc.cpg/sg12_192_cif.got.tgz:382580.got - 2010.06.28 00:19:55.
