data_PCOD8078404
_publ_section_title
;
Structure prediction by ZEFSAII (Michael W. Deem and Ramdas Pophale) SiO2 
 PCOD8078404
Probable space group: C 2/M
;
_chemical_formula_sum "Si O2"
_cell_formula_units_Z 56
_cell_length_a 13.875367
_cell_length_b 19.262771
_cell_length_c 11.193050
_cell_angle_alpha 90.000000
_cell_angle_beta 68.032677
_cell_angle_gamma 90.000000
_cell_volume 2774.454040
_symmetry_space_group_name_H-M "C 2/M"
_symmetry_group_IT_number 12
_symmetry_cell_setting 'monoclinic'
loop_
_space_group_symop_operation_xyz
x,y,z
-x,y,-z
-x,-y,-z
x,-y,z
1/2+x,1/2+y,z
1/2-x,1/2+y,-z
1/2-x,1/2-y,-z
1/2+x,1/2-y,z
loop_
_atom_site_type_symbol
_atom_site_label
_atom_site_fract_x
_atom_site_fract_y
_atom_site_fract_z
Si Si1 0.625521 0.845244 0.063768
Si Si2 0.595323 0.696110 0.726358
Si Si3 0.000000 0.769652 0.000000
Si Si4 0.742557 0.626544 0.210955
Si Si5 0.309258 0.216234 0.725282
Si Si6 0.500000 0.837877 0.500000
Si Si7 0.981746 0.924646 0.647101
Si Si8 0.927906 0.640974 0.289937
O O1 0.596598 0.777033 0.000061
O O2 0.688926 0.828454 0.154378
O O3 0.518285 0.883192 0.155182
O O4 0.696771 0.891102 0.941444
O O5 0.718915 0.688154 0.680418
O O6 0.552062 0.638449 0.658832
O O7 0.566292 0.774730 0.702482
O O8 0.542117 0.680313 0.878028
O O9 0.705214 0.705330 0.228517
O O10 0.640819 0.579992 0.266830
O O11 0.818761 0.613089 0.289567
O O12 0.413350 0.211028 0.599406
O O13 0.549882 0.885415 0.584209
O O14 0.000000 0.923991 0.500000
O O15 0.017578 0.000000 0.682343
#
# Coordination Sequence:
#
# PCOD8078404 Si02
#       8
#     8   8   4   8   8   4   8   8
#     4  10  16  32  50  86 119 143 171 218 294 354
#     4  10  21  34  55  78 112 152 189 229 275 335
#     4  10  16  32  53  90 125 144 178 220 294 354
#     4  11  19  32  59  77 109 149 190 230 273 337
#     4  10  21  29  54  85 119 147 172 226 295 347
#     4  10  20  30  42  82 124 132 168 216 288 350
#     4  11  27  44  56  75 109 161 206 231 265 324
#     4   9  19  31  53  89 119 141 171 229 297 348
#
# _framework density 20.184151
#
# number of rings (size 3 to 8) (size 9 to 14) (size 15 to 20)
#    0.000    1.857    4.286    3.000    8.000    1.143 
#    0.000    0.357    0.000    1.714    0.000    4.000 
#    0.000    0.000    0.000    0.000    0.000    0.000 
#
# Total GULP energy -346998.812523 kJ/mol
# GULP energy per Si atom -12392.814733 kJ/mol
# Density = 2.013821 g / cm^3
# Si number density = 20.184151 Si / 1000 Ang^3
#
#
#
# Elastic Constant Matrix: (Units=GPa)
#
#
# Indices 1 2 3 4 5 6 
#
# 1 96.2957 19.1373 40.1336 0.0000 -4.6361 0.0000
# 2 19.1373 41.4162 11.1361 0.0000 -0.0590 0.0000
# 3 40.1336 11.1361 111.0165 0.0000 -0.1473 0.0000
# 4 0.0000 0.0000 0.0000 -346.4997 0.0000 -63.0142
# 5 -4.6361 -0.0590 -0.1473 0.0000 30.7385 0.0000
# 6 0.0000 0.0000 0.0000 -63.0142 0.0000 0.2291
#
#
#
# Elastic Compliance Matrix: (Units=1/GPa)
#
#
# Indices 1 2 3 4 5 6 
#
# 1 0.013255 -0.004968 -0.004291 0.000000 0.001969 0.000000
# 2 -0.004968 0.026677 -0.000881 0.000000 -0.000702 0.000000
# 3 -0.004291 -0.000881 0.010646 0.000000 -0.000598 0.000000
# 4 0.000000 0.000000 0.000000 -0.000057 0.000000 -0.015558
# 5 0.001969 -0.000702 -0.000598 0.000000 0.032825 0.000000
# 6 0.000000 0.000000 0.000000 -0.015558 0.000000 0.085552
#
#
# Mechanical properties :
#
#
# Convention : Reuss Voigt Hill
#
# Bulk Modulus (GPa) = 33.00515 43.28250 38.14382
# Shear Modulus (GPa) = 25.09058 -51.21831 -13.06387
#
# Velocity S-wave (km/s) = 3.52956 -5.04288 -2.54684
# Velocity P-wave (km/s) = 5.74438 3.52379 3.20787
#
# Compressibility (1/GPa) = 0.03029831
#
# Stress axis : x y z
#
# Youngs Moduli (GPa) = 75.44211 37.48595 93.92814
#
# Poissons Ratio (x) = 0.18624 0.40304
# Poissons Ratio (y) = 0.37482 0.08273
# Poissons Ratio (z) = 0.32372 0.03302
#
# Static dielectric constant tensor:
#      x y z
#    x 3.994790 0.000000 -0.017650 
#    y 0.000000 3.052330 0.000000 
#    z -0.017650 0.000000 4.031100 
# 
# 
# High freq. dielectric constant tensor:
#      x y z
#    x 1.807210 0.000000 -0.003440 
#    y 0.000000 1.702850 0.000000 
#    z -0.003440 0.000000 1.808650 
# 
# From -- ./inp_files/146078.got.cif
#   From: 2010.06.25/outbox.cif.g09.slc.cpg/sg12_74_cif.got.tgz:146078.got - 2010.06.28 00:19:55.
