data_PCOD8078239
_publ_section_title
;
Structure prediction by ZEFSAII (Michael W. Deem and Ramdas Pophale) SiO2 
 PCOD8078239
Probable space group: C 2/M
;
_chemical_formula_sum "Si O2"
_cell_formula_units_Z 64
_cell_length_a 23.995331
_cell_length_b 26.332931
_cell_length_c 8.510936
_cell_angle_alpha 90.000000
_cell_angle_beta 48.085659
_cell_angle_gamma 90.000000
_cell_volume 4001.846894
_symmetry_space_group_name_H-M "C 2/M"
_symmetry_group_IT_number 12
_symmetry_cell_setting 'monoclinic'
loop_
_space_group_symop_operation_xyz
x,y,z
-x,y,-z
-x,-y,-z
x,-y,z
1/2+x,1/2+y,z
1/2-x,1/2+y,-z
1/2-x,1/2-y,-z
1/2+x,1/2-y,z
loop_
_atom_site_type_symbol
_atom_site_label
_atom_site_fract_x
_atom_site_fract_y
_atom_site_fract_z
Si Si1 0.962560 0.748861 0.902338
Si Si2 0.943601 0.055850 0.834908
Si Si3 0.242501 0.716241 0.361464
Si Si4 0.668884 0.209464 0.006702
Si Si5 0.636035 0.346780 0.963690
Si Si6 0.813531 0.153491 0.771732
Si Si7 0.889914 0.255320 0.555779
Si Si8 0.894796 0.056093 0.567461
O O1 0.896622 0.706171 0.003443
O O2 0.023268 0.742657 0.650291
O O3 0.926772 0.804470 0.950853
O O4 0.000000 0.741537 0.000000
O O5 0.919979 0.058084 0.699403
O O6 0.032594 0.066267 0.678341
O O7 0.924909 0.000000 0.940442
O O8 0.898615 0.098632 0.017483
O O9 0.250000 0.750000 0.500000
O O10 0.290539 0.664099 0.285164
O O11 0.155144 0.709189 0.485533
O O12 0.277376 0.743445 0.139857
O O13 0.622933 0.221979 0.249078
O O14 0.723030 0.160593 0.922004
O O15 0.661996 0.346793 0.094440
O O16 0.859590 0.197659 0.596415
O O17 0.833325 0.099798 0.651895
O O18 0.861216 0.000000 0.593076
#
# Coordination Sequence:
#
# PCOD8078239 Si02
#       8
#     8   8   8   8   8   8   8   8
#     4  11  22  30  41  63  91 119 148 186 225 270
#     4   8  14  24  40  64  92 119 149 186 220 258
#     4  10  18  29  42  60  89 118 149 190 223 266
#     4  10  19  31  43  64  84 114 155 184 222 265
#     4  10  17  29  43  63  88 119 158 180 221 270
#     4  10  16  27  45  65  85 117 153 186 217 267
#     4  11  17  29  44  62  85 117 154 184 220 261
#     4   8  14  23  38  65  96 118 141 183 233 261
#
# _framework density 15.992616
#
# number of rings (size 3 to 8) (size 9 to 14) (size 15 to 20)
#    0.000    2.250    3.750    4.125    0.000    1.000 
#    0.000    0.000    0.000    0.375    0.000    7.000 
#    0.000    3.500    0.000    0.000    0.000    4.500 
#
# Total GULP energy -396422.987295 kJ/mol
# GULP energy per Si atom -12388.218353 kJ/mol
# Density = 1.595622 g / cm^3
# Si number density = 15.992616 Si / 1000 Ang^3
#
#
#
# Elastic Constant Matrix: (Units=GPa)
#
#
# Indices 1 2 3 4 5 6 
#
# 1 88.2250 38.0645 17.2039 0.0000 -14.8406 0.0000
# 2 38.0645 105.0158 40.4501 0.0000 -20.9380 0.0000
# 3 17.2039 40.4501 42.3395 0.0000 -12.4477 0.0000
# 4 0.0000 0.0000 0.0000 25.2428 0.0000 -9.4511
# 5 -14.8406 -20.9380 -12.4477 0.0000 26.2057 0.0000
# 6 0.0000 0.0000 0.0000 -9.4511 0.0000 15.9108
#
#
#
# Elastic Compliance Matrix: (Units=1/GPa)
#
#
# Indices 1 2 3 4 5 6 
#
# 1 0.013890 -0.003919 -0.000590 0.000000 0.004454 0.000000
# 2 -0.003919 0.017044 -0.013181 0.000000 0.005138 0.000000
# 3 -0.000590 -0.013181 0.038655 0.000000 0.007496 0.000000
# 4 0.000000 0.000000 0.000000 0.050946 0.000000 0.030262
# 5 0.004454 0.005138 0.007496 0.000000 0.048348 0.000000
# 6 0.000000 0.000000 0.000000 0.030262 0.000000 0.080827
#
#
# Mechanical properties :
#
#
# Convention : Reuss Voigt Hill
#
# Bulk Modulus (GPa) = 29.23211 47.44636 38.33923
# Shear Modulus (GPa) = 16.86388 22.79596 19.82992
#
# Velocity S-wave (km/s) = 3.25080 3.77955 3.52510
# Velocity P-wave (km/s) = 5.69284 6.98418 6.37131
#
# Compressibility (1/GPa) = 0.03420895
#
# Stress axis : x y z
#
# Youngs Moduli (GPa) = 71.99450 58.67066 25.87013
#
# Poissons Ratio (x) = 0.22994 0.01526
# Poissons Ratio (y) = 0.28216 0.34099
# Poissons Ratio (z) = 0.04248 0.77332
#
# Static dielectric constant tensor:
#      x y z
#    x 3.141770 0.000000 -0.266520 
#    y 0.000000 3.156990 0.000000 
#    z -0.266520 0.000000 3.112360 
# 
# 
# High freq. dielectric constant tensor:
#      x y z
#    x 1.610370 0.000000 -0.004690 
#    y 0.000000 1.571110 0.000000 
#    z -0.004690 0.000000 1.607120 
# 
# From -- ./inp_files/99913.got.cif
#   From: 2010.06.25/outbox.cif.g09.slc.cpg/sg12_50_cif.got.tgz:99913.got - 2010.06.28 00:19:55.
