data_PCOD8078510
_publ_section_title
;
Structure prediction by ZEFSAII (Michael W. Deem and Ramdas Pophale) SiO2 
 PCOD8078510
Probable space group: C 2/M
;
_chemical_formula_sum "Si O2"
_cell_formula_units_Z 56
_cell_length_a 32.804792
_cell_length_b 8.966530
_cell_length_c 17.756339
_cell_angle_alpha 90.000000
_cell_angle_beta 138.210715
_cell_angle_gamma 90.000000
_cell_volume 3480.531578
_symmetry_space_group_name_H-M "C 2/M"
_symmetry_group_IT_number 12
_symmetry_cell_setting 'monoclinic'
loop_
_space_group_symop_operation_xyz
x,y,z
-x,y,-z
-x,-y,-z
x,-y,z
1/2+x,1/2+y,z
1/2-x,1/2+y,-z
1/2-x,1/2-y,-z
1/2+x,1/2-y,z
loop_
_atom_site_type_symbol
_atom_site_label
_atom_site_fract_x
_atom_site_fract_y
_atom_site_fract_z
Si Si1 0.602001 0.174920 0.935776
Si Si2 0.590287 0.324370 0.674243
Si Si3 0.684622 0.175294 0.909035
Si Si4 0.445588 0.824750 0.843652
Si Si5 0.465931 0.171845 0.708370
Si Si6 0.540712 0.674309 0.448676
Si Si7 0.922549 0.177617 0.953221
O O1 0.651148 0.217681 0.940540
O O2 0.535506 0.228391 0.815544
O O3 0.620198 0.265412 0.037074
O O4 0.601524 0.000000 0.954003
O O5 0.599931 0.500000 0.699752
O O6 0.647074 0.235824 0.786235
O O7 0.527793 0.268681 0.627482
O O8 0.586267 0.285009 0.579827
O O9 0.691902 0.000000 0.909967
O O10 0.750000 0.250000 0.000000
O O11 0.425957 0.799214 0.729332
O O12 0.511905 0.751629 0.943138
O O13 0.449099 0.000000 0.866796
O O14 0.400105 0.741440 0.840344
O O15 0.434912 0.255144 0.595350
O O16 0.466990 0.000000 0.688555
O O17 0.538478 0.500000 0.434504
O O18 0.925558 0.000000 0.955446
#
# Coordination Sequence:
#
# PCOD8078510 Si02
#       7
#     8   8   8   8   8   8   8
#     4   9  18  31  43  58  84 117 149 180 224 273
#     4   9  18  32  46  65  90 118 150 185 229 272
#     4  11  22  35  50  67  88 118 155 194 232 270
#     4   9  16  26  37  53  84 119 145 175 217 263
#     4   9  16  26  41  62  87 116 152 183 214 265
#     4   9  17  28  45  66  91 119 148 185 226 267
#     4  10  17  24  38  59  80 108 148 185 216 257
#
# _framework density 16.089496
#
# number of rings (size 3 to 8) (size 9 to 14) (size 15 to 20)
#    0.000    2.571    1.429    4.714    0.000    4.571 
#    0.000    1.429    0.000    0.000    0.000    0.000 
#    0.000    1.143    0.000    3.714    0.000    4.857 
#
# Total GULP energy -346997.374825 kJ/mol
# GULP energy per Si atom -12392.763387 kJ/mol
# Density = 1.605288 g / cm^3
# Si number density = 16.089496 Si / 1000 Ang^3
#
#
#
# Elastic Constant Matrix: (Units=GPa)
#
#
# Indices 1 2 3 4 5 6 
#
# 1 100.1211 50.7480 55.0570 0.0000 -33.3371 0.0000
# 2 50.7480 79.6397 42.0884 0.0000 -17.2074 0.0000
# 3 55.0570 42.0884 79.4977 0.0000 -17.9537 0.0000
# 4 0.0000 0.0000 0.0000 23.6856 0.0000 -8.3226
# 5 -33.3371 -17.2074 -17.9537 0.0000 28.9905 0.0000
# 6 0.0000 0.0000 0.0000 -8.3226 0.0000 25.8793
#
#
#
# Elastic Compliance Matrix: (Units=1/GPa)
#
#
# Indices 1 2 3 4 5 6 
#
# 1 0.024815 -0.006835 -0.009346 0.000000 0.018691 0.000000
# 2 -0.006835 0.020072 -0.005787 0.000000 0.000470 0.000000
# 3 -0.009346 -0.005787 0.021988 0.000000 -0.000566 0.000000
# 4 0.000000 0.000000 0.000000 0.047598 0.000000 0.015307
# 5 0.018691 0.000470 -0.000566 0.000000 0.055916 0.000000
# 6 0.000000 0.000000 0.000000 0.015307 0.000000 0.043564
#
#
# Mechanical properties :
#
#
# Convention : Reuss Voigt Hill
#
# Bulk Modulus (GPa) = 43.59426 61.67169 52.63298
# Shear Modulus (GPa) = 18.82987 23.13543 20.98265
#
# Velocity S-wave (km/s) = 3.42471 3.79611 3.61518
# Velocity P-wave (km/s) = 6.54155 7.59128 7.08588
#
# Compressibility (1/GPa) = 0.02293880
#
# Stress axis : x y z
#
# Youngs Moduli (GPa) = 40.29752 49.82136 45.47959
#
# Poissons Ratio (x) = 0.34053 0.42507
# Poissons Ratio (y) = 0.27543 0.26318
# Poissons Ratio (z) = 0.37664 0.28830
#
# Static dielectric constant tensor:
#      x y z
#    x 3.533650 0.000000 -0.570160 
#    y 0.000000 3.008480 0.000000 
#    z -0.570160 0.000000 2.815850 
# 
# 
# High freq. dielectric constant tensor:
#      x y z
#    x 1.613280 0.000000 -0.047790 
#    y 0.000000 1.624300 0.000000 
#    z -0.047790 0.000000 1.568570 
# 
# From -- ./inp_files/295175.got.cif
#   From: 2010.06.25/outbox.cif.g09.slc.cpg/sg12_148_cif.got.tgz:295175.got - 2010.06.28 00:19:55.
