data_PCOD8078029
_publ_section_title
;
Structure prediction by ZEFSAII (Michael W. Deem and Ramdas Pophale) SiO2 
 PCOD8078029
Probable space group: C 2/M
;
_chemical_formula_sum "Si O2"
_cell_formula_units_Z 48
_cell_length_a 14.187640
_cell_length_b 22.613641
_cell_length_c 8.944322
_cell_angle_alpha 90.000000
_cell_angle_beta 61.868771
_cell_angle_gamma 90.000000
_cell_volume 2530.653312
_symmetry_space_group_name_H-M "C 2/M"
_symmetry_group_IT_number 12
_symmetry_cell_setting 'monoclinic'
loop_
_space_group_symop_operation_xyz
x,y,z
-x,y,-z
-x,-y,-z
x,-y,z
1/2+x,1/2+y,z
1/2-x,1/2+y,-z
1/2-x,1/2-y,-z
1/2+x,1/2-y,z
loop_
_atom_site_type_symbol
_atom_site_label
_atom_site_fract_x
_atom_site_fract_y
_atom_site_fract_z
Si Si1 0.310618 0.000000 0.740619
Si Si2 0.886608 0.876013 0.665804
Si Si3 0.227372 0.818331 0.500577
Si Si4 0.398314 0.500000 0.240916
Si Si5 0.024811 0.129847 0.820471
Si Si6 0.873000 0.000000 0.590625
Si Si7 0.908984 0.403690 0.460294
Si Si8 0.491489 0.000000 0.824992
O O1 0.341241 0.942890 0.623570
O O2 0.367042 0.000000 0.861846
O O3 0.181648 0.000000 0.842667
O O4 0.809273 0.829360 0.643103
O O5 0.000000 0.883089 0.500000
O O6 0.917460 0.853660 0.807556
O O7 0.828911 0.940715 0.704104
O O8 0.250000 0.750000 0.500000
O O9 0.133814 0.841246 0.679461
O O10 0.337918 0.851231 0.448835
O O11 0.470477 0.558453 0.180462
O O12 0.333160 0.500000 0.447367
O O13 0.000000 0.156721 0.000000
O O14 0.000000 0.000000 0.500000
O O15 0.000000 0.375849 0.500000
O O16 0.953572 0.441694 0.286617
O O17 0.500000 0.000000 0.000000
#
# Coordination Sequence:
#
# PCOD8078029 Si02
#       8
#     4   8   8   4   8   4   8   4
#     4   9  16  32  58  80 111 150 173 225 275 343
#     4   9  17  33  54  78 113 147 180 220 276 337
#     4  11  22  38  59  81 105 152 206 230 270 331
#     4  12  16  31  58  86 121 146 176 213 287 355
#     4  11  22  36  56  87 122 147 175 233 287 341
#     4  10  12  25  53  78 108 144 172 210 262 335
#     4   9  18  35  59  81 108 148 185 232 279 330
#     4   9  19  36  55  86 115 137 185 232 292 322
#
# _framework density 18.967434999999998
#
# number of rings (size 3 to 8) (size 9 to 14) (size 15 to 20)
#    0.000    2.000    6.667    1.250    0.000    2.667 
#    3.000    1.667    0.000    0.000    0.000    0.000 
#    0.000    0.000    0.000    0.000    0.000    0.000 
#
# Total GULP energy -297354.735654 kJ/mol
# GULP energy per Si atom -12389.780652 kJ/mol
# Density = 1.892426 g / cm^3
# Si number density = 18.967435 Si / 1000 Ang^3
#
#
#
# Elastic Constant Matrix: (Units=GPa)
#
#
# Indices 1 2 3 4 5 6 
#
# 1 152.6724 66.0894 50.1014 0.0000 36.6916 0.0000
# 2 66.0894 125.7445 26.4810 0.0000 11.8714 0.0000
# 3 50.1014 26.4810 94.7388 0.0000 32.3378 0.0000
# 4 0.0000 0.0000 0.0000 1.5401 0.0000 2.6772
# 5 36.6916 11.8714 32.3378 0.0000 32.4107 0.0000
# 6 0.0000 0.0000 0.0000 2.6772 0.0000 20.4831
#
#
#
# Elastic Compliance Matrix: (Units=1/GPa)
#
#
# Indices 1 2 3 4 5 6 
#
# 1 0.011434 -0.004797 -0.001346 0.000000 -0.009845 0.000000
# 2 -0.004797 0.010489 -0.001421 0.000000 0.003007 0.000000
# 3 -0.001346 -0.001421 0.016630 0.000000 -0.014549 0.000000
# 4 0.000000 0.000000 0.000000 0.840238 0.000000 -0.109823
# 5 -0.009845 0.003007 -0.014549 0.000000 0.055414 0.000000
# 6 0.000000 0.000000 0.000000 -0.109823 0.000000 0.063175
#
#
# Mechanical properties :
#
#
# Convention : Reuss Voigt Hill
#
# Bulk Modulus (GPa) = 42.68770 73.16658 57.92714
# Shear Modulus (GPa) = 4.90044 26.25236 15.57640
#
# Velocity S-wave (km/s) = 1.60910 3.72435 2.86880
# Velocity P-wave (km/s) = 5.09970 7.55996 6.44825
#
# Compressibility (1/GPa) = 0.02342595
#
# Stress axis : x y z
#
# Youngs Moduli (GPa) = 87.45924 95.33605 60.13094
#
# Poissons Ratio (x) = 0.45730 0.08091
# Poissons Ratio (y) = 0.41951 0.08547
# Poissons Ratio (z) = 0.11768 0.13552
#
# Static dielectric constant tensor:
#      x y z
#    x 3.948260 0.000000 0.509390 
#    y 0.000000 3.203550 0.000000 
#    z 0.509390 0.000000 3.419930 
# 
# 
# High freq. dielectric constant tensor:
#      x y z
#    x 1.754110 0.000000 0.028420 
#    y 0.000000 1.707380 0.000000 
#    z 0.028420 0.000000 1.702570 
# 
# From -- ./inp_files/63425.got.cif
#   From: 2010.06.25/outbox.cif.g09.slc.cpg/sg12_32_cif.got.tgz:63425.got - 2010.06.28 00:19:55.
