data_PCOD8078767
_publ_section_title
;
Structure prediction by ZEFSAII (Michael W. Deem and Ramdas Pophale) SiO2 
 PCOD8078767
Probable space group: C 2/M
;
_chemical_formula_sum "Si O2"
_cell_formula_units_Z 48
_cell_length_a 8.432202
_cell_length_b 19.905869
_cell_length_c 18.191971
_cell_angle_alpha 90.000000
_cell_angle_beta 119.798781
_cell_angle_gamma 90.000000
_cell_volume 2649.778345
_symmetry_space_group_name_H-M "C 2/M"
_symmetry_group_IT_number 12
_symmetry_cell_setting 'monoclinic'
loop_
_space_group_symop_operation_xyz
x,y,z
-x,y,-z
-x,-y,-z
x,-y,z
1/2+x,1/2+y,z
1/2-x,1/2+y,-z
1/2-x,1/2-y,-z
1/2+x,1/2-y,z
loop_
_atom_site_type_symbol
_atom_site_label
_atom_site_fract_x
_atom_site_fract_y
_atom_site_fract_z
Si Si1 0.827731 0.774926 0.650293
Si Si2 0.135147 0.328393 0.741513
Si Si3 0.811434 0.788365 0.920742
Si Si4 0.142887 0.420806 0.257805
Si Si5 0.537924 0.846094 0.085907
Si Si6 0.442504 0.655398 0.409846
O O1 0.741022 0.826338 0.689095
O O2 0.681034 0.718714 0.595222
O O3 0.008473 0.738086 0.723641
O O4 0.876779 0.819053 0.590570
O O5 0.283785 0.331245 0.840198
O O6 0.009385 0.394720 0.719574
O O7 0.643525 0.803238 0.936495
O O8 0.809885 0.709802 0.897733
O O9 0.000000 0.813029 0.000000
O O10 0.137690 0.500000 0.253655
O O11 0.105587 0.393579 0.166887
O O12 0.339251 0.396283 0.332230
O O13 0.500000 0.886536 0.000000
O O14 0.500000 0.619942 0.500000
#
# Coordination Sequence:
#
# PCOD8078767 Si02
#       6
#     8   8   8   8   8   8
#     4   9  17  31  53  79 102 125 157 202 262 309
#     4   9  17  31  51  72 101 132 162 204 250 302
#     4  10  17  26  46  77 102 120 152 202 259 302
#     4  10  22  37  50  67  98 142 179 205 239 286
#     4  10  19  31  51  75 100 128 160 204 253 303
#     4  10  19  32  54  81 106 129 159 205 255 304
#
# _framework density 18.114722
#
# number of rings (size 3 to 8) (size 9 to 14) (size 15 to 20)
#    0.000    2.333    0.000    6.500    0.000    2.000 
#    0.000    0.833    0.000    9.000    0.000    0.000 
#    0.000    0.667    0.000    0.000    0.000    0.000 
#
# Total GULP energy -297472.047543 kJ/mol
# GULP energy per Si atom -12394.668648 kJ/mol
# Density = 1.807349 g / cm^3
# Si number density = 18.114722 Si / 1000 Ang^3
#
#
#
# Elastic Constant Matrix: (Units=GPa)
#
#
# Indices 1 2 3 4 5 6 
#
# 1 95.7056 39.6613 51.2749 0.0000 -20.7914 0.0000
# 2 39.6613 89.8840 39.2440 0.0000 -12.9702 0.0000
# 3 51.2749 39.2440 113.5015 0.0000 -15.3095 0.0000
# 4 0.0000 0.0000 0.0000 11.8375 0.0000 -2.2914
# 5 -20.7914 -12.9702 -15.3095 0.0000 24.6836 0.0000
# 6 0.0000 0.0000 0.0000 -2.2914 0.0000 10.8808
#
#
#
# Elastic Compliance Matrix: (Units=1/GPa)
#
#
# Indices 1 2 3 4 5 6 
#
# 1 0.016665 -0.003894 -0.004981 0.000000 0.008901 0.000000
# 2 -0.003894 0.014477 -0.002906 0.000000 0.002525 0.000000
# 3 -0.004981 -0.002906 0.012325 0.000000 0.001921 0.000000
# 4 0.000000 0.000000 0.000000 0.088067 0.000000 0.018546
# 5 0.008901 0.002525 0.001921 0.000000 0.050529 0.000000
# 6 0.000000 0.000000 0.000000 0.018546 0.000000 0.095811
#
#
# Mechanical properties :
#
#
# Convention : Reuss Voigt Hill
#
# Bulk Modulus (GPa) = 50.24126 62.16126 56.20126
# Shear Modulus (GPa) = 16.23007 20.74113 18.48560
#
# Velocity S-wave (km/s) = 2.99651 3.38744 3.19795
# Velocity P-wave (km/s) = 6.30613 7.04908 6.68793
#
# Compressibility (1/GPa) = 0.01990396
#
# Stress axis : x y z
#
# Youngs Moduli (GPa) = 60.00578 69.07677 81.13788
#
# Poissons Ratio (x) = 0.26899 0.40419
# Poissons Ratio (y) = 0.23366 0.23576
# Poissons Ratio (z) = 0.29892 0.20072
#
# Static dielectric constant tensor:
#      x y z
#    x 3.494850 0.000000 -0.054580 
#    y 0.000000 2.848210 0.000000 
#    z -0.054580 0.000000 3.498920 
# 
# 
# High freq. dielectric constant tensor:
#      x y z
#    x 1.709010 0.000000 -0.005700 
#    y 0.000000 1.639990 0.000000 
#    z -0.005700 0.000000 1.718870 
# 
# From -- ./inp_files/257542.got.cif
#   From: 2010.06.25/outbox.cif.g09.slc.cpg/sg12_129_cif.got.tgz:257542.got - 2010.06.28 00:19:55.
