data_PCOD8078910
_publ_section_title
;
Structure prediction by ZEFSAII (Michael W. Deem and Ramdas Pophale) SiO2 
 PCOD8078910
Probable space group: C 2/M
;
_chemical_formula_sum "Si O2"
_cell_formula_units_Z 64
_cell_length_a 19.144266
_cell_length_b 18.168287
_cell_length_c 18.211124
_cell_angle_alpha 90.000000
_cell_angle_beta 143.243302
_cell_angle_gamma 90.000000
_cell_volume 3790.480735
_symmetry_space_group_name_H-M "C 2/M"
_symmetry_group_IT_number 12
_symmetry_cell_setting 'monoclinic'
loop_
_space_group_symop_operation_xyz
x,y,z
-x,y,-z
-x,-y,-z
x,-y,z
1/2+x,1/2+y,z
1/2-x,1/2+y,-z
1/2-x,1/2-y,-z
1/2+x,1/2-y,z
loop_
_atom_site_type_symbol
_atom_site_label
_atom_site_fract_x
_atom_site_fract_y
_atom_site_fract_z
Si Si1 0.198872 0.773845 0.349835
Si Si2 0.092279 0.688045 0.133745
Si Si3 0.751405 0.084997 0.175170
Si Si4 0.060188 0.415988 0.902744
Si Si5 0.043234 0.305074 0.459158
Si Si6 0.542622 0.917579 0.332891
Si Si7 0.001138 0.137134 0.587070
Si Si8 0.287426 0.634989 0.506438
O O1 0.119177 0.754362 0.212791
O O2 0.318877 0.801259 0.417078
O O3 0.214031 0.701495 0.410669
O O4 0.150451 0.837323 0.364772
O O5 0.204912 0.648499 0.191808
O O6 0.029509 0.620239 0.118028
O O7 0.000000 0.724598 0.000000
O O8 0.889030 0.098470 0.282012
O O9 0.728947 0.000000 0.182692
O O10 0.691436 0.096294 0.044403
O O11 0.023056 0.500000 0.871302
O O12 0.037827 0.386838 0.801697
O O13 0.006414 0.362827 0.366827
O O14 0.000000 0.335660 0.500000
O O15 0.990273 0.224981 0.395578
O O16 0.682697 0.922116 0.433943
O O17 0.504721 0.000000 0.322968
O O18 0.000000 0.115362 0.500000
O O19 0.885241 0.106148 0.531436
#
# Coordination Sequence:
#
# PCOD8078910 Si02
#       8
#     8   8   8   8   8   8   8   8
#     4   9  16  29  49  69  91 124 151 188 235 277
#     4  10  17  27  47  68  93 121 159 191 224 270
#     4  10  20  32  44  66  98 130 158 185 226 272
#     4   9  18  30  45  65  95 127 154 190 228 271
#     4   9  18  32  50  69  97 122 148 194 245 283
#     4  10  19  31  51  74  92 119 158 196 236 279
#     4  10  20  32  48  68  96 129 157 189 231 275
#     4   9  17  30  49  68  93 119 155 191 231 276
#
# _framework density 16.884402000000001
#
# number of rings (size 3 to 8) (size 9 to 14) (size 15 to 20)
#    0.000    2.500    1.250    3.375    0.000    2.500 
#    0.000    0.625    2.750    0.000    0.000    0.000 
#    0.000    2.500    0.000    0.000    0.000    0.000 
#
# Total GULP energy -396464.428014 kJ/mol
# GULP energy per Si atom -12389.513375 kJ/mol
# Density = 1.684597 g / cm^3
# Si number density = 16.884402 Si / 1000 Ang^3
#
#
#
# Elastic Constant Matrix: (Units=GPa)
#
#
# Indices 1 2 3 4 5 6 
#
# 1 73.5492 21.9167 33.8869 -0.0001 -12.0294 -0.0001
# 2 21.9167 30.3337 32.6903 -0.0001 -9.8986 -0.0001
# 3 33.8869 32.6903 111.7710 -0.0001 -17.9265 -0.0002
# 4 -0.0001 -0.0001 -0.0001 23.4436 -0.0001 -1.1326
# 5 -12.0294 -9.8986 -17.9265 -0.0001 25.5264 -0.0001
# 6 -0.0001 -0.0001 -0.0002 -1.1326 -0.0001 10.0510
#
#
#
# Elastic Compliance Matrix: (Units=1/GPa)
#
#
# Indices 1 2 3 4 5 6 
#
# 1 0.017975 -0.009661 -0.002103 0.000000 0.003247 0.000000
# 2 -0.009661 0.055658 -0.011966 0.000000 0.008627 0.000001
# 3 -0.002103 -0.011966 0.013727 0.000000 0.004009 0.000000
# 4 0.000000 0.000000 0.000000 0.042889 0.000000 0.004833
# 5 0.003247 0.008627 0.004009 0.000000 0.046866 0.000001
# 6 0.000000 0.000001 0.000000 0.004833 0.000001 0.100037
#
#
# Mechanical properties :
#
#
# Convention : Reuss Voigt Hill
#
# Bulk Modulus (GPa) = 25.06286 43.62686 34.34486
# Shear Modulus (GPa) = 14.79668 20.28152 17.53910
#
# Velocity S-wave (km/s) = 2.96354 3.46959 3.22650
# Velocity P-wave (km/s) = 5.15617 6.47653 5.85369
#
# Compressibility (1/GPa) = 0.03989968
#
# Stress axis : x y z
#
# Youngs Moduli (GPa) = 55.63131 17.96697 72.84782
#
# Poissons Ratio (x) = 0.17358 0.15322
# Poissons Ratio (y) = 0.53747 0.87168
# Poissons Ratio (z) = 0.11701 0.21499
#
# Static dielectric constant tensor:
#      x y z
#    x 3.174730 0.000000 -0.192790 
#    y 0.000000 2.972330 0.000000 
#    z -0.192790 0.000000 3.549970 
# 
# 
# High freq. dielectric constant tensor:
#      x y z
#    x 1.639370 0.000000 -0.009470 
#    y 0.000000 1.624920 0.000000 
#    z -0.009470 0.000000 1.646860 
# 
# From -- ./inp_files/285776.got.cif
#   From: 2010.06.25/outbox.cif.g09.slc.cpg/sg12_143_cif.got.tgz:285776.got - 2010.06.28 00:19:55.
