data_PCOD8078586
_publ_section_title
;
Structure prediction by ZEFSAII (Michael W. Deem and Ramdas Pophale) SiO2 
 PCOD8078586
Probable space group: C 2/M
;
_chemical_formula_sum "Si O2"
_cell_formula_units_Z 64
_cell_length_a 19.108329
_cell_length_b 9.085495
_cell_length_c 21.415397
_cell_angle_alpha 90.000000
_cell_angle_beta 91.859866
_cell_angle_gamma 90.000000
_cell_volume 3715.939075
_symmetry_space_group_name_H-M "C 2/M"
_symmetry_group_IT_number 12
_symmetry_cell_setting 'monoclinic'
loop_
_space_group_symop_operation_xyz
x,y,z
-x,y,-z
-x,-y,-z
x,-y,z
1/2+x,1/2+y,z
1/2-x,1/2+y,-z
1/2-x,1/2-y,-z
1/2+x,1/2-y,z
loop_
_atom_site_type_symbol
_atom_site_label
_atom_site_fract_x
_atom_site_fract_y
_atom_site_fract_z
Si Si1 0.527668 0.675191 0.636816
Si Si2 0.161322 0.171117 0.875487
Si Si3 0.205054 0.328060 0.051164
Si Si4 0.418929 0.325330 0.004202
Si Si5 0.375352 0.325251 0.600972
Si Si6 0.133539 0.173138 0.538651
Si Si7 0.365641 0.675093 0.260846
Si Si8 0.745349 0.327982 0.641789
O O1 0.532473 0.500000 0.634716
O O2 0.448516 0.730901 0.631599
O O3 0.569271 0.737637 0.577708
O O4 0.563738 0.730480 0.702321
O O5 0.245568 0.195039 0.886369
O O6 0.113008 0.233427 0.930712
O O7 0.139053 0.244832 0.808823
O O8 0.144160 0.000000 0.872517
O O9 0.194991 0.500000 0.036111
O O10 0.250000 0.250000 0.000000
O O11 0.128285 0.250789 0.052045
O O12 0.411452 0.500000 0.996538
O O13 0.500000 0.276366 0.000000
O O14 0.370200 0.500000 0.600595
O O15 0.366710 0.258812 0.530786
O O16 0.317171 0.260943 0.645072
O O17 0.205456 0.211121 0.576179
O O18 0.123292 0.000000 0.532214
O O19 0.365087 0.500000 0.256656
O O20 0.299309 0.725720 0.300058
O O21 0.761334 0.500000 0.646319
#
# Coordination Sequence:
#
# PCOD8078586 Si02
#       8
#     8   8   8   8   8   8   8   8
#     4   8  14  24  40  61  81 104 139 177 207 241
#     4   8  14  26  45  64  82 111 148 178 204 244
#     4   9  16  27  45  68  91 115 145 178 212 251
#     4   9  17  29  45  68  96 119 140 173 219 261
#     4  10  17  25  41  64  86 104 128 172 222 254
#     4   8  14  25  41  60  80 105 138 171 204 248
#     4   8  14  27  45  61  78 108 150 181 199 237
#     4   9  17  28  42  59  80 108 140 172 206 248
#
# _framework density 17.223102000000001
#
# number of rings (size 3 to 8) (size 9 to 14) (size 15 to 20)
#    0.000    3.375    0.000    3.375    0.000    1.750 
#    0.000    1.250    0.000    9.750    0.000    0.000 
#    0.000    0.000    0.000    0.000    0.000    0.000 
#
# Total GULP energy -396447.535072 kJ/mol
# GULP energy per Si atom -12388.985471 kJ/mol
# Density = 1.718390 g / cm^3
# Si number density = 17.223102 Si / 1000 Ang^3
#
#
#
# Elastic Constant Matrix: (Units=GPa)
#
#
# Indices 1 2 3 4 5 6 
#
# 1 152.4692 29.3577 57.6181 0.0000 -0.0785 0.0000
# 2 29.3577 22.7288 11.5633 0.0000 1.3681 0.0000
# 3 57.6181 11.5633 100.4590 0.0000 9.5277 0.0000
# 4 0.0000 0.0000 0.0000 11.0973 0.0000 -1.9430
# 5 -0.0785 1.3681 9.5277 0.0000 17.1605 0.0000
# 6 0.0000 0.0000 0.0000 -1.9430 0.0000 26.0395
#
#
#
# Elastic Compliance Matrix: (Units=1/GPa)
#
#
# Indices 1 2 3 4 5 6 
#
# 1 0.010730 -0.011445 -0.005202 0.000000 0.003850 0.000000
# 2 -0.011445 0.058951 0.000242 0.000000 -0.004887 0.000000
# 3 -0.005202 0.000242 0.013632 0.000000 -0.007612 0.000000
# 4 0.000000 0.000000 0.000000 0.091305 0.000000 0.006813
# 5 0.003850 -0.004887 -0.007612 0.000000 0.062907 0.000000
# 6 0.000000 0.000000 0.000000 0.006813 0.000000 0.038912
#
#
# Mechanical properties :
#
#
# Convention : Reuss Voigt Hill
#
# Bulk Modulus (GPa) = 19.80063 52.52613 36.16338
# Shear Modulus (GPa) = 15.33361 22.66729 19.00045
#
# Velocity S-wave (km/s) = 2.98702 3.63174 3.32504
# Velocity P-wave (km/s) = 4.83920 6.93900 5.98196
#
# Compressibility (1/GPa) = 0.05050344
#
# Stress axis : x y z
#
# Youngs Moduli (GPa) = 93.19454 16.96326 73.35690
#
# Poissons Ratio (x) = 0.19414 0.38161
# Poissons Ratio (y) = 1.06660 -0.01776
# Poissons Ratio (z) = 0.48480 -0.00411
#
# Static dielectric constant tensor:
#      x y z
#    x 3.529550 0.000000 0.218750 
#    y 0.000000 2.753420 0.000000 
#    z 0.218750 0.000000 3.479150 
# 
# 
# High freq. dielectric constant tensor:
#      x y z
#    x 1.672090 0.000000 0.010680 
#    y 0.000000 1.612680 0.000000 
#    z 0.010680 0.000000 1.648280 
# 
# From -- ./inp_files/319110.got.cif
#   From: 2010.06.25/outbox.cif.g09.slc.cpg/sg12_160_cif.got.tgz:319110.got - 2010.06.28 00:19:55.
