data_PCOD8078799
_publ_section_title
;
Structure prediction by ZEFSAII (Michael W. Deem and Ramdas Pophale) SiO2 
 PCOD8078799
Probable space group: C 2/M
;
_chemical_formula_sum "Si O2"
_cell_formula_units_Z 52
_cell_length_a 10.525165
_cell_length_b 25.359111
_cell_length_c 14.760583
_cell_angle_alpha 90.000000
_cell_angle_beta 59.435003
_cell_angle_gamma 90.000000
_cell_volume 3392.315655
_symmetry_space_group_name_H-M "C 2/M"
_symmetry_group_IT_number 12
_symmetry_cell_setting 'monoclinic'
loop_
_space_group_symop_operation_xyz
x,y,z
-x,y,-z
-x,-y,-z
x,-y,z
1/2+x,1/2+y,z
1/2-x,1/2+y,-z
1/2-x,1/2-y,-z
1/2+x,1/2-y,z
loop_
_atom_site_type_symbol
_atom_site_label
_atom_site_fract_x
_atom_site_fract_y
_atom_site_fract_z
Si Si1 0.965011 0.000000 0.798856
Si Si2 0.289163 0.603537 0.894670
Si Si3 0.891460 0.000000 0.622836
Si Si4 0.350711 0.500000 0.110453
Si Si5 0.854261 0.559762 0.220045
Si Si6 0.274308 0.709975 0.127400
Si Si7 0.338169 0.900037 0.868395
Si Si8 0.564965 0.709466 0.122178
O O1 0.878139 0.950192 0.869222
O O2 0.983435 0.000000 0.683757
O O3 0.122856 0.000000 0.790424
O O4 0.187688 0.601516 0.842346
O O5 0.407445 0.651043 0.848242
O O6 0.176789 0.610667 0.018968
O O7 0.784953 0.947874 0.660144
O O8 0.000000 0.000000 0.500000
O O9 0.265688 0.447340 0.120141
O O10 0.500000 0.500000 0.000000
O O11 0.886527 0.500000 0.168462
O O12 0.995414 0.583833 0.218971
O O13 0.208034 0.651996 0.169547
O O14 0.389849 0.721431 0.168325
O O15 0.136647 0.750624 0.170156
O O16 0.359082 0.713751 0.002418
#
# Coordination Sequence:
#
# PCOD8078799 Si02
#       8
#     4   8   4   4   8   8   8   8
#     4  10  18  27  43  71  86 119 154 186 218 286
#     4  10  17  27  42  60  93 122 157 187 222 269
#     4   8  17  34  50  63  90 117 147 198 235 283
#     4  12  19  25  42  61  96 130 151 176 232 273
#     4   9  19  29  43  69  88 115 153 190 228 285
#     4   9  19  29  40  55  82 124 173 192 222 259
#     4  11  19  27  41  62  95 128 152 190 228 266
#     4   9  18  30  40  55  81 126 167 199 218 259
#
# _framework density 15.328761999999999
#
# number of rings (size 3 to 8) (size 9 to 14) (size 15 to 20)
#    0.462    1.846    3.077    1.385    4.308    0.615 
#    0.000    0.000    0.000    1.846    0.000    0.000 
#    0.000    4.923    0.615    0.000    0.000    0.615 
#
# Total GULP energy -322099.892453 kJ/mol
# GULP energy per Si atom -12388.457402 kJ/mol
# Density = 1.529387 g / cm^3
# Si number density = 15.328762 Si / 1000 Ang^3
#
#
#
# Elastic Constant Matrix: (Units=GPa)
#
#
# Indices 1 2 3 4 5 6 
#
# 1 140.8081 57.8445 30.1495 0.0000 -5.9050 0.0000
# 2 57.8445 108.2854 9.8476 0.0000 -2.5709 0.0000
# 3 30.1495 9.8476 51.1215 0.0000 -7.0842 0.0000
# 4 0.0000 0.0000 0.0000 7.8977 0.0000 0.3478
# 5 -5.9050 -2.5709 -7.0842 0.0000 9.3041 0.0000
# 6 0.0000 0.0000 0.0000 0.3478 0.0000 31.6985
#
#
#
# Elastic Compliance Matrix: (Units=1/GPa)
#
#
# Indices 1 2 3 4 5 6 
#
# 1 0.010265 -0.005005 -0.004895 0.000000 0.001405 0.000000
# 2 -0.005005 0.011855 0.000762 0.000000 0.000680 0.000000
# 3 -0.004895 0.000762 0.024483 0.000000 0.015746 0.000000
# 4 0.000000 0.000000 0.000000 0.126680 0.000000 -0.001390
# 5 0.001405 0.000680 0.015746 0.000000 0.120548 0.000000
# 6 0.000000 0.000000 0.000000 -0.001390 0.000000 0.031562
#
#
# Mechanical properties :
#
#
# Convention : Reuss Voigt Hill
#
# Bulk Modulus (GPa) = 35.30084 55.09978 45.20031
# Shear Modulus (GPa) = 14.15982 23.27163 18.71572
#
# Velocity S-wave (km/s) = 3.04261 3.90059 3.49801
# Velocity P-wave (km/s) = 5.95168 7.50397 6.77244
#
# Compressibility (1/GPa) = 0.02832794
#
# Stress axis : x y z
#
# Youngs Moduli (GPa) = 97.41926 84.35123 40.84406
#
# Poissons Ratio (x) = 0.42217 0.19994
# Poissons Ratio (y) = 0.48757 -0.03113
# Poissons Ratio (z) = 0.47688 -0.06429
#
# Static dielectric constant tensor:
#      x y z
#    x 3.367090 0.000000 0.045470 
#    y 0.000000 3.370890 0.000000 
#    z 0.045470 0.000000 2.284620 
# 
# 
# High freq. dielectric constant tensor:
#      x y z
#    x 1.609020 0.000000 0.002590 
#    y 0.000000 1.592840 0.000000 
#    z 0.002590 0.000000 1.496020 
# 
# From -- ./inp_files/208194.got.cif
#   From: 2010.06.25/outbox.cif.g09.slc.cpg/sg12_105_cif.got.tgz:208194.got - 2010.06.28 00:19:55.
