data_PCOD8078293
_publ_section_title
;
Structure prediction by ZEFSAII (Michael W. Deem and Ramdas Pophale) SiO2 
 PCOD8078293
Probable space group: C 2/M
;
_chemical_formula_sum "Si O2"
_cell_formula_units_Z 56
_cell_length_a 23.345681
_cell_length_b 20.147567
_cell_length_c 17.889116
_cell_angle_alpha 90.000000
_cell_angle_beta 23.108118
_cell_angle_gamma 90.000000
_cell_volume 3302.339099
_symmetry_space_group_name_H-M "C 2/M"
_symmetry_group_IT_number 12
_symmetry_cell_setting 'monoclinic'
loop_
_space_group_symop_operation_xyz
x,y,z
-x,y,-z
-x,-y,-z
x,-y,z
1/2+x,1/2+y,z
1/2-x,1/2+y,-z
1/2-x,1/2-y,-z
1/2+x,1/2-y,z
loop_
_atom_site_type_symbol
_atom_site_label
_atom_site_fract_x
_atom_site_fract_y
_atom_site_fract_z
Si Si1 0.277076 0.576440 0.851911
Si Si2 0.118040 0.340310 0.157161
Si Si3 0.909025 0.205298 0.879727
Si Si4 0.927021 0.311885 0.511916
Si Si5 0.649704 0.135746 0.859945
Si Si6 0.450866 0.337593 0.432589
Si Si7 0.611223 0.288658 0.929320
O O1 0.319333 0.500000 0.808481
O O2 0.186850 0.588247 0.884468
O O3 0.427770 0.617858 0.671159
O O4 0.173406 0.595443 0.046236
O O5 0.069867 0.284359 0.155337
O O6 0.982788 0.356468 0.374869
O O7 0.241990 0.311552 0.062960
O O8 0.017068 0.165020 0.694871
O O9 0.942204 0.185428 0.925568
O O10 0.967496 0.235104 0.447963
O O11 0.757030 0.323795 0.726487
O O12 0.000000 0.336636 0.500000
O O13 0.787868 0.133241 0.637346
O O14 0.629057 0.209841 0.914634
O O15 0.500000 0.110872 0.000000
O O16 0.500000 0.310695 0.000000
#
# Coordination Sequence:
#
# PCOD8078293 Si02
#       7
#     8   8   8   8   8   8   8
#     4  11  21  34  52  69  93 128 170 207 230 271
#     4   9  17  29  48  72  94 123 162 197 239 283
#     4   9  15  29  49  71 100 126 151 194 242 287
#     4  10  16  28  51  74  97 127 154 189 242 300
#     4  10  20  34  46  69 104 132 155 192 237 284
#     4   9  19  31  51  75  95 123 163 200 233 284
#     4  10  18  29  45  76 107 127 151 188 237 295
#
# _framework density 16.957677
#
# number of rings (size 3 to 8) (size 9 to 14) (size 15 to 20)
#    0.000    2.286    2.857    3.000    0.000    1.429 
#    2.571    2.857    0.000    0.429    0.000    0.000 
#    0.000    9.714    0.000    0.000    0.000    0.000 
#
# Total GULP energy -347112.213862 kJ/mol
# GULP energy per Si atom -12396.864781 kJ/mol
# Density = 1.691908 g / cm^3
# Si number density = 16.957677 Si / 1000 Ang^3
#
#
#
# Elastic Constant Matrix: (Units=GPa)
#
#
# Indices 1 2 3 4 5 6 
#
# 1 117.0156 13.2295 68.9597 -0.0078 6.5411 0.0043
# 2 13.2295 31.5677 17.7210 -0.0085 -2.9081 0.0047
# 3 68.9597 17.7210 122.3004 -0.0141 5.7721 0.0069
# 4 -0.0078 -0.0085 -0.0141 12.0216 0.0024 -0.1949
# 5 6.5411 -2.9081 5.7721 0.0024 30.7096 -0.0003
# 6 0.0043 0.0047 0.0069 -0.1949 -0.0003 15.2716
#
#
#
# Elastic Compliance Matrix: (Units=1/GPa)
#
#
# Indices 1 2 3 4 5 6 
#
# 1 0.012934 -0.001650 -0.006979 -0.000001 -0.001600 0.000000
# 2 -0.001650 0.035250 -0.004390 0.000018 0.004515 -0.000008
# 3 -0.006979 -0.004390 0.012811 0.000008 -0.001337 -0.000002
# 4 -0.000001 0.000018 0.000008 0.083201 -0.000006 0.001062
# 5 -0.001600 0.004515 -0.001337 -0.000006 0.033583 0.000000
# 6 0.000000 -0.000008 -0.000002 0.001062 0.000000 0.065494
#
#
# Mechanical properties :
#
#
# Convention : Reuss Voigt Hill
#
# Bulk Modulus (GPa) = 28.60654 52.30045 40.45349
# Shear Modulus (GPa) = 17.79591 22.99881 20.39736
#
# Velocity S-wave (km/s) = 3.24301 3.68672 3.47196
# Velocity P-wave (km/s) = 5.56137 7.00223 6.32298
#
# Compressibility (1/GPa) = 0.03495704
#
# Stress axis : x y z
#
# Youngs Moduli (GPa) = 77.31276 28.36878 78.05986
#
# Poissons Ratio (x) = 0.04682 0.54474
# Poissons Ratio (y) = 0.12760 0.34269
# Poissons Ratio (z) = 0.53953 0.12454
#
# Static dielectric constant tensor:
#      x y z
#    x 2.850870 -0.000050 0.383070 
#    y -0.000050 2.642470 0.000060 
#    z 0.383070 0.000060 3.142410 
# 
# 
# High freq. dielectric constant tensor:
#      x y z
#    x 1.650670 0.000000 0.015350 
#    y 0.000000 1.589310 0.000000 
#    z 0.015350 0.000000 1.666800 
# 
# From -- ./inp_files/89516.got.cif
#   From: 2010.06.25/outbox.cif.g09.slc.cpg/sg12_45_cif.got.tgz:89516.got - 2010.06.28 00:19:55.
