data_PCOD8078126
_publ_section_title
;
Structure prediction by ZEFSAII (Michael W. Deem and Ramdas Pophale) SiO2 
 PCOD8078126
Probable space group: C 2/M
;
_chemical_formula_sum "Si O2"
_cell_formula_units_Z 40
_cell_length_a 5.358414
_cell_length_b 15.519661
_cell_length_c 22.906711
_cell_angle_alpha 90.000000
_cell_angle_beta 69.459342
_cell_angle_gamma 90.000000
_cell_volume 1783.830185
_symmetry_space_group_name_H-M "C 2/M"
_symmetry_group_IT_number 12
_symmetry_cell_setting 'monoclinic'
loop_
_space_group_symop_operation_xyz
x,y,z
-x,y,-z
-x,-y,-z
x,-y,z
1/2+x,1/2+y,z
1/2-x,1/2+y,-z
1/2-x,1/2-y,-z
1/2+x,1/2-y,z
loop_
_atom_site_type_symbol
_atom_site_label
_atom_site_fract_x
_atom_site_fract_y
_atom_site_fract_z
Si Si1 0.012486 0.347007 0.324773
Si Si2 0.694634 0.899022 0.536916
Si Si3 0.590068 0.345668 0.273051
Si Si4 0.610878 0.347483 0.926259
Si Si5 0.811702 0.654390 0.125356
O O1 0.901311 0.346622 0.399149
O O2 0.801705 0.393793 0.298315
O O3 0.048580 0.249975 0.300380
O O4 0.302611 0.393788 0.298162
O O5 0.500000 0.872462 0.500000
O O6 0.000000 0.872445 0.500000
O O7 0.671798 0.000000 0.552169
O O8 0.701316 0.342475 0.199202
O O9 0.401959 0.393651 0.899173
O O10 0.645698 0.249510 0.903266
O O11 0.901073 0.393656 0.899287
O O12 0.500000 0.352843 0.000000
#
# Coordination Sequence:
#
# PCOD8078126 Si02
#       5
#     8   8   8   8   8
#     4  10  18  32  48  67  90 114 148 183 212 266
#     4  10  21  37  54  70  89 115 146 180 222 268
#     4  10  19  30  45  67  92 121 152 178 220 270
#     4  10  16  22  33  51  75 112 159 186 204 239
#     4  10  16  25  36  51  80 114 149 179 211 253
#
# _framework density 22.423660000000002
#
# number of rings (size 3 to 8) (size 9 to 14) (size 15 to 20)
#    0.000    2.000    0.000   10.200    0.000    0.000 
#    0.000   12.000    0.000    0.000    0.000    0.000 
#    0.000    0.000    0.000    0.000    0.000  563.000 
#
# Total GULP energy -247844.182436 kJ/mol
# GULP energy per Si atom -12392.209122 kJ/mol
# Density = 2.237262 g / cm^3
# Si number density = 22.423660 Si / 1000 Ang^3
#
#
#
# Elastic Constant Matrix: (Units=GPa)
#
#
# Indices 1 2 3 4 5 6 
#
# 1 306.2410 12.2241 119.6384 0.0000 5.5834 0.0000
# 2 12.2241 -23.5752 14.5994 0.0000 -0.1510 0.0000
# 3 119.6384 14.5994 257.7717 0.0000 -2.5598 0.0000
# 4 0.0000 0.0000 0.0000 -3.0131 0.0000 0.1105
# 5 5.5834 -0.1510 -2.5598 0.0000 52.6215 0.0000
# 6 0.0000 0.0000 0.0000 0.1105 0.0000 -1.5092
#
#
#
# Elastic Compliance Matrix: (Units=1/GPa)
#
#
# Indices 1 2 3 4 5 6 
#
# 1 0.003983 0.000889 -0.001904 0.000000 -0.000513 0.000000
# 2 0.000889 -0.040782 0.001896 0.000000 -0.000119 0.000000
# 3 -0.001904 0.001896 0.004660 0.000000 0.000434 0.000000
# 4 0.000000 0.000000 0.000000 -0.332781 0.000000 -0.024361
# 5 -0.000513 -0.000119 0.000434 0.000000 0.019079 0.000000
# 6 0.000000 0.000000 0.000000 -0.024361 0.000000 -0.664401
#
#
# Mechanical properties :
#
#
# Convention : Reuss Voigt Hill
#
# Bulk Modulus (GPa) = -32.92044 92.59572 29.83764
# Shear Modulus (GPa) = -4.89175 35.88490 15.49658
#
# Velocity S-wave (km/s) = -1.47860 4.00473 2.63169
# Velocity P-wave (km/s) = 4.19857 7.92258 4.75075
#
# Compressibility (1/GPa) = -0.03037626
#
# Stress axis : x y z
#
# Youngs Moduli (GPa) = 251.05880 -24.52086 214.58759
#
# Poissons Ratio (x) = 0.02181 0.40860
# Poissons Ratio (y) = -0.22330 -0.40681
# Poissons Ratio (z) = 0.47805 0.04649
#
# Static dielectric constant tensor:
#      x y z
#    x 36.750580 0.000000 2.272700 
#    y 0.000000 3.181520 0.000000 
#    z 2.272700 0.000000 4.112090 
# 
# 
# High freq. dielectric constant tensor:
#      x y z
#    x 1.936360 0.000000 0.002680 
#    y 0.000000 1.794840 0.000000 
#    z 0.002680 0.000000 1.897980 
# 
# From -- ./inp_files/191509.got.cif
#   From: 2010.06.25/outbox.cif.g09.slc.cpg/sg12_96_cif.got.tgz:191509.got - 2010.06.28 00:19:55.
