data_PCOD8078802
_publ_section_title
;
Structure prediction by ZEFSAII (Michael W. Deem and Ramdas Pophale) SiO2 
 PCOD8078802
Probable space group: C 2/M
;
_chemical_formula_sum "Si O2"
_cell_formula_units_Z 56
_cell_length_a 28.137642
_cell_length_b 8.989121
_cell_length_c 14.349774
_cell_angle_alpha 90.000000
_cell_angle_beta 102.731167
_cell_angle_gamma 90.000000
_cell_volume 3540.294032
_symmetry_space_group_name_H-M "C 2/M"
_symmetry_group_IT_number 12
_symmetry_cell_setting 'monoclinic'
loop_
_space_group_symop_operation_xyz
x,y,z
-x,y,-z
-x,-y,-z
x,-y,z
1/2+x,1/2+y,z
1/2-x,1/2+y,-z
1/2-x,1/2-y,-z
1/2+x,1/2-y,z
loop_
_atom_site_type_symbol
_atom_site_label
_atom_site_fract_x
_atom_site_fract_y
_atom_site_fract_z
Si Si1 0.108409 0.171512 0.536692
Si Si2 0.927094 0.323822 0.293773
Si Si3 0.232910 0.827053 0.776079
Si Si4 0.280166 0.672052 0.433539
Si Si5 0.026514 0.663982 0.412972
Si Si6 0.294788 0.174314 0.968350
Si Si7 0.144435 0.823305 0.866254
O O1 0.100644 0.264772 0.626962
O O2 0.162735 0.197451 0.523142
O O3 0.071847 0.222922 0.438139
O O4 0.098521 0.000000 0.556480
O O5 0.919033 0.500000 0.285055
O O6 0.906215 0.243570 0.192872
O O7 0.984947 0.284398 0.321696
O O8 0.234690 0.756585 0.673528
O O9 0.284175 0.800497 0.853065
O O10 0.187019 0.765237 0.815201
O O11 0.221709 0.000000 0.758713
O O12 0.266217 0.500000 0.430311
O O13 0.250000 0.750000 0.500000
O O14 0.046472 0.500000 0.395257
O O15 0.000000 0.656382 0.500000
O O16 0.296595 0.000000 0.992764
O O17 0.250000 0.250000 0.000000
O O18 0.344072 0.254554 0.025874
O O19 0.141104 0.000000 0.873089
#
# Coordination Sequence:
#
# PCOD8078802 Si02
#       7
#     8   8   8   8   8   8   8
#     4  10  18  29  44  59  82 112 144 181 219 256
#     4  10  18  27  41  62  87 114 144 175 208 255
#     4   8  15  29  43  55  81 112 140 177 217 248
#     4  10  20  33  45  62  84 112 149 187 219 250
#     4   8  16  28  40  58  84 110 140 175 209 252
#     4   9  16  26  41  60  81 111 143 174 212 257
#     4  10  17  27  42  61  87 115 141 176 211 253
#
# _framework density 15.817895999999999
#
# number of rings (size 3 to 8) (size 9 to 14) (size 15 to 20)
#    0.000    2.714    1.429    3.429    0.000    4.286 
#    0.000    1.429    0.000    0.000    0.000    0.000 
#    0.000    1.143    0.000   12.857    0.000    6.429 
#
# Total GULP energy -346958.202213 kJ/mol
# GULP energy per Si atom -12391.364365 kJ/mol
# Density = 1.578189 g / cm^3
# Si number density = 15.817896 Si / 1000 Ang^3
#
#
#
# Elastic Constant Matrix: (Units=GPa)
#
#
# Indices 1 2 3 4 5 6 
#
# 1 60.6023 40.1826 49.6323 0.0000 23.5223 0.0000
# 2 40.1826 83.4545 42.5335 0.0000 19.1017 0.0000
# 3 49.6323 42.5335 96.6053 0.0000 32.3333 0.0000
# 4 0.0000 0.0000 0.0000 23.8696 0.0000 7.5315
# 5 23.5223 19.1017 32.3333 0.0000 32.5973 0.0000
# 6 0.0000 0.0000 0.0000 7.5315 0.0000 23.1795
#
#
#
# Elastic Compliance Matrix: (Units=1/GPa)
#
#
# Indices 1 2 3 4 5 6 
#
# 1 0.035110 -0.009261 -0.010924 0.000000 -0.009073 0.000000
# 2 -0.009261 0.018156 -0.002862 0.000000 -0.001118 0.000000
# 3 -0.010924 -0.002862 0.020994 0.000000 -0.011264 0.000000
# 4 0.000000 0.000000 0.000000 0.046680 0.000000 -0.015167
# 5 -0.009073 -0.001118 -0.011264 0.000000 0.049052 0.000000
# 6 0.000000 0.000000 0.000000 -0.015167 0.000000 0.048070
#
#
# Mechanical properties :
#
#
# Convention : Reuss Voigt Hill
#
# Bulk Modulus (GPa) = 35.50333 56.15100 45.82716
# Shear Modulus (GPa) = 18.27866 23.15021 20.71443
#
# Velocity S-wave (km/s) = 3.40305 3.82978 3.62271
# Velocity P-wave (km/s) = 6.15912 7.42508 6.82153
#
# Compressibility (1/GPa) = 0.02816637
#
# Stress axis : x y z
#
# Youngs Moduli (GPa) = 28.48220 55.07837 47.63330
#
# Poissons Ratio (x) = 0.51007 0.52035
# Poissons Ratio (y) = 0.26377 0.13631
# Poissons Ratio (z) = 0.31114 0.15761
#
# Static dielectric constant tensor:
#      x y z
#    x 2.801060 0.000000 0.497480 
#    y 0.000000 3.040610 0.000000 
#    z 0.497480 0.000000 3.254420 
# 
# 
# High freq. dielectric constant tensor:
#      x y z
#    x 1.565900 0.000000 0.050780 
#    y 0.000000 1.609740 0.000000 
#    z 0.050780 0.000000 1.592280 
# 
# From -- ./inp_files/247879.got.cif
#   From: 2010.06.25/outbox.cif.g09.slc.cpg/sg12_124_cif.got.tgz:247879.got - 2010.06.28 00:19:55.
