data_PCOD8078149
_publ_section_title
;
Structure prediction by ZEFSAII (Michael W. Deem and Ramdas Pophale) SiO2 
 PCOD8078149
Probable space group: C 2/M
;
_chemical_formula_sum "Si O2"
_cell_formula_units_Z 64
_cell_length_a 27.613990
_cell_length_b 9.055958
_cell_length_c 29.099122
_cell_angle_alpha 90.000000
_cell_angle_beta 145.266097
_cell_angle_gamma 90.000000
_cell_volume 4146.101247
_symmetry_space_group_name_H-M "C 2/M"
_symmetry_group_IT_number 12
_symmetry_cell_setting 'monoclinic'
loop_
_space_group_symop_operation_xyz
x,y,z
-x,y,-z
-x,-y,-z
x,-y,z
1/2+x,1/2+y,z
1/2-x,1/2+y,-z
1/2-x,1/2-y,-z
1/2+x,1/2-y,z
loop_
_atom_site_type_symbol
_atom_site_label
_atom_site_fract_x
_atom_site_fract_y
_atom_site_fract_z
Si Si1 0.280461 0.174443 0.477856
Si Si2 0.946766 0.833923 0.004757
Si Si3 0.303435 0.826212 0.843980
Si Si4 0.367193 0.825483 0.305948
Si Si5 0.191997 0.834618 0.316400
Si Si6 0.908056 0.673037 0.835072
Si Si7 0.128448 0.665011 0.589717
Si Si8 0.446777 0.174064 0.559860
O O1 0.250000 0.250000 0.500000
O O2 0.216336 0.219495 0.386635
O O3 0.376481 0.232557 0.541279
O O4 0.279907 0.000000 0.484496
O O5 0.860318 0.744201 0.928627
O O6 0.925118 0.000000 0.004098
O O7 0.000000 0.836382 0.000000
O O8 0.001962 0.752753 0.086661
O O9 0.209427 0.760322 0.777858
O O10 0.340829 0.785204 0.822865
O O11 0.300771 0.000000 0.849431
O O12 0.378616 0.757721 0.366186
O O13 0.456471 0.792125 0.349004
O O14 0.346164 0.000000 0.289796
O O15 0.124965 0.724764 0.240518
O O16 0.274459 0.834553 0.349317
O O17 0.153429 0.000000 0.287929
O O18 0.924793 0.500000 0.847239
O O19 0.094097 0.500000 0.570523
O O20 0.071547 0.742494 0.505471
O O21 0.430282 0.000000 0.541867
#
# Coordination Sequence:
#
# PCOD8078149 Si02
#       8
#     8   8   8   8   8   8   8   8
#     4   9  18  32  48  65  86 111 141 181 225 262
#     4   9  17  28  42  57  76 109 152 186 210 242
#     4  10  19  28  37  55  87 119 145 175 214 253
#     4  10  16  24  42  61  80 110 148 180 207 247
#     4   9  16  27  43  63  84 109 145 182 212 251
#     4  10  18  27  40  59  85 114 143 177 217 255
#     4   8  13  22  38  59  81 105 138 178 212 240
#     4   8  15  26  41  63  83 104 141 184 216 247
#
# _framework density 15.436188
#
# number of rings (size 3 to 8) (size 9 to 14) (size 15 to 20)
#    0.000    2.875    1.250    3.000    0.000    4.500 
#    0.000    0.625    0.000    2.250    0.000    0.000 
#    0.000    1.000    0.000    3.000    0.000    4.625 
#
# Total GULP energy -396542.714231 kJ/mol
# GULP energy per Si atom -12391.959820 kJ/mol
# Density = 1.540106 g / cm^3
# Si number density = 15.436188 Si / 1000 Ang^3
#
#
#
# Elastic Constant Matrix: (Units=GPa)
#
#
# Indices 1 2 3 4 5 6 
#
# 1 57.1322 24.5665 47.9424 0.0000 0.0879 0.0000
# 2 24.5665 64.0664 53.6189 0.0001 2.5052 0.0002
# 3 47.9424 53.6189 129.0002 0.0000 10.6747 0.0000
# 4 0.0000 0.0001 0.0000 16.1220 0.0000 -2.9176
# 5 0.0879 2.5052 10.6747 0.0000 17.0131 0.0000
# 6 0.0000 0.0002 0.0000 -2.9176 0.0000 15.6060
#
#
#
# Elastic Compliance Matrix: (Units=1/GPa)
#
#
# Indices 1 2 3 4 5 6 
#
# 1 0.026342 -0.002647 -0.009188 0.000000 0.006018 0.000000
# 2 -0.002647 0.024334 -0.009319 0.000000 0.002278 0.000000
# 3 -0.009188 -0.009319 0.015740 0.000000 -0.008456 0.000000
# 4 0.000000 0.000000 0.000000 0.064199 0.000000 0.012002
# 5 0.006018 0.002278 -0.008456 0.000000 0.063717 0.000000
# 6 0.000000 0.000000 0.000000 0.012002 0.000000 0.066322
#
#
# Mechanical properties :
#
#
# Convention : Reuss Voigt Hill
#
# Bulk Modulus (GPa) = 41.47949 55.82827 48.65388
# Shear Modulus (GPa) = 16.07728 18.01964 17.04846
#
# Velocity S-wave (km/s) = 3.23078 3.42038 3.32693
# Velocity P-wave (km/s) = 6.39118 7.20030 6.80777
#
# Compressibility (1/GPa) = 0.02410830
#
# Stress axis : x y z
#
# Youngs Moduli (GPa) = 37.96218 41.09433 63.53293
#
# Poissons Ratio (x) = 0.10877 0.58373
# Poissons Ratio (y) = 0.10048 0.59209
# Poissons Ratio (z) = 0.34879 0.38297
#
# Static dielectric constant tensor:
#      x y z
#    x 2.645820 0.000000 0.077340 
#    y 0.000000 2.762870 0.000000 
#    z 0.077340 0.000000 3.051800 
# 
# 
# High freq. dielectric constant tensor:
#      x y z
#    x 1.537660 0.000000 0.009810 
#    y 0.000000 1.572440 0.000000 
#    z 0.009810 0.000000 1.596910 
# 
# From -- ./inp_files/248472.got.cif
#   From: 2010.06.25/outbox.cif.g09.slc.cpg/sg12_125_cif.got.tgz:248472.got - 2010.06.28 00:19:55.
