data_PCOD8078443
_publ_section_title
;
Structure prediction by ZEFSAII (Michael W. Deem and Ramdas Pophale) SiO2 
 PCOD8078443
Probable space group: C 2/M
;
_chemical_formula_sum "Si O2"
_cell_formula_units_Z 44
_cell_length_a 13.939591
_cell_length_b 17.121789
_cell_length_c 9.708785
_cell_angle_alpha 90.000000
_cell_angle_beta 87.647746
_cell_angle_gamma 90.000000
_cell_volume 2315.250337
_symmetry_space_group_name_H-M "C 2/M"
_symmetry_group_IT_number 12
_symmetry_cell_setting 'monoclinic'
loop_
_space_group_symop_operation_xyz
x,y,z
-x,y,-z
-x,-y,-z
x,-y,z
1/2+x,1/2+y,z
1/2-x,1/2+y,-z
1/2-x,1/2-y,-z
1/2+x,1/2-y,z
loop_
_atom_site_type_symbol
_atom_site_label
_atom_site_fract_x
_atom_site_fract_y
_atom_site_fract_z
Si Si1 0.879756 0.668983 0.649353
Si Si2 0.374285 0.000000 0.755123
Si Si3 0.598549 0.831743 0.657045
Si Si4 0.397717 0.412476 0.064313
Si Si5 0.744959 0.000000 0.962160
Si Si6 0.717099 0.269845 0.847372
Si Si7 0.411088 0.000000 0.259547
O O1 0.858952 0.576588 0.662802
O O2 0.862495 0.697728 0.493097
O O3 0.812276 0.717050 0.754277
O O4 0.987828 0.691232 0.686902
O O5 0.482148 0.000000 0.810987
O O6 0.299583 0.000000 0.882795
O O7 0.659715 0.801613 0.782594
O O8 0.606615 0.925120 0.645788
O O9 0.408971 0.500000 0.134983
O O10 0.316169 0.423995 0.948368
O O11 0.500000 0.384435 0.000000
O O12 0.355157 0.344294 0.162872
O O13 0.662810 0.000000 0.859295
O O14 0.750000 0.250000 0.000000
#
# Coordination Sequence:
#
# PCOD8078443 Si02
#       7
#     8   4   8   8   4   8   4
#     4  10  21  41  59  85 118 159 193 235 296 355
#     4  10  18  33  62  85 113 150 196 232 290 361
#     4  10  23  38  60  86 121 156 193 239 289 358
#     4   9  20  37  57  80 113 152 191 235 288 343
#     4  10  16  34  54  89 113 145 188 244 294 332
#     4  12  24  37  60  91 117 151 197 246 298 346
#     4  10  20  35  56  88 120 147 191 238 297 345
#
# _framework density 19.004424
#
# number of rings (size 3 to 8) (size 9 to 14) (size 15 to 20)
#    0.545    1.273    1.818    2.455    2.545    2.182 
#    0.000    0.000    0.000    0.000    0.000    2.545 
#    0.000    0.000    0.000    0.000    0.000    0.000 
#
# Total GULP energy -272544.521703 kJ/mol
# GULP energy per Si atom -12388.387350 kJ/mol
# Density = 1.896117 g / cm^3
# Si number density = 19.004424 Si / 1000 Ang^3
#
#
#
# Elastic Constant Matrix: (Units=GPa)
#
#
# Indices 1 2 3 4 5 6 
#
# 1 115.4621 39.4834 63.7183 0.0000 -9.5747 0.0000
# 2 39.4834 68.8254 28.9812 0.0000 -5.8997 0.0000
# 3 63.7183 28.9812 108.4747 0.0000 -6.6530 0.0000
# 4 0.0000 0.0000 0.0000 21.9997 0.0000 0.9945
# 5 -9.5747 -5.8997 -6.6530 0.0000 36.0614 0.0000
# 6 0.0000 0.0000 0.0000 0.9945 0.0000 26.6480
#
#
#
# Elastic Compliance Matrix: (Units=1/GPa)
#
#
# Indices 1 2 3 4 5 6 
#
# 1 0.014432 -0.005192 -0.006987 0.000000 0.001694 0.000000
# 2 -0.005192 0.018368 -0.001778 0.000000 0.001298 0.000000
# 3 -0.006987 -0.001778 0.013822 0.000000 0.000404 0.000000
# 4 0.000000 0.000000 0.000000 0.045532 0.000000 -0.001699
# 5 0.001694 0.001298 0.000404 0.000000 0.028467 0.000000
# 6 0.000000 0.000000 0.000000 -0.001699 0.000000 0.037590
#
#
# Mechanical properties :
#
#
# Convention : Reuss Voigt Hill
#
# Bulk Modulus (GPa) = 53.44849 61.90309 57.67579
# Shear Modulus (GPa) = 25.99269 27.64711 26.81990
#
# Velocity S-wave (km/s) = 3.70228 3.81829 3.76073
# Velocity P-wave (km/s) = 6.81624 7.21684 7.01940
#
# Compressibility (1/GPa) = 0.01870960
#
# Stress axis : x y z
#
# Youngs Moduli (GPa) = 69.28838 54.44202 72.34637
#
# Poissons Ratio (x) = 0.28269 0.50545
# Poissons Ratio (y) = 0.35978 0.12861
# Poissons Ratio (z) = 0.48408 0.09678
#
# Static dielectric constant tensor:
#      x y z
#    x 3.626250 0.000000 -0.116920 
#    y 0.000000 3.565410 0.000000 
#    z -0.116920 0.000000 3.280190 
# 
# 
# High freq. dielectric constant tensor:
#      x y z
#    x 1.752320 0.000000 -0.011070 
#    y 0.000000 1.738000 0.000000 
#    z -0.011070 0.000000 1.709860 
# 
# From -- ./inp_files/61111.got.cif
#   From: 2010.06.25/outbox.cif.g09.slc.cpg/sg12_31_cif.got.tgz:61111.got - 2010.06.28 00:19:55.
