data_PCOD8078720
_publ_section_title
;
Structure prediction by ZEFSAII (Michael W. Deem and Ramdas Pophale) SiO2 
 PCOD8078720
Probable space group: C 2/M
;
_chemical_formula_sum "Si O2"
_cell_formula_units_Z 60
_cell_length_a 21.979924
_cell_length_b 13.870023
_cell_length_c 21.051341
_cell_angle_alpha 90.000000
_cell_angle_beta 34.754890
_cell_angle_gamma 90.000000
_cell_volume 3658.549605
_symmetry_space_group_name_H-M "C 2/M"
_symmetry_group_IT_number 12
_symmetry_cell_setting 'monoclinic'
loop_
_space_group_symop_operation_xyz
x,y,z
-x,y,-z
-x,-y,-z
x,-y,z
1/2+x,1/2+y,z
1/2-x,1/2+y,-z
1/2-x,1/2-y,-z
1/2+x,1/2-y,z
loop_
_atom_site_type_symbol
_atom_site_label
_atom_site_fract_x
_atom_site_fract_y
_atom_site_fract_z
Si Si1 0.776564 0.610413 0.222956
Si Si2 0.426020 0.769753 0.929762
Si Si3 0.276741 0.389039 0.869081
Si Si4 0.870793 0.773637 0.411386
Si Si5 0.967731 0.889490 0.797864
Si Si6 0.199324 0.891369 0.419997
Si Si7 0.000000 0.695390 0.000000
Si Si8 0.070890 0.607385 0.715781
O O1 0.769733 0.500000 0.247229
O O2 0.709649 0.636046 0.217299
O O3 0.722119 0.658975 0.331750
O O4 0.900971 0.631026 0.106731
O O5 0.422660 0.668313 0.896699
O O6 0.504677 0.846473 0.830044
O O7 0.309474 0.817395 0.026847
O O8 0.463354 0.743760 0.969751
O O9 0.237623 0.500000 0.910230
O O10 0.389684 0.372384 0.805188
O O11 0.750000 0.750000 0.500000
O O12 0.880825 0.818432 0.473719
O O13 0.938006 0.674693 0.340326
O O14 0.915314 0.852992 0.323162
O O15 0.974348 0.000000 0.812952
O O16 0.307662 0.898456 0.366645
O O17 0.149073 0.000000 0.459269
O O18 0.027570 0.500000 0.737111
#
# Coordination Sequence:
#
# PCOD8078720 Si02
#       8
#     8   8   8   8   8   8   4   8
#     4   9  16  25  42  68  97 124 150 184 231 282
#     4  10  18  29  47  70  95 127 158 193 231 275
#     4   9  18  30  46  70  99 128 158 188 227 282
#     4   9  18  30  46  64  86 119 155 192 232 276
#     4  10  20  34  48  66  95 129 159 192 233 278
#     4   9  15  25  41  64  91 119 147 184 229 275
#     4  10  17  26  43  68  94 122 154 196 234 270
#     4   9  16  26  42  66  93 115 146 190 236 275
#
# _framework density 16.399941999999999
#
# number of rings (size 3 to 8) (size 9 to 14) (size 15 to 20)
#    0.000    2.667    1.333    1.400    0.000    1.600 
#    0.000    1.000    0.000    3.200    0.000    0.000 
#    0.000    4.267    0.000    0.000    0.000    0.000 
#
# Total GULP energy -371688.632650 kJ/mol
# GULP energy per Si atom -12389.621088 kJ/mol
# Density = 1.636261 g / cm^3
# Si number density = 16.399942 Si / 1000 Ang^3
#
#
#
# Elastic Constant Matrix: (Units=GPa)
#
#
# Indices 1 2 3 4 5 6 
#
# 1 60.6848 36.0919 36.3975 0.0000 13.5590 0.0000
# 2 36.0919 104.4694 50.8818 0.0000 17.7807 0.0000
# 3 36.3975 50.8818 88.1870 0.0000 27.0804 0.0000
# 4 0.0000 0.0000 0.0000 25.0075 0.0000 4.4731
# 5 13.5590 17.7807 27.0804 0.0000 29.2628 0.0000
# 6 0.0000 0.0000 0.0000 4.4731 0.0000 15.6719
#
#
#
# Elastic Compliance Matrix: (Units=1/GPa)
#
#
# Indices 1 2 3 4 5 6 
#
# 1 0.023558 -0.004670 -0.006353 0.000000 -0.002198 0.000000
# 2 -0.004670 0.014279 -0.006023 0.000000 -0.000939 0.000000
# 3 -0.006353 -0.006023 0.021526 0.000000 -0.013317 0.000000
# 4 0.000000 0.000000 0.000000 0.042139 0.000000 -0.012028
# 5 -0.002198 -0.000939 -0.013317 0.000000 0.048086 0.000000
# 6 0.000000 0.000000 0.000000 -0.012028 0.000000 0.067241
#
#
# Mechanical properties :
#
#
# Convention : Reuss Voigt Hill
#
# Bulk Modulus (GPa) = 39.57227 55.56486 47.56857
# Shear Modulus (GPa) = 19.27926 22.65313 20.96620
#
# Velocity S-wave (km/s) = 3.43238 3.72061 3.57939
# Velocity P-wave (km/s) = 6.31587 7.23961 6.79346
#
# Compressibility (1/GPa) = 0.02527022
#
# Stress axis : x y z
#
# Youngs Moduli (GPa) = 42.44844 70.03418 46.45473
#
# Poissons Ratio (x) = 0.32707 0.29515
# Poissons Ratio (y) = 0.19824 0.27979
# Poissons Ratio (z) = 0.26970 0.42180
#
# Static dielectric constant tensor:
#      x y z
#    x 2.993130 0.000000 0.223370 
#    y 0.000000 3.213980 0.000000 
#    z 0.223370 0.000000 3.278650 
# 
# 
# High freq. dielectric constant tensor:
#      x y z
#    x 1.604930 0.000000 0.012420 
#    y 0.000000 1.609720 0.000000 
#    z 0.012420 0.000000 1.641920 
# 
# From -- ./inp_files/325535.got.cif
#   From: 2010.06.25/outbox.cif.g09.slc.cpg/sg12_163_cif.got.tgz:325535.got - 2010.06.28 00:19:55.
