data_PCOD8078609
_publ_section_title
;
Structure prediction by ZEFSAII (Michael W. Deem and Ramdas Pophale) SiO2 
 PCOD8078609
Probable space group: C 2/M
;
_chemical_formula_sum "Si O2"
_cell_formula_units_Z 48
_cell_length_a 19.165678
_cell_length_b 8.873777
_cell_length_c 24.269776
_cell_angle_alpha 90.000000
_cell_angle_beta 39.926848
_cell_angle_gamma 90.000000
_cell_volume 2649.136269
_symmetry_space_group_name_H-M "C 2/M"
_symmetry_group_IT_number 12
_symmetry_cell_setting 'monoclinic'
loop_
_space_group_symop_operation_xyz
x,y,z
-x,y,-z
-x,-y,-z
x,-y,z
1/2+x,1/2+y,z
1/2-x,1/2+y,-z
1/2-x,1/2-y,-z
1/2+x,1/2-y,z
loop_
_atom_site_type_symbol
_atom_site_label
_atom_site_fract_x
_atom_site_fract_y
_atom_site_fract_z
Si Si1 0.483503 0.824672 0.585756
Si Si2 0.798088 0.671679 0.775096
Si Si3 0.247937 0.323727 0.917717
Si Si4 0.915877 0.822368 0.907768
Si Si5 0.159587 0.178133 0.421780
Si Si6 0.161323 0.176668 0.749802
O O1 0.424755 0.805833 0.680510
O O2 0.606111 0.755629 0.509232
O O3 0.413307 0.729302 0.585212
O O4 0.483882 0.000000 0.568348
O O5 0.777616 0.500000 0.806150
O O6 0.772433 0.781643 0.840394
O O7 0.719332 0.714472 0.772343
O O8 0.231218 0.500000 0.932309
O O9 0.348045 0.269555 0.895344
O O10 0.136670 0.246890 0.005349
O O11 0.038403 0.762830 0.827202
O O12 0.915241 0.000000 0.915459
O O13 0.281265 0.237471 0.336124
O O14 0.160370 0.000000 0.428788
O O15 0.167508 0.000000 0.733322
#
# Coordination Sequence:
#
# PCOD8078609 Si02
#       6
#     8   8   8   8   8   8
#     4   9  16  28  45  65  93 131 167 191 222 278
#     4   9  18  31  49  72  96 125 159 196 234 275
#     4  10  20  33  51  73  96 123 155 197 244 285
#     4   9  19  36  54  69  90 126 166 196 229 283
#     4  10  17  25  42  70 100 125 152 195 245 280
#     4   9  18  33  51  70  94 127 165 197 229 278
#
# _framework density 18.119112999999999
#
# number of rings (size 3 to 8) (size 9 to 14) (size 15 to 20)
#    0.000    2.667    0.000    4.500    0.000    5.333 
#    0.000    3.333    0.000    1.000    0.000    0.000 
#    0.000    0.000    0.000    0.000    0.000    0.000 
#
# Total GULP energy -297478.039648 kJ/mol
# GULP energy per Si atom -12394.918319 kJ/mol
# Density = 1.807787 g / cm^3
# Si number density = 18.119113 Si / 1000 Ang^3
#
#
#
# Elastic Constant Matrix: (Units=GPa)
#
#
# Indices 1 2 3 4 5 6 
#
# 1 41.8487 20.1772 50.1199 0.0000 -14.6746 -0.0003
# 2 20.1772 56.8837 48.7046 0.0000 -11.5140 -0.0008
# 3 50.1199 48.7046 159.8457 0.0000 -38.8891 0.0001
# 4 0.0000 0.0000 0.0000 33.4223 0.0000 0.6171
# 5 -14.6746 -11.5140 -38.8891 0.0000 11.3109 0.0000
# 6 -0.0003 -0.0008 0.0001 0.6171 0.0000 17.8862
#
#
#
# Elastic Compliance Matrix: (Units=1/GPa)
#
#
# Indices 1 2 3 4 5 6 
#
# 1 0.045203 -0.005767 0.002590 0.000000 0.061680 0.000000
# 2 -0.005767 0.024555 -0.008639 0.000000 -0.012189 0.000001
# 3 0.002590 -0.008639 0.041307 0.000000 0.136587 -0.000001
# 4 0.000000 0.000000 0.000000 0.029939 0.000000 -0.001033
# 5 0.061680 -0.012189 0.136587 0.000000 0.625639 -0.000001
# 6 0.000000 0.000001 -0.000001 -0.001033 -0.000001 0.055945
#
#
# Mechanical properties :
#
#
# Convention : Reuss Voigt Hill
#
# Bulk Modulus (GPa) = 11.43734 55.17573 33.30654
# Shear Modulus (GPa) = 5.71191 21.82896 13.77044
#
# Velocity S-wave (km/s) = 1.77743 3.47471 2.75979
# Velocity P-wave (km/s) = 3.24629 6.82759 5.34576
#
# Compressibility (1/GPa) = 0.08743291
#
# Stress axis : x y z
#
# Youngs Moduli (GPa) = 22.12244 40.72487 24.20915
#
# Poissons Ratio (x) = 0.23484 -0.06270
# Poissons Ratio (y) = 0.12757 0.20915
# Poissons Ratio (z) = -0.05730 0.35183
#
# Static dielectric constant tensor:
#      x y z
#    x 3.010040 0.000000 -0.273050 
#    y 0.000000 3.243810 0.000000 
#    z -0.273050 0.000000 3.969430 
# 
# 
# High freq. dielectric constant tensor:
#      x y z
#    x 1.646320 0.000000 -0.013660 
#    y 0.000000 1.702580 0.000000 
#    z -0.013660 0.000000 1.725550 
# 
# From -- ./inp_files/229310.got.cif
#   From: 2010.06.25/outbox.cif.g09.slc.cpg/sg12_115_cif.got.tgz:229310.got - 2010.06.28 00:19:55.
