data_PCOD8078985
_publ_section_title
;
Structure prediction by ZEFSAII (Michael W. Deem and Ramdas Pophale) SiO2 
 PCOD8078985
Probable space group: C 2/M
;
_chemical_formula_sum "Si O2"
_cell_formula_units_Z 64
_cell_length_a 8.735539
_cell_length_b 30.568396
_cell_length_c 15.286370
_cell_angle_alpha 90.000000
_cell_angle_beta 90.000000
_cell_angle_gamma 90.000000
_cell_volume 4081.941018
_symmetry_space_group_name_H-M "C 2/M"
_symmetry_group_IT_number 12
_symmetry_cell_setting 'monoclinic'
loop_
_space_group_symop_operation_xyz
x,y,z
-x,y,-z
-x,-y,-z
x,-y,z
1/2+x,1/2+y,z
1/2-x,1/2+y,-z
1/2-x,1/2-y,-z
1/2+x,1/2-y,z
loop_
_atom_site_type_symbol
_atom_site_label
_atom_site_fract_x
_atom_site_fract_y
_atom_site_fract_z
Si Si1 0.569295 0.118570 0.095307
Si Si2 0.067609 0.793454 0.097112
Si Si3 0.417855 0.948182 0.415776
Si Si4 0.082145 0.051818 0.415776
Si Si5 0.929560 0.550881 0.223097
Si Si6 0.932391 0.706546 0.097112
Si Si7 0.429560 0.449119 0.776903
Si Si8 0.430705 0.618570 0.095307
O O1 0.531360 0.077311 0.155118
O O2 0.493687 0.161734 0.140771
O O3 0.750000 0.125104 0.086817
O O4 0.500000 0.109676 0.000000
O O5 1.000000 0.750000 0.145182
O O6 0.006313 0.838266 0.140771
O O7 0.250000 0.791972 0.096860
O O8 0.000000 0.794167 0.000000
O O9 0.500000 0.926897 0.500000
O O10 0.250000 0.927707 0.416697
O O11 0.491336 0.937296 0.321050
O O12 0.409998 0.000000 0.426706
O O13 0.008664 0.062704 0.321050
O O14 0.000000 0.073103 0.500000
O O15 0.090002 0.000000 0.426706
O O16 0.955917 0.500000 0.203250
O O17 0.750000 0.562437 0.214110
O O18 0.000000 0.705833 0.000000
O O19 0.455917 0.500000 0.796750
O O20 0.531360 0.422689 0.844882
O O21 0.500000 0.609676 0.000000
#
# Coordination Sequence:
#
# PCOD8078985 Si02
#       8
#     8   8   8   8   8   8   8   8
#     4  11  21  32  45  62  85 115 150 184 218 256
#     4  10  17  28  45  64  85 108 137 174 217 260
#     4   8  14  25  42  62  83 107 136 173 217 260
#     4   8  14  25  42  62  83 107 136 173 217 260
#     4   9  18  32  46  61  85 117 150 183 218 255
#     4  10  17  28  45  64  85 108 137 174 217 260
#     4   9  18  32  46  61  85 117 150 183 218 255
#     4  11  21  32  45  62  85 115 150 184 218 256
#
# _framework density 15.678815999999999
#
# number of rings (size 3 to 8) (size 9 to 14) (size 15 to 20)
#    0.000    2.500    0.000    8.250    0.000    2.000 
#    0.000    2.500    0.000    0.000    0.000    0.000 
#    0.000    1.000    0.000   10.500    0.000    6.250 
#
# Total GULP energy -396483.226616 kJ/mol
# GULP energy per Si atom -12390.100832 kJ/mol
# Density = 1.564313 g / cm^3
# Si number density = 15.678816 Si / 1000 Ang^3
#
#
#
# Elastic Constant Matrix: (Units=GPa)
#
#
# Indices 1 2 3 4 5 6 
#
# 1 119.1918 41.5210 39.3902 0.0000 0.0000 0.0000
# 2 41.5210 73.3658 41.6560 0.0000 0.0000 0.0000
# 3 39.3902 41.6560 80.4210 0.0000 0.0000 0.0000
# 4 0.0000 0.0000 0.0000 -0.1232 0.0000 0.0000
# 5 0.0000 0.0000 0.0000 0.0000 23.3985 0.0000
# 6 0.0000 0.0000 0.0000 0.0000 0.0000 24.2659
#
#
#
# Elastic Compliance Matrix: (Units=1/GPa)
#
#
# Indices 1 2 3 4 5 6 
#
# 1 0.010954 -0.004467 -0.003052 0.000000 0.000000 0.000000
# 2 -0.004467 0.021131 -0.008757 0.000000 0.000000 0.000000
# 3 -0.003052 -0.008757 0.018465 0.000000 0.000000 0.000000
# 4 0.000000 0.000000 0.000000 -8.115842 0.000000 0.000000
# 5 0.000000 0.000000 0.000000 0.000000 0.042738 0.000000
# 6 0.000000 0.000000 0.000000 0.000000 0.000000 0.041210
#
#
# Mechanical properties :
#
#
# Convention : Reuss Voigt Hill
#
# Bulk Modulus (GPa) = 55.55976 57.56811 56.56393
# Shear Modulus (GPa) = -0.62950 19.53567 9.45308
#
# Velocity S-wave (km/s) = -0.63433 3.53369 2.45811
# Velocity P-wave (km/s) = 5.91410 7.31069 6.64916
#
# Compressibility (1/GPa) = 0.01799864
#
# Stress axis : x y z
#
# Youngs Moduli (GPa) = 91.28732 47.32491 54.15555
#
# Poissons Ratio (x) = 0.21139 0.16527
# Poissons Ratio (y) = 0.40777 0.47425
# Poissons Ratio (z) = 0.27859 0.41443
#
# Static dielectric constant tensor:
#      x y z
#    x 3.121470 0.000000 0.000000 
#    y 0.000000 3.363240 0.000000 
#    z 0.000000 0.000000 2.886980 
# 
# 
# High freq. dielectric constant tensor:
#      x y z
#    x 1.610680 0.000000 0.000000 
#    y 0.000000 1.581220 0.000000 
#    z 0.000000 0.000000 1.569980 
# 
# From -- ./inp_files/200603.got.cif
#   From: 2010.06.25/outbox.cif.g09.slc.cpg/sg12_101_cif.got.tgz:200603.got - 2010.06.28 00:19:55.
