data_PCOD8078147
_publ_section_title
;
Structure prediction by ZEFSAII (Michael W. Deem and Ramdas Pophale) SiO2 
 PCOD8078147
Probable space group: C 2/M
;
_chemical_formula_sum "Si O2"
_cell_formula_units_Z 56
_cell_length_a 24.769254
_cell_length_b 8.935476
_cell_length_c 25.860038
_cell_angle_alpha 90.000000
_cell_angle_beta 38.038051
_cell_angle_gamma 90.000000
_cell_volume 3526.717453
_symmetry_space_group_name_H-M "C 2/M"
_symmetry_group_IT_number 12
_symmetry_cell_setting 'monoclinic'
loop_
_space_group_symop_operation_xyz
x,y,z
-x,y,-z
-x,-y,-z
x,-y,z
1/2+x,1/2+y,z
1/2-x,1/2+y,-z
1/2-x,1/2-y,-z
1/2+x,1/2-y,z
loop_
_atom_site_type_symbol
_atom_site_label
_atom_site_fract_x
_atom_site_fract_y
_atom_site_fract_z
Si Si1 0.382498 0.666024 0.899138
Si Si2 0.603495 0.824057 0.372087
Si Si3 0.507158 0.322081 0.277979
Si Si4 0.660570 0.178750 0.549083
Si Si5 0.591548 0.177498 0.492943
Si Si6 0.166058 0.676172 0.217649
Si Si7 0.719283 0.833346 0.945360
O O1 0.395866 0.500000 0.911235
O O2 0.466153 0.714925 0.801775
O O3 0.299326 0.669782 0.924366
O O4 0.367249 0.771956 0.960201
O O5 0.507593 0.758695 0.430237
O O6 0.634704 0.767244 0.405571
O O7 0.671756 0.784670 0.274775
O O8 0.591421 0.000000 0.385461
O O9 0.499960 0.500000 0.291875
O O10 0.415895 0.240302 0.356463
O O11 0.580603 0.258395 0.260697
O O12 0.750000 0.250000 0.500000
O O13 0.644772 0.237495 0.502281
O O14 0.664087 0.000000 0.550488
O O15 0.591191 0.000000 0.497050
O O16 0.155574 0.500000 0.215567
O O17 0.255261 0.733563 0.123611
O O18 0.698752 0.000000 0.941449
#
# Coordination Sequence:
#
# PCOD8078147 Si02
#       7
#     8   8   8   8   8   8   8
#     4   8  15  26  38  53  76 109 144 176 208 248
#     4   8  13  23  42  65  85 108 144 183 212 252
#     4  10  19  30  43  60  84 112 145 182 218 258
#     4  11  21  33  48  65  86 115 148 184 222 257
#     4   8  14  26  43  63  84 108 144 183 217 251
#     4  10  16  24  41  63  86 114 145 176 213 257
#     4   9  16  24  35  55  83 113 141 173 210 251
#
# _framework density 15.878788999999999
#
# number of rings (size 3 to 8) (size 9 to 14) (size 15 to 20)
#    0.000    2.857    1.429    3.429    0.000    4.000 
#    0.000    0.000    0.000    4.286    0.000    0.000 
#    0.000    1.143    0.000   13.143    0.000    4.000 
#
# Total GULP energy -346900.846978 kJ/mol
# GULP energy per Si atom -12389.315964 kJ/mol
# Density = 1.584265 g / cm^3
# Si number density = 15.878789 Si / 1000 Ang^3
#
#
#
# Elastic Constant Matrix: (Units=GPa)
#
#
# Indices 1 2 3 4 5 6 
#
# 1 67.5042 25.9425 53.9926 -0.0006 11.5493 0.0005
# 2 25.9425 72.3746 51.6689 -0.0007 7.5821 0.0011
# 3 53.9926 51.6689 138.5423 -0.0001 25.1413 0.0005
# 4 -0.0006 -0.0007 -0.0001 26.6904 0.0004 -1.1873
# 5 11.5493 7.5821 25.1413 0.0004 19.3215 -0.0006
# 6 0.0005 0.0011 0.0005 -1.1873 -0.0006 11.1079
#
#
#
# Elastic Compliance Matrix: (Units=1/GPa)
#
#
# Indices 1 2 3 4 5 6 
#
# 1 0.021945 -0.002498 -0.007093 0.000000 -0.002908 0.000000
# 2 -0.002498 0.019193 -0.006662 0.000000 0.002630 -0.000001
# 3 -0.007093 -0.006662 0.014692 0.000000 -0.012264 0.000000
# 4 0.000000 0.000000 0.000000 0.037646 -0.000001 0.004024
# 5 -0.002908 0.002630 -0.012264 -0.000001 0.068419 0.000004
# 6 0.000000 -0.000001 0.000000 0.004024 0.000004 0.090456
#
#
# Mechanical properties :
#
#
# Convention : Reuss Voigt Hill
#
# Bulk Modulus (GPa) = 42.87293 60.18104 51.52699
# Shear Modulus (GPa) = 17.08643 21.21178 19.14910
#
# Velocity S-wave (km/s) = 3.28388 3.65890 3.47645
# Velocity P-wave (km/s) = 6.43718 7.47212 6.97388
#
# Compressibility (1/GPa) = 0.02332474
#
# Stress axis : x y z
#
# Youngs Moduli (GPa) = 45.56943 52.10345 68.06295
#
# Poissons Ratio (x) = 0.13013 0.48278
# Poissons Ratio (y) = 0.11381 0.45341
# Poissons Ratio (z) = 0.32323 0.34710
#
# Static dielectric constant tensor:
#      x y z
#    x 2.725630 0.000000 0.381810 
#    y 0.000000 2.966800 0.000000 
#    z 0.381810 0.000000 3.420990 
# 
# 
# High freq. dielectric constant tensor:
#      x y z
#    x 1.546770 0.000000 0.032320 
#    y 0.000000 1.600190 0.000000 
#    z 0.032320 0.000000 1.620290 
# 
# From -- ./inp_files/348451.got.cif
#   From: 2010.06.25/outbox.cif.g09.slc.cpg/sg12_175_cif.got.tgz:348451.got - 2010.06.28 00:19:55.
