data_PCOD8078445
_publ_section_title
;
Structure prediction by ZEFSAII (Michael W. Deem and Ramdas Pophale) SiO2 
 PCOD8078445
Probable space group: C 2/M
;
_chemical_formula_sum "Si O2"
_cell_formula_units_Z 56
_cell_length_a 15.232326
_cell_length_b 22.773857
_cell_length_c 13.942119
_cell_angle_alpha 90.000000
_cell_angle_beta 141.850986
_cell_angle_gamma 90.000000
_cell_volume 2987.551601
_symmetry_space_group_name_H-M "C 2/M"
_symmetry_group_IT_number 12
_symmetry_cell_setting 'monoclinic'
loop_
_space_group_symop_operation_xyz
x,y,z
-x,y,-z
-x,-y,-z
x,-y,z
1/2+x,1/2+y,z
1/2-x,1/2+y,-z
1/2-x,1/2-y,-z
1/2+x,1/2-y,z
loop_
_atom_site_type_symbol
_atom_site_label
_atom_site_fract_x
_atom_site_fract_y
_atom_site_fract_z
Si Si1 0.165356 0.158781 0.402756
Si Si2 0.253601 0.268083 0.892762
Si Si3 0.421312 0.837336 0.026515
Si Si4 0.454345 0.375778 0.062289
Si Si5 0.530714 0.566921 0.418532
Si Si6 0.770421 0.934527 0.057009
Si Si7 0.546794 0.213312 0.321019
O O1 0.145070 0.110580 0.469292
O O2 0.333448 0.170141 0.532487
O O3 0.091295 0.219127 0.369584
O O4 0.097080 0.134828 0.246166
O O5 0.095274 0.292497 0.734555
O O6 0.250000 0.250000 0.000000
O O7 0.299575 0.207282 0.880440
O O8 0.372708 0.315420 0.971103
O O9 0.523103 0.802377 0.188202
O O10 0.500000 0.862004 0.000000
O O11 0.359124 0.891082 0.034157
O O12 0.347866 0.419995 0.023673
O O13 0.500000 0.403728 0.000000
O O14 0.500000 0.586758 0.500000
O O15 0.589471 0.500000 0.463778
O O16 0.380876 0.572319 0.237381
O O17 0.708260 0.000000 0.997028
#
# Coordination Sequence:
#
# PCOD8078445 Si02
#       7
#     8   8   8   8   8   8   8
#     4  10  20  35  54  84 115 144 192 243 278 344
#     4  10  16  34  56  77 110 150 179 224 289 341
#     4  11  21  34  60  84 114 156 188 228 293 356
#     4  11  20  36  61  81 108 150 194 234 285 336
#     4   9  19  36  57  80 114 156 191 232 291 347
#     4  10  21  38  58  84 115 149 197 244 275 336
#     4  10  20  35  53  81 120 146 183 237 291 332
#
# _framework density 18.744446
#
# number of rings (size 3 to 8) (size 9 to 14) (size 15 to 20)
#    0.000    1.857    5.714    1.286    2.000    0.571 
#    0.000    1.429    0.000    0.000    0.000    1.000 
#    0.000    0.000    0.000    0.000    0.000    0.000 
#
# Total GULP energy -347078.082889 kJ/mol
# GULP energy per Si atom -12395.645817 kJ/mol
# Density = 1.870178 g / cm^3
# Si number density = 18.744446 Si / 1000 Ang^3
#
#
#
# Elastic Constant Matrix: (Units=GPa)
#
#
# Indices 1 2 3 4 5 6 
#
# 1 121.2263 43.5833 49.8161 0.0000 -4.1325 0.0000
# 2 43.5833 107.5154 34.2354 0.0000 2.2345 0.0000
# 3 49.8161 34.2354 69.8441 0.0000 14.4304 0.0000
# 4 0.0000 0.0000 0.0000 15.1810 0.0000 -2.1810
# 5 -4.1325 2.2345 14.4304 0.0000 28.7588 0.0000
# 6 0.0000 0.0000 0.0000 -2.1810 0.0000 11.1390
#
#
#
# Elastic Compliance Matrix: (Units=1/GPa)
#
#
# Indices 1 2 3 4 5 6 
#
# 1 0.013403 -0.002456 -0.009811 0.000000 0.007040 0.000000
# 2 -0.002456 0.011583 -0.004091 0.000000 0.000800 0.000000
# 3 -0.009811 -0.004091 0.026269 0.000000 -0.014273 0.000000
# 4 0.000000 0.000000 0.000000 0.067778 0.000000 0.013271
# 5 0.007040 0.000800 -0.014273 0.000000 0.042883 0.000000
# 6 0.000000 0.000000 0.000000 0.013271 0.000000 0.092373
#
#
# Mechanical properties :
#
#
# Convention : Reuss Voigt Hill
#
# Bulk Modulus (GPa) = 53.93677 61.53950 57.73813
# Shear Modulus (GPa) = 17.05408 22.41249 19.73329
#
# Velocity S-wave (km/s) = 3.01960 3.46162 3.24814
# Velocity P-wave (km/s) = 6.40270 6.99136 6.70350
#
# Compressibility (1/GPa) = 0.01854023
#
# Stress axis : x y z
#
# Youngs Moduli (GPa) = 74.60779 86.33675 38.06711
#
# Poissons Ratio (x) = 0.21201 0.37346
# Poissons Ratio (y) = 0.18321 0.15574
# Poissons Ratio (z) = 0.73195 0.35322
#
# Static dielectric constant tensor:
#      x y z
#    x 3.609130 0.000000 0.296470 
#    y 0.000000 3.549440 0.000000 
#    z 0.296470 0.000000 3.553620 
# 
# 
# High freq. dielectric constant tensor:
#      x y z
#    x 1.717480 0.000000 0.008480 
#    y 0.000000 1.723130 0.000000 
#    z 0.008480 0.000000 1.709390 
# 
# From -- ./inp_files/217716.got.cif
#   From: 2010.06.25/outbox.cif.g09.slc.cpg/sg12_109_cif.got.tgz:217716.got - 2010.06.28 00:19:55.
