data_PCOD8078892
_publ_section_title
;
Structure prediction by ZEFSAII (Michael W. Deem and Ramdas Pophale) SiO2 
 PCOD8078892
Probable space group: C 2/M
;
_chemical_formula_sum "Si O2"
_cell_formula_units_Z 40
_cell_length_a 21.208703
_cell_length_b 12.935164
_cell_length_c 25.863858
_cell_angle_alpha 90.000000
_cell_angle_beta 159.415226
_cell_angle_gamma 90.000000
_cell_volume 2494.706356
_symmetry_space_group_name_H-M "C 2/M"
_symmetry_group_IT_number 12
_symmetry_cell_setting 'monoclinic'
loop_
_space_group_symop_operation_xyz
x,y,z
-x,y,-z
-x,-y,-z
x,-y,z
1/2+x,1/2+y,z
1/2-x,1/2+y,-z
1/2-x,1/2-y,-z
1/2+x,1/2-y,z
loop_
_atom_site_type_symbol
_atom_site_label
_atom_site_fract_x
_atom_site_fract_y
_atom_site_fract_z
Si Si1 0.514618 0.694472 0.705785
Si Si2 0.903356 0.885540 0.123006
Si Si3 0.990626 0.675404 0.151232
Si Si4 0.828680 0.617966 0.611013
Si Si5 0.890748 0.619734 0.966010
O O1 0.506708 0.626282 0.751645
O O2 0.374975 0.649378 0.557564
O O3 0.467914 0.812876 0.684695
O O4 0.712987 0.689916 0.833675
O O5 0.983850 0.800683 0.145672
O O6 0.946541 0.000000 0.134773
O O7 0.690841 0.871144 0.964220
O O8 0.148646 0.635254 0.309841
O O9 0.017904 0.636162 0.113758
O O10 0.865196 0.500000 0.623709
O O11 0.834108 0.500000 0.918068
O O12 0.000000 0.656663 0.000000
#
# Coordination Sequence:
#
# PCOD8078892 Si02
#       5
#     8   8   8   8   8
#     4   9  18  29  44  68  92 116 144 173 214 267
#     4   9  15  26  43  61  86 114 139 174 217 260
#     4   9  17  26  41  65  85 108 145 181 213 252
#     4  10  17  27  46  70  94 112 134 181 230 259
#     4  10  19  32  47  60  84 122 153 177 209 255
#
# _framework density 16.033950999999998
#
# number of rings (size 3 to 8) (size 9 to 14) (size 15 to 20)
#    0.000    2.600    0.000    6.000    0.000    0.000 
#    0.000    1.000    0.000    6.000    0.000    0.000 
#    0.000    9.600    0.000    0.000    0.000    0.000 
#
# Total GULP energy -247956.637956 kJ/mol
# GULP energy per Si atom -12397.831898 kJ/mol
# Density = 1.599746 g / cm^3
# Si number density = 16.033951 Si / 1000 Ang^3
#
#
#
# Elastic Constant Matrix: (Units=GPa)
#
#
# Indices 1 2 3 4 5 6 
#
# 1 83.8971 27.3331 42.0918 0.0012 -2.4956 -0.0008
# 2 27.3331 122.4937 27.1652 0.0115 2.1103 0.0011
# 3 42.0918 27.1652 91.6169 0.0167 -21.5490 0.0009
# 4 0.0012 0.0115 0.0167 15.2288 -0.0001 -1.9200
# 5 -2.4956 2.1103 -21.5490 -0.0001 25.0849 -0.0005
# 6 -0.0008 0.0011 0.0009 -1.9200 -0.0005 17.2492
#
#
#
# Elastic Compliance Matrix: (Units=1/GPa)
#
#
# Indices 1 2 3 4 5 6 
#
# 1 0.016506 -0.001744 -0.008329 0.000009 -0.005366 0.000002
# 2 -0.001744 0.009207 -0.002697 -0.000004 -0.003265 -0.000001
# 3 -0.008329 -0.002697 0.019299 -0.000019 0.015977 -0.000003
# 4 0.000009 -0.000004 -0.000019 0.066600 -0.000014 0.007413
# 5 -0.005366 -0.003265 0.015977 -0.000014 0.053330 -0.000001
# 6 0.000002 -0.000001 -0.000003 0.007413 -0.000001 0.058799
#
#
# Mechanical properties :
#
#
# Convention : Reuss Voigt Hill
#
# Bulk Modulus (GPa) = 51.34985 54.57646 52.96316
# Shear Modulus (GPa) = 19.54874 24.94041 22.24458
#
# Velocity S-wave (km/s) = 3.49551 3.94823 3.72875
# Velocity P-wave (km/s) = 6.95605 7.40923 7.18621
#
# Compressibility (1/GPa) = 0.01947425
#
# Stress axis : x y z
#
# Youngs Moduli (GPa) = 60.58259 108.61225 51.81635
#
# Poissons Ratio (x) = 0.18939 0.43156
# Poissons Ratio (y) = 0.10564 0.13973
# Poissons Ratio (z) = 0.50457 0.29289
#
# Static dielectric constant tensor:
#      x y z
#    x 2.804000 0.000000 -0.353130 
#    y 0.000000 3.167180 -0.000040 
#    z -0.353130 -0.000040 3.128460 
# 
# 
# High freq. dielectric constant tensor:
#      x y z
#    x 1.573880 0.000000 -0.037160 
#    y 0.000000 1.623650 0.000000 
#    z -0.037160 0.000000 1.612970 
# 
# From -- ./inp_files/101615.got.cif
#   From: 2010.06.25/outbox.cif.g09.slc.cpg/sg12_51_cif.got.tgz:101615.got - 2010.06.28 00:19:55.
