data_PCOD8078020
_publ_section_title
;
Structure prediction by ZEFSAII (Michael W. Deem and Ramdas Pophale) SiO2 
 PCOD8078020
Probable space group: P 21/M
;
_chemical_formula_sum "Si O2"
_cell_formula_units_Z 32
_cell_length_a 9.000000
_cell_length_b 15.000000
_cell_length_c 24.000000
_cell_angle_alpha 90.000000
_cell_angle_beta 30.000000
_cell_angle_gamma 90.000000
_cell_volume 1620.000000
_symmetry_space_group_name_H-M "P 21/M"
_symmetry_group_IT_number 11
_symmetry_cell_setting 'monoclinic'
loop_
_space_group_symop_operation_xyz
x,y,z
-x,1/2+y,-z
-x,-y,-z
x,1/2-y,z
loop_
_atom_site_type_symbol
_atom_site_label
_atom_site_fract_x
_atom_site_fract_y
_atom_site_fract_z
Si Si1 0.946520 0.148332 0.565032
Si Si2 0.980946 0.349400 0.826838
Si Si3 0.636597 0.478507 0.754095
Si Si4 0.406841 0.590520 0.639093
Si Si5 0.956506 0.148944 0.348608
Si Si6 0.431373 0.356483 0.923884
Si Si7 0.900807 0.470948 0.149574
Si Si8 0.580412 0.394123 0.575379
O O1 0.838719 0.250000 0.612054
O O2 0.844572 0.081318 0.646847
O O3 0.813605 0.113544 0.550117
O O4 0.302839 0.150281 0.443849
O O5 0.964206 0.250000 0.860470
O O6 0.695168 0.365005 0.881971
O O7 0.986660 0.428710 0.870867
O O8 0.271206 0.348770 0.693241
O O9 0.527171 0.412268 0.838294
O O10 0.355584 0.516233 0.812349
O O11 0.808643 0.567550 0.719888
O O12 0.202358 0.636459 0.659169
O O13 0.220180 0.579104 0.756462
O O14 0.520634 0.496165 0.579635
O O15 0.100356 0.250000 0.301669
O O16 0.713299 0.150404 0.476989
O O17 0.366923 0.250000 0.932136
O O18 0.148996 0.406972 0.042298
#
# Coordination Sequence:
#
# PCOD8078020 Si02
#       8
#     4   4   4   4   4   4   4   4
#     4  12  23  38  66 101 134 171 217 268 332 404
#     4  10  21  39  66  98 131 171 221 271 327 388
#     4  12  24  44  68  95 135 173 221 273 336 391
#     4  11  23  42  64  96 133 177 218 272 331 394
#     4  12  26  41  64  99 138 178 222 269 333 404
#     4  11  26  45  67  96 128 173 224 279 332 388
#     4  11  24  44  71  92 131 174 224 269 333 389
#     4  11  21  40  63  95 136 176 212 267 333 395
#
# _framework density 19.753086
#
# number of rings (size 3 to 8) (size 9 to 14) (size 15 to 20)
#    0.000    0.750    3.750    5.625    1.750    2.000 
#    0.000    1.875    0.000    0.000    0.000    0.000 
#    0.000    0.000    0.000    0.000    0.000    0.000 
#
# Total GULP energy -396710.300124 kJ/mol
# GULP energy per Si atom -12397.196879 kJ/mol
# Density = 1.970813 g / cm^3
# Si number density = 19.753086 Si / 1000 Ang^3
#
#
#
# Elastic Constant Matrix: (Units=GPa)
#
#
# Indices 1 2 3 4 5 6 
#
# 1 111.6993 58.1758 53.0941 0.0000 -12.7110 0.0000
# 2 58.1758 178.1845 59.3936 0.0000 5.4347 0.0000
# 3 53.0941 59.3936 119.8398 0.0000 1.6879 0.0000
# 4 0.0000 0.0000 0.0000 33.6462 0.0000 4.6376
# 5 -12.7110 5.4347 1.6879 0.0000 32.2288 0.0000
# 6 0.0000 0.0000 0.0000 4.6376 0.0000 22.7386
#
#
#
# Elastic Compliance Matrix: (Units=1/GPa)
#
#
# Indices 1 2 3 4 5 6 
#
# 1 0.013361 -0.003048 -0.004494 0.000000 0.006019 0.000000
# 2 -0.003048 0.007448 -0.002308 0.000000 -0.002337 0.000000
# 3 -0.004494 -0.002308 0.011507 0.000000 -0.001986 0.000000
# 4 0.000000 0.000000 0.000000 0.030581 0.000000 -0.006237
# 5 0.006019 -0.002337 -0.001986 0.000000 0.033900 0.000000
# 6 0.000000 0.000000 0.000000 -0.006237 0.000000 0.045250
#
#
# Mechanical properties :
#
#
# Convention : Reuss Voigt Hill
#
# Bulk Modulus (GPa) = 79.25886 83.45009 81.35448
# Shear Modulus (GPa) = 30.12930 33.66008 31.89469
#
# Velocity S-wave (km/s) = 3.90974 4.13248 4.02265
# Velocity P-wave (km/s) = 7.78417 8.06897 7.92785
#
# Compressibility (1/GPa) = 0.01261689
#
# Stress axis : x y z
#
# Youngs Moduli (GPa) = 74.84493 134.26648 86.90252
#
# Poissons Ratio (x) = 0.40924 0.39051
# Poissons Ratio (y) = 0.22813 0.20056
# Poissons Ratio (z) = 0.33633 0.30988
#
# Static dielectric constant tensor:
#      x y z
#    x 3.767710 0.000000 -0.039300 
#    y 0.000000 4.170420 0.000000 
#    z -0.039300 0.000000 3.773080 
# 
# 
# High freq. dielectric constant tensor:
#      x y z
#    x 1.788480 0.000000 -0.005370 
#    y 0.000000 1.809720 0.000000 
#    z -0.005370 0.000000 1.774820 
# 
# From -- ./inp_files/68131.got.cif
#   From: 2010.06.25/outbox.ucp.g09.slc.cvg/sg11_35_cif.got.tgz:68131.got - 2010.06.28 13:43:20.
