data_PCOD8078917
_publ_section_title
;
Structure prediction by ZEFSAII (Michael W. Deem and Ramdas Pophale) SiO2 
 PCOD8078917
Probable space group: C 2/M
;
_chemical_formula_sum "Si O2"
_cell_formula_units_Z 64
_cell_length_a 29.429355
_cell_length_b 8.643914
_cell_length_c 16.812418
_cell_angle_alpha 90.000000
_cell_angle_beta 64.492571
_cell_angle_gamma 90.000000
_cell_volume 3859.959478
_symmetry_space_group_name_H-M "C 2/M"
_symmetry_group_IT_number 12
_symmetry_cell_setting 'monoclinic'
loop_
_space_group_symop_operation_xyz
x,y,z
-x,y,-z
-x,-y,-z
x,-y,z
1/2+x,1/2+y,z
1/2-x,1/2+y,-z
1/2-x,1/2-y,-z
1/2+x,1/2-y,z
loop_
_atom_site_type_symbol
_atom_site_label
_atom_site_fract_x
_atom_site_fract_y
_atom_site_fract_z
Si Si1 0.337984 0.816464 0.647706
Si Si2 0.274749 0.317169 0.265660
Si Si3 0.503792 0.184099 0.588404
Si Si4 0.722823 0.818672 0.901584
Si Si5 0.887552 0.316353 0.453049
Si Si6 0.902688 0.683437 0.745403
Si Si7 0.675858 0.318291 0.088177
Si Si8 0.797108 0.683174 0.414604
O O1 0.281825 0.753003 0.690433
O O2 0.365542 0.746306 0.550709
O O3 0.366659 0.757257 0.702851
O O4 0.338288 0.000000 0.644177
O O5 0.279081 0.500000 0.271564
O O6 0.296568 0.264683 0.164224
O O7 0.301501 0.239156 0.320693
O O8 0.500000 0.248005 0.500000
O O9 0.554591 0.242251 0.594826
O O10 0.458416 0.242007 0.679439
O O11 0.501499 0.000000 0.584430
O O12 0.779792 0.768203 0.883427
O O13 0.719438 0.000000 0.890443
O O14 0.684274 0.768623 0.998993
O O15 0.887705 0.500000 0.456367
O O16 0.850746 0.260126 0.410420
O O17 0.901236 0.500000 0.759351
O O18 0.879669 0.766750 0.840288
O O19 0.677605 0.500000 0.071375
O O20 0.791855 0.500000 0.423135
O O21 0.750000 0.750000 0.500000
#
# Coordination Sequence:
#
# PCOD8078917 Si02
#       8
#     8   8   8   8   8   8   8   8
#     4   9  15  24  42  67  95 125 157 196 238 274
#     4  11  20  32  49  70  97 129 165 201 243 291
#     4   9  15  24  44  72  97 123 163 205 240 280
#     4  10  20  33  49  71  97 126 162 200 238 286
#     4   9  16  28  43  66  97 128 162 206 244 274
#     4  10  17  27  47  73  97 126 164 203 239 282
#     4  10  20  32  47  69  99 132 160 193 239 291
#     4  11  21  32  47  68  97 131 169 206 243 286
#
# _framework density 16.580486000000001
#
# number of rings (size 3 to 8) (size 9 to 14) (size 15 to 20)
#    0.000    2.125    3.750    1.500    0.000    1.000 
#    0.000    0.000    0.000    1.875    0.000    0.875 
#    0.000    7.000    0.000    0.000    0.000    0.000 
#
# Total GULP energy -396594.127893 kJ/mol
# GULP energy per Si atom -12393.566497 kJ/mol
# Density = 1.654275 g / cm^3
# Si number density = 16.580486 Si / 1000 Ang^3
#
#
#
# Elastic Constant Matrix: (Units=GPa)
#
#
# Indices 1 2 3 4 5 6 
#
# 1 112.2573 19.5628 55.0121 0.0000 -5.9811 0.0000
# 2 19.5628 35.8619 17.6545 0.0000 0.2587 0.0000
# 3 55.0121 17.6545 114.0424 0.0000 -4.9158 0.0000
# 4 0.0000 0.0000 0.0000 24.5908 0.0000 1.7115
# 5 -5.9811 0.2587 -4.9158 0.0000 25.6377 0.0000
# 6 0.0000 0.0000 0.0000 1.7115 0.0000 15.9307
#
#
#
# Elastic Compliance Matrix: (Units=1/GPa)
#
#
# Indices 1 2 3 4 5 6 
#
# 1 0.012282 -0.004154 -0.005199 0.000000 0.001910 0.000000
# 2 -0.004154 0.031627 -0.002972 0.000000 -0.001858 0.000000
# 3 -0.005199 -0.002972 0.011783 0.000000 0.001076 0.000000
# 4 0.000000 0.000000 0.000000 0.040972 0.000000 -0.004402
# 5 0.001910 -0.001858 0.001076 0.000000 0.039676 0.000000
# 6 0.000000 0.000000 0.000000 -0.004402 0.000000 0.063245
#
#
# Mechanical properties :
#
#
# Convention : Reuss Voigt Hill
#
# Bulk Modulus (GPa) = 32.21508 49.62447 40.91977
# Shear Modulus (GPa) = 21.31442 24.56064 22.93753
#
# Velocity S-wave (km/s) = 3.58929 3.85294 3.72345
# Velocity P-wave (km/s) = 6.05385 7.05606 6.57408
#
# Compressibility (1/GPa) = 0.03104137
#
# Stress axis : x y z
#
# Youngs Moduli (GPa) = 81.42259 31.61806 84.86700
#
# Poissons Ratio (x) = 0.13134 0.44123
# Poissons Ratio (y) = 0.33823 0.25226
# Poissons Ratio (z) = 0.42332 0.09398
#
# Static dielectric constant tensor:
#      x y z
#    x 3.226080 0.000000 -0.044340 
#    y 0.000000 2.810020 0.000000 
#    z -0.044340 0.000000 3.159840 
# 
# 
# High freq. dielectric constant tensor:
#      x y z
#    x 1.615010 0.000000 -0.000580 
#    y 0.000000 1.615010 0.000000 
#    z -0.000580 0.000000 1.636020 
# 
# From -- ./inp_files/248987.got.cif
#   From: 2010.06.25/outbox.cif.g09.slc.cpg/sg12_125_cif.got.tgz:248987.got - 2010.06.28 00:19:55.
