data_PCOD8078207
_publ_section_title
;
Structure prediction by ZEFSAII (Michael W. Deem and Ramdas Pophale) SiO2 
 PCOD8078207
Probable space group: C 2/M
;
_chemical_formula_sum "Si O2"
_cell_formula_units_Z 64
_cell_length_a 27.119280
_cell_length_b 9.046970
_cell_length_c 17.150667
_cell_angle_alpha 90.000000
_cell_angle_beta 101.685832
_cell_angle_gamma 90.000000
_cell_volume 4120.653222
_symmetry_space_group_name_H-M "C 2/M"
_symmetry_group_IT_number 12
_symmetry_cell_setting 'monoclinic'
loop_
_space_group_symop_operation_xyz
x,y,z
-x,y,-z
-x,-y,-z
x,-y,z
1/2+x,1/2+y,z
1/2-x,1/2+y,-z
1/2-x,1/2-y,-z
1/2+x,1/2-y,z
loop_
_atom_site_type_symbol
_atom_site_label
_atom_site_fract_x
_atom_site_fract_y
_atom_site_fract_z
Si Si1 0.132284 0.172873 0.935492
Si Si2 0.058736 0.671303 0.029216
Si Si3 0.685587 0.824261 0.823368
Si Si4 0.303035 0.827580 0.506867
Si Si5 0.707974 0.671317 0.089992
Si Si6 0.672999 0.326880 0.340969
Si Si7 0.120398 0.173661 0.170418
Si Si8 0.716469 0.171648 0.667035
O O1 0.138734 0.246289 0.852234
O O2 0.120785 0.000000 0.923524
O O3 0.086368 0.245575 0.967348
O O4 0.184773 0.203674 0.997794
O O5 0.073760 0.500000 0.031479
O O6 0.073351 0.738453 0.118719
O O7 0.000000 0.696243 0.000000
O O8 0.736392 0.763043 0.881574
O O9 0.688143 0.765798 0.734517
O O10 0.678094 0.000000 0.827385
O O11 0.250000 0.750000 0.500000
O O12 0.341204 0.754870 0.581943
O O13 0.318412 0.800311 0.420969
O O14 0.298086 0.000000 0.523012
O O15 0.713170 0.500000 0.109381
O O16 0.670047 0.734965 0.142785
O O17 0.677346 0.500000 0.359886
O O18 0.628384 0.293854 0.264842
O O19 0.726821 0.264387 0.326481
O O20 0.112072 0.000000 0.151746
O O21 0.724516 0.000000 0.685733
#
# Coordination Sequence:
#
# PCOD8078207 Si02
#       8
#     8   8   8   8   8   8   8   8
#     4  10  20  31  43  63  86 109 142 179 217 259
#     4  10  21  36  51  66  85 109 140 179 221 263
#     4  10  16  26  43  59  82 117 151 179 210 247
#     4   9  16  25  37  55  80 114 154 189 219 251
#     4   8  14  25  41  58  81 113 145 175 208 246
#     4   9  15  26  42  60  85 115 147 182 217 255
#     4   9  16  28  47  68  88 113 146 180 218 261
#     4   8  14  24  39  56  80 117 153 180 210 246
#
# _framework density 15.531518999999999
#
# number of rings (size 3 to 8) (size 9 to 14) (size 15 to 20)
#    0.000    2.875    1.250    3.000    0.000    1.500 
#    0.000    5.625    0.000    0.000    0.000    0.000 
#    0.000    1.000    0.000   11.250    0.000    5.625 
#
# Total GULP energy -396454.225537 kJ/mol
# GULP energy per Si atom -12389.194548 kJ/mol
# Density = 1.549617 g / cm^3
# Si number density = 15.531519 Si / 1000 Ang^3
#
#
#
# Elastic Constant Matrix: (Units=GPa)
#
#
# Indices 1 2 3 4 5 6 
#
# 1 46.9357 32.8009 42.3075 0.0000 1.7274 0.0000
# 2 32.8009 69.6444 55.7867 0.0000 -0.1399 0.0000
# 3 42.3075 55.7867 126.6999 0.0000 -1.0831 0.0000
# 4 0.0000 0.0000 0.0000 26.1396 0.0000 0.5987
# 5 1.7274 -0.1399 -1.0831 0.0000 14.4424 0.0000
# 6 0.0000 0.0000 0.0000 0.5987 0.0000 16.3358
#
#
#
# Elastic Compliance Matrix: (Units=1/GPa)
#
#
# Indices 1 2 3 4 5 6 
#
# 1 0.035612 -0.011159 -0.007020 0.000000 -0.004894 0.000000
# 2 -0.011159 0.025683 -0.007573 0.000000 0.001015 0.000000
# 3 -0.007020 -0.007573 0.013587 0.000000 0.001785 0.000000
# 4 0.000000 0.000000 0.000000 0.038288 0.000000 -0.001403
# 5 -0.004894 0.001015 0.001785 0.000000 0.069969 0.000000
# 6 0.000000 0.000000 0.000000 -0.001403 0.000000 0.061267
#
#
# Mechanical properties :
#
#
# Convention : Reuss Voigt Hill
#
# Bulk Modulus (GPa) = 42.77782 56.11890 49.44836
# Shear Modulus (GPa) = 16.46343 18.87588 17.66966
#
# Velocity S-wave (km/s) = 3.25930 3.48994 3.37659
# Velocity P-wave (km/s) = 6.46269 7.24225 6.86355
#
# Compressibility (1/GPa) = 0.02337660
#
# Stress axis : x y z
#
# Youngs Moduli (GPa) = 28.08030 38.93649 73.60188
#
# Poissons Ratio (x) = 0.43450 0.51668
# Poissons Ratio (y) = 0.31335 0.55741
# Poissons Ratio (z) = 0.19712 0.29488
#
# Static dielectric constant tensor:
#      x y z
#    x 2.604720 0.000000 0.102430 
#    y 0.000000 2.871790 0.000000 
#    z 0.102430 0.000000 3.472130 
# 
# 
# High freq. dielectric constant tensor:
#      x y z
#    x 1.535040 0.000000 -0.000210 
#    y 0.000000 1.583450 0.000000 
#    z -0.000210 0.000000 1.605830 
# 
# From -- ./inp_files/291605.got.cif
#   From: 2010.06.25/outbox.cif.g09.slc.cpg/sg12_146_cif.got.tgz:291605.got - 2010.06.28 00:19:55.
