data_PCOD8078165
_publ_section_title
;
Structure prediction by ZEFSAII (Michael W. Deem and Ramdas Pophale) SiO2 
 PCOD8078165
Probable space group: C 2/M
;
_chemical_formula_sum "Si O2"
_cell_formula_units_Z 56
_cell_length_a 21.830716
_cell_length_b 14.128316
_cell_length_c 13.629840
_cell_angle_alpha 90.000000
_cell_angle_beta 60.212667
_cell_angle_gamma 90.000000
_cell_volume 3648.433777
_symmetry_space_group_name_H-M "C 2/M"
_symmetry_group_IT_number 12
_symmetry_cell_setting 'monoclinic'
loop_
_space_group_symop_operation_xyz
x,y,z
-x,y,-z
-x,-y,-z
x,-y,z
1/2+x,1/2+y,z
1/2-x,1/2+y,-z
1/2-x,1/2-y,-z
1/2+x,1/2-y,z
loop_
_atom_site_type_symbol
_atom_site_label
_atom_site_fract_x
_atom_site_fract_y
_atom_site_fract_z
Si Si1 0.021293 0.110445 0.872831
Si Si2 0.452188 0.892530 0.631365
Si Si3 0.420720 0.606611 0.603304
Si Si4 0.869449 0.211243 0.468057
Si Si5 0.476383 0.714987 0.728486
Si Si6 0.327033 0.607959 0.322133
Si Si7 0.173425 0.393967 0.401542
O O1 0.104237 0.136582 0.795597
O O2 0.972206 0.179481 0.844481
O O3 0.007280 0.000000 0.857226
O O4 0.000000 0.133195 0.000000
O O5 0.500000 0.858138 0.500000
O O6 0.465013 0.827303 0.717014
O O7 0.370463 0.882728 0.664356
O O8 0.472107 0.000000 0.644033
O O9 0.500000 0.611982 0.500000
O O10 0.394617 0.500000 0.637460
O O11 0.364522 0.658950 0.577209
O O12 0.418834 0.658354 0.710016
O O13 0.815993 0.169208 0.430052
O O14 0.855239 0.322614 0.492650
O O15 0.945758 0.186641 0.365769
O O16 0.334177 0.500000 0.350779
O O17 0.256390 0.624106 0.313211
O O18 0.161553 0.500000 0.453130
#
# Coordination Sequence:
#
# PCOD8078165 Si02
#       7
#     8   8   8   8   8   8   8
#     4   9  18  32  49  66  83 106 141 186 229 264
#     4  10  17  27  42  63  91 120 149 175 199 240
#     4   9  15  22  35  58  86 112 137 167 206 251
#     4  10  16  25  39  60  88 119 138 167 205 256
#     4  10  16  26  42  63  87 111 141 176 213 250
#     4   9  18  29  42  62  87 114 145 176 213 256
#     4  10  18  27  40  60  90 121 147 173 200 244
#
# _framework density 15.349052
#
# number of rings (size 3 to 8) (size 9 to 14) (size 15 to 20)
#    0.000    2.429    2.857    1.714    0.000    3.429 
#    0.000    0.000    0.000    1.286    0.000    0.000 
#    0.000    0.000    0.000    0.000    0.000    0.000 
#
# Total GULP energy -346977.112726 kJ/mol
# GULP energy per Si atom -12392.039740 kJ/mol
# Density = 1.531412 g / cm^3
# Si number density = 15.349052 Si / 1000 Ang^3
#
#
#
# Elastic Constant Matrix: (Units=GPa)
#
#
# Indices 1 2 3 4 5 6 
#
# 1 78.4348 27.9997 33.2977 0.0000 12.6205 0.0000
# 2 27.9997 95.6894 38.5364 0.0000 13.6204 0.0000
# 3 33.2977 38.5364 70.1026 0.0000 16.8014 0.0000
# 4 0.0000 0.0000 0.0000 17.4969 0.0000 6.6933
# 5 12.6205 13.6204 16.8014 0.0000 15.2026 0.0000
# 6 0.0000 0.0000 0.0000 6.6933 0.0000 20.5252
#
#
#
# Elastic Compliance Matrix: (Units=1/GPa)
#
#
# Indices 1 2 3 4 5 6 
#
# 1 0.016711 -0.001808 -0.005451 0.000000 -0.006229 0.000000
# 2 -0.001808 0.013935 -0.005671 0.000000 -0.004716 0.000000
# 3 -0.005451 -0.005671 0.024035 0.000000 -0.016957 0.000000
# 4 0.000000 0.000000 0.000000 0.065299 0.000000 -0.021294
# 5 -0.006229 -0.004716 -0.016957 0.000000 0.093915 0.000000
# 6 0.000000 0.000000 0.000000 -0.021294 0.000000 0.055665
#
#
# Mechanical properties :
#
#
# Convention : Reuss Voigt Hill
#
# Bulk Modulus (GPa) = 34.69621 49.32161 42.00891
# Shear Modulus (GPa) = 16.39202 20.27115 18.33159
#
# Velocity S-wave (km/s) = 3.27150 3.63806 3.45963
# Velocity P-wave (km/s) = 6.07652 7.06048 6.58690
#
# Compressibility (1/GPa) = 0.02882159
#
# Stress axis : x y z
#
# Youngs Moduli (GPa) = 59.84034 71.76347 41.60532
#
# Poissons Ratio (x) = 0.12975 0.22678
# Poissons Ratio (y) = 0.10820 0.23594
# Poissons Ratio (z) = 0.32617 0.40697
#
# Static dielectric constant tensor:
#      x y z
#    x 3.095110 0.000000 0.184120 
#    y 0.000000 3.043310 0.000000 
#    z 0.184120 0.000000 2.548080 
# 
# 
# High freq. dielectric constant tensor:
#      x y z
#    x 1.588190 0.000000 0.020260 
#    y 0.000000 1.597620 0.000000 
#    z 0.020260 0.000000 1.524130 
# 
# From -- ./inp_files/175710.got.cif
#   From: 2010.06.25/outbox.cif.g09.slc.cpg/sg12_88_cif.got.tgz:175710.got - 2010.06.28 00:19:55.
