data_PCOD8078225
_publ_section_title
;
Structure prediction by ZEFSAII (Michael W. Deem and Ramdas Pophale) SiO2 
 PCOD8078225
Probable space group: C 2/M
;
_chemical_formula_sum "Si O2"
_cell_formula_units_Z 64
_cell_length_a 23.908886
_cell_length_b 12.935535
_cell_length_c 12.498050
_cell_angle_alpha 90.000000
_cell_angle_beta 70.424985
_cell_angle_gamma 90.000000
_cell_volume 3641.923121
_symmetry_space_group_name_H-M "C 2/M"
_symmetry_group_IT_number 12
_symmetry_cell_setting 'monoclinic'
loop_
_space_group_symop_operation_xyz
x,y,z
-x,y,-z
-x,-y,-z
x,-y,z
1/2+x,1/2+y,z
1/2-x,1/2+y,-z
1/2-x,1/2-y,-z
1/2+x,1/2-y,z
loop_
_atom_site_type_symbol
_atom_site_label
_atom_site_fract_x
_atom_site_fract_y
_atom_site_fract_z
Si Si1 0.052569 0.883864 0.550216
Si Si2 0.660961 0.255703 0.398775
Si Si3 0.607372 0.122013 0.245766
Si Si4 0.772728 0.380837 0.250100
Si Si5 0.650989 0.878796 0.991347
Si Si6 0.025342 0.303535 0.704421
Si Si7 0.444729 0.887791 0.102067
Si Si8 0.150963 0.616042 0.594431
O O1 0.112301 0.841804 0.457916
O O2 0.031251 0.814497 0.663169
O O3 0.000000 0.882003 0.500000
O O4 0.064440 0.000000 0.584159
O O5 0.635039 0.175631 0.330373
O O6 0.717800 0.310165 0.313450
O O7 0.682271 0.193628 0.490642
O O8 0.643555 0.164459 0.116970
O O9 0.537464 0.147131 0.286832
O O10 0.615736 0.000000 0.252925
O O11 0.753886 0.500000 0.273487
O O12 0.827865 0.357391 0.297034
O O13 0.788555 0.356670 0.114285
O O14 0.638107 0.000000 0.007089
O O15 0.601246 0.830184 0.946139
O O16 0.034116 0.304495 0.825343
O O17 0.080034 0.370816 0.622395
O O18 0.420005 0.000000 0.166316
O O19 0.500000 0.923117 0.000000
O O20 0.169698 0.500000 0.552013
#
# Coordination Sequence:
#
# PCOD8078225 Si02
#       8
#     8   8   8   8   8   8   8   8
#     4  10  21  38  53  71 100 137 184 224 254 301
#     4  11  22  35  52  77 105 143 178 214 266 315
#     4  11  21  33  51  82 118 140 165 207 267 331
#     4  10  20  36  55  75  99 136 186 228 251 295
#     4   9  18  31  50  78 108 140 172 211 257 307
#     4  11  19  31  54  84 107 138 168 210 269 323
#     4  10  16  26  49  81 113 139 167 206 259 321
#     4  10  20  33  53  80 110 136 168 216 269 320
#
# _framework density 17.573132000000001
#
# number of rings (size 3 to 8) (size 9 to 14) (size 15 to 20)
#    0.000    1.750    3.750    2.250    0.000    0.500 
#    0.000    1.875    0.000    1.125    0.000    0.875 
#    0.000    0.000    0.000    0.000    0.000    0.000 
#
# Total GULP energy -396474.618646 kJ/mol
# GULP energy per Si atom -12389.831833 kJ/mol
# Density = 1.753313 g / cm^3
# Si number density = 17.573132 Si / 1000 Ang^3
#
#
#
# Elastic Constant Matrix: (Units=GPa)
#
#
# Indices 1 2 3 4 5 6 
#
# 1 48.6795 21.0728 14.6216 0.0000 -6.4432 0.0000
# 2 21.0728 88.6095 39.5467 0.0000 1.3984 0.0000
# 3 14.6216 39.5467 91.2452 0.0000 0.7690 0.0000
# 4 0.0000 0.0000 0.0000 24.3869 0.0000 -5.8718
# 5 -6.4432 1.3984 0.7690 0.0000 29.4729 0.0000
# 6 0.0000 0.0000 0.0000 -5.8718 0.0000 18.1397
#
#
#
# Elastic Compliance Matrix: (Units=1/GPa)
#
#
# Indices 1 2 3 4 5 6 
#
# 1 0.023961 -0.005023 -0.001709 0.000000 0.005521 0.000000
# 2 -0.005023 0.015052 -0.005705 0.000000 -0.001663 0.000000
# 3 -0.001709 -0.005705 0.013710 0.000000 -0.000461 0.000000
# 4 0.000000 0.000000 0.000000 0.044472 0.000000 0.014395
# 5 0.005521 -0.001663 -0.000461 0.000000 0.035227 0.000000
# 6 0.000000 0.000000 0.000000 0.014395 0.000000 0.059787
#
#
# Mechanical properties :
#
#
# Convention : Reuss Voigt Hill
#
# Bulk Modulus (GPa) = 35.90743 42.11293 39.01018
# Shear Modulus (GPa) = 22.08809 24.61945 23.35377
#
# Velocity S-wave (km/s) = 3.54916 3.74702 3.64943
# Velocity P-wave (km/s) = 6.10515 6.53732 6.32493
#
# Compressibility (1/GPa) = 0.02784939
#
# Stress axis : x y z
#
# Youngs Moduli (GPa) = 41.73464 66.43493 72.94006
#
# Poissons Ratio (x) = 0.33367 0.12468
# Poissons Ratio (y) = 0.20961 0.41612
# Poissons Ratio (z) = 0.07134 0.37901
#
# Static dielectric constant tensor:
#      x y z
#    x 3.202740 0.000000 -0.002770 
#    y 0.000000 3.132270 0.000000 
#    z -0.002770 0.000000 3.571630 
# 
# 
# High freq. dielectric constant tensor:
#      x y z
#    x 1.673770 0.000000 -0.004790 
#    y 0.000000 1.651110 0.000000 
#    z -0.004790 0.000000 1.690900 
# 
# From -- ./inp_files/175232.got.cif
#   From: 2010.06.25/outbox.cif.g09.slc.cpg/sg12_88_cif.got.tgz:175232.got - 2010.06.28 00:19:55.
