data_PCOD8078684
_publ_section_title
;
Structure prediction by ZEFSAII (Michael W. Deem and Ramdas Pophale) SiO2 
 PCOD8078684
Probable space group: C 2/M
;
_chemical_formula_sum "Si O2"
_cell_formula_units_Z 56
_cell_length_a 28.152971
_cell_length_b 9.036886
_cell_length_c 14.280632
_cell_angle_alpha 90.000000
_cell_angle_beta 76.121448
_cell_angle_gamma 90.000000
_cell_volume 3527.143008
_symmetry_space_group_name_H-M "C 2/M"
_symmetry_group_IT_number 12
_symmetry_cell_setting 'monoclinic'
loop_
_space_group_symop_operation_xyz
x,y,z
-x,y,-z
-x,-y,-z
x,-y,z
1/2+x,1/2+y,z
1/2-x,1/2+y,-z
1/2-x,1/2-y,-z
1/2+x,1/2-y,z
loop_
_atom_site_type_symbol
_atom_site_label
_atom_site_fract_x
_atom_site_fract_y
_atom_site_fract_z
Si Si1 0.021915 0.332625 0.592846
Si Si2 0.289222 0.171865 0.045778
Si Si3 0.890888 0.828594 0.523128
Si Si4 0.278080 0.675112 0.571102
Si Si5 0.646252 0.168335 0.150733
Si Si6 0.567539 0.672939 0.296259
Si Si7 0.741981 0.174520 0.225561
O O1 0.027029 0.500000 0.625004
O O2 0.075671 0.259693 0.566843
O O3 0.000000 0.320333 0.500000
O O4 0.985870 0.248117 0.681033
O O5 0.288051 0.255772 0.146258
O O6 0.275527 0.000000 0.065899
O O7 0.250000 0.250000 0.000000
O O8 0.340730 0.187261 0.965862
O O9 0.835027 0.787756 0.530262
O O10 0.903647 0.782241 0.623116
O O11 0.902098 0.000000 0.502472
O O12 0.268738 0.500000 0.578431
O O13 0.250000 0.750000 0.500000
O O14 0.258151 0.747728 0.674674
O O15 0.599897 0.271117 0.194102
O O16 0.692162 0.213375 0.194164
O O17 0.631600 0.000000 0.179984
O O18 0.559475 0.500000 0.290698
O O19 0.749934 0.000000 0.233187
#
# Coordination Sequence:
#
# PCOD8078684 Si02
#       7
#     8   8   8   8   8   8   8
#     4   9  17  27  41  61  84 113 146 180 219 266
#     4   9  17  28  42  62  87 117 150 185 223 269
#     4   9  18  31  44  60  84 115 149 186 226 265
#     4  11  22  35  49  67  89 118 156 196 232 269
#     4   9  17  27  41  63  90 118 149 182 219 265
#     4  10  17  26  42  63  88 118 149 181 219 265
#     4  10  19  31  46  63  86 118 152 190 230 270
#
# _framework density 15.876873
#
# number of rings (size 3 to 8) (size 9 to 14) (size 15 to 20)
#    0.000    2.429    1.429    3.000    0.000    6.286 
#    0.000    0.000    0.000    0.000    0.000    0.000 
#    0.000    1.143    0.000   12.000    0.000    5.143 
#
# Total GULP energy -347128.616120 kJ/mol
# GULP energy per Si atom -12397.450576 kJ/mol
# Density = 1.584074 g / cm^3
# Si number density = 15.876873 Si / 1000 Ang^3
#
#
#
# Elastic Constant Matrix: (Units=GPa)
#
#
# Indices 1 2 3 4 5 6 
#
# 1 58.8456 44.2187 51.4453 0.0000 -15.6196 0.0000
# 2 44.2187 105.8687 66.4699 0.0000 -18.5443 0.0000
# 3 51.4453 66.4699 114.3969 0.0000 -22.7253 0.0000
# 4 0.0000 0.0000 0.0000 31.4031 0.0000 -7.6853
# 5 -15.6196 -18.5443 -22.7253 0.0000 24.0422 0.0000
# 6 0.0000 0.0000 0.0000 -7.6853 0.0000 23.2170
#
#
#
# Elastic Compliance Matrix: (Units=1/GPa)
#
#
# Indices 1 2 3 4 5 6 
#
# 1 0.031539 -0.006160 -0.009206 0.000000 0.007037 0.000000
# 2 -0.006160 0.016404 -0.006208 0.000000 0.002782 0.000000
# 3 -0.009206 -0.006208 0.017667 0.000000 0.005930 0.000000
# 4 0.000000 0.000000 0.000000 0.034651 0.000000 0.011470
# 5 0.007037 0.002782 0.005930 0.000000 0.053916 0.000000
# 6 0.000000 0.000000 0.000000 0.011470 0.000000 0.046869
#
#
# Mechanical properties :
#
#
# Convention : Reuss Voigt Hill
#
# Bulk Modulus (GPa) = 44.52357 67.04212 55.78284
# Shear Modulus (GPa) = 19.86641 23.53096 21.69869
#
# Velocity S-wave (km/s) = 3.54118 3.85397 3.70088
# Velocity P-wave (km/s) = 6.69506 7.88175 7.31252
#
# Compressibility (1/GPa) = 0.02246001
#
# Stress axis : x y z
#
# Youngs Moduli (GPa) = 31.70710 60.96075 56.60349
#
# Poissons Ratio (x) = 0.37554 0.52109
# Poissons Ratio (y) = 0.19533 0.35142
# Poissons Ratio (z) = 0.29189 0.37847
#
# Static dielectric constant tensor:
#      x y z
#    x 2.726370 0.000000 -0.351870 
#    y 0.000000 3.207320 0.000000 
#    z -0.351870 0.000000 3.115230 
# 
# 
# High freq. dielectric constant tensor:
#      x y z
#    x 1.561510 0.000000 -0.039750 
#    y 0.000000 1.627640 0.000000 
#    z -0.039750 0.000000 1.598670 
# 
# From -- ./inp_files/247711.got.cif
#   From: 2010.06.25/outbox.cif.g09.slc.cpg/sg12_124_cif.got.tgz:247711.got - 2010.06.28 00:19:55.
