data_PCOD8078756
_publ_section_title
;
Structure prediction by ZEFSAII (Michael W. Deem and Ramdas Pophale) SiO2 
 PCOD8078756
Probable space group: C 2/M
;
_chemical_formula_sum "Si O2"
_cell_formula_units_Z 64
_cell_length_a 18.108022
_cell_length_b 8.661973
_cell_length_c 21.360333
_cell_angle_alpha 90.000000
_cell_angle_beta 76.952584
_cell_angle_gamma 90.000000
_cell_volume 3263.898604
_symmetry_space_group_name_H-M "C 2/M"
_symmetry_group_IT_number 12
_symmetry_cell_setting 'monoclinic'
loop_
_space_group_symop_operation_xyz
x,y,z
-x,y,-z
-x,-y,-z
x,-y,z
1/2+x,1/2+y,z
1/2-x,1/2+y,-z
1/2-x,1/2-y,-z
1/2+x,1/2-y,z
loop_
_atom_site_type_symbol
_atom_site_label
_atom_site_fract_x
_atom_site_fract_y
_atom_site_fract_z
Si Si1 0.748740 0.179667 0.315883
Si Si2 0.411648 0.177892 0.063515
Si Si3 0.907960 0.181120 0.689010
Si Si4 0.307792 0.318108 0.439764
Si Si5 0.025357 0.183740 0.562461
Si Si6 0.958661 0.319505 0.807916
Si Si7 0.928681 0.179638 0.938894
Si Si8 0.132059 0.322839 0.794907
O O1 0.675687 0.284291 0.319354
O O2 0.784334 0.231688 0.374819
O O3 0.810149 0.210211 0.250456
O O4 0.726374 0.000000 0.319548
O O5 0.483986 0.283201 0.064250
O O6 0.353993 0.197439 0.132809
O O7 0.437430 0.000000 0.054142
O O8 0.377969 0.235882 0.003064
O O9 0.967169 0.243018 0.626135
O O10 0.921898 0.271083 0.750090
O O11 0.917795 0.000000 0.699102
O O12 0.308031 0.500000 0.447502
O O13 0.250000 0.250000 0.500000
O O14 0.391467 0.251134 0.437299
O O15 0.000000 0.250307 0.500000
O O16 0.025323 0.000000 0.560944
O O17 0.950900 0.500000 0.819626
O O18 0.046942 0.270856 0.792963
O O19 0.910088 0.239834 0.872755
O O20 0.911435 0.000000 0.945475
O O21 0.146527 0.500000 0.771970
#
# Coordination Sequence:
#
# PCOD8078756 Si02
#       8
#     8   8   8   8   8   8   8   8
#     4  11  23  37  54  78 111 146 183 229 275 322
#     4   9  16  28  46  72 107 142 177 223 277 324
#     4  11  22  37  58  80 106 143 186 228 272 327
#     4  10  21  37  57  83 112 143 180 221 270 324
#     4   9  18  34  57  83 110 141 178 221 268 319
#     4  10  20  35  54  78 110 143 179 227 280 328
#     4  10  17  26  45  75 107 140 181 223 268 326
#     4   9  19  34  54  79 107 143 184 224 270 328
#
# _framework density 19.608453999999998
#
# number of rings (size 3 to 8) (size 9 to 14) (size 15 to 20)
#    0.000    2.125    0.000    5.625    0.000    6.000 
#    0.000    1.250    0.000    4.125    0.000    0.000 
#    0.000    0.000    0.000    0.000    0.000    0.000 
#
# Total GULP energy -396763.674864 kJ/mol
# GULP energy per Si atom -12398.864839 kJ/mol
# Density = 1.956382 g / cm^3
# Si number density = 19.608454 Si / 1000 Ang^3
#
#
#
# Elastic Constant Matrix: (Units=GPa)
#
#
# Indices 1 2 3 4 5 6 
#
# 1 96.1583 18.9904 58.4694 0.0000 3.4493 0.0000
# 2 18.9904 52.7773 31.7293 0.0000 -2.3220 0.0000
# 3 58.4694 31.7293 173.6840 0.0000 2.7137 0.0000
# 4 0.0000 0.0000 0.0000 29.8893 0.0000 -3.3603
# 5 3.4493 -2.3220 2.7137 0.0000 24.2350 0.0000
# 6 0.0000 0.0000 0.0000 -3.3603 0.0000 22.1626
#
#
#
# Elastic Compliance Matrix: (Units=1/GPa)
#
#
# Indices 1 2 3 4 5 6 
#
# 1 0.013401 -0.002472 -0.004033 0.000000 -0.001692 0.000000
# 2 -0.002472 0.021891 -0.003211 0.000000 0.002809 0.000000
# 3 -0.004033 -0.003211 0.007711 0.000000 -0.000597 0.000000
# 4 0.000000 0.000000 0.000000 0.034037 0.000000 0.005161
# 5 -0.001692 0.002809 -0.000597 0.000000 0.041839 0.000000
# 6 0.000000 0.000000 0.000000 0.005161 0.000000 0.045903
#
#
# Mechanical properties :
#
#
# Convention : Reuss Voigt Hill
#
# Bulk Modulus (GPa) = 42.42456 60.11087 51.26771
# Shear Modulus (GPa) = 26.03195 29.48608 27.75902
#
# Velocity S-wave (km/s) = 3.64756 3.88202 3.76662
# Velocity P-wave (km/s) = 6.27873 7.12850 6.71707
#
# Compressibility (1/GPa) = 0.02357125
#
# Stress axis : x y z
#
# Youngs Moduli (GPa) = 74.62234 45.68121 129.67993
#
# Poissons Ratio (x) = 0.11290 0.52304
# Poissons Ratio (y) = 0.18443 0.41640
# Poissons Ratio (z) = 0.30098 0.14668
#
# Static dielectric constant tensor:
#      x y z
#    x 3.327910 0.000000 0.063760 
#    y 0.000000 3.398900 0.000000 
#    z 0.063760 0.000000 4.103020 
# 
# 
# High freq. dielectric constant tensor:
#      x y z
#    x 1.728020 0.000000 0.001270 
#    y 0.000000 1.755070 0.000000 
#    z 0.001270 0.000000 1.791120 
# 
# From -- ./inp_files/319119.got.cif
#   From: 2010.06.25/outbox.cif.g09.slc.cpg/sg12_160_cif.got.tgz:319119.got - 2010.06.28 00:19:55.
