data_PCOD8078582
_publ_section_title
;
Structure prediction by ZEFSAII (Michael W. Deem and Ramdas Pophale) SiO2 
 PCOD8078582
Probable space group: C 2/M
;
_chemical_formula_sum "Si O2"
_cell_formula_units_Z 64
_cell_length_a 27.573301
_cell_length_b 8.926907
_cell_length_c 19.377576
_cell_angle_alpha 90.000000
_cell_angle_beta 58.758611
_cell_angle_gamma 90.000000
_cell_volume 4078.027674
_symmetry_space_group_name_H-M "C 2/M"
_symmetry_group_IT_number 12
_symmetry_cell_setting 'monoclinic'
loop_
_space_group_symop_operation_xyz
x,y,z
-x,y,-z
-x,-y,-z
x,-y,z
1/2+x,1/2+y,z
1/2-x,1/2+y,-z
1/2-x,1/2-y,-z
1/2+x,1/2-y,z
loop_
_atom_site_type_symbol
_atom_site_label
_atom_site_fract_x
_atom_site_fract_y
_atom_site_fract_z
Si Si1 0.973547 0.676291 0.165620
Si Si2 0.638934 0.174708 0.674153
Si Si3 0.800625 0.672327 0.500272
Si Si4 0.743705 0.324012 0.673419
Si Si5 0.588315 0.672746 0.907413
Si Si6 0.414419 0.672513 0.929428
Si Si7 0.794319 0.675371 0.172748
Si Si8 0.203602 0.676222 0.986320
O O1 0.982987 0.500000 0.153643
O O2 0.924149 0.720685 0.256027
O O3 0.958988 0.739545 0.100720
O O4 0.031965 0.752419 0.148600
O O5 0.642945 0.204895 0.587384
O O6 0.685245 0.271608 0.680609
O O7 0.650349 0.000000 0.682557
O O8 0.785249 0.500000 0.509291
O O9 0.750000 0.750000 0.500000
O O10 0.798024 0.718523 0.583576
O O11 0.740360 0.500000 0.691027
O O12 0.753333 0.238031 0.739278
O O13 0.588003 0.500000 0.885208
O O14 0.648644 0.743623 0.845038
O O15 0.574744 0.691665 0.997510
O O16 0.408806 0.500000 0.911675
O O17 0.357350 0.756739 0.949075
O O18 0.802811 0.500000 0.175934
O O19 0.779259 0.715647 0.105100
O O20 0.201749 0.500000 0.000337
O O21 0.250000 0.750000 0.000000
#
# Coordination Sequence:
#
# PCOD8078582 Si02
#       8
#     8   8   8   8   8   8   8   8
#     4  11  20  28  42  63  89 121 154 187 221 261
#     4   9  17  28  40  56  85 122 155 187 224 260
#     4   8  15  26  38  55  80 114 153 188 221 256
#     4  10  17  25  41  62  85 115 153 191 221 257
#     4  10  19  30  43  60  85 117 152 188 222 256
#     4  10  21  34  47  64  87 116 149 185 223 262
#     4  10  19  30  45  66  90 117 147 181 223 268
#     4  10  21  37  55  71  89 113 143 181 227 274
#
# _framework density 15.693861
#
# number of rings (size 3 to 8) (size 9 to 14) (size 15 to 20)
#    0.000    2.250    1.250    2.625    0.000    5.500 
#    0.000    0.000    0.000    0.000    0.000    0.000 
#    0.000    1.000    0.000   11.500    0.000    2.875 
#
# Total GULP energy -396541.963095 kJ/mol
# GULP energy per Si atom -12391.936347 kJ/mol
# Density = 1.565814 g / cm^3
# Si number density = 15.693861 Si / 1000 Ang^3
#
#
#
# Elastic Constant Matrix: (Units=GPa)
#
#
# Indices 1 2 3 4 5 6 
#
# 1 73.9351 35.2744 44.0123 0.0000 -5.8688 0.0000
# 2 35.2744 71.3387 38.4619 0.0000 -4.0649 -0.0004
# 3 44.0123 38.4619 95.4313 0.0000 -6.1660 0.0000
# 4 0.0000 0.0000 0.0000 22.7809 0.0000 -0.6697
# 5 -5.8688 -4.0649 -6.1660 0.0000 12.7380 0.0000
# 6 0.0000 -0.0004 0.0000 -0.6697 0.0000 22.6675
#
#
#
# Elastic Compliance Matrix: (Units=1/GPa)
#
#
# Indices 1 2 3 4 5 6 
#
# 1 0.021004 -0.006474 -0.006799 0.000000 0.004320 0.000000
# 2 -0.006474 0.019970 -0.005000 0.000000 0.000970 0.000000
# 3 -0.006799 -0.005000 0.015819 0.000000 0.002929 0.000000
# 4 0.000000 0.000000 0.000000 0.043934 0.000000 0.001298
# 5 0.004320 0.000970 0.002929 0.000000 0.082223 0.000000
# 6 0.000000 0.000000 0.000000 0.001298 0.000000 0.044154
#
#
# Mechanical properties :
#
#
# Convention : Reuss Voigt Hill
#
# Bulk Modulus (GPa) = 49.38962 52.91137 51.15050
# Shear Modulus (GPa) = 18.49118 19.83439 19.16278
#
# Velocity S-wave (km/s) = 3.43628 3.55890 3.49812
# Velocity P-wave (km/s) = 6.87626 7.11868 6.99852
#
# Compressibility (1/GPa) = 0.02024717
#
# Stress axis : x y z
#
# Youngs Moduli (GPa) = 47.60949 50.07542 63.21673
#
# Poissons Ratio (x) = 0.32420 0.42978
# Poissons Ratio (y) = 0.30824 0.31608
# Poissons Ratio (z) = 0.32367 0.25038
#
# Static dielectric constant tensor:
#      x y z
#    x 2.579750 0.000000 -0.056110 
#    y 0.000000 3.086770 0.000000 
#    z -0.056110 0.000000 3.649060 
# 
# 
# High freq. dielectric constant tensor:
#      x y z
#    x 1.538500 0.000000 -0.004870 
#    y 0.000000 1.619590 0.000000 
#    z -0.004870 0.000000 1.614060 
# 
# From -- ./inp_files/323640.got.cif
#   From: 2010.06.25/outbox.cif.g09.slc.cpg/sg12_162_cif.got.tgz:323640.got - 2010.06.28 00:19:55.
