data_PCOD8078198
_publ_section_title
;
Structure prediction by ZEFSAII (Michael W. Deem and Ramdas Pophale) SiO2 
 PCOD8078198
Probable space group: C 2/M
;
_chemical_formula_sum "Si O2"
_cell_formula_units_Z 40
_cell_length_a 5.264020
_cell_length_b 14.124474
_cell_length_c 26.515015
_cell_angle_alpha 90.000000
_cell_angle_beta 113.485949
_cell_angle_gamma 90.000000
_cell_volume 1808.113845
_symmetry_space_group_name_H-M "C 2/M"
_symmetry_group_IT_number 12
_symmetry_cell_setting 'monoclinic'
loop_
_space_group_symop_operation_xyz
x,y,z
-x,y,-z
-x,-y,-z
x,-y,z
1/2+x,1/2+y,z
1/2-x,1/2+y,-z
1/2-x,1/2-y,-z
1/2+x,1/2-y,z
loop_
_atom_site_type_symbol
_atom_site_label
_atom_site_fract_x
_atom_site_fract_y
_atom_site_fract_z
Si Si1 0.720253 0.345700 0.609283
Si Si2 0.024644 0.694054 0.262791
Si Si3 0.631360 0.806273 0.065016
Si Si4 0.872072 0.359882 0.436720
Si Si5 0.280437 0.500000 0.128884
Si Si6 0.422098 0.000000 0.199456
O O1 0.844598 0.314031 0.671926
O O2 0.436205 0.404578 0.593517
O O3 0.643423 0.253138 0.570481
O O4 0.942355 0.404413 0.593845
O O5 0.236409 0.748428 0.242551
O O6 0.964285 0.590646 0.237528
O O7 0.425578 0.747159 0.084842
O O8 0.670275 0.908884 0.091207
O O9 0.500000 0.819477 0.000000
O O10 0.000000 0.389732 0.500000
O O11 0.612360 0.500000 0.153396
O O12 0.155135 0.500000 0.174861
#
# Coordination Sequence:
#
# PCOD8078198 Si02
#       6
#     8   8   8   8   4   4
#     4  10  16  29  48  76 109 148 187 241 309 368
#     4  12  23  44  65  85 124 162 219 271 317 377
#     4  10  22  41  71 105 137 179 221 258 320 390
#     4  10  16  25  46  85 115 135 192 246 301 399
#     4  12  25  46  64  96 142 170 219 276 326 364
#     4  12  30  42  65 100 121 178 232 264 324 380
#
# _framework density 22.122499999999999
#
# number of rings (size 3 to 8) (size 9 to 14) (size 15 to 20)
#    0.000    1.200    4.000    5.700    0.000    4.800 
#    0.000    4.000    0.000    0.000    0.000    7.700 
#    0.000    0.000    0.000    0.000    0.000    0.000 
#
# Total GULP energy -247962.390069 kJ/mol
# GULP energy per Si atom -12398.119503 kJ/mol
# Density = 2.207215 g / cm^3
# Si number density = 22.122500 Si / 1000 Ang^3
#
#
#
# Elastic Constant Matrix: (Units=GPa)
#
#
# Indices 1 2 3 4 5 6 
#
# 1 218.3568 45.8249 30.6085 0.0000 -13.6588 0.0000
# 2 45.8249 141.4870 45.5055 0.0000 -2.8706 0.0000
# 3 30.6085 45.5055 44.7589 0.0000 -3.3623 0.0000
# 4 0.0000 0.0000 0.0000 -23.1433 0.0000 -2.5247
# 5 -13.6588 -2.8706 -3.3623 0.0000 24.2191 0.0000
# 6 0.0000 0.0000 0.0000 -2.5247 0.0000 17.6326
#
#
#
# Elastic Compliance Matrix: (Units=1/GPa)
#
#
# Indices 1 2 3 4 5 6 
#
# 1 0.005272 -0.000829 -0.002574 0.000000 0.002518 0.000000
# 2 -0.000829 0.010633 -0.010292 0.000000 -0.000636 0.000000
# 3 -0.002574 -0.010292 0.034727 0.000000 0.002150 0.000000
# 4 0.000000 0.000000 0.000000 -0.042545 0.000000 -0.006092
# 5 0.002518 -0.000636 0.002150 0.000000 0.042933 0.000000
# 6 0.000000 0.000000 0.000000 -0.006092 0.000000 0.055841
#
#
# Mechanical properties :
#
#
# Convention : Reuss Voigt Hill
#
# Bulk Modulus (GPa) = 43.02190 72.05339 57.53764
# Shear Modulus (GPa) = 35.21199 22.58593 28.89896
#
# Velocity S-wave (km/s) = 3.99392 3.19869 3.61822
# Velocity P-wave (km/s) = 6.38419 6.80317 6.59700
#
# Compressibility (1/GPa) = 0.02324398
#
# Stress axis : x y z
#
# Youngs Moduli (GPa) = 189.68873 94.04370 28.79619
#
# Poissons Ratio (x) = 0.07793 0.07411
# Poissons Ratio (y) = 0.15718 0.29636
# Poissons Ratio (z) = 0.48817 0.96788
#
# Static dielectric constant tensor:
#      x y z
#    x 6.644420 0.000000 -0.205430 
#    y 0.000000 6.977750 0.000000 
#    z -0.205430 0.000000 3.826560 
# 
# 
# High freq. dielectric constant tensor:
#      x y z
#    x 1.907540 0.000000 -0.003560 
#    y 0.000000 1.854440 0.000000 
#    z -0.003560 0.000000 1.864470 
# 
# From -- ./inp_files/330896.got.cif
#   From: 2010.06.25/outbox.cif.g09.slc.cpg/sg12_166_cif.got.tgz:330896.got - 2010.06.28 00:19:55.
