data_PCOD8078513
_publ_section_title
;
Structure prediction by ZEFSAII (Michael W. Deem and Ramdas Pophale) SiO2 
 PCOD8078513
Probable space group: C 2/M
;
_chemical_formula_sum "Si O2"
_cell_formula_units_Z 56
_cell_length_a 28.673909
_cell_length_b 8.959750
_cell_length_c 14.150846
_cell_angle_alpha 90.000000
_cell_angle_beta 77.700544
_cell_angle_gamma 90.000000
_cell_volume 3552.065129
_symmetry_space_group_name_H-M "C 2/M"
_symmetry_group_IT_number 12
_symmetry_cell_setting 'monoclinic'
loop_
_space_group_symop_operation_xyz
x,y,z
-x,y,-z
-x,-y,-z
x,-y,z
1/2+x,1/2+y,z
1/2-x,1/2+y,-z
1/2-x,1/2-y,-z
1/2+x,1/2-y,z
loop_
_atom_site_type_symbol
_atom_site_label
_atom_site_fract_x
_atom_site_fract_y
_atom_site_fract_z
Si Si1 0.637910 0.172868 0.044294
Si Si2 0.456756 0.835121 0.445999
Si Si3 0.470460 0.826099 0.921465
Si Si4 0.177156 0.175204 0.212936
Si Si5 0.600839 0.823556 0.357132
Si Si6 0.231025 0.671707 0.916957
Si Si7 0.983193 0.824263 0.722578
O O1 0.584832 0.211225 0.033329
O O2 0.651598 0.275184 0.126979
O O3 0.641957 0.000000 0.074513
O O4 0.673822 0.203609 0.938388
O O5 0.500000 0.843991 0.500000
O O6 0.411364 0.781295 0.528424
O O7 0.469155 0.721337 0.356546
O O8 0.447555 0.000000 0.406712
O O9 0.490154 0.729411 0.826360
O O10 0.477922 0.000000 0.894687
O O11 0.500000 0.776735 0.000000
O O12 0.153515 0.261649 0.311305
O O13 0.234313 0.218541 0.185772
O O14 0.168774 0.000000 0.230957
O O15 0.563722 0.752050 0.299743
O O16 0.598324 0.000000 0.343397
O O17 0.241224 0.500000 0.929288
O O18 0.250000 0.750000 0.000000
O O19 0.976774 0.000000 0.720744
#
# Coordination Sequence:
#
# PCOD8078513 Si02
#       7
#     8   8   8   8   8   8   8
#     4   9  16  28  43  55  77 112 143 173 209 247
#     4   8  16  29  43  58  79 109 141 169 200 248
#     4  10  20  32  46  62  81 111 150 183 209 244
#     4  10  17  24  38  61  86 109 137 171 206 246
#     4  10  18  28  42  60  84 114 143 168 201 250
#     4   8  15  25  37  56  79 106 138 168 202 247
#     4  11  20  29  43  61  83 109 138 177 217 249
#
# _framework density 15.765477000000001
#
# number of rings (size 3 to 8) (size 9 to 14) (size 15 to 20)
#    0.000    2.571    1.429    3.000    0.000    4.000 
#    0.000    0.000    0.000    0.000    0.000    0.000 
#    0.000    1.143    0.000    2.286    0.000    3.000 
#
# Total GULP energy -346872.399809 kJ/mol
# GULP energy per Si atom -12388.299993 kJ/mol
# Density = 1.572959 g / cm^3
# Si number density = 15.765477 Si / 1000 Ang^3
#
#
#
# Elastic Constant Matrix: (Units=GPa)
#
#
# Indices 1 2 3 4 5 6 
#
# 1 72.9320 27.8297 56.4030 0.0000 -28.9243 0.0000
# 2 27.8297 72.8493 47.5288 0.0000 -15.7644 0.0000
# 3 56.4030 47.5288 99.5865 0.0000 -35.4843 0.0000
# 4 0.0000 0.0000 0.0000 15.9134 0.0000 -7.3402
# 5 -28.9243 -15.7644 -35.4843 0.0000 33.4046 0.0000
# 6 0.0000 0.0000 0.0000 -7.3402 0.0000 14.9708
#
#
#
# Elastic Compliance Matrix: (Units=1/GPa)
#
#
# Indices 1 2 3 4 5 6 
#
# 1 0.026886 -0.000756 -0.010778 0.000000 0.011474 0.000000
# 2 -0.000756 0.019981 -0.009624 0.000000 -0.001448 0.000000
# 3 -0.010778 -0.009624 0.025415 0.000000 0.013123 0.000000
# 4 0.000000 0.000000 0.000000 0.081205 0.000000 0.039815
# 5 0.011474 -0.001448 0.013123 0.000000 0.053127 0.000000
# 6 0.000000 0.000000 0.000000 0.039815 0.000000 0.086318
#
#
# Mechanical properties :
#
#
# Convention : Reuss Voigt Hill
#
# Bulk Modulus (GPa) = 33.37171 56.54344 44.95758
# Shear Modulus (GPa) = 14.48272 20.43150 17.45711
#
# Velocity S-wave (km/s) = 3.03419 3.60386 3.33122
# Velocity P-wave (km/s) = 5.78693 7.29796 6.58593
#
# Compressibility (1/GPa) = 0.02996550
#
# Stress axis : x y z
#
# Youngs Moduli (GPa) = 37.19429 50.04630 39.34635
#
# Poissons Ratio (x) = 0.03783 0.42409
# Poissons Ratio (y) = 0.02811 0.37868
# Poissons Ratio (z) = 0.40089 0.48166
#
# Static dielectric constant tensor:
#      x y z
#    x 3.185790 0.000000 -0.740900 
#    y 0.000000 8.717680 0.000000 
#    z -0.740900 0.000000 3.188980 
# 
# 
# High freq. dielectric constant tensor:
#      x y z
#    x 1.570940 0.000000 -0.056180 
#    y 0.000000 1.610820 0.000000 
#    z -0.056180 0.000000 1.584220 
# 
# From -- ./inp_files/247778.got.cif
#   From: 2010.06.25/outbox.cif.g09.slc.cpg/sg12_124_cif.got.tgz:247778.got - 2010.06.28 00:19:55.
