data_PCOD8078473
_publ_section_title
;
Structure prediction by ZEFSAII (Michael W. Deem and Ramdas Pophale) SiO2 
 PCOD8078473
Probable space group: C 2/M
;
_chemical_formula_sum "Si O2"
_cell_formula_units_Z 64
_cell_length_a 20.502231
_cell_length_b 8.850529
_cell_length_c 24.530293
_cell_angle_alpha 90.000000
_cell_angle_beta 124.134921
_cell_angle_gamma 90.000000
_cell_volume 3684.306383
_symmetry_space_group_name_H-M "C 2/M"
_symmetry_group_IT_number 12
_symmetry_cell_setting 'monoclinic'
loop_
_space_group_symop_operation_xyz
x,y,z
-x,y,-z
-x,-y,-z
x,-y,z
1/2+x,1/2+y,z
1/2-x,1/2+y,-z
1/2-x,1/2-y,-z
1/2+x,1/2-y,z
loop_
_atom_site_type_symbol
_atom_site_label
_atom_site_fract_x
_atom_site_fract_y
_atom_site_fract_z
Si Si1 0.781272 0.825603 0.930365
Si Si2 0.639829 0.323959 0.927901
Si Si3 0.201869 0.177423 0.804508
Si Si4 0.034029 0.324943 0.342331
Si Si5 0.872769 0.325613 0.323458
Si Si6 0.666199 0.322678 0.470346
Si Si7 0.909838 0.675075 0.462255
Si Si8 0.940680 0.675711 0.196892
O O1 0.706872 0.778067 0.931936
O O2 0.782138 0.729195 0.874105
O O3 0.774758 0.000000 0.911220
O O4 0.858330 0.797662 0.005414
O O5 0.654468 0.500000 0.921487
O O6 0.558262 0.266920 0.860687
O O7 0.196772 0.229798 0.738986
O O8 0.131978 0.264967 0.801679
O O9 0.191724 0.000000 0.804071
O O10 0.052500 0.500000 0.362588
O O11 0.108432 0.226522 0.394521
O O12 0.959040 0.273756 0.343302
O O13 0.018369 0.296527 0.270285
O O14 0.860289 0.500000 0.302552
O O15 0.865692 0.296744 0.384417
O O16 0.676065 0.500000 0.473470
O O17 0.750000 0.250000 0.500000
O O18 0.633267 0.274407 0.513306
O O19 0.906289 0.500000 0.478156
O O20 0.000000 0.727783 0.500000
O O21 0.929909 0.500000 0.179389
#
# Coordination Sequence:
#
# PCOD8078473 Si02
#       8
#     8   8   8   8   8   8   8   8
#     4   9  15  22  31  44  69 106 145 182 226 276
#     4   9  15  21  31  48  70 100 142 189 226 267
#     4  10  17  23  34  54  81 110 146 191 229 270
#     4   9  17  32  49  67  91 122 158 194 240 291
#     4   9  17  30  49  68  91 122 152 190 240 290
#     4  12  25  38  54  75 101 131 164 204 248 296
#     4  10  19  36  58  77  99 128 161 200 247 298
#     4   9  16  25  38  54  77 110 145 184 231 282
#
# _framework density 17.370978000000001
#
# number of rings (size 3 to 8) (size 9 to 14) (size 15 to 20)
#    0.000    2.375    1.250    5.625    0.000    4.750 
#    0.000    0.000    0.000    0.000    0.000    0.000 
#    0.000    0.000    0.000    1.125    0.000   21.500 
#
# Total GULP energy -396477.473867 kJ/mol
# GULP energy per Si atom -12389.921058 kJ/mol
# Density = 1.733144 g / cm^3
# Si number density = 17.370978 Si / 1000 Ang^3
#
#
#
# Elastic Constant Matrix: (Units=GPa)
#
#
# Indices 1 2 3 4 5 6 
#
# 1 38.7746 26.4835 35.1094 0.0000 1.5208 0.0000
# 2 26.4835 82.2486 62.0194 0.0000 -2.8318 0.0000
# 3 35.1094 62.0194 160.4518 0.0000 -14.7987 0.0000
# 4 0.0000 0.0000 0.0000 35.2599 0.0000 -3.2685
# 5 1.5208 -2.8318 -14.7987 0.0000 9.5518 0.0000
# 6 0.0000 0.0000 0.0000 -3.2685 0.0000 14.9476
#
#
#
# Elastic Compliance Matrix: (Units=1/GPa)
#
#
# Indices 1 2 3 4 5 6 
#
# 1 0.038282 -0.007511 -0.007282 0.000000 -0.019604 0.000000
# 2 -0.007511 0.018939 -0.005890 0.000000 -0.002315 0.000000
# 3 -0.007282 -0.005890 0.011724 0.000000 0.017577 0.000000
# 4 0.000000 0.000000 0.000000 0.028948 0.000000 0.006330
# 5 -0.019604 -0.002315 0.017577 0.000000 0.134358 0.000000
# 6 0.000000 0.000000 0.000000 0.006330 0.000000 0.068285
#
#
# Mechanical properties :
#
#
# Convention : Reuss Voigt Hill
#
# Bulk Modulus (GPa) = 36.25977 58.74441 47.50209
# Shear Modulus (GPa) = 14.24120 22.47604 18.35862
#
# Velocity S-wave (km/s) = 2.86637 3.60096 3.25446
# Velocity P-wave (km/s) = 5.64569 7.15404 6.44415
#
# Compressibility (1/GPa) = 0.02757878
#
# Stress axis : x y z
#
# Youngs Moduli (GPa) = 26.12168 52.80211 85.29740
#
# Poissons Ratio (x) = 0.39659 0.62111
# Poissons Ratio (y) = 0.19620 0.50244
# Poissons Ratio (z) = 0.19021 0.31103
#
# Static dielectric constant tensor:
#      x y z
#    x 2.309880 0.000000 -0.247090 
#    y 0.000000 3.250950 0.000000 
#    z -0.247090 0.000000 4.464600 
# 
# 
# High freq. dielectric constant tensor:
#      x y z
#    x 1.571860 0.000000 -0.022010 
#    y 0.000000 1.678170 0.000000 
#    z -0.022010 0.000000 1.708160 
# 
# From -- ./inp_files/365223.got.cif
#   From: 2010.06.25/outbox.cif.g09.slc.cpg/sg12_183_cif.got.tgz:365223.got - 2010.06.28 00:19:55.
