data_PCOD8078138
_publ_section_title
;
Structure prediction by ZEFSAII (Michael W. Deem and Ramdas Pophale) SiO2 
 PCOD8078138
Probable space group: C 2/M
;
_chemical_formula_sum "Si O2"
_cell_formula_units_Z 64
_cell_length_a 8.411379
_cell_length_b 22.539434
_cell_length_c 15.522709
_cell_angle_alpha 90.000000
_cell_angle_beta 93.946463
_cell_angle_gamma 90.000000
_cell_volume 2935.936781
_symmetry_space_group_name_H-M "C 2/M"
_symmetry_group_IT_number 12
_symmetry_cell_setting 'monoclinic'
loop_
_space_group_symop_operation_xyz
x,y,z
-x,y,-z
-x,-y,-z
x,-y,z
1/2+x,1/2+y,z
1/2-x,1/2+y,-z
1/2-x,1/2-y,-z
1/2+x,1/2-y,z
loop_
_atom_site_type_symbol
_atom_site_label
_atom_site_fract_x
_atom_site_fract_y
_atom_site_fract_z
Si Si1 0.188758 0.935622 0.657735
Si Si2 0.179051 0.433431 0.523758
Si Si3 0.488046 0.822061 0.101024
Si Si4 0.278741 0.268781 0.807284
Si Si5 0.492718 0.066727 0.787959
Si Si6 0.283541 0.134696 0.313234
Si Si7 0.383707 0.689237 0.332591
Si Si8 0.446953 0.207896 0.594239
O O1 0.215526 0.931837 0.556958
O O2 0.358022 0.930047 0.710238
O O3 0.074559 0.880875 0.681912
O O4 0.109700 0.000000 0.677047
O O5 0.163670 0.500000 0.559911
O O6 0.271693 0.393509 0.598413
O O7 0.000000 0.408547 0.500000
O O8 0.581514 0.765811 0.141777
O O9 0.308366 0.808564 0.123786
O O10 0.547789 0.885758 0.138608
O O11 0.500000 0.824088 0.000000
O O12 0.340560 0.318184 0.737232
O O13 0.164873 0.220064 0.758598
O O14 0.662095 0.082690 0.750056
O O15 0.503122 0.000000 0.827256
O O16 0.442869 0.174296 0.332398
O O17 0.529967 0.721850 0.385859
O O18 0.235144 0.690577 0.395318
O O19 0.500000 0.191892 0.500000
#
# Coordination Sequence:
#
# PCOD8078138 Si02
#       8
#     8   8   8   8   8   8   8   8
#     4  10  18  29  48  73 106 144 183 222 256 305
#     4  10  16  23  41  71 107 146 187 224 262 303
#     4  11  22  39  60  84 110 135 174 225 282 346
#     4  10  21  36  55  81 110 144 176 220 277 337
#     4  10  18  31  51  77 109 139 172 221 275 318
#     4  10  17  28  47  72 113 143 177 217 261 316
#     4  11  19  35  51  75 108 140 183 222 268 319
#     4  11  21  30  47  75 110 148 186 228 264 301
#
# _framework density 21.798833999999999
#
# number of rings (size 3 to 8) (size 9 to 14) (size 15 to 20)
#    0.000    1.625    3.750    3.750    0.000    1.250 
#    0.000    0.000    0.000    0.375    0.000   35.000 
#    0.000   19.500    0.000    0.000    0.000    0.000 
#
# Total GULP energy -396600.330121 kJ/mol
# GULP energy per Si atom -12393.760316 kJ/mol
# Density = 2.174922 g / cm^3
# Si number density = 21.798834 Si / 1000 Ang^3
#
#
#
# Elastic Constant Matrix: (Units=GPa)
#
#
# Indices 1 2 3 4 5 6 
#
# 1 8.9579 14.1694 9.4666 0.0000 6.4691 0.0000
# 2 14.1694 184.5418 53.2474 0.0000 7.6951 0.0000
# 3 9.4666 53.2474 130.4671 0.0000 -4.8761 0.0000
# 4 0.0000 0.0000 0.0000 19.6072 0.0000 1.3550
# 5 6.4691 7.6951 -4.8761 0.0000 23.3651 0.0000
# 6 0.0000 0.0000 0.0000 1.3550 0.0000 30.2420
#
#
#
# Elastic Compliance Matrix: (Units=1/GPa)
#
#
# Indices 1 2 3 4 5 6 
#
# 1 0.169123 -0.007942 -0.010766 0.000000 -0.046457 0.000000
# 2 -0.007942 0.006672 -0.002163 0.000000 -0.000450 0.000000
# 3 -0.010766 -0.002163 0.009541 0.000000 0.005685 0.000000
# 4 0.000000 0.000000 0.000000 0.051160 0.000000 -0.002292
# 5 -0.046457 -0.000450 0.005685 0.000000 0.056996 0.000000
# 6 0.000000 0.000000 0.000000 -0.002292 0.000000 0.033169
#
#
# Mechanical properties :
#
#
# Convention : Reuss Voigt Hill
#
# Bulk Modulus (GPa) = 6.96414 53.08150 30.02282
# Shear Modulus (GPa) = 12.01146 31.11509 21.56327
#
# Velocity S-wave (km/s) = 2.34992 3.78216 3.14856
# Velocity P-wave (km/s) = 3.25030 6.59367 5.19812
#
# Compressibility (1/GPa) = 0.14359279
#
# Stress axis : x y z
#
# Youngs Moduli (GPa) = 5.91285 149.88899 104.80643
#
# Poissons Ratio (x) = 1.19039 1.12840
# Poissons Ratio (y) = 0.04696 0.22674
# Poissons Ratio (z) = 0.06366 0.32428
#
# Static dielectric constant tensor:
#      x y z
#    x 3.584570 0.000000 -0.022690 
#    y 0.000000 4.715490 0.000000 
#    z -0.022690 0.000000 3.654160 
# 
# 
# High freq. dielectric constant tensor:
#      x y z
#    x 1.826350 0.000000 -0.007560 
#    y 0.000000 1.887720 0.000000 
#    z -0.007560 0.000000 1.822540 
# 
# From -- ./inp_files/198875.got.cif
#   From: 2010.06.25/outbox.cif.g09.slc.cpg/sg12_100_cif.got.tgz:198875.got - 2010.06.28 00:19:55.
