data_PCOD8078949
_publ_section_title
;
Structure prediction by ZEFSAII (Michael W. Deem and Ramdas Pophale) SiO2 
 PCOD8078949
Probable space group: C 2/M
;
_chemical_formula_sum "Si O2"
_cell_formula_units_Z 64
_cell_length_a 27.548754
_cell_length_b 27.549162
_cell_length_c 18.175106
_cell_angle_alpha 90.000000
_cell_angle_beta 17.613195
_cell_angle_gamma 90.000000
_cell_volume 4173.890149
_symmetry_space_group_name_H-M "C 2/M"
_symmetry_group_IT_number 12
_symmetry_cell_setting 'monoclinic'
loop_
_space_group_symop_operation_xyz
x,y,z
-x,y,-z
-x,-y,-z
x,-y,z
1/2+x,1/2+y,z
1/2-x,1/2+y,-z
1/2-x,1/2-y,-z
1/2+x,1/2-y,z
loop_
_atom_site_type_symbol
_atom_site_label
_atom_site_fract_x
_atom_site_fract_y
_atom_site_fract_z
Si Si1 0.877630 0.758201 0.503312
Si Si2 0.164653 0.815629 0.027945
Si Si3 0.928708 0.142330 0.986120
Si Si4 0.181904 0.779990 0.251172
Si Si5 0.117839 0.330036 0.153842
Si Si6 0.705474 0.288116 0.626315
Si Si7 0.387919 0.446885 0.231905
Si Si8 0.666417 0.123283 0.489065
O O1 0.789339 0.778495 0.703175
O O2 0.727504 0.742239 0.669983
O O3 0.998243 0.713967 0.348893
O O4 0.984793 0.800068 0.310434
O O5 0.276832 0.770849 0.845723
O O6 0.255248 0.841754 0.965051
O O7 0.153429 0.851339 0.974559
O O8 0.029688 0.190091 0.864003
O O9 0.037174 0.093704 0.822448
O O10 0.798775 0.136744 0.236992
O O11 0.000000 0.794036 0.500000
O O12 0.291328 0.820125 0.054003
O O13 0.008724 0.377846 0.295766
O O14 0.750000 0.250000 0.500000
O O15 0.828346 0.333915 0.456280
O O16 0.369818 0.500000 0.296337
O O17 0.211557 0.428317 0.460270
O O18 0.500000 0.452504 0.000000
#
# Coordination Sequence:
#
# PCOD8078949 Si02
#       8
#     8   8   8   8   8   8   8   8
#     4  10  18  29  40  57  82 124 162 188 218 247
#     4  11  18  26  42  60  88 121 154 187 218 261
#     4  10  19  29  44  66  91 121 152 185 225 268
#     4  11  18  28  41  57  84 126 166 189 211 248
#     4  10  19  29  41  61  87 119 157 190 217 262
#     4  10  17  28  40  58  89 121 151 186 213 251
#     4   8  15  31  52  69  86 112 147 185 226 278
#     4   9  19  30  42  65  91 116 153 182 221 267
#
# _framework density 15.333418
#
# number of rings (size 3 to 8) (size 9 to 14) (size 15 to 20)
#    0.000    2.125    3.750    3.375    0.000    0.000 
#    0.000    0.000    0.000    0.750    0.000    3.500 
#    0.000    2.500    0.000    0.125    0.000    0.000 
#
# Total GULP energy -396462.872970 kJ/mol
# GULP energy per Si atom -12389.464780 kJ/mol
# Density = 1.529852 g / cm^3
# Si number density = 15.333418 Si / 1000 Ang^3
#
#
#
# Elastic Constant Matrix: (Units=GPa)
#
#
# Indices 1 2 3 4 5 6 
#
# 1 95.2196 31.4115 28.9824 -0.1499 -10.6299 0.1330
# 2 31.4115 68.9847 30.6381 -0.0996 -10.8646 0.0726
# 3 28.9824 30.6381 64.7378 -0.1128 -5.9481 0.1241
# 4 -0.1499 -0.0996 -0.1128 9.5707 0.0785 -3.6525
# 5 -10.6299 -10.8646 -5.9481 0.0785 24.1898 -0.0648
# 6 0.1330 0.0726 0.1241 -3.6525 -0.0648 8.7183
#
#
#
# Elastic Compliance Matrix: (Units=1/GPa)
#
#
# Indices 1 2 3 4 5 6 
#
# 1 0.013294 -0.003849 -0.003839 0.000073 0.003169 -0.000062
# 2 -0.003849 0.020440 -0.007430 0.000039 0.005662 0.000053
# 3 -0.003839 -0.007430 0.020688 0.000047 0.000062 -0.000154
# 4 0.000073 0.000039 0.000047 0.124374 -0.000203 0.052103
# 5 0.003169 0.005662 0.000062 -0.000203 0.045292 0.000155
# 6 -0.000062 0.000053 -0.000154 0.052103 0.000155 0.136534
#
#
# Mechanical properties :
#
#
# Convention : Reuss Voigt Hill
#
# Bulk Modulus (GPa) = 41.34554 45.66736 43.50645
# Shear Modulus (GPa) = 12.53382 17.68976 15.11179
#
# Velocity S-wave (km/s) = 2.86216 3.40026 3.14275
# Velocity P-wave (km/s) = 6.15999 6.72780 6.45014
#
# Compressibility (1/GPa) = 0.02418641
#
# Stress axis : x y z
#
# Youngs Moduli (GPa) = 75.22092 48.92255 48.33722
#
# Poissons Ratio (x) = 0.18832 0.18554
# Poissons Ratio (y) = 0.28955 0.35916
# Poissons Ratio (z) = 0.28874 0.36351
#
# Static dielectric constant tensor:
#      x y z
#    x 3.114270 -0.000040 -0.104940 
#    y -0.000040 2.826290 0.000190 
#    z -0.104940 0.000190 2.947760 
# 
# 
# High freq. dielectric constant tensor:
#      x y z
#    x 1.593300 -0.000010 -0.012730 
#    y -0.000010 1.532920 0.000020 
#    z -0.012730 0.000020 1.577890 
# 
# From -- ./inp_files/136692.got.cif
#   From: 2010.06.25/outbox.cif.g09.slc.cpg/sg12_69_cif.got.tgz:136692.got - 2010.06.28 00:19:55.
