data_PCOD8078231
_publ_section_title
;
Structure prediction by ZEFSAII (Michael W. Deem and Ramdas Pophale) SiO2 
 PCOD8078231
Probable space group: C 2/M
;
_chemical_formula_sum "Si O2"
_cell_formula_units_Z 36
_cell_length_a 16.647743
_cell_length_b 9.347166
_cell_length_c 12.782070
_cell_angle_alpha 90.000000
_cell_angle_beta 114.313944
_cell_angle_gamma 90.000000
_cell_volume 1812.589073
_symmetry_space_group_name_H-M "C 2/M"
_symmetry_group_IT_number 12
_symmetry_cell_setting 'monoclinic'
loop_
_space_group_symop_operation_xyz
x,y,z
-x,y,-z
-x,-y,-z
x,-y,z
1/2+x,1/2+y,z
1/2-x,1/2+y,-z
1/2-x,1/2-y,-z
1/2+x,1/2-y,z
loop_
_atom_site_type_symbol
_atom_site_label
_atom_site_fract_x
_atom_site_fract_y
_atom_site_fract_z
Si Si1 0.667540 0.500000 0.302678
Si Si2 0.500000 0.748907 0.500000
Si Si3 0.994181 0.000000 0.656155
Si Si4 0.384703 0.500000 0.081162
Si Si5 0.625603 0.000000 0.584539
Si Si6 0.311130 0.000000 0.936346
Si Si7 0.332499 0.696160 0.881523
Si Si8 0.326327 0.000000 0.168615
O O1 0.611409 0.500000 0.379353
O O2 0.771081 0.500000 0.387425
O O3 0.641083 0.638392 0.218776
O O4 0.520861 0.644141 0.608762
O O5 0.582287 0.853739 0.517064
O O6 0.038788 0.000000 0.793269
O O7 0.291701 0.500000 0.091098
O O8 0.393854 0.637662 0.009244
O O9 0.604665 0.000000 0.699068
O O10 0.336855 0.866052 0.879301
O O11 0.368645 0.000000 0.075480
O O12 0.233549 0.642038 0.852715
#
# Coordination Sequence:
#
# PCOD8078231 Si02
#       8
#     4   4   4   4   4   4   8   4
#     4   9  21  40  58  79 116 155 171 221 289 345
#     4  10  24  40  58  88 102 140 202 242 264 330
#     4  11  24  38  58  84 112 145 191 227 285 321
#     4   9  18  30  54  75 120 146 174 227 276 321
#     4   9  20  41  62  77 115 141 185 241 285 309
#     4  10  16  26  52  94 110 139 188 226 253 343
#     4   8  17  30  50  87 111 143 186 211 269 344
#     4   8  15  28  52  77 115 144 171 219 284 319
#
# _framework density 19.861094000000001
#
# number of rings (size 3 to 8) (size 9 to 14) (size 15 to 20)
#    0.000    3.556    0.000    2.667    9.333    2.667 
#    0.000    2.222    0.000    1.333    0.000    0.000 
#    0.000    0.000    0.000    0.000    0.000    0.000 
#
# Total GULP energy -223014.008627 kJ/mol
# GULP energy per Si atom -12389.667146 kJ/mol
# Density = 1.981589 g / cm^3
# Si number density = 19.861094 Si / 1000 Ang^3
#
#
#
# Elastic Constant Matrix: (Units=GPa)
#
#
# Indices 1 2 3 4 5 6 
#
# 1 55.1434 17.4431 8.1333 0.0000 1.8537 0.0000
# 2 17.4431 172.8159 24.5917 0.0000 -1.2015 0.0000
# 3 8.1333 24.5917 59.4026 0.0000 18.6703 0.0000
# 4 0.0000 0.0000 0.0000 9.3762 0.0000 0.3649
# 5 1.8537 -1.2015 18.6703 0.0000 26.6203 0.0000
# 6 0.0000 0.0000 0.0000 0.3649 0.0000 3.3140
#
#
#
# Elastic Compliance Matrix: (Units=1/GPa)
#
#
# Indices 1 2 3 4 5 6 
#
# 1 0.018935 -0.001642 -0.001892 0.000000 -0.000066 0.000000
# 2 -0.001642 0.006440 -0.003295 0.000000 0.002716 0.000000
# 3 -0.001892 -0.003295 0.023683 0.000000 -0.016627 0.000000
# 4 0.000000 0.000000 0.000000 0.107112 0.000000 -0.011793
# 5 -0.000066 0.002716 -0.016627 0.000000 0.049354 0.000000
# 6 0.000000 0.000000 0.000000 -0.011793 0.000000 0.303049
#
#
# Mechanical properties :
#
#
# Convention : Reuss Voigt Hill
#
# Bulk Modulus (GPa) = 28.24842 43.07759 35.66301
# Shear Modulus (GPa) = 9.36273 23.67501 16.51887
#
# Velocity S-wave (km/s) = 2.17355 3.45632 2.88708
# Velocity P-wave (km/s) = 4.53354 6.13716 5.39526
#
# Compressibility (1/GPa) = 0.03540021
#
# Stress axis : x y z
#
# Youngs Moduli (GPa) = 52.81131 155.27923 42.22379
#
# Poissons Ratio (x) = 0.25504 0.07989
# Poissons Ratio (y) = 0.08674 0.13912
# Poissons Ratio (z) = 0.09992 0.51161
#
# Static dielectric constant tensor:
#      x y z
#    x 3.124310 0.000000 0.052740 
#    y 0.000000 3.557570 0.000000 
#    z 0.052740 0.000000 3.634150 
# 
# 
# High freq. dielectric constant tensor:
#      x y z
#    x 1.726570 0.000000 0.003440 
#    y 0.000000 1.773710 0.000000 
#    z 0.003440 0.000000 1.768300 
# 
# From -- ./inp_files/162883.got.cif
#   From: 2010.06.25/outbox.cif.g09.slc.cpg/sg12_82_cif.got.tgz:162883.got - 2010.06.28 00:19:55.
