data_PCOD8078101
_publ_section_title
;
Structure prediction by ZEFSAII (Michael W. Deem and Ramdas Pophale) SiO2 
 PCOD8078101
Probable space group: C 2/M
;
_chemical_formula_sum "Si O2"
_cell_formula_units_Z 48
_cell_length_a 13.769212
_cell_length_b 13.451064
_cell_length_c 18.460319
_cell_angle_alpha 90.000000
_cell_angle_beta 140.599404
_cell_angle_gamma 90.000000
_cell_volume 2170.200222
_symmetry_space_group_name_H-M "C 2/M"
_symmetry_group_IT_number 12
_symmetry_cell_setting 'monoclinic'
loop_
_space_group_symop_operation_xyz
x,y,z
-x,y,-z
-x,-y,-z
x,-y,z
1/2+x,1/2+y,z
1/2-x,1/2+y,-z
1/2-x,1/2-y,-z
1/2+x,1/2-y,z
loop_
_atom_site_type_symbol
_atom_site_label
_atom_site_fract_x
_atom_site_fract_y
_atom_site_fract_z
Si Si1 0.698641 0.692035 0.551580
Si Si2 0.893003 0.113555 0.349063
Si Si3 0.606966 0.195084 0.124575
Si Si4 0.989192 0.386355 0.781143
Si Si5 0.946171 0.390460 0.550416
Si Si6 0.766581 0.387472 0.188538
O O1 0.570587 0.632295 0.430668
O O2 0.651377 0.683713 0.608854
O O3 0.871625 0.648416 0.648014
O O4 0.691025 0.807991 0.520016
O O5 0.773813 0.141724 0.216299
O O6 0.869423 0.000000 0.358264
O O7 0.527290 0.179742 0.156554
O O8 0.626108 0.312989 0.120324
O O9 0.500000 0.149478 0.000000
O O10 0.949403 0.500000 0.778072
O O11 0.161870 0.376814 0.851200
O O12 0.887911 0.500000 0.542674
O O13 0.000000 0.395855 0.500000
O O14 0.097809 0.357355 0.679588
O O15 0.707913 0.500000 0.168067
#
# Coordination Sequence:
#
# PCOD8078101 Si02
#       6
#     8   8   8   8   8   8
#     4  10  15  30  53  80 112 148 190 229 281 348
#     4  10  18  30  51  82 115 150 189 234 288 348
#     4  11  22  38  62  87 116 153 202 252 300 340
#     4  10  22  39  62  89 119 158 198 238 295 363
#     4  10  17  29  52  81 115 153 191 233 286 343
#     4  10  22  41  60  86 119 157 202 242 292 360
#
# _framework density 22.117775000000002
#
# number of rings (size 3 to 8) (size 9 to 14) (size 15 to 20)
#    0.000    1.833    3.333    4.500    0.000    3.000 
#    0.000    0.000    0.000    3.000    0.000    0.000 
#    0.000    0.000    0.000    0.000    0.000    0.000 
#
# Total GULP energy -297457.476425 kJ/mol
# GULP energy per Si atom -12394.061518 kJ/mol
# Density = 2.206743 g / cm^3
# Si number density = 22.117775 Si / 1000 Ang^3
#
#
#
# Elastic Constant Matrix: (Units=GPa)
#
#
# Indices 1 2 3 4 5 6 
#
# 1 46.8020 26.1946 17.2435 -0.0001 -2.8356 0.0001
# 2 26.1946 132.2033 35.7162 0.0000 3.6234 0.0000
# 3 17.2435 35.7162 128.2748 -0.0005 -2.7568 0.0003
# 4 -0.0001 0.0000 -0.0005 -293.7912 -0.0002 215.9713
# 5 -2.8356 3.6234 -2.7568 -0.0002 15.3109 0.0002
# 6 0.0001 0.0000 0.0003 215.9713 0.0002 -109.1365
#
#
#
# Elastic Compliance Matrix: (Units=1/GPa)
#
#
# Indices 1 2 3 4 5 6 
#
# 1 0.024970 -0.004562 -0.001972 0.000000 0.005349 0.000000
# 2 -0.004562 0.009098 -0.001992 0.000000 -0.003357 0.000000
# 3 -0.001972 -0.001992 0.008651 0.000000 0.001664 0.000000
# 4 0.000000 0.000000 0.000000 0.007485 0.000000 0.014813
# 5 0.005349 -0.003357 0.001664 0.000000 0.067398 0.000000
# 6 0.000000 0.000000 0.000000 0.014813 0.000000 0.020150
#
#
# Mechanical properties :
#
#
# Convention : Reuss Voigt Hill
#
# Bulk Modulus (GPa) = 38.95759 51.73207 45.34483
# Shear Modulus (GPa) = 30.60733 -62.31499 -15.85383
#
# Velocity S-wave (km/s) = 3.72403 -5.31369 -2.68020
# Velocity P-wave (km/s) = 6.01191 3.76921 3.31181
#
# Compressibility (1/GPa) = 0.02566894
#
# Stress axis : x y z
#
# Youngs Moduli (GPa) = 40.04778 109.91264 115.59014
#
# Poissons Ratio (x) = 0.50137 0.22790
# Poissons Ratio (y) = 0.18268 0.23028
# Poissons Ratio (z) = 0.07896 0.21897
#
# Static dielectric constant tensor:
#      x y z
#    x 3.884450 0.000000 0.078740 
#    y 0.000000 4.246440 0.000000 
#    z 0.078740 0.000000 4.000030 
# 
# 
# High freq. dielectric constant tensor:
#      x y z
#    x 1.856240 0.000000 -0.004850 
#    y 0.000000 1.876820 0.000000 
#    z -0.004850 0.000000 1.852460 
# 
# From -- ./inp_files/270448.got.cif
#   From: 2010.06.25/outbox.cif.g09.slc.cpg/sg12_136_cif.got.tgz:270448.got - 2010.06.28 00:19:55.
