data_PCOD8078508
_publ_section_title
;
Structure prediction by ZEFSAII (Michael W. Deem and Ramdas Pophale) SiO2 
 PCOD8078508
Probable space group: C 2/M
;
_chemical_formula_sum "Si O2"
_cell_formula_units_Z 48
_cell_length_a 20.740319
_cell_length_b 8.686378
_cell_length_c 16.757173
_cell_angle_alpha 90.000000
_cell_angle_beta 115.255366
_cell_angle_gamma 90.000000
_cell_volume 2730.377888
_symmetry_space_group_name_H-M "C 2/M"
_symmetry_group_IT_number 12
_symmetry_cell_setting 'monoclinic'
loop_
_space_group_symop_operation_xyz
x,y,z
-x,y,-z
-x,-y,-z
x,-y,z
1/2+x,1/2+y,z
1/2-x,1/2+y,-z
1/2-x,1/2-y,-z
1/2+x,1/2-y,z
loop_
_atom_site_type_symbol
_atom_site_label
_atom_site_fract_x
_atom_site_fract_y
_atom_site_fract_z
Si Si1 0.602310 0.680110 0.574898
Si Si2 0.210159 0.681765 0.054543
Si Si3 0.029585 0.319887 0.403323
Si Si4 0.943848 0.819453 0.036486
Si Si5 0.469077 0.318796 0.228084
Si Si6 0.674293 0.681833 0.765321
O O1 0.605462 0.500000 0.557006
O O2 0.601891 0.774564 0.490688
O O3 0.531723 0.718252 0.588202
O O4 0.667825 0.731241 0.668155
O O5 0.213442 0.500000 0.048641
O O6 0.252129 0.740040 0.156373
O O7 0.250000 0.750000 0.000000
O O8 0.129528 0.734297 0.019359
O O9 0.014634 0.500000 0.404147
O O10 0.031407 0.269113 0.311265
O O11 0.976332 0.773272 0.139331
O O12 0.928129 0.000000 0.024263
O O13 0.000000 0.765558 0.000000
O O14 0.478427 0.500000 0.245847
O O15 0.392426 0.255876 0.217877
O O16 0.669809 0.500000 0.767877
#
# Coordination Sequence:
#
# PCOD8078508 Si02
#       6
#     8   8   8   8   8   8
#     4   9  15  26  41  59  88 127 160 190 237 293
#     4  11  20  33  52  76 103 133 170 209 252 300
#     4  10  17  24  37  63  94 121 154 198 244 287
#     4  10  21  37  54  73 100 134 173 214 254 300
#     4   9  16  30  47  64  91 129 166 197 241 300
#     4   8  15  27  45  67  93 125 162 198 236 293
#
# _framework density 17.579984
#
# number of rings (size 3 to 8) (size 9 to 14) (size 15 to 20)
#    0.000    2.500    1.667    4.500    0.000    1.000 
#    0.000    2.500    0.000    0.000    0.000    1.167 
#    0.000    0.000    0.000    0.000    0.000    0.000 
#
# Total GULP energy -297363.991231 kJ/mol
# GULP energy per Si atom -12390.166301 kJ/mol
# Density = 1.753997 g / cm^3
# Si number density = 17.579984 Si / 1000 Ang^3
#
#
#
# Elastic Constant Matrix: (Units=GPa)
#
#
# Indices 1 2 3 4 5 6 
#
# 1 61.4274 23.2025 56.0864 0.0000 -0.2195 0.0000
# 2 23.2025 51.4348 52.2676 0.0000 2.0732 0.0000
# 3 56.0864 52.2676 209.1229 0.0000 1.8190 0.0000
# 4 0.0000 0.0000 0.0000 24.4444 0.0000 3.4847
# 5 -0.2195 2.0732 1.8190 0.0000 15.9841 0.0000
# 6 0.0000 0.0000 0.0000 3.4847 0.0000 13.8505
#
#
#
# Elastic Compliance Matrix: (Units=1/GPa)
#
#
# Indices 1 2 3 4 5 6 
#
# 1 0.022670 -0.005492 -0.004721 0.000000 0.001561 0.000000
# 2 -0.005492 0.027504 -0.005375 0.000000 -0.003031 0.000000
# 3 -0.004721 -0.005375 0.007393 0.000000 -0.000209 0.000000
# 4 0.000000 0.000000 0.000000 0.042431 0.000000 -0.010676
# 5 0.001561 -0.003031 -0.000209 0.000000 0.063001 0.000000
# 6 0.000000 0.000000 0.000000 -0.010676 0.000000 0.074886
#
#
# Mechanical properties :
#
#
# Convention : Reuss Voigt Hill
#
# Bulk Modulus (GPa) = 37.89165 65.01091 51.45128
# Shear Modulus (GPa) = 17.99489 23.55103 20.77296
#
# Velocity S-wave (km/s) = 3.20285 3.66409 3.44121
# Velocity P-wave (km/s) = 5.93955 7.41358 6.71712
#
# Compressibility (1/GPa) = 0.02639104
#
# Stress axis : x y z
#
# Youngs Moduli (GPa) = 44.11136 36.35885 135.25914
#
# Poissons Ratio (x) = 0.19969 0.63855
# Poissons Ratio (y) = 0.24226 0.72700
# Poissons Ratio (z) = 0.20825 0.19542
#
# Static dielectric constant tensor:
#      x y z
#    x 1.822590 0.000000 -1.601620 
#    y 0.000000 3.083910 0.000000 
#    z -1.601620 0.000000 1.351520 
# 
# 
# High freq. dielectric constant tensor:
#      x y z
#    x 1.598590 0.000000 0.002060 
#    y 0.000000 1.669730 0.000000 
#    z 0.002060 0.000000 1.717170 
# 
# From -- ./inp_files/280531.got.cif
#   From: 2010.06.25/outbox.cif.g09.slc.cpg/sg12_141_cif.got.tgz:280531.got - 2010.06.28 00:19:55.
