data_PCOD8078419
_publ_section_title
;
Structure prediction by ZEFSAII (Michael W. Deem and Ramdas Pophale) SiO2 
 PCOD8078419
Probable space group: C 2/M
;
_chemical_formula_sum "Si O2"
_cell_formula_units_Z 40
_cell_length_a 9.031265
_cell_length_b 24.781141
_cell_length_c 16.093210
_cell_angle_alpha 90.000000
_cell_angle_beta 146.130611
_cell_angle_gamma 90.000000
_cell_volume 2007.256352
_symmetry_space_group_name_H-M "C 2/M"
_symmetry_group_IT_number 12
_symmetry_cell_setting 'monoclinic'
loop_
_space_group_symop_operation_xyz
x,y,z
-x,y,-z
-x,-y,-z
x,-y,z
1/2+x,1/2+y,z
1/2-x,1/2+y,-z
1/2-x,1/2-y,-z
1/2+x,1/2-y,z
loop_
_atom_site_type_symbol
_atom_site_label
_atom_site_fract_x
_atom_site_fract_y
_atom_site_fract_z
Si Si1 0.745167 0.208054 0.332699
Si Si2 0.266442 0.000000 0.955968
Si Si3 0.916942 0.884790 0.099525
Si Si4 0.287222 0.290733 0.158963
Si Si5 0.898376 0.616037 0.217620
Si Si6 0.325454 0.000000 0.161155
O O1 0.502408 0.248993 0.226132
O O2 0.818059 0.199363 0.270998
O O3 0.664412 0.151769 0.340756
O O4 0.000000 0.231157 0.500000
O O5 0.079686 0.053460 0.864867
O O6 0.500000 0.000000 0.000000
O O7 0.435324 0.000000 0.119281
O O8 0.821858 0.848062 0.130630
O O9 0.202845 0.863770 0.199916
O O10 0.720818 0.879374 0.930216
O O11 0.000000 0.266610 0.000000
O O12 0.941867 0.552903 0.260543
O O13 0.000000 0.000000 0.000000
#
# Coordination Sequence:
#
# PCOD8078419 Si02
#       6
#     8   4   8   8   8   4
#     4  12  27  43  60  87 126 164 200 250 315 370
#     4  10  18  28  52  91 136 146 185 248 317 336
#     4  10  19  34  59  94 120 153 196 258 293 350
#     4  12  24  40  64  91 116 156 212 257 302 354
#     4  10  19  36  60  87 126 157 200 242 308 355
#     4  10  16  32  57  91 124 157 195 250 301 350
#
# _framework density 19.927699
#
# number of rings (size 3 to 8) (size 9 to 14) (size 15 to 20)
#    0.000    1.200    6.000    3.000    5.600    0.000 
#    0.000    0.500    0.000    0.000    0.000    3.500 
#    0.000    0.000    0.000    0.000    0.000    0.000 
#
# Total GULP energy -247897.976918 kJ/mol
# GULP energy per Si atom -12394.898846 kJ/mol
# Density = 1.988234 g / cm^3
# Si number density = 19.927699 Si / 1000 Ang^3
#
#
#
# Elastic Constant Matrix: (Units=GPa)
#
#
# Indices 1 2 3 4 5 6 
#
# 1 140.0004 34.7283 35.6294 -0.0002 2.5011 -0.0002
# 2 34.7283 118.9946 29.5730 -0.0001 9.1210 0.0000
# 3 35.6294 29.5730 74.6134 -0.0005 -2.7188 -0.0004
# 4 -0.0002 -0.0001 -0.0005 4.0097 -0.0003 3.7741
# 5 2.5011 9.1210 -2.7188 -0.0003 18.3515 -0.0003
# 6 -0.0002 0.0000 -0.0004 3.7741 -0.0003 30.2422
#
#
#
# Elastic Compliance Matrix: (Units=1/GPa)
#
#
# Indices 1 2 3 4 5 6 
#
# 1 0.008415 -0.001531 -0.003444 0.000000 -0.000896 0.000000
# 2 -0.001531 0.010124 -0.003476 -0.000001 -0.005338 0.000000
# 3 -0.003444 -0.003476 0.016594 0.000002 0.004655 0.000000
# 4 0.000000 -0.000001 0.000002 0.282586 0.000005 -0.035266
# 5 -0.000896 -0.005338 0.004655 0.000005 0.057956 0.000000
# 6 0.000000 0.000000 0.000000 -0.035266 0.000000 0.037467
#
#
# Mechanical properties :
#
#
# Convention : Reuss Voigt Hill
#
# Bulk Modulus (GPa) = 54.85255 59.27442 57.06348
# Shear Modulus (GPa) = 11.46468 26.09921 18.78194
#
# Velocity S-wave (km/s) = 2.40117 3.62290 3.07335
# Velocity P-wave (km/s) = 5.93911 6.87821 6.42584
#
# Compressibility (1/GPa) = 0.01823069
#
# Stress axis : x y z
#
# Youngs Moduli (GPa) = 118.83221 98.77900 60.26163
#
# Poissons Ratio (x) = 0.15126 0.20755
# Poissons Ratio (y) = 0.18197 0.20945
# Poissons Ratio (z) = 0.40928 0.34333
#
# Static dielectric constant tensor:
#      x y z
#    x 3.903950 0.000000 0.188150 
#    y 0.000000 3.977900 0.000000 
#    z 0.188150 0.000000 3.148430 
# 
# 
# High freq. dielectric constant tensor:
#      x y z
#    x 1.802610 0.000000 0.017280 
#    y 0.000000 1.792690 0.000000 
#    z 0.017280 0.000000 1.712260 
# 
# From -- ./inp_files/259783.got.cif
#   From: 2010.06.25/outbox.cif.g09.slc.cpg/sg12_130_cif.got.tgz:259783.got - 2010.06.28 00:19:55.
