data_PCOD8078880
_publ_section_title
;
Structure prediction by ZEFSAII (Michael W. Deem and Ramdas Pophale) SiO2 
 PCOD8078880
Probable space group: C 2/M
;
_chemical_formula_sum "Si O2"
_cell_formula_units_Z 64
_cell_length_a 27.781484
_cell_length_b 13.469624
_cell_length_c 15.216552
_cell_angle_alpha 90.000000
_cell_angle_beta 136.965652
_cell_angle_gamma 90.000000
_cell_volume 3885.881255
_symmetry_space_group_name_H-M "C 2/M"
_symmetry_group_IT_number 12
_symmetry_cell_setting 'monoclinic'
loop_
_space_group_symop_operation_xyz
x,y,z
-x,y,-z
-x,-y,-z
x,-y,z
1/2+x,1/2+y,z
1/2-x,1/2+y,-z
1/2-x,1/2-y,-z
1/2+x,1/2-y,z
loop_
_atom_site_type_symbol
_atom_site_label
_atom_site_fract_x
_atom_site_fract_y
_atom_site_fract_z
Si Si1 0.502536 0.387060 0.742966
Si Si2 0.313989 0.614837 0.776216
Si Si3 0.051411 0.884061 0.145205
Si Si4 0.482454 0.779838 0.579437
Si Si5 0.661647 0.886009 0.614352
Si Si6 0.402128 0.888466 0.158490
Si Si7 0.860732 0.800726 0.017318
Si Si8 0.275556 0.111072 0.115881
O O1 0.479196 0.500000 0.693292
O O2 0.463944 0.340235 0.778254
O O3 0.486150 0.325477 0.633255
O O4 0.585493 0.382721 0.874167
O O5 0.319687 0.500000 0.813169
O O6 0.365515 0.636323 0.762872
O O7 0.231297 0.639444 0.647236
O O8 0.343202 0.682801 0.892869
O O9 0.034039 0.000000 0.127321
O O10 0.000000 0.838798 0.000000
O O11 0.500000 0.765907 0.500000
O O12 0.404398 0.818347 0.497832
O O13 0.537855 0.858836 0.691977
O O14 0.679642 0.861503 0.738603
O O15 0.639236 0.000000 0.571320
O O16 0.325488 0.883175 0.099387
O O17 0.417434 0.000000 0.143713
O O18 0.396736 0.808523 0.072913
O O19 0.789845 0.813103 0.981161
O O20 0.244846 0.000000 0.086609
#
# Coordination Sequence:
#
# PCOD8078880 Si02
#       8
#     8   8   8   8   8   8   8   8
#     4  10  20  32  48  72  98 123 151 191 240 288
#     4   9  16  28  50  76  97 118 147 191 244 286
#     4   9  15  27  49  75 100 118 142 187 243 293
#     4  11  21  33  48  65  91 130 169 198 225 267
#     4   9  17  29  47  68  91 121 158 199 233 264
#     4  10  20  30  43  65  92 125 163 199 233 267
#     4  10  17  27  45  70  97 120 145 189 240 292
#     4   9  16  27  45  66  91 121 154 194 239 276
#
# _framework density 16.469881000000001
#
# number of rings (size 3 to 8) (size 9 to 14) (size 15 to 20)
#    0.000    2.375    2.500    2.625    0.000    0.750 
#    0.000    0.625    0.000    3.000    0.000    7.875 
#    0.000    0.000    0.000    0.000    0.000    0.000 
#
# Total GULP energy -396529.803542 kJ/mol
# GULP energy per Si atom -12391.556361 kJ/mol
# Density = 1.643239 g / cm^3
# Si number density = 16.469881 Si / 1000 Ang^3
#
#
#
# Elastic Constant Matrix: (Units=GPa)
#
#
# Indices 1 2 3 4 5 6 
#
# 1 89.7953 30.6503 42.2624 0.0000 13.6757 0.0000
# 2 30.6503 72.2962 38.7585 0.0000 2.1500 0.0000
# 3 42.2624 38.7585 72.0765 0.0000 11.4413 0.0000
# 4 0.0000 0.0000 0.0000 15.2146 0.0000 2.0653
# 5 13.6757 2.1500 11.4413 0.0000 22.1564 0.0000
# 6 0.0000 0.0000 0.0000 2.0653 0.0000 16.6471
#
#
#
# Elastic Compliance Matrix: (Units=1/GPa)
#
#
# Indices 1 2 3 4 5 6 
#
# 1 0.016414 -0.003011 -0.007019 0.000000 -0.006215 0.000000
# 2 -0.003011 0.020289 -0.009942 0.000000 0.005024 0.000000
# 3 -0.007019 -0.009942 0.024504 0.000000 -0.007356 0.000000
# 4 0.000000 0.000000 0.000000 0.066852 0.000000 -0.008294
# 5 -0.006215 0.005024 -0.007356 0.000000 0.052281 0.000000
# 6 0.000000 0.000000 0.000000 -0.008294 0.000000 0.061100
#
#
# Mechanical properties :
#
#
# Convention : Reuss Voigt Hill
#
# Bulk Modulus (GPa) = 47.03053 50.83449 48.93251
# Shear Modulus (GPa) = 17.33271 18.97006 18.15138
#
# Velocity S-wave (km/s) = 3.24757 3.39750 3.32338
# Velocity P-wave (km/s) = 6.53298 6.80609 6.67093
#
# Compressibility (1/GPa) = 0.02126279
#
# Stress axis : x y z
#
# Youngs Moduli (GPa) = 60.92290 49.28702 40.81020
#
# Poissons Ratio (x) = 0.14842 0.28644
# Poissons Ratio (y) = 0.18346 0.40574
# Poissons Ratio (z) = 0.42760 0.49002
#
# Static dielectric constant tensor:
#      x y z
#    x 3.235110 0.000000 0.206310 
#    y 0.000000 2.944590 0.000000 
#    z 0.206310 0.000000 2.921940 
# 
# 
# High freq. dielectric constant tensor:
#      x y z
#    x 1.637590 0.000000 0.022760 
#    y 0.000000 1.608870 0.000000 
#    z 0.022760 0.000000 1.613330 
# 
# From -- ./inp_files/250843.got.cif
#   From: 2010.06.25/outbox.cif.g09.slc.cpg/sg12_126_cif.got.tgz:250843.got - 2010.06.28 00:19:55.
