data_PCOD8078105
_publ_section_title
;
Structure prediction by ZEFSAII (Michael W. Deem and Ramdas Pophale) SiO2 
 PCOD8078105
Probable space group: C 2/M
;
_chemical_formula_sum "Si O2"
_cell_formula_units_Z 48
_cell_length_a 18.232463
_cell_length_b 21.828226
_cell_length_c 9.090768
_cell_angle_alpha 90.000000
_cell_angle_beta 46.237164
_cell_angle_gamma 90.000000
_cell_volume 2612.926946
_symmetry_space_group_name_H-M "C 2/M"
_symmetry_group_IT_number 12
_symmetry_cell_setting 'monoclinic'
loop_
_space_group_symop_operation_xyz
x,y,z
-x,y,-z
-x,-y,-z
x,-y,z
1/2+x,1/2+y,z
1/2-x,1/2+y,-z
1/2-x,1/2-y,-z
1/2+x,1/2-y,z
loop_
_atom_site_type_symbol
_atom_site_label
_atom_site_fract_x
_atom_site_fract_y
_atom_site_fract_z
Si Si1 0.098120 0.648475 0.783139
Si Si2 0.104706 0.873038 0.928976
Si Si3 0.019481 0.131141 0.638287
Si Si4 0.706290 0.429964 0.531065
Si Si5 0.440663 0.767541 0.442695
Si Si6 0.222639 0.248242 0.710370
O O1 0.179487 0.595983 0.633502
O O2 0.064105 0.682747 0.680658
O O3 0.145691 0.695289 0.838626
O O4 0.000000 0.619224 0.000000
O O5 0.163046 0.926072 0.757828
O O6 0.175469 0.814247 0.831893
O O7 0.000000 0.852296 0.000000
O O8 0.072194 0.897639 0.135783
O O9 0.131603 0.108965 0.530036
O O10 0.006281 0.204262 0.680622
O O11 0.000000 0.109780 0.500000
O O12 0.708039 0.500000 0.477233
O O13 0.500000 0.796324 0.500000
O O14 0.328027 0.746648 0.652912
O O15 0.250000 0.250000 0.500000
#
# Coordination Sequence:
#
# PCOD8078105 Si02
#       6
#     8   8   8   8   8   8
#     4  11  20  36  57  79 111 148 185 226 272 319
#     4  10  18  33  58  83 108 143 183 225 272 334
#     4  10  21  37  55  87 121 139 170 229 290 336
#     4  11  22  38  58  79 104 149 199 229 264 325
#     4  10  19  34  56  86 117 140 172 220 281 337
#     4  10  15  31  57  81 112 143 174 222 274 329
#
# _framework density 18.370204000000001
#
# number of rings (size 3 to 8) (size 9 to 14) (size 15 to 20)
#    0.000    1.667    5.000    4.500    0.000    3.667 
#    3.000    2.500    0.000    0.500    0.000    0.000 
#    0.000    0.000    0.000    0.000    0.000    0.000 
#
# Total GULP energy -297406.355641 kJ/mol
# GULP energy per Si atom -12391.931485 kJ/mol
# Density = 1.832839 g / cm^3
# Si number density = 18.370204 Si / 1000 Ang^3
#
#
#
# Elastic Constant Matrix: (Units=GPa)
#
#
# Indices 1 2 3 4 5 6 
#
# 1 104.2686 22.3961 61.7886 0.0000 0.3660 0.0000
# 2 22.3961 62.3482 22.1571 0.0000 3.3952 0.0000
# 3 61.7886 22.1571 123.3629 0.0000 -5.3876 0.0000
# 4 0.0000 0.0000 0.0000 8.3729 0.0000 -2.0618
# 5 0.3660 3.3952 -5.3876 0.0000 29.4880 0.0000
# 6 0.0000 0.0000 0.0000 -2.0618 0.0000 13.1933
#
#
#
# Elastic Compliance Matrix: (Units=1/GPa)
#
#
# Indices 1 2 3 4 5 6 
#
# 1 0.014092 -0.002647 -0.006630 0.000000 -0.001081 0.000000
# 2 -0.002647 0.017823 -0.001979 0.000000 -0.002381 0.000000
# 3 -0.006630 -0.001979 0.011891 0.000000 0.002483 0.000000
# 4 0.000000 0.000000 0.000000 0.124213 0.000000 0.019411
# 5 -0.001081 -0.002381 0.002483 0.000000 0.034653 0.000000
# 6 0.000000 0.000000 0.000000 0.019411 0.000000 0.078829
#
#
# Mechanical properties :
#
#
# Convention : Reuss Voigt Hill
#
# Bulk Modulus (GPa) = 46.96380 55.85148 51.40764
# Shear Modulus (GPa) = 16.07145 22.45337 19.26241
#
# Velocity S-wave (km/s) = 2.96102 3.49989 3.24167
# Velocity P-wave (km/s) = 6.10826 6.84117 6.48508
#
# Compressibility (1/GPa) = 0.02129300
#
# Stress axis : x y z
#
# Youngs Moduli (GPa) = 70.96327 56.10786 84.09836
#
# Poissons Ratio (x) = 0.14851 0.55757
# Poissons Ratio (y) = 0.18783 0.16646
# Poissons Ratio (z) = 0.47048 0.11106
#
# Static dielectric constant tensor:
#      x y z
#    x 3.539690 0.000000 -0.201650 
#    y 0.000000 3.035700 0.000000 
#    z -0.201650 0.000000 3.714290 
# 
# 
# High freq. dielectric constant tensor:
#      x y z
#    x 1.700940 0.000000 -0.017310 
#    y 0.000000 1.674890 0.000000 
#    z -0.017310 0.000000 1.716350 
# 
# From -- ./inp_files/77258.got.cif
#   From: 2010.06.25/outbox.cif.g09.slc.cpg/sg12_39_cif.got.tgz:77258.got - 2010.06.28 00:19:55.
