data_PCOD8078830
_publ_section_title
;
Structure prediction by ZEFSAII (Michael W. Deem and Ramdas Pophale) SiO2 
 PCOD8078830
Probable space group: C 2/M
;
_chemical_formula_sum "Si O2"
_cell_formula_units_Z 64
_cell_length_a 25.655033
_cell_length_b 13.220094
_cell_length_c 14.840871
_cell_angle_alpha 90.000000
_cell_angle_beta 132.327686
_cell_angle_gamma 90.000000
_cell_volume 3721.265228
_symmetry_space_group_name_H-M "C 2/M"
_symmetry_group_IT_number 12
_symmetry_cell_setting 'monoclinic'
loop_
_space_group_symop_operation_xyz
x,y,z
-x,y,-z
-x,-y,-z
x,-y,z
1/2+x,1/2+y,z
1/2-x,1/2+y,-z
1/2-x,1/2-y,-z
1/2+x,1/2-y,z
loop_
_atom_site_type_symbol
_atom_site_label
_atom_site_fract_x
_atom_site_fract_y
_atom_site_fract_z
Si Si1 0.458444 0.119561 0.171951
Si Si2 0.237252 0.886381 0.914410
Si Si3 0.354242 0.114811 0.899141
Si Si4 0.670947 0.881872 0.651651
Si Si5 0.719533 0.255046 0.313311
Si Si6 0.763162 0.883807 0.504863
Si Si7 0.608168 0.116070 0.396444
Si Si8 0.347139 0.192668 0.177625
O O1 0.538472 0.163221 0.268134
O O2 0.416621 0.181836 0.198968
O O3 0.449268 0.000000 0.181214
O O4 0.426026 0.142512 0.035602
O O5 0.287617 0.873020 0.887227
O O6 0.170996 0.811089 0.830396
O O7 0.207157 0.000000 0.884122
O O8 0.280961 0.864701 0.056141
O O9 0.345333 0.192534 0.805585
O O10 0.358012 0.000000 0.865548
O O11 0.742862 0.818091 0.722183
O O12 0.617233 0.846941 0.510232
O O13 0.636670 0.858500 0.707558
O O14 0.689715 0.000000 0.662548
O O15 0.775240 0.175177 0.424778
O O16 0.693741 0.333031 0.362047
O O17 0.679607 0.865858 0.424618
O O18 0.785435 0.000000 0.522140
O O19 0.589169 0.000000 0.376864
#
# Coordination Sequence:
#
# PCOD8078830 Si02
#       8
#     8   8   8   8   8   8   8   8
#     4   9  17  29  44  64  93 126 153 179 216 267
#     4   9  17  28  41  62  95 126 151 182 219 260
#     4   9  16  27  43  65  92 117 147 182 215 263
#     4  10  18  28  44  69  97 118 146 188 223 266
#     4  10  17  28  45  67  90 116 143 178 229 271
#     4   9  18  31  47  66  92 116 141 185 229 275
#     4   8  16  30  44  61  90 122 150 184 226 266
#     4  10  17  27  43  66  94 125 153 180 218 262
#
# _framework density 17.198450999999999
#
# number of rings (size 3 to 8) (size 9 to 14) (size 15 to 20)
#    0.000    2.750    1.250    3.375    0.000    0.500 
#    0.000    2.500    0.000    3.000    0.000   14.000 
#    0.000   16.000    0.000    0.000    0.000    0.000 
#
# Total GULP energy -396540.042304 kJ/mol
# GULP energy per Si atom -12391.876322 kJ/mol
# Density = 1.715931 g / cm^3
# Si number density = 17.198451 Si / 1000 Ang^3
#
#
#
# Elastic Constant Matrix: (Units=GPa)
#
#
# Indices 1 2 3 4 5 6 
#
# 1 25.5377 9.7074 21.5850 0.0000 -3.1830 0.0000
# 2 9.7074 93.6060 32.6644 0.0000 -6.0755 0.0000
# 3 21.5850 32.6644 89.8241 0.0000 -3.1242 0.0000
# 4 0.0000 0.0000 0.0000 26.3300 0.0000 -8.2419
# 5 -3.1830 -6.0755 -3.1242 0.0000 22.7886 0.0000
# 6 0.0000 0.0000 0.0000 -8.2419 0.0000 15.5796
#
#
#
# Elastic Compliance Matrix: (Units=1/GPa)
#
#
# Indices 1 2 3 4 5 6 
#
# 1 0.049831 -0.000821 -0.011496 0.000000 0.005165 0.000000
# 2 -0.000821 0.012412 -0.004226 0.000000 0.002615 0.000000
# 3 -0.011496 -0.004226 0.015411 0.000000 -0.000620 0.000000
# 4 0.000000 0.000000 0.000000 0.045517 0.000000 0.024079
# 5 0.005165 0.002615 -0.000620 0.000000 0.045215 0.000000
# 6 0.000000 0.000000 0.000000 0.024079 0.000000 0.076925
#
#
# Mechanical properties :
#
#
# Convention : Reuss Voigt Hill
#
# Bulk Modulus (GPa) = 22.43745 37.43128 29.93437
# Shear Modulus (GPa) = 17.05016 22.60703 19.82859
#
# Velocity S-wave (km/s) = 3.15203 3.62951 3.39916
# Velocity P-wave (km/s) = 5.13046 6.27503 5.73139
#
# Compressibility (1/GPa) = 0.04456834
#
# Stress axis : x y z
#
# Youngs Moduli (GPa) = 20.06797 80.56404 64.89049
#
# Poissons Ratio (x) = 0.06612 0.74601
# Poissons Ratio (y) = 0.01647 0.27420
# Poissons Ratio (z) = 0.23071 0.34043
#
# Static dielectric constant tensor:
#      x y z
#    x 2.943380 0.000000 -0.150190 
#    y 0.000000 3.276770 0.000000 
#    z -0.150190 0.000000 3.306910 
# 
# 
# High freq. dielectric constant tensor:
#      x y z
#    x 1.630020 0.000000 -0.030100 
#    y 0.000000 1.657800 0.000000 
#    z -0.030100 0.000000 1.657140 
# 
# From -- ./inp_files/246377.got.cif
#   From: 2010.06.25/outbox.cif.g09.slc.cpg/sg12_124_cif.got.tgz:246377.got - 2010.06.28 00:19:55.
