data_PCOD8078827
_publ_section_title
;
Structure prediction by ZEFSAII (Michael W. Deem and Ramdas Pophale) SiO2 
 PCOD8078827
Probable space group: C 2/M
;
_chemical_formula_sum "Si O2"
_cell_formula_units_Z 48
_cell_length_a 24.345267
_cell_length_b 9.101101
_cell_length_c 15.199597
_cell_angle_alpha 90.000000
_cell_angle_beta 117.706562
_cell_angle_gamma 90.000000
_cell_volume 2981.609908
_symmetry_space_group_name_H-M "C 2/M"
_symmetry_group_IT_number 12
_symmetry_cell_setting 'monoclinic'
loop_
_space_group_symop_operation_xyz
x,y,z
-x,y,-z
-x,-y,-z
x,-y,z
1/2+x,1/2+y,z
1/2-x,1/2+y,-z
1/2-x,1/2-y,-z
1/2+x,1/2-y,z
loop_
_atom_site_type_symbol
_atom_site_label
_atom_site_fract_x
_atom_site_fract_y
_atom_site_fract_z
Si Si1 0.655796 0.672613 0.763677
Si Si2 0.286210 0.672535 0.821411
Si Si3 0.291700 0.170203 0.656531
Si Si4 0.827686 0.332011 0.493522
Si Si5 0.430353 0.829980 0.432669
Si Si6 0.188017 0.832121 0.972974
O O1 0.663471 0.500000 0.749899
O O2 0.718641 0.754324 0.782031
O O3 0.597964 0.735611 0.667407
O O4 0.640611 0.701803 0.857232
O O5 0.276352 0.500000 0.799074
O O6 0.319571 0.741933 0.760737
O O7 0.331141 0.705535 0.939977
O O8 0.221825 0.223781 0.586630
O O9 0.334360 0.201200 0.602747
O O10 0.289541 0.000000 0.679275
O O11 0.804872 0.500000 0.462962
O O12 0.893428 0.304380 0.496217
O O13 0.500000 0.774365 0.500000
O O14 0.428958 0.000000 0.403323
O O15 0.207173 0.000000 0.983915
O O16 0.250000 0.750000 0.000000
#
# Coordination Sequence:
#
# PCOD8078827 Si02
#       6
#     8   8   8   8   8   8
#     4  10  18  29  44  64  89 116 148 186 221 258
#     4  10  17  27  43  64  91 121 146 174 219 270
#     4  10  18  27  43  66  90 117 146 180 219 264
#     4   9  18  31  44  61  88 119 148 180 222 266
#     4  10  20  33  48  65  87 119 154 184 219 265
#     4   8  16  27  40  60  87 116 144 175 217 266
#
# _framework density 16.098685
#
# number of rings (size 3 to 8) (size 9 to 14) (size 15 to 20)
#    0.000    2.500    1.667    1.500    0.000    2.333 
#    0.000    0.000    0.000    0.000    0.000    1.167 
#    0.000    9.333    0.000    0.000    0.000    0.000 
#
# Total GULP energy -297344.254973 kJ/mol
# GULP energy per Si atom -12389.343957 kJ/mol
# Density = 1.606204 g / cm^3
# Si number density = 16.098685 Si / 1000 Ang^3
#
#
#
# Elastic Constant Matrix: (Units=GPa)
#
#
# Indices 1 2 3 4 5 6 
#
# 1 64.1002 27.3799 51.3504 0.0000 -8.3199 0.0000
# 2 27.3799 77.2546 61.1517 0.0000 -10.4111 0.0000
# 3 51.3504 61.1517 153.6888 0.0000 -25.9839 0.0000
# 4 0.0000 0.0000 0.0000 26.2857 0.0000 -4.3806
# 5 -8.3199 -10.4111 -25.9839 0.0000 21.3738 0.0000
# 6 0.0000 0.0000 0.0000 -4.3806 0.0000 15.0901
#
#
#
# Elastic Compliance Matrix: (Units=1/GPa)
#
#
# Indices 1 2 3 4 5 6 
#
# 1 0.021728 -0.002853 -0.006205 0.000000 -0.000475 0.000000
# 2 -0.002853 0.019270 -0.006690 0.000000 0.000143 0.000000
# 3 -0.006205 -0.006690 0.012943 0.000000 0.010060 0.000000
# 4 0.000000 0.000000 0.000000 0.039978 0.000000 0.011605
# 5 -0.000475 0.000143 0.010060 0.000000 0.058901 0.000000
# 6 0.000000 0.000000 0.000000 0.011605 0.000000 0.069638
#
#
# Mechanical properties :
#
#
# Convention : Reuss Voigt Hill
#
# Bulk Modulus (GPa) = 44.55364 63.86751 54.21057
# Shear Modulus (GPa) = 19.12517 22.89402 21.00959
#
# Velocity S-wave (km/s) = 3.45047 3.77517 3.61647
# Velocity P-wave (km/s) = 6.60377 7.66558 7.15440
#
# Compressibility (1/GPa) = 0.02244486
#
# Stress axis : x y z
#
# Youngs Moduli (GPa) = 46.02284 51.89348 77.26415
#
# Poissons Ratio (x) = 0.14806 0.47942
# Poissons Ratio (y) = 0.13131 0.51690
# Poissons Ratio (z) = 0.28557 0.34717
#
# Static dielectric constant tensor:
#      x y z
#    x 2.684100 0.000000 -0.423380 
#    y 0.000000 3.077160 0.000000 
#    z -0.423380 0.000000 3.763160 
# 
# 
# High freq. dielectric constant tensor:
#      x y z
#    x 1.556870 0.000000 -0.034420 
#    y 0.000000 1.632120 0.000000 
#    z -0.034420 0.000000 1.633360 
# 
# From -- ./inp_files/236584.got.cif
#   From: 2010.06.25/outbox.cif.g09.slc.cpg/sg12_119_cif.got.tgz:236584.got - 2010.06.28 00:19:55.
