data_PCOD8078751
_publ_section_title
;
Structure prediction by ZEFSAII (Michael W. Deem and Ramdas Pophale) SiO2 
 PCOD8078751
Probable space group: C 2/M
;
_chemical_formula_sum "Si O2"
_cell_formula_units_Z 64
_cell_length_a 19.783944
_cell_length_b 8.797906
_cell_length_c 26.912988
_cell_angle_alpha 90.000000
_cell_angle_beta 47.501372
_cell_angle_gamma 90.000000
_cell_volume 3453.778828
_symmetry_space_group_name_H-M "C 2/M"
_symmetry_group_IT_number 12
_symmetry_cell_setting 'monoclinic'
loop_
_space_group_symop_operation_xyz
x,y,z
-x,y,-z
-x,-y,-z
x,-y,z
1/2+x,1/2+y,z
1/2-x,1/2+y,-z
1/2-x,1/2-y,-z
1/2+x,1/2-y,z
loop_
_atom_site_type_symbol
_atom_site_label
_atom_site_fract_x
_atom_site_fract_y
_atom_site_fract_z
Si Si1 0.248795 0.321693 0.947224
Si Si2 0.450205 0.178099 0.172122
Si Si3 0.069059 0.180731 0.196187
Si Si4 0.547605 0.179663 0.024974
Si Si5 0.866888 0.320928 0.578533
Si Si6 0.462695 0.677856 0.450209
Si Si7 0.424939 0.678737 0.696074
Si Si8 0.258567 0.321696 0.711557
O O1 0.255963 0.500000 0.950663
O O2 0.333469 0.260179 0.872976
O O3 0.250000 0.250000 0.000000
O O4 0.154106 0.275880 0.967666
O O5 0.486718 0.256674 0.203794
O O6 0.502751 0.245704 0.097835
O O7 0.342950 0.214922 0.218673
O O8 0.468380 0.000000 0.168515
O O9 0.060879 0.248251 0.256116
O O10 0.063454 0.000000 0.198837
O O11 0.532284 0.000000 0.033211
O O12 0.500000 0.251624 0.000000
O O13 0.880974 0.500000 0.576549
O O14 0.875063 0.270893 0.516040
O O15 0.773189 0.267559 0.651770
O O16 0.946218 0.226656 0.566090
O O17 0.444651 0.500000 0.466226
O O18 0.484048 0.717469 0.381814
O O19 0.412141 0.500000 0.707530
O O20 0.331523 0.740108 0.716291
O O21 0.272293 0.500000 0.694729
#
# Coordination Sequence:
#
# PCOD8078751 Si02
#       8
#     8   8   8   8   8   8   8   8
#     4  10  19  32  52  74  99 129 165 204 245 293
#     4  10  20  34  52  73  99 131 167 206 247 295
#     4  10  20  33  51  73 100 133 164 200 248 299
#     4   9  18  31  50  77 101 125 163 211 251 284
#     4  10  17  26  44  72 103 131 160 200 250 299
#     4   9  15  27  47  70  99 131 166 205 242 288
#     4   8  16  30  49  74  98 126 166 206 243 286
#     4   9  18  32  50  71  97 130 169 208 245 289
#
# _framework density 18.530429000000002
#
# number of rings (size 3 to 8) (size 9 to 14) (size 15 to 20)
#    0.000    2.625    1.250    3.000    1.750    0.500 
#    0.000    3.125    0.000    2.250    0.000    0.000 
#    0.000    0.000    0.000    0.000    0.000    0.000 
#
# Total GULP energy -396578.860430 kJ/mol
# GULP energy per Si atom -12393.089388 kJ/mol
# Density = 1.848825 g / cm^3
# Si number density = 18.530429 Si / 1000 Ang^3
#
#
#
# Elastic Constant Matrix: (Units=GPa)
#
#
# Indices 1 2 3 4 5 6 
#
# 1 89.4348 14.7067 40.8698 -0.0002 19.4665 -0.0001
# 2 14.7067 21.8333 24.1720 -0.0005 3.3133 -0.0005
# 3 40.8698 24.1720 119.2205 -0.0001 26.8447 -0.0002
# 4 -0.0002 -0.0005 -0.0001 20.1195 0.0000 2.1503
# 5 19.4665 3.3133 26.8447 0.0000 26.1864 0.0000
# 6 -0.0001 -0.0005 -0.0002 2.1503 0.0000 17.5439
#
#
#
# Elastic Compliance Matrix: (Units=1/GPa)
#
#
# Indices 1 2 3 4 5 6 
#
# 1 0.014965 -0.006723 -0.001890 0.000000 -0.008337 0.000000
# 2 -0.006723 0.062874 -0.012711 0.000001 0.010073 0.000002
# 3 -0.001890 -0.012711 0.014216 0.000000 -0.011560 0.000000
# 4 0.000000 0.000001 0.000000 0.050363 0.000000 -0.006173
# 5 -0.008337 0.010073 -0.011560 0.000000 0.054961 0.000000
# 6 0.000000 0.000002 0.000000 -0.006173 0.000000 0.057756
#
#
# Mechanical properties :
#
#
# Convention : Reuss Voigt Hill
#
# Bulk Modulus (GPa) = 20.24003 43.33176 31.78589
# Shear Modulus (GPa) = 15.91077 22.81930 19.36504
#
# Velocity S-wave (km/s) = 2.93342 3.51301 3.23621
# Velocity P-wave (km/s) = 4.73493 6.31584 5.58164
#
# Compressibility (1/GPa) = 0.04940704
#
# Stress axis : x y z
#
# Youngs Moduli (GPa) = 66.82229 15.90479 70.34393
#
# Poissons Ratio (x) = 0.10692 0.13295
# Poissons Ratio (y) = 0.44923 0.89416
# Poissons Ratio (z) = 0.12629 0.20217
#
# Static dielectric constant tensor:
#      x y z
#    x 6.163120 0.000010 -1.339180 
#    y 0.000010 3.087770 0.000000 
#    z -1.339180 0.000000 4.986430 
# 
# 
# High freq. dielectric constant tensor:
#      x y z
#    x 1.684770 0.000000 0.004710 
#    y 0.000000 1.687630 0.000000 
#    z 0.004710 0.000000 1.741320 
# 
# From -- ./inp_files/365199.got.cif
#   From: 2010.06.25/outbox.cif.g09.slc.cpg/sg12_183_cif.got.tgz:365199.got - 2010.06.28 00:19:55.
