data_PCOD8078960
_publ_section_title
;
Structure prediction by ZEFSAII (Michael W. Deem and Ramdas Pophale) SiO2 
 PCOD8078960
Probable space group: C 2/M
;
_chemical_formula_sum "Si O2"
_cell_formula_units_Z 64
_cell_length_a 27.862189
_cell_length_b 8.788224
_cell_length_c 17.110336
_cell_angle_alpha 90.000000
_cell_angle_beta 77.084047
_cell_angle_gamma 90.000000
_cell_volume 4083.620814
_symmetry_space_group_name_H-M "C 2/M"
_symmetry_group_IT_number 12
_symmetry_cell_setting 'monoclinic'
loop_
_space_group_symop_operation_xyz
x,y,z
-x,y,-z
-x,-y,-z
x,-y,z
1/2+x,1/2+y,z
1/2-x,1/2+y,-z
1/2-x,1/2-y,-z
1/2+x,1/2-y,z
loop_
_atom_site_type_symbol
_atom_site_label
_atom_site_fract_x
_atom_site_fract_y
_atom_site_fract_z
Si Si1 0.575910 0.678328 0.332264
Si Si2 0.942369 0.670880 0.505372
Si Si3 0.452534 0.673368 0.900295
Si Si4 0.059509 0.819167 0.819080
Si Si5 0.463318 0.320733 0.343265
Si Si6 0.881869 0.827693 0.063162
Si Si7 0.196563 0.818095 0.029223
Si Si8 0.873345 0.321888 0.825531
O O1 0.584463 0.500000 0.323370
O O2 0.584563 0.730677 0.418379
O O3 0.521056 0.724316 0.323054
O O4 0.617188 0.762149 0.265515
O O5 0.921520 0.500000 0.514970
O O6 0.932633 0.741734 0.423617
O O7 0.000000 0.674640 0.500000
O O8 0.447721 0.500000 0.868709
O O9 0.508343 0.731046 0.877463
O O10 0.421745 0.785997 0.857476
O O11 0.432452 0.679656 0.995503
O O12 0.061209 0.762144 0.728890
O O13 0.104360 0.752490 0.857073
O O14 0.062983 0.000000 0.819497
O O15 0.458042 0.500000 0.355928
O O16 0.865570 0.000000 0.083669
O O17 0.837006 0.752223 0.030678
O O18 0.173753 0.762276 0.119428
O O19 0.197559 0.000000 0.029152
O O20 0.250000 0.750000 0.000000
O O21 0.862487 0.500000 0.827736
#
# Coordination Sequence:
#
# PCOD8078960 Si02
#       8
#     8   8   8   8   8   8   8   8
#     4  10  17  28  43  61  84 113 151 189 220 254
#     4   9  17  27  38  55  81 115 151 185 221 258
#     4   9  15  26  41  60  85 116 150 183 216 250
#     4   9  14  23  40  63  87 114 150 186 215 251
#     4   9  16  25  39  58  83 117 153 185 217 252
#     4   8  15  25  43  66  85 108 145 186 220 258
#     4  10  20  35  52  68  87 113 145 184 230 271
#     4  11  20  29  44  66  90 117 148 182 222 265
#
# _framework density 15.672366
#
# number of rings (size 3 to 8) (size 9 to 14) (size 15 to 20)
#    0.000    2.625    1.250    3.375    0.000    3.500 
#    0.000    0.000    0.000   10.500    0.000    0.000 
#    0.000    1.000    0.000    2.750    0.000    4.000 
#
# Total GULP energy -396548.289532 kJ/mol
# GULP energy per Si atom -12392.134048 kJ/mol
# Density = 1.563670 g / cm^3
# Si number density = 15.672366 Si / 1000 Ang^3
#
#
#
# Elastic Constant Matrix: (Units=GPa)
#
#
# Indices 1 2 3 4 5 6 
#
# 1 68.0820 21.5777 55.4480 0.0000 2.1100 0.0000
# 2 21.5777 59.8317 36.1724 0.0000 -1.2663 0.0000
# 3 55.4480 36.1724 120.9945 0.0000 8.6866 0.0000
# 4 0.0000 0.0000 0.0000 20.9735 0.0000 -5.2099
# 5 2.1100 -1.2663 8.6866 0.0000 16.4933 0.0000
# 6 0.0000 0.0000 0.0000 -5.2099 0.0000 12.2143
#
#
#
# Elastic Compliance Matrix: (Units=1/GPa)
#
#
# Indices 1 2 3 4 5 6 
#
# 1 0.023797 -0.002250 -0.010395 0.000000 0.002258 0.000000
# 2 -0.002250 0.021013 -0.005599 0.000000 0.004850 0.000000
# 3 -0.010395 -0.005599 0.015213 0.000000 -0.007112 0.000000
# 4 0.000000 0.000000 0.000000 0.053330 0.000000 0.022747
# 5 0.002258 0.004850 -0.007112 0.000000 0.064460 0.000000
# 6 0.000000 0.000000 0.000000 0.022747 0.000000 0.091574
#
#
# Mechanical properties :
#
#
# Convention : Reuss Voigt Hill
#
# Bulk Modulus (GPa) = 42.48993 52.81159 47.65076
# Shear Modulus (GPa) = 15.93780 18.98355 17.46068
#
# Velocity S-wave (km/s) = 3.19240 3.48411 3.34144
# Velocity P-wave (km/s) = 6.38426 7.06794 6.73478
#
# Compressibility (1/GPa) = 0.02353499
#
# Stress axis : x y z
#
# Youngs Moduli (GPa) = 42.02161 47.59039 65.73315
#
# Poissons Ratio (x) = 0.10708 0.68329
# Poissons Ratio (y) = 0.09455 0.36804
# Poissons Ratio (z) = 0.43681 0.26646
#
# Static dielectric constant tensor:
#      x y z
#    x 2.741310 0.000000 0.176120 
#    y 0.000000 2.832700 0.000000 
#    z 0.176120 0.000000 3.227420 
# 
# 
# High freq. dielectric constant tensor:
#      x y z
#    x 1.546910 0.000000 0.012570 
#    y 0.000000 1.585690 0.000000 
#    z 0.012570 0.000000 1.607330 
# 
# From -- ./inp_files/294553.got.cif
#   From: 2010.06.25/outbox.cif.g09.slc.cpg/sg12_148_cif.got.tgz:294553.got - 2010.06.28 00:19:55.
