data_PCOD8078226
_publ_section_title
;
Structure prediction by ZEFSAII (Michael W. Deem and Ramdas Pophale) SiO2 
 PCOD8078226
Probable space group: C 2/M
;
_chemical_formula_sum "Si O2"
_cell_formula_units_Z 64
_cell_length_a 22.502308
_cell_length_b 12.909711
_cell_length_c 28.523032
_cell_angle_alpha 90.000000
_cell_angle_beta 154.327351
_cell_angle_gamma 90.000000
_cell_volume 3589.687863
_symmetry_space_group_name_H-M "C 2/M"
_symmetry_group_IT_number 12
_symmetry_cell_setting 'monoclinic'
loop_
_space_group_symop_operation_xyz
x,y,z
-x,y,-z
-x,-y,-z
x,-y,z
1/2+x,1/2+y,z
1/2-x,1/2+y,-z
1/2-x,1/2-y,-z
1/2+x,1/2-y,z
loop_
_atom_site_type_symbol
_atom_site_label
_atom_site_fract_x
_atom_site_fract_y
_atom_site_fract_z
Si Si1 0.005192 0.122059 0.723175
Si Si2 0.040601 0.879985 0.416583
Si Si3 0.434896 0.878736 0.802728
Si Si4 0.838011 0.615639 0.384087
Si Si5 0.709808 0.253644 0.374890
Si Si6 0.848072 0.614636 0.893633
Si Si7 0.284304 0.886049 0.955552
Si Si8 0.288330 0.299044 0.285496
O O1 0.027788 0.140600 0.683290
O O2 0.869279 0.181777 0.641954
O O3 0.131656 0.165448 0.846641
O O4 0.987253 0.000000 0.719760
O O5 0.179846 0.815739 0.519831
O O6 0.940926 0.848102 0.389259
O O7 0.077944 0.000000 0.448986
O O8 0.396742 0.819615 0.728292
O O9 0.313415 0.865644 0.754210
O O10 0.450923 0.000000 0.803878
O O11 0.583056 0.830983 0.926222
O O12 0.776821 0.500000 0.335625
O O13 0.783341 0.666401 0.392571
O O14 0.791541 0.681682 0.306017
O O15 0.000000 0.611926 0.500000
O O16 0.833731 0.500000 0.859487
O O17 0.803108 0.604006 0.914059
O O18 0.764510 0.699918 0.805280
O O19 0.000000 0.656645 0.000000
O O20 0.275464 0.000000 0.972020
#
# Coordination Sequence:
#
# PCOD8078226 Si02
#       8
#     8   8   8   8   8   8   8   8
#     4  10  21  36  55  75 100 136 180 223 253 295
#     4  11  21  34  53  81 112 134 162 213 269 321
#     4  10  20  32  51  80 113 139 164 207 262 321
#     4  10  21  38  54  71  99 136 183 224 252 296
#     4  11  22  36  52  75 102 143 180 210 257 311
#     4  10  16  26  49  81 114 138 162 205 261 324
#     4   9  17  30  49  78 106 134 170 210 258 304
#     4  11  19  31  54  84 107 137 170 206 267 321
#
# _framework density 17.828848000000001
#
# number of rings (size 3 to 8) (size 9 to 14) (size 15 to 20)
#    0.000    1.750    3.750    2.250    0.000    0.500 
#    0.000    1.875    0.000    1.125    0.000    0.875 
#    0.000    0.000    0.000    0.000    0.000    0.000 
#
# Total GULP energy -396420.674262 kJ/mol
# GULP energy per Si atom -12388.146071 kJ/mol
# Density = 1.778827 g / cm^3
# Si number density = 17.828848 Si / 1000 Ang^3
#
#
#
# Elastic Constant Matrix: (Units=GPa)
#
#
# Indices 1 2 3 4 5 6 
#
# 1 55.1282 29.2971 16.1176 -0.0075 8.2191 -0.0021
# 2 29.2971 92.1888 40.1428 0.0054 -0.3508 0.0046
# 3 16.1176 40.1428 107.5655 -0.0110 2.4315 -0.0016
# 4 -0.0075 0.0054 -0.0110 -57.1513 -0.0101 -25.7360
# 5 8.2191 -0.3508 2.4315 -0.0101 29.0473 -0.0028
# 6 -0.0021 0.0046 -0.0016 -25.7360 -0.0028 13.4930
#
#
#
# Elastic Compliance Matrix: (Units=1/GPa)
#
#
# Indices 1 2 3 4 5 6 
#
# 1 0.023067 -0.007063 -0.000672 -0.000002 -0.006556 0.000000
# 2 -0.007063 0.015124 -0.004644 0.000003 0.002570 0.000000
# 3 -0.000672 -0.004644 0.011149 -0.000002 -0.000799 -0.000001
# 4 -0.000002 0.000003 -0.000002 -0.009413 -0.000004 -0.017953
# 5 -0.006556 0.002570 -0.000799 -0.000004 0.036380 -0.000002
# 6 0.000000 0.000000 -0.000001 -0.017953 -0.000002 0.039869
#
#
# Mechanical properties :
#
#
# Convention : Reuss Voigt Hill
#
# Bulk Modulus (GPa) = 40.68147 47.33305 44.00726
# Shear Modulus (GPa) = 33.52858 8.36613 20.94736
#
# Velocity S-wave (km/s) = 4.34127 2.16856 3.43142
# Velocity P-wave (km/s) = 6.92793 5.73380 6.35895
#
# Compressibility (1/GPa) = 0.02458122
#
# Stress axis : x y z
#
# Youngs Moduli (GPa) = 43.35210 66.12130 89.69773
#
# Poissons Ratio (x) = 0.46700 0.06031
# Poissons Ratio (y) = 0.30618 0.41655
# Poissons Ratio (z) = 0.02915 0.30706
#
# Static dielectric constant tensor:
#      x y z
#    x 3.180860 0.000000 0.084630 
#    y 0.000000 3.232390 0.000000 
#    z 0.084630 0.000000 3.504620 
# 
# 
# High freq. dielectric constant tensor:
#      x y z
#    x 1.682410 0.000000 0.010480 
#    y 0.000000 1.659000 0.000000 
#    z 0.010480 0.000000 1.705340 
# 
# From -- ./inp_files/366044.got.cif
#   From: 2010.06.25/outbox.cif.g09.slc.cpg/sg12_184_cif.got.tgz:366044.got - 2010.06.28 00:19:55.
