data_PCOD8078321
_publ_section_title
;
Structure prediction by ZEFSAII (Michael W. Deem and Ramdas Pophale) SiO2 
 PCOD8078321
Probable space group: C 2/M
;
_chemical_formula_sum "Si O2"
_cell_formula_units_Z 48
_cell_length_a 14.215705
_cell_length_b 18.902805
_cell_length_c 16.522897
_cell_angle_alpha 90.000000
_cell_angle_beta 36.773494
_cell_angle_gamma 90.000000
_cell_volume 2658.006814
_symmetry_space_group_name_H-M "C 2/M"
_symmetry_group_IT_number 12
_symmetry_cell_setting 'monoclinic'
loop_
_space_group_symop_operation_xyz
x,y,z
-x,y,-z
-x,-y,-z
x,-y,z
1/2+x,1/2+y,z
1/2-x,1/2+y,-z
1/2-x,1/2-y,-z
1/2+x,1/2-y,z
loop_
_atom_site_type_symbol
_atom_site_label
_atom_site_fract_x
_atom_site_fract_y
_atom_site_fract_z
Si Si1 0.587801 0.721511 0.322946
Si Si2 0.588574 0.877297 0.355206
Si Si3 0.935272 0.920234 0.129767
Si Si4 0.745034 0.695103 0.372472
Si Si5 0.697240 0.919616 0.544477
Si Si6 0.443536 0.330804 0.273056
O O1 0.639753 0.802841 0.280059
O O2 0.702399 0.681790 0.307358
O O3 0.407112 0.722372 0.475362
O O4 0.588999 0.682276 0.234955
O O5 0.500000 0.862211 0.500000
O O6 0.746096 0.920987 0.262520
O O7 0.478229 0.920815 0.370560
O O8 0.008356 0.870579 0.149242
O O9 0.994827 0.000000 0.103491
O O10 0.000000 0.891338 0.000000
O O11 0.804102 0.620957 0.368596
O O12 0.875599 0.755137 0.292948
O O13 0.811190 0.880403 0.403540
O O14 0.754187 0.000000 0.519198
#
# Coordination Sequence:
#
# PCOD8078321 Si02
#       6
#     8   8   8   8   8   8
#     4  10  16  29  52  80 100 136 176 212 258 307
#     4  12  18  32  58  82 104 132 178 224 257 309
#     4  11  24  38  51  77 115 142 165 213 274 315
#     4  10  17  31  49  76 113 136 167 218 268 301
#     4  11  20  29  49  82 108 134 176 218 262 310
#     4  11  18  32  54  73 104 141 178 212 257 315
#
# _framework density 18.058644000000001
#
# number of rings (size 3 to 8) (size 9 to 14) (size 15 to 20)
#    0.000    1.167    8.333    2.000    0.000    0.667 
#    0.000    8.333    0.000    0.000    0.000    0.000 
#    0.000    4.667    0.000    0.000    0.000    0.000 
#
# Total GULP energy -297578.709175 kJ/mol
# GULP energy per Si atom -12399.112882 kJ/mol
# Density = 1.801754 g / cm^3
# Si number density = 18.058644 Si / 1000 Ang^3
#
#
#
# Elastic Constant Matrix: (Units=GPa)
#
#
# Indices 1 2 3 4 5 6 
#
# 1 146.6797 57.0798 24.0646 -0.0019 24.4632 0.0021
# 2 57.0798 102.9840 19.6377 -0.0020 16.4986 0.0028
# 3 24.0646 19.6377 38.4847 0.0012 17.3968 0.0082
# 4 -0.0019 -0.0020 0.0012 14.7187 0.0013 7.9358
# 5 24.4632 16.4986 17.3968 0.0013 23.0435 -0.0042
# 6 0.0021 0.0028 0.0082 7.9358 -0.0042 14.5090
#
#
#
# Elastic Compliance Matrix: (Units=1/GPa)
#
#
# Indices 1 2 3 4 5 6 
#
# 1 0.009681 -0.004125 -0.000968 0.000003 -0.006593 -0.000004
# 2 -0.004125 0.012976 -0.002766 0.000003 -0.002824 -0.000003
# 3 -0.000968 -0.002766 0.040444 0.000021 -0.027525 -0.000042
# 4 0.000003 0.000003 0.000021 0.096356 -0.000037 -0.052702
# 5 -0.006593 -0.002824 -0.027525 -0.000037 0.073198 0.000059
# 6 -0.000004 -0.000003 -0.000042 -0.052702 0.000059 0.097749
#
#
# Mechanical properties :
#
#
# Convention : Reuss Voigt Hill
#
# Bulk Modulus (GPa) = 21.10459 54.41252 37.75856
# Shear Modulus (GPa) = 13.81536 22.94533 18.38034
#
# Velocity S-wave (km/s) = 2.76891 3.56842 3.19378
# Velocity P-wave (km/s) = 4.68344 6.86837 5.87831
#
# Compressibility (1/GPa) = 0.04738306
#
# Stress axis : x y z
#
# Youngs Moduli (GPa) = 103.29185 77.06356 24.72575
#
# Poissons Ratio (x) = 0.31789 0.02394
# Poissons Ratio (y) = 0.42608 0.06838
# Poissons Ratio (z) = 0.10003 0.21314
#
# Static dielectric constant tensor:
#      x y z
#    x 3.833360 -0.000010 0.100310 
#    y -0.000010 3.295260 0.000010 
#    z 0.100310 0.000010 2.823020 
# 
# 
# High freq. dielectric constant tensor:
#      x y z
#    x 1.714910 0.000000 0.004630 
#    y 0.000000 1.695850 0.000000 
#    z 0.004630 0.000000 1.634910 
# 
# From -- ./inp_files/61687.got.cif
#   From: 2010.06.25/outbox.cif.g09.slc.cpg/sg12_31_cif.got.tgz:61687.got - 2010.06.28 00:19:55.
