data_PCOD8078525
_publ_section_title
;
Structure prediction by ZEFSAII (Michael W. Deem and Ramdas Pophale) SiO2 
 PCOD8078525
Probable space group: C 2/M
;
_chemical_formula_sum "Si O2"
_cell_formula_units_Z 64
_cell_length_a 22.151561
_cell_length_b 23.717501
_cell_length_c 9.230396
_cell_angle_alpha 90.000000
_cell_angle_beta 108.301373
_cell_angle_gamma 90.000000
_cell_volume 4604.166671
_symmetry_space_group_name_H-M "C 2/M"
_symmetry_group_IT_number 12
_symmetry_cell_setting 'monoclinic'
loop_
_space_group_symop_operation_xyz
x,y,z
-x,y,-z
-x,-y,-z
x,-y,z
1/2+x,1/2+y,z
1/2-x,1/2+y,-z
1/2-x,1/2-y,-z
1/2+x,1/2-y,z
loop_
_atom_site_type_symbol
_atom_site_label
_atom_site_fract_x
_atom_site_fract_y
_atom_site_fract_z
Si Si1 0.843133 0.263160 0.461916
Si Si2 0.049292 0.778372 0.293817
Si Si3 0.222891 0.828653 0.403800
Si Si4 0.122961 0.180152 0.088512
Si Si5 0.406059 0.718267 0.232812
Si Si6 0.425109 0.437590 0.924240
Si Si7 0.345305 0.437951 0.583341
Si Si8 0.430875 0.376315 0.459446
O O1 0.903146 0.271604 0.616254
O O2 0.802949 0.207715 0.479889
O O3 0.797863 0.317857 0.437999
O O4 0.866965 0.257329 0.313963
O O5 0.063155 0.797567 0.139580
O O6 0.067995 0.830068 0.412212
O O7 0.977348 0.757639 0.260828
O O8 0.186979 0.811529 0.228547
O O9 0.211704 0.894865 0.424366
O O10 0.110735 0.115127 0.028115
O O11 0.129746 0.217073 0.948288
O O12 0.412524 0.654544 0.296729
O O13 0.405911 0.500000 0.972783
O O14 0.403777 0.434762 0.740603
O O15 0.500000 0.428865 0.000000
O O16 0.314691 0.500000 0.553498
O O17 0.377826 0.423073 0.454016
O O18 0.500000 0.405414 0.500000
#
# Coordination Sequence:
#
# PCOD8078525 Si02
#       8
#     8   8   8   8   8   8   8   8
#     4   9  16  28  44  54  76 103 132 169 190 240
#     4   9  15  27  40  58  77 102 131 158 197 236
#     4   9  17  30  41  56  74 105 142 158 196 234
#     4  10  17  25  39  56  78 106 129 164 196 231
#     4  10  17  24  41  60  81  99 125 167 204 229
#     4   9  16  24  35  50  70 101 136 163 189 221
#     4  10  17  28  41  54  75 102 137 171 193 226
#     4   9  16  26  36  53  77 101 131 159 193 229
#
# _framework density 13.900452
#
# number of rings (size 3 to 8) (size 9 to 14) (size 15 to 20)
#    0.000    2.625    5.000    2.250    1.750    0.750 
#    0.000    0.625    0.000    0.000    0.000    0.000 
#    0.000    2.000    0.000    0.000    0.000   16.250 
#
# Total GULP energy -396476.710140 kJ/mol
# GULP energy per Si atom -12389.897192 kJ/mol
# Density = 1.386881 g / cm^3
# Si number density = 13.900452 Si / 1000 Ang^3
#
#
#
# Elastic Constant Matrix: (Units=GPa)
#
#
# Indices 1 2 3 4 5 6 
#
# 1 80.0920 42.5963 27.0415 0.0000 -0.9824 0.0000
# 2 42.5963 55.7475 18.5319 0.0000 4.9157 0.0000
# 3 27.0415 18.5319 62.6754 0.0000 -7.7960 0.0000
# 4 0.0000 0.0000 0.0000 10.4871 0.0000 0.8575
# 5 -0.9824 4.9157 -7.7960 0.0000 17.5090 0.0000
# 6 0.0000 0.0000 0.0000 0.8575 0.0000 16.9572
#
#
#
# Elastic Compliance Matrix: (Units=1/GPa)
#
#
# Indices 1 2 3 4 5 6 
#
# 1 0.022637 -0.016124 -0.004529 0.000000 0.003781 0.000000
# 2 -0.016124 0.032710 -0.004202 0.000000 -0.011959 0.000000
# 3 -0.004529 -0.004202 0.020396 0.000000 0.010007 0.000000
# 4 0.000000 0.000000 0.000000 0.095751 0.000000 -0.004842
# 5 0.003781 -0.011959 0.010007 0.000000 0.065139 0.000000
# 6 0.000000 0.000000 0.000000 -0.004842 0.000000 0.059217
#
#
# Mechanical properties :
#
#
# Convention : Reuss Voigt Hill
#
# Bulk Modulus (GPa) = 38.41392 41.65046 40.03219
# Shear Modulus (GPa) = 14.11478 16.34702 15.23090
#
# Velocity S-wave (km/s) = 3.19002 3.43301 3.31375
# Velocity P-wave (km/s) = 6.42365 6.76332 6.59568
#
# Compressibility (1/GPa) = 0.02603223
#
# Stress axis : x y z
#
# Youngs Moduli (GPa) = 44.17601 30.57157 49.02804
#
# Poissons Ratio (x) = 0.49295 0.22204
# Poissons Ratio (y) = 0.71231 0.20603
# Poissons Ratio (z) = 0.20006 0.12847
#
# Static dielectric constant tensor:
#      x y z
#    x 2.740970 0.000000 -0.005910 
#    y 0.000000 2.556550 0.000000 
#    z -0.005910 0.000000 2.748930 
# 
# 
# High freq. dielectric constant tensor:
#      x y z
#    x 1.511290 0.000000 -0.004840 
#    y 0.000000 1.485230 0.000000 
#    z -0.004840 0.000000 1.528840 
# 
# From -- ./inp_files/99404.got.cif
#   From: 2010.06.25/outbox.cif.g09.slc.cpg/sg12_50_cif.got.tgz:99404.got - 2010.06.28 00:19:55.
