data_PCOD8078433
_publ_section_title
;
Structure prediction by ZEFSAII (Michael W. Deem and Ramdas Pophale) SiO2 
 PCOD8078433
Probable space group: C 2/M
;
_chemical_formula_sum "Si O2"
_cell_formula_units_Z 48
_cell_length_a 17.349573
_cell_length_b 16.861171
_cell_length_c 8.587093
_cell_angle_alpha 90.000000
_cell_angle_beta 85.650912
_cell_angle_gamma 90.000000
_cell_volume 2504.784389
_symmetry_space_group_name_H-M "C 2/M"
_symmetry_group_IT_number 12
_symmetry_cell_setting 'monoclinic'
loop_
_space_group_symop_operation_xyz
x,y,z
-x,y,-z
-x,-y,-z
x,-y,z
1/2+x,1/2+y,z
1/2-x,1/2+y,-z
1/2-x,1/2-y,-z
1/2+x,1/2-y,z
loop_
_atom_site_type_symbol
_atom_site_label
_atom_site_fract_x
_atom_site_fract_y
_atom_site_fract_z
Si Si1 0.156310 0.192564 0.339387
Si Si2 0.041455 0.272124 0.149737
Si Si3 0.340824 0.911085 0.941108
Si Si4 0.293781 0.088569 0.305183
Si Si5 0.109878 0.265754 0.656087
Si Si6 0.731362 0.703946 0.843981
O O1 0.096678 0.201278 0.203616
O O2 0.201554 0.108420 0.327357
O O3 0.112625 0.206751 0.508577
O O4 0.221950 0.259438 0.308642
O O5 0.088950 0.353180 0.114718
O O6 0.977960 0.289277 0.292686
O O7 0.000000 0.242840 0.000000
O O8 0.261178 0.885959 0.863850
O O9 0.362815 0.000000 0.886641
O O10 0.325156 0.905719 0.125726
O O11 0.344114 0.152879 0.392426
O O12 0.305540 0.000000 0.370860
O O13 0.143007 0.216822 0.803130
O O14 0.750000 0.750000 0.000000
#
# Coordination Sequence:
#
# PCOD8078433 Si02
#       6
#     8   8   8   8   8   8
#     4  10  21  35  54  80 110 143 187 223 266 323
#     4  11  21  35  56  80 109 144 185 222 264 323
#     4  10  20  33  54  85 114 141 178 227 271 319
#     4  10  19  34  57  82 110 141 179 227 276 319
#     4  11  20  35  55  83 111 146 180 223 270 324
#     4  10  16  33  55  76 105 140 189 221 253 312
#
# _framework density 19.163326999999999
#
# number of rings (size 3 to 8) (size 9 to 14) (size 15 to 20)
#    0.000    1.667    5.000    3.500    0.000    1.000 
#    0.000    7.500    0.000    8.500    0.000    0.000 
#    0.000    0.000    0.000    0.000    0.000    0.000 
#
# Total GULP energy -297374.965751 kJ/mol
# GULP energy per Si atom -12390.623573 kJ/mol
# Density = 1.911971 g / cm^3
# Si number density = 19.163327 Si / 1000 Ang^3
#
#
#
# Elastic Constant Matrix: (Units=GPa)
#
#
# Indices 1 2 3 4 5 6 
#
# 1 96.7944 40.6032 19.9890 0.0000 -12.7673 0.0000
# 2 40.6032 38.8643 19.7402 0.0000 -9.9717 0.0000
# 3 19.9890 19.7402 69.0610 0.0000 -16.2709 0.0000
# 4 0.0000 0.0000 0.0000 18.8737 0.0000 -3.2385
# 5 -12.7673 -9.9717 -16.2709 0.0000 29.9969 0.0000
# 6 0.0000 0.0000 0.0000 -3.2385 0.0000 23.4434
#
#
#
# Elastic Compliance Matrix: (Units=1/GPa)
#
#
# Indices 1 2 3 4 5 6 
#
# 1 0.018475 -0.019114 0.000541 0.000000 0.001803 0.000000
# 2 -0.019114 0.050889 -0.007962 0.000000 0.004462 0.000000
# 3 0.000541 -0.007962 0.018379 0.000000 0.007552 0.000000
# 4 0.000000 0.000000 0.000000 0.054270 0.000000 0.007497
# 5 0.001803 0.004462 0.007552 0.000000 0.039684 0.000000
# 6 0.000000 0.000000 0.000000 0.007497 0.000000 0.043692
#
#
# Mechanical properties :
#
#
# Convention : Reuss Voigt Hill
#
# Bulk Modulus (GPa) = 28.84173 40.59828 34.72000
# Shear Modulus (GPa) = 17.24039 22.75528 19.99784
#
# Velocity S-wave (km/s) = 3.00268 3.44966 3.23390
# Velocity P-wave (km/s) = 5.20621 6.09084 5.66581
#
# Compressibility (1/GPa) = 0.03467199
#
# Stress axis : x y z
#
# Youngs Moduli (GPa) = 54.12653 19.65064 54.41089
#
# Poissons Ratio (x) = 0.37560 -0.02942
# Poissons Ratio (y) = 1.03457 0.43323
# Poissons Ratio (z) = -0.02927 0.15646
#
# Static dielectric constant tensor:
#      x y z
#    x 3.851090 0.000000 -0.098030 
#    y 0.000000 3.546530 0.000000 
#    z -0.098030 0.000000 3.445930 
# 
# 
# High freq. dielectric constant tensor:
#      x y z
#    x 1.745320 0.000000 -0.007560 
#    y 0.000000 1.702190 0.000000 
#    z -0.007560 0.000000 1.748280 
# 
# From -- ./inp_files/74466.got.cif
#   From: 2010.06.25/outbox.cif.g09.slc.cpg/sg12_38_cif.got.tgz:74466.got - 2010.06.28 00:19:55.
