data_PCOD8078536
_publ_section_title
;
Structure prediction by ZEFSAII (Michael W. Deem and Ramdas Pophale) SiO2 
 PCOD8078536
Probable space group: C 2/M
;
_chemical_formula_sum "Si O2"
_cell_formula_units_Z 64
_cell_length_a 27.693776
_cell_length_b 9.149649
_cell_length_c 17.064756
_cell_angle_alpha 90.000000
_cell_angle_beta 77.119679
_cell_angle_gamma 90.000000
_cell_volume 4215.208482
_symmetry_space_group_name_H-M "C 2/M"
_symmetry_group_IT_number 12
_symmetry_cell_setting 'monoclinic'
loop_
_space_group_symop_operation_xyz
x,y,z
-x,y,-z
-x,-y,-z
x,-y,z
1/2+x,1/2+y,z
1/2-x,1/2+y,-z
1/2-x,1/2-y,-z
1/2+x,1/2-y,z
loop_
_atom_site_type_symbol
_atom_site_label
_atom_site_fract_x
_atom_site_fract_y
_atom_site_fract_z
Si Si1 0.444331 0.327660 0.516086
Si Si2 0.171242 0.328192 0.173937
Si Si3 0.630561 0.672773 0.324101
Si Si4 0.699449 0.169817 0.665284
Si Si5 0.726463 0.169375 0.827491
Si Si6 0.294464 0.168131 0.597969
Si Si7 0.372564 0.835281 0.436447
Si Si8 0.200621 0.667093 0.001021
O O1 0.500000 0.265483 0.500000
O O2 0.444285 0.500000 0.507385
O O3 0.416117 0.278632 0.605699
O O4 0.417278 0.266936 0.448485
O O5 0.168459 0.500000 0.192689
O O6 0.127896 0.246729 0.238989
O O7 0.225168 0.269281 0.180491
O O8 0.161280 0.292123 0.084365
O O9 0.633468 0.500000 0.314632
O O10 0.680872 0.732577 0.343990
O O11 0.697263 0.208617 0.758359
O O12 0.739384 0.270669 0.606713
O O13 0.645696 0.203145 0.645242
O O14 0.713087 0.000000 0.646066
O O15 0.687225 0.197067 0.914200
O O16 0.743739 0.000000 0.820492
O O17 0.323924 0.186218 0.506911
O O18 0.293340 0.000000 0.626023
O O19 0.392668 0.000000 0.434833
O O20 0.214148 0.500000 0.008662
O O21 0.250000 0.750000 0.000000
#
# Coordination Sequence:
#
# PCOD8078536 Si02
#       8
#     8   8   8   8   8   8   8   8
#     4   9  19  35  51  64  79 102 134 172 212 254
#     4  10  17  25  38  57  82 107 139 177 204 236
#     4  10  18  28  43  61  81 106 136 169 209 252
#     4  10  18  27  40  58  84 113 142 170 196 236
#     4   9  16  26  39  54  78 114 147 170 200 235
#     4  10  18  27  39  56  82 111 141 172 200 232
#     4   9  19  31  42  61  84 108 136 167 205 246
#     4   8  15  25  36  52  75 107 142 173 202 232
#
# _framework density 15.183116
#
# number of rings (size 3 to 8) (size 9 to 14) (size 15 to 20)
#    0.000    2.625    1.250    1.500    0.000    2.250 
#    0.000    0.000    0.000    0.000    0.000    0.000 
#    0.000    1.000    0.000   12.500    0.000    1.000 
#
# Total GULP energy -396449.514013 kJ/mol
# GULP energy per Si atom -12389.047313 kJ/mol
# Density = 1.514856 g / cm^3
# Si number density = 15.183116 Si / 1000 Ang^3
#
#
#
# Elastic Constant Matrix: (Units=GPa)
#
#
# Indices 1 2 3 4 5 6 
#
# 1 71.1495 24.8502 43.9879 0.0000 3.3075 0.0000
# 2 24.8502 48.4226 31.6868 0.0000 -0.1892 0.0000
# 3 43.9879 31.6868 99.0692 0.0000 9.5543 0.0000
# 4 0.0000 0.0000 0.0000 19.7082 0.0000 0.5280
# 5 3.3075 -0.1892 9.5543 0.0000 14.1419 0.0000
# 6 0.0000 0.0000 0.0000 0.5280 0.0000 15.3617
#
#
#
# Elastic Compliance Matrix: (Units=1/GPa)
#
#
# Indices 1 2 3 4 5 6 
#
# 1 0.020583 -0.005793 -0.007290 0.000000 0.000033 0.000000
# 2 -0.005793 0.028303 -0.007111 0.000000 0.006538 0.000000
# 3 -0.007290 -0.007111 0.016527 0.000000 -0.009556 0.000000
# 4 0.000000 0.000000 0.000000 0.050787 0.000000 -0.001746
# 5 0.000033 0.006538 -0.009556 0.000000 0.077247 0.000000
# 6 0.000000 0.000000 0.000000 -0.001746 0.000000 0.065157
#
#
# Mechanical properties :
#
#
# Convention : Reuss Voigt Hill
#
# Bulk Modulus (GPa) = 39.95831 46.63233 43.29532
# Shear Modulus (GPa) = 16.26894 17.71677 16.99285
#
# Velocity S-wave (km/s) = 3.27695 3.41966 3.34907
# Velocity P-wave (km/s) = 6.37908 6.80970 6.59790
#
# Compressibility (1/GPa) = 0.02502608
#
# Stress axis : x y z
#
# Youngs Moduli (GPa) = 48.58262 35.33156 60.50845
#
# Poissons Ratio (x) = 0.20468 0.44109
# Poissons Ratio (y) = 0.28144 0.43028
# Poissons Ratio (z) = 0.35415 0.25124
#
# Static dielectric constant tensor:
#      x y z
#    x 2.551330 0.000000 0.128970 
#    y 0.000000 2.921890 0.000000 
#    z 0.128970 0.000000 3.576940 
# 
# 
# High freq. dielectric constant tensor:
#      x y z
#    x 1.517610 0.000000 0.012930 
#    y 0.000000 1.590410 0.000000 
#    z 0.012930 0.000000 1.592330 
# 
# From -- ./inp_files/287686.got.cif
#   From: 2010.06.25/outbox.cif.g09.slc.cpg/sg12_144_cif.got.tgz:287686.got - 2010.06.28 00:19:55.
