data_PCOD8078772
_publ_section_title
;
Structure prediction by ZEFSAII (Michael W. Deem and Ramdas Pophale) SiO2 
 PCOD8078772
Probable space group: C 2/M
;
_chemical_formula_sum "Si O2"
_cell_formula_units_Z 40
_cell_length_a 14.466147
_cell_length_b 8.735494
_cell_length_c 16.248381
_cell_angle_alpha 90.000000
_cell_angle_beta 114.074129
_cell_angle_gamma 90.000000
_cell_volume 1874.692301
_symmetry_space_group_name_H-M "C 2/M"
_symmetry_group_IT_number 12
_symmetry_cell_setting 'monoclinic'
loop_
_space_group_symop_operation_xyz
x,y,z
-x,y,-z
-x,-y,-z
x,-y,z
1/2+x,1/2+y,z
1/2-x,1/2+y,-z
1/2-x,1/2-y,-z
1/2+x,1/2-y,z
loop_
_atom_site_type_symbol
_atom_site_label
_atom_site_fract_x
_atom_site_fract_y
_atom_site_fract_z
Si Si1 0.469368 0.322100 0.098981
Si Si2 0.770194 0.681335 0.252123
Si Si3 0.083027 0.175577 0.295949
Si Si4 0.520336 0.180404 0.597773
Si Si5 0.654935 0.820127 0.070761
O O1 0.484773 0.500000 0.081794
O O2 0.483343 0.299209 0.201980
O O3 0.556075 0.222337 0.087221
O O4 0.360535 0.261139 0.025207
O O5 0.770222 0.500000 0.239192
O O6 0.682698 0.731316 0.284126
O O7 0.874344 0.744723 0.327948
O O8 0.752348 0.758046 0.156030
O O9 0.070574 0.272717 0.374463
O O10 0.094540 0.000000 0.325997
O O11 0.500000 0.250827 0.500000
O O12 0.525884 0.000000 0.593351
O O13 0.666554 0.000000 0.062006
#
# Coordination Sequence:
#
# PCOD8078772 Si02
#       5
#     8   8   8   8   8
#     4   9  16  29  49  74 109 149 179 208 261 321
#     4   9  19  37  56  76 109 148 178 212 269 328
#     4   9  19  35  56  80 107 142 180 216 260 320
#     4  10  22  39  58  80 106 137 177 226 276 324
#     4  10  17  26  47  80 110 138 180 224 257 301
#
# _framework density 21.336836999999999
#
# number of rings (size 3 to 8) (size 9 to 14) (size 15 to 20)
#    0.000    2.600    0.000    4.800    0.000    6.000 
#    0.000    1.000    0.000    0.000    0.000    0.000 
#    0.000    0.000    0.000    0.000    0.000    0.000 
#
# Total GULP energy -247892.265594 kJ/mol
# GULP energy per Si atom -12394.613280 kJ/mol
# Density = 2.128827 g / cm^3
# Si number density = 21.336837 Si / 1000 Ang^3
#
#
#
# Elastic Constant Matrix: (Units=GPa)
#
#
# Indices 1 2 3 4 5 6 
#
# 1 25.3192 4.3287 11.8942 0.0000 1.9616 0.0000
# 2 4.3287 54.0821 30.8719 0.0000 0.4353 0.0000
# 3 11.8942 30.8719 102.5193 0.0000 0.0908 0.0000
# 4 0.0000 0.0000 0.0000 29.1647 0.0000 -12.5562
# 5 1.9616 0.4353 0.0908 0.0000 34.9316 0.0000
# 6 0.0000 0.0000 0.0000 -12.5562 0.0000 46.1531
#
#
#
# Elastic Compliance Matrix: (Units=1/GPa)
#
#
# Indices 1 2 3 4 5 6 
#
# 1 0.041984 -0.000679 -0.004664 0.000000 -0.002337 0.000000
# 2 -0.000679 0.022342 -0.006649 0.000000 -0.000223 0.000000
# 3 -0.004664 -0.006649 0.012297 0.000000 0.000313 0.000000
# 4 0.000000 0.000000 0.000000 0.038837 0.000000 0.010566
# 5 -0.002337 -0.000223 0.000313 0.000000 0.028761 0.000000
# 6 0.000000 0.000000 0.000000 0.010566 0.000000 0.024541
#
#
# Mechanical properties :
#
#
# Convention : Reuss Voigt Hill
#
# Bulk Modulus (GPa) = 18.99737 30.67891 24.83814
# Shear Modulus (GPa) = 23.77631 31.03827 27.40729
#
# Velocity S-wave (km/s) = 3.34178 3.81816 3.58789
# Velocity P-wave (km/s) = 4.87985 5.81785 5.36937
#
# Compressibility (1/GPa) = 0.05263887
#
# Stress axis : x y z
#
# Youngs Moduli (GPa) = 23.81851 44.75872 81.31822
#
# Poissons Ratio (x) = 0.03039 0.37930
# Poissons Ratio (y) = 0.01617 0.54068
# Poissons Ratio (z) = 0.11110 0.29760
#
# Static dielectric constant tensor:
#      x y z
#    x 3.491530 0.000000 0.177150 
#    y 0.000000 3.530130 0.000000 
#    z 0.177150 0.000000 4.534230 
# 
# 
# High freq. dielectric constant tensor:
#      x y z
#    x 1.812050 0.000000 0.001770 
#    y 0.000000 1.818250 0.000000 
#    z 0.001770 0.000000 1.849900 
# 
# From -- ./inp_files/221236.got.cif
#   From: 2010.06.25/outbox.cif.g09.slc.cpg/sg12_111_cif.got.tgz:221236.got - 2010.06.28 00:19:55.
