data_PCOD8078946
_publ_section_title
;
Structure prediction by ZEFSAII (Michael W. Deem and Ramdas Pophale) SiO2 
 PCOD8078946
Probable space group: C 2/M
;
_chemical_formula_sum "Si O2"
_cell_formula_units_Z 48
_cell_length_a 19.077364
_cell_length_b 18.067364
_cell_length_c 9.607478
_cell_angle_alpha 90.000000
_cell_angle_beta 46.107536
_cell_angle_gamma 90.000000
_cell_volume 2386.394910
_symmetry_space_group_name_H-M "C 2/M"
_symmetry_group_IT_number 12
_symmetry_cell_setting 'monoclinic'
loop_
_space_group_symop_operation_xyz
x,y,z
-x,y,-z
-x,-y,-z
x,-y,z
1/2+x,1/2+y,z
1/2-x,1/2+y,-z
1/2-x,1/2-y,-z
1/2+x,1/2-y,z
loop_
_atom_site_type_symbol
_atom_site_label
_atom_site_fract_x
_atom_site_fract_y
_atom_site_fract_z
Si Si1 0.728652 0.170599 0.257798
Si Si2 0.616579 0.080613 0.983597
Si Si3 0.694109 0.582340 0.089234
Si Si4 0.405873 0.761894 0.047884
Si Si5 0.907560 0.772524 0.722198
Si Si6 0.446838 0.916661 0.433725
O O1 0.685734 0.228747 0.205911
O O2 0.645502 0.136563 0.471895
O O3 0.777445 0.103049 0.107248
O O4 0.813421 0.213203 0.226154
O O5 0.615559 0.151565 0.883004
O O6 0.518531 0.086969 0.206875
O O7 0.616371 0.000000 0.905231
O O8 0.708882 0.085006 0.954411
O O9 0.648448 0.500000 0.154200
O O10 0.614437 0.639832 0.256351
O O11 0.425872 0.753481 0.855206
O O12 0.500000 0.732855 0.000000
O O13 0.000000 0.755009 0.500000
O O14 0.500000 0.886876 0.500000
O O15 0.409578 0.000000 0.512132
#
# Coordination Sequence:
#
# PCOD8078946 Si02
#       6
#     8   8   8   8   8   8
#     4  11  18  33  55  81 109 144 180 231 271 323
#     4  10  18  32  52  79 110 141 179 225 275 328
#     4  10  18  31  54  80 106 140 184 226 265 317
#     4  11  22  37  55  83 111 149 184 221 277 330
#     4  11  21  36  57  81 111 142 184 229 269 320
#     4  10  17  27  52  85 110 133 173 232 281 314
#
# _framework density 20.114021000000001
#
# number of rings (size 3 to 8) (size 9 to 14) (size 15 to 20)
#    0.000    1.500    5.000    3.000    0.000    0.667 
#    0.000    3.333    0.000   12.500    0.000    0.000 
#    0.000    0.000    0.000    0.000    0.000    0.000 
#
# Total GULP energy -297499.255646 kJ/mol
# GULP energy per Si atom -12395.802319 kJ/mol
# Density = 2.006824 g / cm^3
# Si number density = 20.114021 Si / 1000 Ang^3
#
#
#
# Elastic Constant Matrix: (Units=GPa)
#
#
# Indices 1 2 3 4 5 6 
#
# 1 88.9859 40.9158 13.3560 0.0000 -28.5387 0.0000
# 2 40.9158 146.4768 27.1394 0.0000 -23.7037 0.0000
# 3 13.3560 27.1394 47.1582 0.0000 -18.4812 0.0000
# 4 0.0000 0.0000 0.0000 31.4908 0.0000 -8.9719
# 5 -28.5387 -23.7037 -18.4812 0.0000 22.5891 0.0000
# 6 0.0000 0.0000 0.0000 -8.9719 0.0000 19.4546
#
#
#
# Elastic Compliance Matrix: (Units=1/GPa)
#
#
# Indices 1 2 3 4 5 6 
#
# 1 0.020696 -0.002314 0.007015 0.000000 0.029459 0.000000
# 2 -0.002314 0.008611 -0.002804 0.000000 0.003819 0.000000
# 3 0.007015 -0.002804 0.034079 0.000000 0.033802 0.000000
# 4 0.000000 0.000000 0.000000 0.036559 0.000000 0.016860
# 5 0.029459 0.003819 0.033802 0.000000 0.113149 0.000000
# 6 0.000000 0.000000 0.000000 0.016860 0.000000 0.059177
#
#
# Mechanical properties :
#
#
# Convention : Reuss Voigt Hill
#
# Bulk Modulus (GPa) = 14.88517 49.49369 32.18943
# Shear Modulus (GPa) = 17.18986 28.12089 22.65538
#
# Velocity S-wave (km/s) = 2.92656 3.74314 3.35975
# Velocity P-wave (km/s) = 4.34006 6.58342 5.57573
#
# Compressibility (1/GPa) = 0.06718094
#
# Stress axis : x y z
#
# Youngs Moduli (GPa) = 48.31750 116.13393 29.34365
#
# Poissons Ratio (x) = 0.26870 -0.20584
# Poissons Ratio (y) = 0.11179 0.08227
# Poissons Ratio (z) = -0.33894 0.32560
#
# Static dielectric constant tensor:
#      x y z
#    x 3.191190 0.000000 -0.224150 
#    y 0.000000 4.333910 0.000000 
#    z -0.224150 0.000000 3.345220 
# 
# 
# High freq. dielectric constant tensor:
#      x y z
#    x 1.746130 0.000000 -0.023610 
#    y 0.000000 1.809470 0.000000 
#    z -0.023610 0.000000 1.761800 
# 
# From -- ./inp_files/158020.got.cif
#   From: 2010.06.25/outbox.cif.g09.slc.cpg/sg12_80_cif.got.tgz:158020.got - 2010.06.28 00:19:55.
