data_PCOD8078554
_publ_section_title
;
Structure prediction by ZEFSAII (Michael W. Deem and Ramdas Pophale) SiO2 
 PCOD8078554
Probable space group: C 2/M
;
_chemical_formula_sum "Si O2"
_cell_formula_units_Z 48
_cell_length_a 26.011709
_cell_length_b 13.203772
_cell_length_c 25.034580
_cell_angle_alpha 90.000000
_cell_angle_beta 21.909180
_cell_angle_gamma 90.000000
_cell_volume 3208.299274
_symmetry_space_group_name_H-M "C 2/M"
_symmetry_group_IT_number 12
_symmetry_cell_setting 'monoclinic'
loop_
_space_group_symop_operation_xyz
x,y,z
-x,y,-z
-x,-y,-z
x,-y,z
1/2+x,1/2+y,z
1/2-x,1/2+y,-z
1/2-x,1/2-y,-z
1/2+x,1/2-y,z
loop_
_atom_site_type_symbol
_atom_site_label
_atom_site_fract_x
_atom_site_fract_y
_atom_site_fract_z
Si Si1 0.960667 0.619490 0.874824
Si Si2 0.118264 0.804210 0.558624
Si Si3 0.669846 0.620881 0.192268
Si Si4 0.145091 0.616297 0.599657
Si Si5 0.213234 0.618895 0.697892
Si Si6 0.139571 0.881014 0.340594
O O1 0.950735 0.500000 0.885295
O O2 0.026464 0.653951 0.755249
O O3 0.060870 0.653973 0.826935
O O4 0.808206 0.664473 0.030658
O O5 0.133139 0.685391 0.558657
O O6 0.206321 0.870965 0.515542
O O7 0.171477 0.821809 0.447320
O O8 0.959351 0.836685 0.715975
O O9 0.666224 0.500000 0.194961
O O10 0.670621 0.664086 0.252246
O O11 0.125458 0.500000 0.601423
O O12 0.236470 0.500000 0.663727
O O13 0.234774 0.643485 0.739762
O O14 0.000000 0.834028 0.500000
O O15 0.119334 0.000000 0.353297
#
# Coordination Sequence:
#
# PCOD8078554 Si02
#       6
#     8   8   8   8   8   8
#     4   8  16  27  38  54  83 111 129 159 196 232
#     4  10  17  26  45  60  74 107 135 163 200 228
#     4  10  17  25  39  62  83 104 135 162 191 234
#     4   9  18  31  42  57  79 105 135 164 200 237
#     4   9  15  26  40  58  85 111 132 157 195 237
#     4   9  15  22  36  58  84 108 130 160 191 228
#
# _framework density 14.961197
#
# number of rings (size 3 to 8) (size 9 to 14) (size 15 to 20)
#    0.000    2.833    1.667    2.500    0.000    1.333 
#    0.000    3.333    0.000    0.000    0.000    2.333 
#    0.000    0.000    0.000   15.000    0.000    1.667 
#
# Total GULP energy -297455.061983 kJ/mol
# GULP energy per Si atom -12393.960916 kJ/mol
# Density = 1.492714 g / cm^3
# Si number density = 14.961197 Si / 1000 Ang^3
#
#
#
# Elastic Constant Matrix: (Units=GPa)
#
#
# Indices 1 2 3 4 5 6 
#
# 1 63.2652 27.6829 37.0897 0.0012 -3.9748 -0.0005
# 2 27.6829 41.7684 21.0337 -0.0032 3.8695 0.0004
# 3 37.0897 21.0337 110.0562 0.0024 -13.8958 -0.0021
# 4 0.0012 -0.0032 0.0024 9.9179 0.0022 -0.2480
# 5 -3.9748 3.8695 -13.8958 0.0022 18.2121 -0.0005
# 6 -0.0005 0.0004 -0.0021 -0.2480 -0.0005 14.7000
#
#
#
# Elastic Compliance Matrix: (Units=1/GPa)
#
#
# Indices 1 2 3 4 5 6 
#
# 1 0.025641 -0.014814 -0.005208 -0.000008 0.004770 0.000001
# 2 -0.014814 0.036999 -0.003850 0.000018 -0.014032 -0.000002
# 3 -0.005208 -0.003850 0.012767 -0.000006 0.009423 0.000002
# 4 -0.000008 0.000018 -0.000006 0.100871 -0.000022 0.001702
# 5 0.004770 -0.014032 0.009423 -0.000022 0.066120 0.000004
# 6 0.000001 -0.000002 0.000002 0.001702 0.000004 0.068056
#
#
# Mechanical properties :
#
#
# Convention : Reuss Voigt Hill
#
# Bulk Modulus (GPa) = 36.14959 42.96693 39.55826
# Shear Modulus (GPa) = 13.60844 17.18488 15.39666
#
# Velocity S-wave (km/s) = 3.01920 3.39282 3.21145
# Velocity P-wave (km/s) = 6.03065 6.64301 6.34422
#
# Compressibility (1/GPa) = 0.02766283
#
# Stress axis : x y z
#
# Youngs Moduli (GPa) = 38.99949 27.02808 78.32714
#
# Poissons Ratio (x) = 0.40039 0.40792
# Poissons Ratio (y) = 0.57773 0.30160
# Poissons Ratio (z) = 0.20311 0.10407
#
# Static dielectric constant tensor:
#      x y z
#    x 2.913220 0.000000 -0.041130 
#    y 0.000000 2.440290 0.000000 
#    z -0.041130 0.000000 3.234150 
# 
# 
# High freq. dielectric constant tensor:
#      x y z
#    x 1.570980 0.000000 -0.009510 
#    y 0.000000 1.508630 0.000000 
#    z -0.009510 0.000000 1.578590 
# 
# From -- ./inp_files/94439.got.cif
#   From: 2010.06.25/outbox.cif.g09.slc.cpg/sg12_48_cif.got.tgz:94439.got - 2010.06.28 00:19:55.
