data_PCOD8078479
_publ_section_title
;
Structure prediction by ZEFSAII (Michael W. Deem and Ramdas Pophale) SiO2 
 PCOD8078479
Probable space group: C 2/M
;
_chemical_formula_sum "Si O2"
_cell_formula_units_Z 56
_cell_length_a 20.210105
_cell_length_b 8.906323
_cell_length_c 22.126594
_cell_angle_alpha 90.000000
_cell_angle_beta 52.728308
_cell_angle_gamma 90.000000
_cell_volume 3169.353339
_symmetry_space_group_name_H-M "C 2/M"
_symmetry_group_IT_number 12
_symmetry_cell_setting 'monoclinic'
loop_
_space_group_symop_operation_xyz
x,y,z
-x,y,-z
-x,-y,-z
x,-y,z
1/2+x,1/2+y,z
1/2-x,1/2+y,-z
1/2-x,1/2-y,-z
1/2+x,1/2-y,z
loop_
_atom_site_type_symbol
_atom_site_label
_atom_site_fract_x
_atom_site_fract_y
_atom_site_fract_z
Si Si1 0.228346 0.326167 0.312850
Si Si2 0.327559 0.174372 0.160524
Si Si3 0.526752 0.326283 0.852310
Si Si4 0.904958 0.827683 0.535050
Si Si5 0.587870 0.333304 0.985681
Si Si6 0.160125 0.676425 0.546730
Si Si7 0.886160 0.169738 0.311228
O O1 0.205478 0.500000 0.319517
O O2 0.251381 0.263026 0.233702
O O3 0.148821 0.236470 0.380173
O O4 0.303614 0.299875 0.317833
O O5 0.410579 0.210612 0.151497
O O6 0.343310 0.223675 0.081844
O O7 0.306898 0.000000 0.173794
O O8 0.553824 0.500000 0.852170
O O9 0.532717 0.302861 0.776533
O O10 0.434372 0.295391 0.931267
O O11 0.890096 0.733840 0.482853
O O12 0.000000 0.810297 0.500000
O O13 0.880014 0.000000 0.537384
O O14 0.625096 0.500000 0.959926
O O15 0.500000 0.321918 0.000000
O O16 0.171271 0.500000 0.535181
O O17 0.250000 0.750000 0.500000
O O18 0.108888 0.717281 0.635470
O O19 0.885505 0.000000 0.336768
#
# Coordination Sequence:
#
# PCOD8078479 Si02
#       7
#     8   8   8   8   8   8   8
#     4  10  19  32  50  69  94 129 166 205 248 300
#     4  10  17  23  36  59  88 121 159 202 242 289
#     4   8  15  26  39  56  85 123 160 198 244 295
#     4  11  24  40  57  77 102 131 166 212 262 309
#     4   8  13  23  36  52  80 120 160 195 237 293
#     4  12  23  35  54  77 103 135 171 212 253 302
#     4   9  17  30  48  71  96 126 166 210 251 295
#
# _framework density 17.669218999999998
#
# number of rings (size 3 to 8) (size 9 to 14) (size 15 to 20)
#    0.000    2.286    1.429    5.143    0.000    6.000 
#    0.000    0.000    0.000    0.000    0.000    0.000 
#    0.000    1.143    0.000    3.429    0.000    6.143 
#
# Total GULP energy -347021.222081 kJ/mol
# GULP energy per Si atom -12393.615074 kJ/mol
# Density = 1.762900 g / cm^3
# Si number density = 17.669219 Si / 1000 Ang^3
#
#
#
# Elastic Constant Matrix: (Units=GPa)
#
#
# Indices 1 2 3 4 5 6 
#
# 1 30.8725 30.4862 29.2758 0.0000 2.8417 -0.0011
# 2 30.4862 126.0286 65.8880 -0.0001 4.2803 -0.0021
# 3 29.2758 65.8880 170.7108 0.0000 13.0343 -0.0001
# 4 0.0000 -0.0001 0.0000 34.2215 0.0001 1.9681
# 5 2.8417 4.2803 13.0343 0.0001 11.5752 0.0000
# 6 -0.0011 -0.0021 -0.0001 1.9681 0.0000 15.0670
#
#
#
# Elastic Compliance Matrix: (Units=1/GPa)
#
#
# Indices 1 2 3 4 5 6 
#
# 1 0.045169 -0.008639 -0.004167 0.000000 -0.003202 0.000002
# 2 -0.008639 0.011598 -0.003096 0.000000 0.001318 0.000001
# 3 -0.004167 -0.003096 0.008317 0.000000 -0.007197 -0.000001
# 4 0.000000 0.000000 0.000000 0.029443 0.000000 -0.003846
# 5 -0.003202 0.001318 -0.007197 0.000000 0.094795 0.000000
# 6 0.000002 0.000001 -0.000001 -0.003846 0.000000 0.066872
#
#
# Mechanical properties :
#
#
# Convention : Reuss Voigt Hill
#
# Bulk Modulus (GPa) = 30.04806 64.32354 47.18580
# Shear Modulus (GPa) = 16.71739 25.63688 21.17714
#
# Velocity S-wave (km/s) = 3.07926 3.81325 3.46574
# Velocity P-wave (km/s) = 5.44842 7.47470 6.54050
#
# Compressibility (1/GPa) = 0.03328002
#
# Stress axis : x y z
#
# Youngs Moduli (GPa) = 22.13931 86.22176 120.23779
#
# Poissons Ratio (x) = 0.74485 0.50108
# Poissons Ratio (y) = 0.19126 0.37220
# Poissons Ratio (z) = 0.09226 0.26690
#
# Static dielectric constant tensor:
#      x y z
#    x 2.730970 0.000000 0.337340 
#    y 0.000000 3.318760 0.000000 
#    z 0.337340 0.000000 4.212270 
# 
# 
# High freq. dielectric constant tensor:
#      x y z
#    x 1.593050 0.000000 0.014080 
#    y 0.000000 1.688680 0.000000 
#    z 0.014080 0.000000 1.716240 
# 
# From -- ./inp_files/345450.got.cif
#   From: 2010.06.25/outbox.cif.g09.slc.cpg/sg12_173_cif.got.tgz:345450.got - 2010.06.28 00:19:55.
