data_PCOD8078013
_publ_section_title
;
Structure prediction by ZEFSAII (Michael W. Deem and Ramdas Pophale) SiO2 
 PCOD8078013
Probable space group: P 21/M
;
_chemical_formula_sum "Si O2"
_cell_formula_units_Z 28
_cell_length_a 30.000000
_cell_length_b 9.000000
_cell_length_c 30.000000
_cell_angle_alpha 90.000000
_cell_angle_beta 170.000000
_cell_angle_gamma 90.000000
_cell_volume 1406.550239
_symmetry_space_group_name_H-M "P 21/M"
_symmetry_group_IT_number 11
_symmetry_cell_setting 'monoclinic'
loop_
_space_group_symop_operation_xyz
x,y,z
-x,1/2+y,-z
-x,-y,-z
x,1/2-y,z
loop_
_atom_site_type_symbol
_atom_site_label
_atom_site_fract_x
_atom_site_fract_y
_atom_site_fract_z
Si Si1 0.954097 0.074829 0.053077
Si Si2 0.593901 0.420753 0.346114
Si Si3 0.721328 0.928637 0.382607
Si Si4 0.761431 0.931427 0.142237
Si Si5 0.065681 0.418987 0.874190
Si Si6 0.520491 0.573330 0.472609
Si Si7 0.238214 0.931401 0.760923
O O1 0.954889 0.250000 0.053506
O O2 0.220251 0.013725 0.295229
O O3 0.918012 0.024611 0.067781
O O4 0.718066 0.014333 0.791365
O O5 0.617995 0.250000 0.352586
O O6 0.640477 0.539833 0.353414
O O7 0.801150 0.452641 0.588396
O O8 0.307768 0.452631 0.081278
O O9 0.734416 0.750000 0.386716
O O10 0.998062 0.007661 0.649269
O O11 0.509482 0.007693 0.142850
O O12 0.759586 0.750000 0.141867
O O13 0.799005 0.006954 0.226631
O O14 0.073554 0.250000 0.898810
O O15 0.500000 0.500000 0.500000
O O16 0.519998 0.750000 0.477238
O O17 0.240334 0.750000 0.761108
O O18 0.000000 0.000000 0.500000
O O19 0.500000 0.000000 0.000000
#
# Coordination Sequence:
#
# PCOD8078013 Si02
#       7
#     4   4   4   4   4   4   4
#     4  10  21  36  54  78 109 141 179 226 281 335
#     4  10  21  38  58  84 117 154 194 240 292 352
#     4  12  25  42  65  96 127 162 209 260 309 366
#     4  12  25  44  67  93 127 170 210 254 313 371
#     4  10  21  36  57  83 112 148 193 236 283 344
#     4  10  21  36  54  78 106 140 179 224 275 334
#     4  12  25  44  67  96 130 167 211 260 311 370
#
# _framework density 19.906860999999999
#
# number of rings (size 3 to 8) (size 9 to 14) (size 15 to 20)
#    0.000    1.143    0.000    6.857    0.000    3.429 
#    0.000    0.000    0.000    0.000    0.000    0.000 
#    0.000    0.000    0.000    0.000    0.000    0.000 
#
# Total GULP energy -347233.374476 kJ/mol
# GULP energy per Si atom -12401.191946 kJ/mol
# Density = 1.986155 g / cm^3
# Si number density = 19.906861 Si / 1000 Ang^3
#
#
#
# Elastic Constant Matrix: (Units=GPa)
#
#
# Indices 1 2 3 4 5 6 
#
# 1 83.7514 26.0438 16.2567 0.0000 -2.5522 0.0000
# 2 26.0438 120.1958 32.9954 0.0000 0.2489 0.0000
# 3 16.2567 32.9954 128.3945 0.0000 2.1125 0.0000
# 4 0.0000 0.0000 0.0000 30.1373 0.0000 -0.8581
# 5 -2.5522 0.2489 2.1125 0.0000 35.2875 0.0000
# 6 0.0000 0.0000 0.0000 -0.8581 0.0000 45.8752
#
#
#
# Elastic Compliance Matrix: (Units=1/GPa)
#
#
# Indices 1 2 3 4 5 6 
#
# 1 0.012954 -0.002533 -0.001006 0.000000 0.001015 0.000000
# 2 -0.002533 0.009447 -0.002105 0.000000 -0.000124 0.000000
# 3 -0.001006 -0.002105 0.008466 0.000000 -0.000565 0.000000
# 4 0.000000 0.000000 0.000000 0.033199 0.000000 0.000621
# 5 0.001015 -0.000124 -0.000565 0.000000 0.028447 0.000000
# 6 0.000000 0.000000 0.000000 0.000621 0.000000 0.021810
#
#
# Mechanical properties :
#
#
# Convention : Reuss Voigt Hill
#
# Bulk Modulus (GPa) = 51.07435 53.65928 52.36682
# Shear Modulus (GPa) = 37.83974 39.39637 38.61805
#
# Velocity S-wave (km/s) = 4.36459 4.45346 4.40925
# Velocity P-wave (km/s) = 7.14926 7.31150 7.23084
#
# Compressibility (1/GPa) = 0.01957930
#
# Stress axis : x y z
#
# Youngs Moduli (GPa) = 77.19675 105.85772 118.11824
#
# Poissons Ratio (x) = 0.26811 0.11882
# Poissons Ratio (y) = 0.19552 0.24863
# Poissons Ratio (z) = 0.07766 0.22282
#
# Static dielectric constant tensor:
#      x y z
#    x 3.647870 0.000000 0.235590 
#    y 0.000000 3.943110 0.000000 
#    z 0.235590 0.000000 6.612310 
# 
# 
# High freq. dielectric constant tensor:
#      x y z
#    x 1.787130 0.000000 0.002240 
#    y 0.000000 1.790210 0.000000 
#    z 0.002240 0.000000 1.813140 
# 
# From -- ./inp_files/73862.got.cif
#   From: 2010.06.25/outbox.ucp.g09.slc.cvg/sg11_37_cif.got.tgz:73862.got - 2010.06.28 13:43:20.
