data_PCOD8078037
_publ_section_title
;
Structure prediction by ZEFSAII (Michael W. Deem and Ramdas Pophale) SiO2 
 PCOD8078037
Probable space group: C 2/M
;
_chemical_formula_sum "Si O2"
_cell_formula_units_Z 40
_cell_length_a 5.223351
_cell_length_b 16.888523
_cell_length_c 27.229351
_cell_angle_alpha 90.000000
_cell_angle_beta 61.551295
_cell_angle_gamma 90.000000
_cell_volume 2111.969084
_symmetry_space_group_name_H-M "C 2/M"
_symmetry_group_IT_number 12
_symmetry_cell_setting 'monoclinic'
loop_
_space_group_symop_operation_xyz
x,y,z
-x,y,-z
-x,-y,-z
x,-y,z
1/2+x,1/2+y,z
1/2-x,1/2+y,-z
1/2-x,1/2-y,-z
1/2+x,1/2-y,z
loop_
_atom_site_type_symbol
_atom_site_label
_atom_site_fract_x
_atom_site_fract_y
_atom_site_fract_z
Si Si1 0.163013 0.798257 0.854798
Si Si2 0.654409 0.905782 0.437168
Si Si3 0.815252 0.406018 0.372410
Si Si4 0.190714 0.159800 0.023879
Si Si5 0.110609 0.698146 0.266798
O O1 0.453954 0.774180 0.857643
O O2 0.259565 0.841038 0.795249
O O3 0.971037 0.850550 0.909169
O O4 0.500000 0.871640 0.500000
O O5 0.479943 0.874583 0.405778
O O6 0.984666 0.874567 0.405022
O O7 0.650352 0.000000 0.438926
O O8 0.827367 0.500000 0.367683
O O9 0.968442 0.372338 0.310263
O O10 0.500000 0.115842 0.000000
O O11 0.250000 0.250000 0.000000
O O12 0.000000 0.115828 0.000000
O O13 0.369615 0.736392 0.274961
#
# Coordination Sequence:
#
# PCOD8078037 Si02
#       5
#     8   8   8   8   8
#     4  10  16  25  37  57  83 118 149 179 227 275
#     4   9  17  30  52  78  97 116 153 204 243 272
#     4  10  19  33  53  74  96 124 160 195 233 283
#     4  10  14  20  34  53  79 109 138 184 226 270
#     4  10  21  33  48  67  98 133 158 192 233 287
#
# _framework density 18.939671000000001
#
# number of rings (size 3 to 8) (size 9 to 14) (size 15 to 20)
#    0.000    2.200    4.000    1.800    0.000    2.400 
#    0.000    0.000    0.000   12.000    0.000    0.000 
#    0.000    1.600    0.000    0.000    0.000    8.000 
#
# Total GULP energy -247834.655893 kJ/mol
# GULP energy per Si atom -12391.732795 kJ/mol
# Density = 1.889656 g / cm^3
# Si number density = 18.939671 Si / 1000 Ang^3
#
#
#
# Elastic Constant Matrix: (Units=GPa)
#
#
# Indices 1 2 3 4 5 6 
#
# 1 164.1081 10.2032 68.0208 0.0000 -1.8778 0.0000
# 2 10.2032 10.4408 25.2755 0.0000 -1.1325 0.0000
# 3 68.0208 25.2755 206.4072 0.0000 -9.5777 0.0000
# 4 0.0000 0.0000 0.0000 7.2414 0.0000 0.2280
# 5 -1.8778 -1.1325 -9.5777 0.0000 35.5088 0.0000
# 6 0.0000 0.0000 0.0000 0.2280 0.0000 6.1096
#
#
#
# Elastic Compliance Matrix: (Units=1/GPa)
#
#
# Indices 1 2 3 4 5 6 
#
# 1 0.007084 -0.001805 -0.002125 0.000000 -0.000256 0.000000
# 2 -0.001805 0.136595 -0.016136 0.000000 -0.000091 0.000000
# 3 -0.002125 -0.016136 0.007587 0.000000 0.001419 0.000000
# 4 0.000000 0.000000 0.000000 0.138258 0.000000 -0.005159
# 5 -0.000256 -0.000091 0.001419 0.000000 0.028528 0.000000
# 6 0.000000 0.000000 0.000000 -0.005159 0.000000 0.163869
#
#
# Mechanical properties :
#
#
# Convention : Reuss Voigt Hill
#
# Bulk Modulus (GPa) = 8.99825 65.32834 37.16329
# Shear Modulus (GPa) = 8.94297 28.26907 18.60602
#
# Velocity S-wave (km/s) = 2.17533 3.86759 3.13770
# Velocity P-wave (km/s) = 3.32727 7.38323 5.72638
#
# Compressibility (1/GPa) = 0.11113267
#
# Stress axis : x y z
#
# Youngs Moduli (GPa) = 141.16828 7.32089 131.80544
#
# Poissons Ratio (x) = 0.01322 0.28012
# Poissons Ratio (y) = 0.25488 2.12681
# Poissons Ratio (z) = 0.30001 0.11813
#
# Static dielectric constant tensor:
#      x y z
#    x 4.616440 0.000000 0.035160 
#    y 0.000000 2.564270 0.000000 
#    z 0.035160 0.000000 3.869350 
# 
# 
# High freq. dielectric constant tensor:
#      x y z
#    x 1.771570 0.000000 -0.000850 
#    y 0.000000 1.635300 0.000000 
#    z -0.000850 0.000000 1.761970 
# 
# From -- ./inp_files/252814.got.cif
#   From: 2010.06.25/outbox.cif.g09.slc.cpg/sg12_127_cif.got.tgz:252814.got - 2010.06.28 00:19:55.
