data_PCOD8078866
_publ_section_title
;
Structure prediction by ZEFSAII (Michael W. Deem and Ramdas Pophale) SiO2 
 PCOD8078866
Probable space group: C 2/M
;
_chemical_formula_sum "Si O2"
_cell_formula_units_Z 56
_cell_length_a 27.488475
_cell_length_b 13.253167
_cell_length_c 16.045115
_cell_angle_alpha 90.000000
_cell_angle_beta 39.832169
_cell_angle_gamma 90.000000
_cell_volume 3744.208755
_symmetry_space_group_name_H-M "C 2/M"
_symmetry_group_IT_number 12
_symmetry_cell_setting 'monoclinic'
loop_
_space_group_symop_operation_xyz
x,y,z
-x,y,-z
-x,-y,-z
x,-y,z
1/2+x,1/2+y,z
1/2-x,1/2+y,-z
1/2-x,1/2-y,-z
1/2+x,1/2-y,z
loop_
_atom_site_type_symbol
_atom_site_label
_atom_site_fract_x
_atom_site_fract_y
_atom_site_fract_z
Si Si1 0.794495 0.885656 0.973153
Si Si2 0.694686 0.385002 0.848904
Si Si3 0.633935 0.200619 0.198466
Si Si4 0.532761 0.118255 0.836917
Si Si5 0.516439 0.117613 0.671224
Si Si6 0.422850 0.760211 0.078937
Si Si7 0.131844 0.383189 0.377695
O O1 0.842443 0.816664 0.847255
O O2 0.815120 0.000000 0.923979
O O3 0.816545 0.858988 0.039242
O O4 0.704318 0.870469 0.079692
O O5 0.669906 0.500000 0.863727
O O6 0.645756 0.310418 0.856678
O O7 0.781527 0.367816 0.708021
O O8 0.561866 0.176938 0.236510
O O9 0.611944 0.184328 0.323750
O O10 0.550022 0.142357 0.717876
O O11 0.596220 0.173631 0.812241
O O12 0.535031 0.000000 0.851620
O O13 0.448448 0.160785 0.972408
O O14 0.578539 0.153801 0.522607
O O15 0.498857 0.000000 0.683549
O O16 0.500000 0.695279 0.000000
O O17 0.117249 0.500000 0.373096
#
# Coordination Sequence:
#
# PCOD8078866 Si02
#       7
#     8   8   8   8   8   8   8
#     4   9  18  29  43  67  92 115 140 174 217 258
#     4   9  16  29  44  61  88 112 137 176 219 253
#     4  10  17  27  46  66  90 115 142 176 212 254
#     4   8  16  28  42  64  89 110 135 174 216 257
#     4  10  17  27  45  66  88 114 146 178 212 252
#     4   8  16  27  44  63  85 107 138 176 208 261
#     4   9  18  29  43  65  89 114 143 179 217 251
#
# _framework density 14.956431
#
# number of rings (size 3 to 8) (size 9 to 14) (size 15 to 20)
#    0.857    2.000    0.000    4.286    0.000    1.429 
#    0.000    0.714    0.000    5.143    0.000    0.000 
#    0.000    0.000    0.000    0.000    0.000    0.000 
#
# Total GULP energy -346928.801938 kJ/mol
# GULP energy per Si atom -12390.314355 kJ/mol
# Density = 1.492239 g / cm^3
# Si number density = 14.956431 Si / 1000 Ang^3
#
#
#
# Elastic Constant Matrix: (Units=GPa)
#
#
# Indices 1 2 3 4 5 6 
#
# 1 82.9088 52.5742 43.8375 0.0000 4.9878 0.0000
# 2 52.5742 78.0686 42.4631 0.0000 6.5818 0.0000
# 3 43.8375 42.4631 83.5836 0.0000 16.6930 0.0000
# 4 0.0000 0.0000 0.0000 17.9384 0.0000 2.1724
# 5 4.9878 6.5818 16.6930 0.0000 20.1076 0.0000
# 6 0.0000 0.0000 0.0000 2.1724 0.0000 29.4020
#
#
#
# Elastic Compliance Matrix: (Units=1/GPa)
#
#
# Indices 1 2 3 4 5 6 
#
# 1 0.023142 -0.012285 -0.006657 0.000000 0.003807 0.000000
# 2 -0.012285 0.024290 -0.005895 0.000000 -0.000010 0.000000
# 3 -0.006657 -0.005895 0.021260 0.000000 -0.014069 0.000000
# 4 0.000000 0.000000 0.000000 0.056250 0.000000 -0.004156
# 5 0.003807 -0.000010 -0.014069 0.000000 0.060471 0.000000
# 6 0.000000 0.000000 0.000000 -0.004156 0.000000 0.034318
#
#
# Mechanical properties :
#
#
# Convention : Reuss Voigt Hill
#
# Bulk Modulus (GPa) = 52.57980 58.03450 55.30715
# Shear Modulus (GPa) = 18.13282 20.53536 19.33409
#
# Velocity S-wave (km/s) = 3.48570 3.70944 3.59931
# Velocity P-wave (km/s) = 7.17159 7.56526 7.37106
#
# Compressibility (1/GPa) = 0.01901871
#
# Stress axis : x y z
#
# Youngs Moduli (GPa) = 43.21090 41.17003 47.03723
#
# Poissons Ratio (x) = 0.50578 0.31311
# Poissons Ratio (y) = 0.53085 0.27727
# Poissons Ratio (z) = 0.28764 0.24268
#
# Static dielectric constant tensor:
#      x y z
#    x 2.779450 0.000000 0.099450 
#    y 0.000000 2.713130 0.000000 
#    z 0.099450 0.000000 2.793580 
# 
# 
# High freq. dielectric constant tensor:
#      x y z
#    x 1.567710 0.000000 0.009220 
#    y 0.000000 1.555170 0.000000 
#    z 0.009220 0.000000 1.558120 
# 
# From -- ./inp_files/246167.got.cif
#   From: 2010.06.25/outbox.cif.g09.slc.cpg/sg12_124_cif.got.tgz:246167.got - 2010.06.28 00:19:55.
