data_PCOD8078319
_publ_section_title
;
Structure prediction by ZEFSAII (Michael W. Deem and Ramdas Pophale) SiO2 
 PCOD8078319
Probable space group: C 2/M
;
_chemical_formula_sum "Si O2"
_cell_formula_units_Z 64
_cell_length_a 19.768252
_cell_length_b 18.333011
_cell_length_c 11.993603
_cell_angle_alpha 90.000000
_cell_angle_beta 123.893870
_cell_angle_gamma 90.000000
_cell_volume 3608.007874
_symmetry_space_group_name_H-M "C 2/M"
_symmetry_group_IT_number 12
_symmetry_cell_setting 'monoclinic'
loop_
_space_group_symop_operation_xyz
x,y,z
-x,y,-z
-x,-y,-z
x,-y,z
1/2+x,1/2+y,z
1/2-x,1/2+y,-z
1/2-x,1/2-y,-z
1/2+x,1/2-y,z
loop_
_atom_site_type_symbol
_atom_site_label
_atom_site_fract_x
_atom_site_fract_y
_atom_site_fract_z
Si Si1 0.970248 0.346961 0.352275
Si Si2 0.737297 0.915120 0.292505
Si Si3 0.791665 0.668315 0.157459
Si Si4 0.886212 0.584764 0.636040
Si Si5 0.478211 0.675492 0.358453
Si Si6 0.275284 0.179098 0.389351
Si Si7 0.848001 0.821862 0.539498
Si Si8 0.197951 0.160741 0.860467
O O1 0.878706 0.373714 0.240153
O O2 0.963776 0.260865 0.352414
O O3 0.000000 0.378164 0.500000
O O4 0.028979 0.372964 0.305802
O O5 0.650028 0.899329 0.273125
O O6 0.808108 0.891144 0.442689
O O7 0.744267 0.870271 0.184530
O O8 0.748126 0.000000 0.276476
O O9 0.750444 0.660455 0.240740
O O10 0.801257 0.752738 0.137818
O O11 0.734035 0.631273 0.010978
O O12 0.902069 0.500000 0.632777
O O13 0.821158 0.610469 0.484448
O O14 0.500000 0.643665 0.500000
O O15 0.556765 0.661269 0.352198
O O16 0.396574 0.635008 0.239148
O O17 0.191733 0.195993 0.377659
O O18 0.335121 0.250125 0.448872
#
# Coordination Sequence:
#
# PCOD8078319 Si02
#       8
#     8   8   8   8   8   8   8   8
#     4  10  17  30  50  75 104 133 172 216 262 305
#     4  10  20  35  52  76 109 140 174 217 266 315
#     4  10  19  33  51  76 102 138 174 218 265 307
#     4  10  20  32  51  80 109 136 174 221 260 308
#     4  10  16  29  51  79 100 128 175 225 259 296
#     4  10  17  31  52  77 103 135 176 216 261 310
#     4  10  17  29  55  78 100 134 176 220 263 306
#     4  10  20  33  51  72 107 138 172 218 265 309
#
# _framework density 17.738320999999999
#
# number of rings (size 3 to 8) (size 9 to 14) (size 15 to 20)
#    0.000    2.000    5.000    0.750    0.000    0.250 
#    0.000    3.750    0.000    6.000    0.000    0.000 
#    0.000    5.000    0.000    0.000    0.000    0.000 
#
# Total GULP energy -396626.817566 kJ/mol
# GULP energy per Si atom -12394.588049 kJ/mol
# Density = 1.769795 g / cm^3
# Si number density = 17.738321 Si / 1000 Ang^3
#
#
#
# Elastic Constant Matrix: (Units=GPa)
#
#
# Indices 1 2 3 4 5 6 
#
# 1 135.3958 17.7895 70.0451 0.0000 2.2853 0.0000
# 2 17.7895 27.0041 19.5781 0.0000 1.0313 0.0000
# 3 70.0451 19.5781 131.1268 0.0000 2.2386 0.0000
# 4 0.0000 0.0000 0.0000 9.2611 0.0000 -0.6695
# 5 2.2853 1.0313 2.2386 0.0000 23.8763 0.0000
# 6 0.0000 0.0000 0.0000 -0.6695 0.0000 18.3112
#
#
#
# Elastic Compliance Matrix: (Units=1/GPa)
#
#
# Indices 1 2 3 4 5 6 
#
# 1 0.010448 -0.003170 -0.005101 0.000000 -0.000385 0.000000
# 2 -0.003170 0.042523 -0.004637 0.000000 -0.001099 0.000000
# 3 -0.005101 -0.004637 0.011049 0.000000 -0.000347 0.000000
# 4 0.000000 0.000000 0.000000 0.108264 0.000000 0.003959
# 5 -0.000385 -0.001099 -0.000347 0.000000 0.041999 0.000000
# 6 0.000000 0.000000 0.000000 0.003959 0.000000 0.054756
#
#
# Mechanical properties :
#
#
# Convention : Reuss Voigt Hill
#
# Bulk Modulus (GPa) = 26.17473 56.48356 41.32915
# Shear Modulus (GPa) = 16.25535 22.69732 19.47634
#
# Velocity S-wave (km/s) = 3.03049 3.58098 3.31717
# Velocity P-wave (km/s) = 5.19935 7.00069 6.16615
#
# Compressibility (1/GPa) = 0.03820478
#
# Stress axis : x y z
#
# Youngs Moduli (GPa) = 95.71488 23.51645 90.50260
#
# Poissons Ratio (x) = 0.07454 0.46166
# Poissons Ratio (y) = 0.30338 0.41967
# Poissons Ratio (z) = 0.48825 0.10905
#
# Static dielectric constant tensor:
#      x y z
#    x 3.566910 0.000000 0.112130 
#    y 0.000000 2.983120 0.000000 
#    z 0.112130 0.000000 3.455860 
# 
# 
# High freq. dielectric constant tensor:
#      x y z
#    x 1.701330 0.000000 -0.001940 
#    y 0.000000 1.651320 0.000000 
#    z -0.001940 0.000000 1.655010 
# 
# From -- ./inp_files/169468.got.cif
#   From: 2010.06.25/outbox.cif.g09.slc.cpg/sg12_85_cif.got.tgz:169468.got - 2010.06.28 00:19:55.
