data_PCOD8078633
_publ_section_title
;
Structure prediction by ZEFSAII (Michael W. Deem and Ramdas Pophale) SiO2 
 PCOD8078633
Probable space group: C 2/M
;
_chemical_formula_sum "Si O2"
_cell_formula_units_Z 56
_cell_length_a 28.269061
_cell_length_b 7.726278
_cell_length_c 15.509490
_cell_angle_alpha 90.000000
_cell_angle_beta 84.015347
_cell_angle_gamma 90.000000
_cell_volume 3369.037076
_symmetry_space_group_name_H-M "C 2/M"
_symmetry_group_IT_number 12
_symmetry_cell_setting 'monoclinic'
loop_
_space_group_symop_operation_xyz
x,y,z
-x,y,-z
-x,-y,-z
x,-y,z
1/2+x,1/2+y,z
1/2-x,1/2+y,-z
1/2-x,1/2-y,-z
1/2+x,1/2-y,z
loop_
_atom_site_type_symbol
_atom_site_label
_atom_site_fract_x
_atom_site_fract_y
_atom_site_fract_z
Si Si1 0.360846 0.293545 0.023800
Si Si2 0.336069 0.199791 0.836540
Si Si3 0.569978 0.000000 0.427200
Si Si4 0.411580 0.691156 0.690712
Si Si5 0.037232 0.500000 0.615907
Si Si6 0.960902 0.205078 0.072862
Si Si7 0.762332 0.798010 0.093518
Si Si8 0.015197 0.799586 0.739018
O O1 0.360862 0.500000 0.015188
O O2 0.409100 0.222045 0.057057
O O3 0.316925 0.232895 0.095808
O O4 0.355720 0.215676 0.929752
O O5 0.367794 0.308019 0.764875
O O6 0.281320 0.275114 0.839725
O O7 0.338887 0.000000 0.808501
O O8 0.595357 0.828929 0.384575
O O9 0.574918 0.000000 0.530034
O O10 0.515272 0.000000 0.412197
O O11 0.414467 0.500000 0.648245
O O12 0.459183 0.730353 0.735853
O O13 0.045089 0.675141 0.669739
O O14 0.973379 0.262887 0.166838
O O15 0.960999 0.000000 0.065756
O O16 0.000000 0.283310 0.000000
O O17 0.760336 0.000000 0.107968
O O18 0.750000 0.750000 0.000000
O O19 0.029831 0.000000 0.719963
#
# Coordination Sequence:
#
# PCOD8078633 Si02
#       8
#     8   8   4   8   4   8   8   8
#     4   9  16  27  41  57  81 120 161 187 216 257
#     4  10  17  26  39  59  89 118 148 186 222 263
#     4   9  18  32  46  68  92 112 144 182 219 272
#     4  10  18  29  46  66  90 118 145 178 221 270
#     4   9  18  32  49  64  90 120 143 180 226 265
#     4   9  16  27  42  61  88 120 155 194 215 243
#     4   8  15  25  38  55  78 113 150 183 220 257
#     4   9  18  31  46  65  89 120 154 183 215 259
#
# _framework density 16.621960999999999
#
# number of rings (size 3 to 8) (size 9 to 14) (size 15 to 20)
#    0.000    2.857    0.714    1.286    0.000    3.429 
#    1.286    3.214    0.000    0.000    0.000    0.000 
#    0.000    1.143    0.571    0.000    0.000    0.000 
#
# Total GULP energy -346885.388034 kJ/mol
# GULP energy per Si atom -12388.763858 kJ/mol
# Density = 1.658413 g / cm^3
# Si number density = 16.621961 Si / 1000 Ang^3
#
#
#
# Elastic Constant Matrix: (Units=GPa)
#
#
# Indices 1 2 3 4 5 6 
#
# 1 104.0813 22.3281 46.8955 0.0000 -15.5772 0.0000
# 2 22.3281 66.8810 41.1435 0.0000 -6.3945 0.0000
# 3 46.8955 41.1435 111.1961 0.0000 -14.6463 0.0000
# 4 0.0000 0.0000 0.0000 20.7187 0.0000 -0.9733
# 5 -15.5772 -6.3945 -14.6463 0.0000 17.5254 0.0000
# 6 0.0000 0.0000 0.0000 -0.9733 0.0000 9.0709
#
#
#
# Elastic Compliance Matrix: (Units=1/GPa)
#
#
# Indices 1 2 3 4 5 6 
#
# 1 0.012777 -0.001087 -0.003981 0.000000 0.007633 0.000000
# 2 -0.001087 0.019474 -0.006673 0.000000 0.000563 0.000000
# 3 -0.003981 -0.006673 0.013882 0.000000 0.005629 0.000000
# 4 0.000000 0.000000 0.000000 0.048510 0.000000 0.005205
# 5 0.007633 0.000563 0.005629 0.000000 0.068754 0.000000
# 6 0.000000 0.000000 0.000000 0.005205 0.000000 0.110802
#
#
# Mechanical properties :
#
#
# Convention : Reuss Voigt Hill
#
# Bulk Modulus (GPa) = 44.14683 55.87694 50.01189
# Shear Modulus (GPa) = 16.38105 20.91576 18.64840
#
# Velocity S-wave (km/s) = 3.14268 3.55113 3.35313
# Velocity P-wave (km/s) = 6.30758 7.10657 6.71896
#
# Compressibility (1/GPa) = 0.02265168
#
# Stress axis : x y z
#
# Youngs Moduli (GPa) = 78.26460 51.35166 72.03320
#
# Poissons Ratio (x) = 0.05581 0.28677
# Poissons Ratio (y) = 0.08506 0.48067
# Poissons Ratio (z) = 0.31158 0.34267
#
# Static dielectric constant tensor:
#      x y z
#    x 3.438870 0.000000 -0.256720 
#    y 0.000000 3.230080 0.000000 
#    z -0.256720 0.000000 2.996670 
# 
# 
# High freq. dielectric constant tensor:
#      x y z
#    x 1.623300 0.000000 -0.025280 
#    y 0.000000 1.643400 0.000000 
#    z -0.025280 0.000000 1.602100 
# 
# From -- ./inp_files/247836.got.cif
#   From: 2010.06.25/outbox.cif.g09.slc.cpg/sg12_124_cif.got.tgz:247836.got - 2010.06.28 00:19:55.
