data_PCOD8078189
_publ_section_title
;
Structure prediction by ZEFSAII (Michael W. Deem and Ramdas Pophale) SiO2 
 PCOD8078189
Probable space group: C 2/M
;
_chemical_formula_sum "Si O2"
_cell_formula_units_Z 52
_cell_length_a 31.763142
_cell_length_b 16.274898
_cell_length_c 12.198650
_cell_angle_alpha 90.000000
_cell_angle_beta 151.077808
_cell_angle_gamma 90.000000
_cell_volume 3049.713510
_symmetry_space_group_name_H-M "C 2/M"
_symmetry_group_IT_number 12
_symmetry_cell_setting 'monoclinic'
loop_
_space_group_symop_operation_xyz
x,y,z
-x,y,-z
-x,-y,-z
x,-y,z
1/2+x,1/2+y,z
1/2-x,1/2+y,-z
1/2-x,1/2-y,-z
1/2+x,1/2-y,z
loop_
_atom_site_type_symbol
_atom_site_label
_atom_site_fract_x
_atom_site_fract_y
_atom_site_fract_z
Si Si1 0.094091 0.096511 0.178846
Si Si2 0.124168 0.905922 0.010986
Si Si3 0.000000 0.701955 0.500000
Si Si4 0.167215 0.404772 0.904442
Si Si5 0.678868 0.405330 0.592502
Si Si6 0.446779 0.345767 0.522958
Si Si7 0.303317 0.596442 0.039560
O O1 0.167534 0.114805 0.437877
O O2 0.081340 0.000000 0.130025
O O3 0.126521 0.136735 0.137060
O O4 0.000000 0.133454 0.000000
O O5 0.192048 0.867457 0.075174
O O6 0.028212 0.900908 0.741933
O O7 0.150638 0.000000 0.085247
O O8 0.079926 0.645697 0.718149
O O9 0.023623 0.754804 0.446144
O O10 0.144184 0.500000 0.832914
O O11 0.221891 0.393303 0.141832
O O12 0.223553 0.368017 0.930033
O O13 0.650148 0.500000 0.551290
O O14 0.617173 0.343104 0.518381
O O15 0.396618 0.385075 0.306103
O O16 0.290648 0.500000 0.007723
#
# Coordination Sequence:
#
# PCOD8078189 Si02
#       7
#     8   8   4   8   8   8   8
#     4   9  15  23  43  73 101 129 158 186 219 269
#     4  10  16  25  43  71 105 131 154 180 220 284
#     4  12  23  32  47  72  90 124 164 198 243 282
#     4   9  20  37  53  66  87 119 162 208 241 275
#     4   9  17  31  49  73  99 127 157 190 231 272
#     4  11  18  27  41  72  99 128 146 187 233 283
#     4   9  17  29  46  69  97 127 154 186 234 282
#
# _framework density 17.050782999999999
#
# number of rings (size 3 to 8) (size 9 to 14) (size 15 to 20)
#    0.000    2.308    3.077    2.538    0.000    3.692 
#    0.000    0.000    0.000    0.923    4.000    0.000 
#    0.000    7.385    0.000    0.000    0.000    0.000 
#
# Total GULP energy -322099.644596 kJ/mol
# GULP energy per Si atom -12388.447869 kJ/mol
# Density = 1.701197 g / cm^3
# Si number density = 17.050783 Si / 1000 Ang^3
#
#
#
# Elastic Constant Matrix: (Units=GPa)
#
#
# Indices 1 2 3 4 5 6 
#
# 1 109.4313 15.5140 62.5575 0.0000 -23.1894 0.0000
# 2 15.5140 25.9694 24.8612 0.0000 2.9300 0.0000
# 3 62.5575 24.8612 92.5443 0.0000 -3.9112 0.0000
# 4 0.0000 0.0000 0.0000 61.0924 0.0000 -9.6544
# 5 -23.1894 2.9300 -3.9112 0.0000 25.9679 0.0000
# 6 0.0000 0.0000 0.0000 -9.6544 0.0000 23.7421
#
#
#
# Elastic Compliance Matrix: (Units=1/GPa)
#
#
# Indices 1 2 3 4 5 6 
#
# 1 0.019765 -0.001988 -0.012148 0.000000 0.016044 0.000000
# 2 -0.001988 0.053743 -0.013511 0.000000 -0.009874 0.000000
# 3 -0.012148 -0.013511 0.022396 0.000000 -0.005951 0.000000
# 4 0.000000 0.000000 0.000000 0.017493 0.000000 0.007113
# 5 0.016044 -0.009874 -0.005951 0.000000 0.053055 0.000000
# 6 0.000000 0.000000 0.000000 0.007113 0.000000 0.045012
#
#
# Mechanical properties :
#
#
# Convention : Reuss Voigt Hill
#
# Bulk Modulus (GPa) = 24.62513 48.20116 36.41315
# Shear Modulus (GPa) = 17.83846 30.49462 24.16654
#
# Velocity S-wave (km/s) = 3.23800 4.23361 3.76882
# Velocity P-wave (km/s) = 5.33415 7.22692 6.35144
#
# Compressibility (1/GPa) = 0.04060892
#
# Stress axis : x y z
#
# Youngs Moduli (GPa) = 50.59547 18.60709 44.65127
#
# Poissons Ratio (x) = 0.03698 0.54244
# Poissons Ratio (y) = 0.10056 0.60330
# Poissons Ratio (z) = 0.61465 0.25141
#
# Static dielectric constant tensor:
#      x y z
#    x 3.725470 0.000000 -0.155110 
#    y 0.000000 2.768000 0.000000 
#    z -0.155110 0.000000 3.015780 
# 
# 
# High freq. dielectric constant tensor:
#      x y z
#    x 1.663870 0.000000 -0.008700 
#    y 0.000000 1.608780 0.000000 
#    z -0.008700 0.000000 1.638180 
# 
# From -- ./inp_files/189850.got.cif
#   From: 2010.06.25/outbox.cif.g09.slc.cpg/sg12_95_cif.got.tgz:189850.got - 2010.06.28 00:19:55.
