data_PCOD8078361
_publ_section_title
;
Structure prediction by ZEFSAII (Michael W. Deem and Ramdas Pophale) SiO2 
 PCOD8078361
Probable space group: C 2/M
;
_chemical_formula_sum "Si O2"
_cell_formula_units_Z 44
_cell_length_a 25.594679
_cell_length_b 9.326484
_cell_length_c 14.321957
_cell_angle_alpha 90.000000
_cell_angle_beta 42.832307
_cell_angle_gamma 90.000000
_cell_volume 2324.268234
_symmetry_space_group_name_H-M "C 2/M"
_symmetry_group_IT_number 12
_symmetry_cell_setting 'monoclinic'
loop_
_space_group_symop_operation_xyz
x,y,z
-x,y,-z
-x,-y,-z
x,-y,z
1/2+x,1/2+y,z
1/2-x,1/2+y,-z
1/2-x,1/2-y,-z
1/2+x,1/2-y,z
loop_
_atom_site_type_symbol
_atom_site_label
_atom_site_fract_x
_atom_site_fract_y
_atom_site_fract_z
Si Si1 0.847035 0.158670 0.785954
Si Si2 0.103964 0.333133 0.109822
Si Si3 0.500000 0.743556 0.500000
Si Si4 0.223189 0.327195 0.442238
Si Si5 0.778408 0.666847 0.197555
Si Si6 0.055245 0.339663 0.619000
O O1 0.842559 0.259547 0.882198
O O2 0.932868 0.147036 0.631531
O O3 0.789080 0.217172 0.783555
O O4 0.820833 0.000000 0.850924
O O5 0.101983 0.500000 0.139398
O O6 0.016653 0.269635 0.229486
O O7 0.139582 0.308549 0.960986
O O8 0.537071 0.840615 0.532531
O O9 0.229424 0.500000 0.440454
O O10 0.250000 0.250000 0.500000
O O11 0.277738 0.269413 0.288061
O O12 0.136908 0.266722 0.534922
O O13 0.768409 0.500000 0.239566
O O14 0.064885 0.500000 0.642274
#
# Coordination Sequence:
#
# PCOD8078361 Si02
#       6
#     8   8   4   8   8   8
#     4  10  19  29  47  79 117 150 179 214 267 326
#     4   9  19  34  54  79 111 146 181 221 267 322
#     4  10  16  30  50  80 115 144 179 216 273 326
#     4  11  23  40  60  82 106 141 186 231 273 320
#     4  10  20  36  55  79 110 145 183 224 270 321
#     4   9  18  33  55  82 109 140 182 225 269 319
#
# _framework density 18.930690999999999
#
# number of rings (size 3 to 8) (size 9 to 14) (size 15 to 20)
#    0.000    2.182    1.818    1.636    0.000    2.182 
#    0.000    1.818    0.000    5.455    0.000    0.000 
#    0.000    0.000    0.000    0.000    0.000    0.000 
#
# Total GULP energy -272675.383220 kJ/mol
# GULP energy per Si atom -12394.335601 kJ/mol
# Density = 1.888760 g / cm^3
# Si number density = 18.930691 Si / 1000 Ang^3
#
#
#
# Elastic Constant Matrix: (Units=GPa)
#
#
# Indices 1 2 3 4 5 6 
#
# 1 102.0571 28.2834 58.7268 0.0001 7.3705 0.0000
# 2 28.2834 68.3247 44.7338 -0.0009 11.3835 0.0002
# 3 58.7268 44.7338 126.3563 -0.0003 8.2681 0.0001
# 4 0.0001 -0.0009 -0.0003 29.6105 0.0004 6.2118
# 5 7.3705 11.3835 8.2681 0.0004 24.3851 -0.0001
# 6 0.0000 0.0002 0.0001 6.2118 -0.0001 24.3732
#
#
#
# Elastic Compliance Matrix: (Units=1/GPa)
#
#
# Indices 1 2 3 4 5 6 
#
# 1 0.013614 -0.001717 -0.005628 0.000000 -0.001405 0.000000
# 2 -0.001717 0.020423 -0.005975 0.000001 -0.006989 0.000000
# 3 -0.005628 -0.005975 0.012631 0.000000 0.000207 0.000000
# 4 0.000000 0.000001 0.000000 0.035679 -0.000001 -0.009093
# 5 -0.001405 -0.006989 0.000207 -0.000001 0.044626 0.000000
# 6 0.000000 0.000000 0.000000 -0.009093 0.000000 0.043346
#
#
# Mechanical properties :
#
#
# Convention : Reuss Voigt Hill
#
# Bulk Modulus (GPa) = 49.92653 62.24735 56.08694
# Shear Modulus (GPa) = 24.55362 26.67338 25.61350
#
# Velocity S-wave (km/s) = 3.60533 3.75774 3.68232
# Velocity P-wave (km/s) = 6.61527 7.19587 6.91167
#
# Compressibility (1/GPa) = 0.02002943
#
# Stress axis : x y z
#
# Youngs Moduli (GPa) = 73.45354 48.96382 79.16728
#
# Poissons Ratio (x) = 0.08407 0.44552
# Poissons Ratio (y) = 0.12611 0.47303
# Poissons Ratio (z) = 0.41337 0.29256
#
# Static dielectric constant tensor:
#      x y z
#    x 3.422530 0.000000 -0.283880 
#    y 0.000000 3.217720 0.000000 
#    z -0.283880 0.000000 3.627040 
# 
# 
# High freq. dielectric constant tensor:
#      x y z
#    x 1.716930 0.000000 -0.017350 
#    y 0.000000 1.716130 0.000000 
#    z -0.017350 0.000000 1.743440 
# 
# From -- ./inp_files/172772.got.cif
#   From: 2010.06.25/outbox.cif.g09.slc.cpg/sg12_87_cif.got.tgz:172772.got - 2010.06.28 00:19:55.
