data_PCOD8078894
_publ_section_title
;
Structure prediction by ZEFSAII (Michael W. Deem and Ramdas Pophale) SiO2 
 PCOD8078894
Probable space group: C 2/M
;
_chemical_formula_sum "Si O2"
_cell_formula_units_Z 64
_cell_length_a 30.289936
_cell_length_b 9.008435
_cell_length_c 31.272542
_cell_angle_alpha 90.000000
_cell_angle_beta 151.590771
_cell_angle_gamma 90.000000
_cell_volume 4059.795845
_symmetry_space_group_name_H-M "C 2/M"
_symmetry_group_IT_number 12
_symmetry_cell_setting 'monoclinic'
loop_
_space_group_symop_operation_xyz
x,y,z
-x,y,-z
-x,-y,-z
x,-y,z
1/2+x,1/2+y,z
1/2-x,1/2+y,-z
1/2-x,1/2-y,-z
1/2+x,1/2-y,z
loop_
_atom_site_type_symbol
_atom_site_label
_atom_site_fract_x
_atom_site_fract_y
_atom_site_fract_z
Si Si1 0.145480 0.176109 0.114726
Si Si2 0.175768 0.173074 0.382212
Si Si3 0.178456 0.826108 0.620328
Si Si4 0.984715 0.171479 0.584825
Si Si5 0.655254 0.176099 0.690094
Si Si6 0.864501 0.827117 0.559678
Si Si7 0.513700 0.675625 0.077316
Si Si8 0.637038 0.674754 0.256532
O O1 0.250876 0.234449 0.206482
O O2 0.091181 0.235177 0.110244
O O3 0.147464 0.000000 0.116557
O O4 0.088945 0.234374 0.024275
O O5 0.119413 0.221980 0.376997
O O6 0.275204 0.248554 0.464154
O O7 0.118876 0.215599 0.290841
O O8 0.195680 0.000000 0.400640
O O9 0.100324 0.792691 0.518802
O O10 0.144464 0.751091 0.634930
O O11 0.274502 0.758736 0.686337
O O12 0.191606 0.000000 0.639264
O O13 0.953948 0.211553 0.607208
O O14 0.070698 0.276484 0.647979
O O15 0.014848 0.000000 0.606296
O O16 0.655523 0.000000 0.684163
O O17 0.842660 0.000000 0.537615
O O18 0.511196 0.500000 0.072064
O O19 0.545074 0.725344 0.151679
O O20 0.655563 0.500000 0.266157
#
# Coordination Sequence:
#
# PCOD8078894 Si02
#       8
#     8   8   8   8   8   8   8   8
#     4   8  14  25  42  64  86 112 141 176 222 266
#     4   9  17  27  45  69  90 110 143 187 220 251
#     4  11  21  32  44  61  90 125 154 174 208 265
#     4  10  21  34  45  59  86 125 157 176 210 264
#     4  11  21  32  47  66  86 112 153 194 221 245
#     4   9  17  31  45  61  88 121 148 174 216 266
#     4   8  13  24  43  64  89 113 137 173 223 269
#     4  10  17  27  46  71  92 113 145 184 220 252
#
# _framework density 15.764340000000001
#
# number of rings (size 3 to 8) (size 9 to 14) (size 15 to 20)
#    0.000    2.500    2.500    1.875    0.000    3.000 
#    0.000    0.000    0.000    2.250    0.000    0.875 
#    0.000    0.000    0.000    0.000    0.000    0.000 
#
# Total GULP energy -396537.264242 kJ/mol
# GULP energy per Si atom -12391.789508 kJ/mol
# Density = 1.572846 g / cm^3
# Si number density = 15.764340 Si / 1000 Ang^3
#
#
#
# Elastic Constant Matrix: (Units=GPa)
#
#
# Indices 1 2 3 4 5 6 
#
# 1 96.7552 22.6708 50.5962 0.0001 -17.8258 -0.0002
# 2 22.6708 28.6652 22.7490 0.0001 -4.4105 -0.0014
# 3 50.5962 22.7490 96.0883 0.0010 -18.1226 0.0003
# 4 0.0001 0.0001 0.0010 10.5184 0.0003 0.3408
# 5 -17.8258 -4.4105 -18.1226 0.0003 21.5201 0.0000
# 6 -0.0002 -0.0014 0.0003 0.3408 0.0000 19.7418
#
#
#
# Elastic Compliance Matrix: (Units=1/GPa)
#
#
# Indices 1 2 3 4 5 6 
#
# 1 0.016270 -0.007435 -0.005412 0.000000 0.007396 0.000000
# 2 -0.007435 0.046355 -0.007644 0.000000 -0.003095 0.000003
# 3 -0.005412 -0.007644 0.016555 -0.000002 0.007892 -0.000001
# 4 0.000000 0.000000 -0.000002 0.095125 -0.000003 -0.001642
# 5 0.007396 -0.003095 0.007892 -0.000003 0.058606 0.000000
# 6 0.000000 0.000003 -0.000001 -0.001642 0.000000 0.050682
#
#
# Mechanical properties :
#
#
# Convention : Reuss Voigt Hill
#
# Bulk Modulus (GPa) = 26.17830 45.94894 36.06362
# Shear Modulus (GPa) = 14.82329 18.72223 16.77276
#
# Velocity S-wave (km/s) = 3.06977 3.44994 3.26539
# Velocity P-wave (km/s) = 5.40432 6.71417 6.09454
#
# Compressibility (1/GPa) = 0.03819958
#
# Stress axis : x y z
#
# Youngs Moduli (GPa) = 61.46244 21.57254 60.40499
#
# Poissons Ratio (x) = 0.16038 0.32692
# Poissons Ratio (y) = 0.45695 0.46171
# Poissons Ratio (z) = 0.33265 0.16489
#
# Static dielectric constant tensor:
#      x y z
#    x 3.166440 0.000000 -0.261490 
#    y 0.000000 2.844980 0.000000 
#    z -0.261490 0.000000 3.363980 
# 
# 
# High freq. dielectric constant tensor:
#      x y z
#    x 1.590330 0.000000 -0.016300 
#    y 0.000000 1.587810 0.000000 
#    z -0.016300 0.000000 1.597770 
# 
# From -- ./inp_files/384620.got.cif
#   From: 2010.06.25/outbox.cif.g09.slc.cpg/sg12_193_cif.got.tgz:384620.got - 2010.06.28 00:19:55.
