data_PCOD8078615
_publ_section_title
;
Structure prediction by ZEFSAII (Michael W. Deem and Ramdas Pophale) SiO2 
 PCOD8078615
Probable space group: C 2/M
;
_chemical_formula_sum "Si O2"
_cell_formula_units_Z 64
_cell_length_a 22.963923
_cell_length_b 9.054130
_cell_length_c 17.639383
_cell_angle_alpha 90.000000
_cell_angle_beta 101.735743
_cell_angle_gamma 90.000000
_cell_volume 3590.885233
_symmetry_space_group_name_H-M "C 2/M"
_symmetry_group_IT_number 12
_symmetry_cell_setting 'monoclinic'
loop_
_space_group_symop_operation_xyz
x,y,z
-x,y,-z
-x,-y,-z
x,-y,z
1/2+x,1/2+y,z
1/2-x,1/2+y,-z
1/2-x,1/2-y,-z
1/2+x,1/2-y,z
loop_
_atom_site_type_symbol
_atom_site_label
_atom_site_fract_x
_atom_site_fract_y
_atom_site_fract_z
Si Si1 0.538695 0.164343 0.693695
Si Si2 0.986727 0.827738 0.082449
Si Si3 0.726351 0.171183 0.567715
Si Si4 0.683585 0.334065 0.270585
Si Si5 0.794678 0.670235 0.215380
Si Si6 0.111709 0.662125 0.868101
Si Si7 0.634595 0.673413 0.638927
Si Si8 0.937502 0.674057 0.771244
O O1 0.579436 0.162899 0.778782
O O2 0.567010 0.270018 0.636839
O O3 0.473905 0.221482 0.704892
O O4 0.533938 0.000000 0.657840
O O5 0.035268 0.748112 0.146968
O O6 0.918962 0.778504 0.083812
O O7 0.992152 0.000000 0.098748
O O8 0.000000 0.784559 0.000000
O O9 0.750000 0.250000 0.500000
O O10 0.774597 0.193906 0.646369
O O11 0.663457 0.245534 0.573977
O O12 0.714840 0.000000 0.547636
O O13 0.657352 0.500000 0.264737
O O14 0.723407 0.309224 0.204708
O O15 0.630511 0.218408 0.257333
O O16 0.810397 0.500000 0.244803
O O17 0.818934 0.698359 0.135500
O O18 0.825726 0.788464 0.277925
O O19 0.106813 0.500000 0.904625
O O20 0.633221 0.500000 0.623513
O O21 0.942849 0.500000 0.784488
#
# Coordination Sequence:
#
# PCOD8078615 Si02
#       8
#     8   8   8   8   8   8   8   8
#     4   8  15  28  43  63  92 122 152 191 237 278
#     4  10  20  32  47  69  97 127 158 195 240 286
#     4  10  20  34  51  72  99 130 160 194 237 282
#     4   9  18  32  50  71  98 128 155 189 236 284
#     4   8  15  28  44  65  93 123 153 190 237 280
#     4   8  14  26  45  67  91 119 154 195 236 279
#     4  10  17  25  43  70  94 120 156 196 234 274
#     4  10  20  32  49  72  97 126 160 197 236 280
#
# _framework density 17.822903
#
# number of rings (size 3 to 8) (size 9 to 14) (size 15 to 20)
#    0.000    2.875    0.000    4.500    0.000    8.500 
#    0.000    0.000    0.000    1.500    0.000    5.250 
#    0.000    0.000    0.000    0.000    0.000    0.000 
#
# Total GULP energy -396513.122654 kJ/mol
# GULP energy per Si atom -12391.035083 kJ/mol
# Density = 1.778234 g / cm^3
# Si number density = 17.822903 Si / 1000 Ang^3
#
#
#
# Elastic Constant Matrix: (Units=GPa)
#
#
# Indices 1 2 3 4 5 6 
#
# 1 116.2293 50.5034 46.8159 0.0000 -40.1461 0.0000
# 2 50.5034 100.7279 48.2160 0.0000 -24.0219 0.0000
# 3 46.8159 48.2160 70.1904 0.0000 -34.6388 0.0000
# 4 0.0000 0.0000 0.0000 25.0037 0.0000 -8.4992
# 5 -40.1461 -24.0219 -34.6388 0.0000 31.9871 0.0000
# 6 0.0000 0.0000 0.0000 -8.4992 0.0000 29.4433
#
#
#
# Elastic Compliance Matrix: (Units=1/GPa)
#
#
# Indices 1 2 3 4 5 6 
#
# 1 0.016484 -0.004410 0.001310 0.000000 0.018796 0.000000
# 2 -0.004410 0.015972 -0.010400 0.000000 -0.004802 0.000000
# 3 0.001310 -0.010400 0.037532 0.000000 0.034477 0.000000
# 4 0.000000 0.000000 0.000000 0.044345 0.000000 0.012801
# 5 0.018796 -0.004802 0.034477 0.000000 0.088582 0.000000
# 6 0.000000 0.000000 0.000000 0.012801 0.000000 0.037659
#
#
# Mechanical properties :
#
#
# Convention : Reuss Voigt Hill
#
# Bulk Modulus (GPa) = 23.26201 64.24647 43.75424
# Shear Modulus (GPa) = 17.73664 26.72765 22.23214
#
# Velocity S-wave (km/s) = 3.15804 3.87670 3.53568
# Velocity P-wave (km/s) = 5.13592 7.49425 6.42423
#
# Compressibility (1/GPa) = 0.04298854
#
# Stress axis : x y z
#
# Youngs Moduli (GPa) = 60.66400 62.61071 26.64417
#
# Poissons Ratio (x) = 0.27608 -0.03491
# Poissons Ratio (y) = 0.26750 0.27711
# Poissons Ratio (z) = -0.07948 0.65117
#
# Static dielectric constant tensor:
#      x y z
#    x 3.649420 0.000000 -0.668830 
#    y 0.000000 3.281110 0.000000 
#    z -0.668830 0.000000 3.102830 
# 
# 
# High freq. dielectric constant tensor:
#      x y z
#    x 1.684310 0.000000 -0.050810 
#    y 0.000000 1.692910 0.000000 
#    z -0.050810 0.000000 1.648130 
# 
# From -- ./inp_files/287550.got.cif
#   From: 2010.06.25/outbox.cif.g09.slc.cpg/sg12_144_cif.got.tgz:287550.got - 2010.06.28 00:19:55.
