data_PCOD8078004
_publ_section_title
;
Structure prediction by ZEFSAII (Michael W. Deem and Ramdas Pophale) SiO2 
 PCOD8078004
Probable space group: P 21/M
;
_chemical_formula_sum "Si O2"
_cell_formula_units_Z 32
_cell_length_a 21.000000
_cell_length_b 9.000000
_cell_length_c 27.000000
_cell_angle_alpha 90.000000
_cell_angle_beta 20.000000
_cell_angle_gamma 90.000000
_cell_volume 1745.328791
_symmetry_space_group_name_H-M "P 21/M"
_symmetry_group_IT_number 11
_symmetry_cell_setting 'monoclinic'
loop_
_space_group_symop_operation_xyz
x,y,z
-x,1/2+y,-z
-x,-y,-z
x,1/2-y,z
loop_
_atom_site_type_symbol
_atom_site_label
_atom_site_fract_x
_atom_site_fract_y
_atom_site_fract_z
Si Si1 0.370055 0.072034 0.637793
Si Si2 0.955927 0.578667 0.678557
Si Si3 0.047858 0.919227 0.042640
Si Si4 0.651712 0.923202 0.620583
Si Si5 0.689472 0.575242 0.961856
Si Si6 0.374313 0.926189 0.735884
Si Si7 0.670845 0.080102 0.073656
Si Si8 0.602948 0.577607 0.880192
O O1 0.381757 0.250000 0.623315
O O2 0.154576 0.009574 0.796345
O O3 0.500000 0.000000 0.500000
O O4 0.442319 0.017897 0.638331
O O5 0.002326 0.750000 0.652801
O O6 0.824613 0.554544 0.725961
O O7 0.148303 0.498530 0.527450
O O8 0.846097 0.519560 0.807958
O O9 0.006447 0.750000 0.059748
O O10 0.171185 0.982455 0.905772
O O11 0.173987 0.935192 0.998278
O O12 0.689033 0.750000 0.595942
O O13 0.534628 0.964290 0.657775
O O14 0.529907 0.971543 0.757704
O O15 0.665633 0.750000 0.974468
O O16 0.745485 0.526786 0.975866
O O17 0.484796 0.499771 0.104010
O O18 0.366539 0.750000 0.730709
O O19 0.658457 0.250000 0.063949
O O20 0.552355 0.750000 0.916621
O O21 0.500000 0.500000 0.000000
#
# Coordination Sequence:
#
# PCOD8078004 Si02
#       8
#     4   4   4   4   4   4   4   4
#     4  11  22  35  52  78 107 135 166 206 253 299
#     4   9  19  33  50  74 104 132 166 210 253 297
#     4   8  17  35  57  75  97 132 173 209 248 299
#     4   9  19  34  54  77 101 131 169 207 251 303
#     4  10  20  33  50  76 104 133 169 210 252 299
#     4   9  18  36  57  76  99 131 170 211 249 297
#     4   9  18  35  55  75  99 131 170 212 251 296
#     4   9  17  31  50  73 100 133 170 209 250 298
#
# _framework density 18.334654
#
# number of rings (size 3 to 8) (size 9 to 14) (size 15 to 20)
#    0.000    2.750    0.000    3.750    0.000    5.000 
#    0.000    8.125    0.000    0.000    0.000    0.000 
#    0.000    0.000    0.000    0.000    0.000    0.000 
#
# Total GULP energy -396430.569041 kJ/mol
# GULP energy per Si atom -12388.455283 kJ/mol
# Density = 1.829292 g / cm^3
# Si number density = 18.334654 Si / 1000 Ang^3
#
#
#
# Elastic Constant Matrix: (Units=GPa)
#
#
# Indices 1 2 3 4 5 6 
#
# 1 23.7185 8.0717 15.8519 0.0000 11.2938 0.0000
# 2 8.0717 48.9403 25.8104 0.0000 -0.3999 0.0000
# 3 15.8519 25.8104 117.0225 0.0000 0.4797 0.0000
# 4 0.0000 0.0000 0.0000 34.5117 0.0000 1.5445
# 5 11.2938 -0.3999 0.4797 0.0000 30.2597 0.0000
# 6 0.0000 0.0000 0.0000 1.5445 0.0000 30.5651
#
#
#
# Elastic Compliance Matrix: (Units=1/GPa)
#
#
# Indices 1 2 3 4 5 6 
#
# 1 0.059244 -0.006526 -0.006495 0.000000 -0.022095 0.000000
# 2 -0.006526 0.023846 -0.004387 0.000000 0.002820 0.000000
# 3 -0.006495 -0.004387 0.010384 0.000000 0.002202 0.000000
# 4 0.000000 0.000000 0.000000 0.029041 0.000000 -0.001468
# 5 -0.022095 0.002820 0.002202 0.000000 0.041296 0.000000
# 6 0.000000 0.000000 0.000000 -0.001468 0.000000 0.032791
#
#
# Mechanical properties :
#
#
# Convention : Reuss Voigt Hill
#
# Bulk Modulus (GPa) = 17.04823 32.12769 24.58796
# Shear Modulus (GPa) = 19.92259 28.39712 24.15985
#
# Velocity S-wave (km/s) = 3.29995 3.93978 3.63397
# Velocity P-wave (km/s) = 4.88243 6.18521 5.57202
#
# Compressibility (1/GPa) = 0.05865710
#
# Stress axis : x y z
#
# Youngs Moduli (GPa) = 16.87939 41.93554 96.30393
#
# Poissons Ratio (x) = 0.27367 0.62552
# Poissons Ratio (y) = 0.11016 0.42249
# Poissons Ratio (z) = 0.10964 0.18397
#
# Static dielectric constant tensor:
#      x y z
#    x 3.473460 0.000000 -0.105160 
#    y 0.000000 3.383510 0.000000 
#    z -0.105160 0.000000 3.654980 
# 
# 
# High freq. dielectric constant tensor:
#      x y z
#    x 1.708260 0.000000 -0.003190 
#    y 0.000000 1.699710 0.000000 
#    z -0.003190 0.000000 1.718150 
# 
# From -- ./inp_files/71966.got.cif
#   From: 2010.06.25/outbox.ucp.g09.slc.cvg/sg11_36_cif.got.tgz:71966.got - 2010.06.28 13:43:20.
