data_PCOD8078959
_publ_section_title
;
Structure prediction by ZEFSAII (Michael W. Deem and Ramdas Pophale) SiO2 
 PCOD8078959
Probable space group: C 2/M
;
_chemical_formula_sum "Si O2"
_cell_formula_units_Z 64
_cell_length_a 27.210470
_cell_length_b 8.879765
_cell_length_c 23.991501
_cell_angle_alpha 90.000000
_cell_angle_beta 135.598821
_cell_angle_gamma 90.000000
_cell_volume 4055.955492
_symmetry_space_group_name_H-M "C 2/M"
_symmetry_group_IT_number 12
_symmetry_cell_setting 'monoclinic'
loop_
_space_group_symop_operation_xyz
x,y,z
-x,y,-z
-x,-y,-z
x,-y,z
1/2+x,1/2+y,z
1/2-x,1/2+y,-z
1/2-x,1/2-y,-z
1/2+x,1/2-y,z
loop_
_atom_site_type_symbol
_atom_site_label
_atom_site_fract_x
_atom_site_fract_y
_atom_site_fract_z
Si Si1 0.681795 0.177213 0.970442
Si Si2 0.306174 0.820058 0.503372
Si Si3 0.402012 0.678412 0.661388
Si Si4 0.708889 0.823026 0.345934
Si Si5 0.634653 0.173301 0.050580
Si Si6 0.145101 0.327931 0.179949
Si Si7 0.001922 0.828808 0.085516
Si Si8 0.454690 0.328696 0.171133
O O1 0.613527 0.222930 0.878553
O O2 0.691152 0.000000 0.975990
O O3 0.750000 0.250000 0.000000
O O4 0.673840 0.240931 0.027768
O O5 0.250000 0.750000 0.500000
O O6 0.380662 0.752516 0.584414
O O7 0.281911 0.758618 0.423199
O O8 0.307226 0.000000 0.505232
O O9 0.386696 0.500000 0.649787
O O10 0.357821 0.753626 0.675731
O O11 0.485099 0.712185 0.735090
O O12 0.701911 0.791905 0.273988
O O13 0.712761 0.000000 0.362866
O O14 0.677115 0.198738 0.143311
O O15 0.623474 0.000000 0.028056
O O16 0.557396 0.241420 0.997035
O O17 0.119615 0.500000 0.165325
O O18 0.078973 0.222314 0.132779
O O19 0.991765 0.802633 0.142464
O O20 0.993741 0.000000 0.061211
O O21 0.429019 0.500000 0.157787
#
# Coordination Sequence:
#
# PCOD8078959 Si02
#       8
#     8   8   8   8   8   8   8   8
#     4  10  20  34  52  67  86 112 142 181 225 268
#     4  10  18  27  39  56  81 114 150 186 217 254
#     4  10  17  28  43  60  85 115 147 185 217 252
#     4  10  18  27  40  58  82 117 153 184 215 251
#     4   9  19  33  45  61  83 113 146 178 217 260
#     4  10  19  29  42  59  85 117 151 182 210 253
#     4  10  18  28  41  61  87 115 146 181 217 250
#     4   9  18  30  45  65  89 115 146 181 218 259
#
# _framework density 15.779266
#
# number of rings (size 3 to 8) (size 9 to 14) (size 15 to 20)
#    0.000    2.250    1.250    4.500    0.000    4.500 
#    0.000    0.000    0.000    0.000    0.000    0.000 
#    0.000    1.000    0.000   11.500    0.000    3.250 
#
# Total GULP energy -396567.353249 kJ/mol
# GULP energy per Si atom -12392.729789 kJ/mol
# Density = 1.574335 g / cm^3
# Si number density = 15.779266 Si / 1000 Ang^3
#
#
#
# Elastic Constant Matrix: (Units=GPa)
#
#
# Indices 1 2 3 4 5 6 
#
# 1 51.7143 29.4042 45.9609 0.0000 4.1684 0.0000
# 2 29.4042 79.0136 48.3724 0.0000 1.2274 -0.0001
# 3 45.9609 48.3724 135.4676 0.0000 -4.3259 0.0000
# 4 0.0000 0.0000 0.0000 25.3685 0.0000 4.2015
# 5 4.1684 1.2274 -4.3259 0.0000 14.7098 0.0000
# 6 0.0000 -0.0001 0.0000 4.2015 0.0000 16.3324
#
#
#
# Elastic Compliance Matrix: (Units=1/GPa)
#
#
# Indices 1 2 3 4 5 6 
#
# 1 0.031626 -0.006159 -0.008884 0.000000 -0.011061 0.000000
# 2 -0.006159 0.017536 -0.004203 0.000000 -0.000954 0.000000
# 3 -0.008884 -0.004203 0.012102 0.000000 0.006427 0.000000
# 4 0.000000 0.000000 0.000000 0.041173 0.000000 -0.010592
# 5 -0.011061 -0.000954 0.006427 0.000000 0.073086 0.000000
# 6 0.000000 0.000000 0.000000 -0.010592 0.000000 0.063953
#
#
# Mechanical properties :
#
#
# Convention : Reuss Voigt Hill
#
# Bulk Modulus (GPa) = 43.91176 57.07449 50.49313
# Shear Modulus (GPa) = 17.50967 20.77934 19.14450
#
# Velocity S-wave (km/s) = 3.33477 3.63282 3.48698
# Velocity P-wave (km/s) = 6.53581 7.33795 6.94847
#
# Compressibility (1/GPa) = 0.02277294
#
# Stress axis : x y z
#
# Youngs Moduli (GPa) = 31.61962 57.02699 82.63204
#
# Poissons Ratio (x) = 0.35121 0.73411
# Poissons Ratio (y) = 0.19473 0.34726
# Poissons Ratio (z) = 0.28091 0.23966
#
# Static dielectric constant tensor:
#      x y z
#    x 2.631480 0.000000 -0.163320 
#    y 0.000000 3.121510 0.000000 
#    z -0.163320 0.000000 3.867510 
# 
# 
# High freq. dielectric constant tensor:
#      x y z
#    x 1.540770 0.000000 -0.009670 
#    y 0.000000 1.619680 0.000000 
#    z -0.009670 0.000000 1.617700 
# 
# From -- ./inp_files/350964.got.cif
#   From: 2010.06.25/outbox.cif.g09.slc.cpg/sg12_176_cif.got.tgz:350964.got - 2010.06.28 00:19:55.
