data_PCOD8078539
_publ_section_title
;
Structure prediction by ZEFSAII (Michael W. Deem and Ramdas Pophale) SiO2 
 PCOD8078539
Probable space group: C 2/M
;
_chemical_formula_sum "Si O2"
_cell_formula_units_Z 48
_cell_length_a 20.706680
_cell_length_b 8.521569
_cell_length_c 23.085113
_cell_angle_alpha 90.000000
_cell_angle_beta 40.929600
_cell_angle_gamma 90.000000
_cell_volume 2668.642101
_symmetry_space_group_name_H-M "C 2/M"
_symmetry_group_IT_number 12
_symmetry_cell_setting 'monoclinic'
loop_
_space_group_symop_operation_xyz
x,y,z
-x,y,-z
-x,-y,-z
x,-y,z
1/2+x,1/2+y,z
1/2-x,1/2+y,-z
1/2-x,1/2-y,-z
1/2+x,1/2-y,z
loop_
_atom_site_type_symbol
_atom_site_label
_atom_site_fract_x
_atom_site_fract_y
_atom_site_fract_z
Si Si1 0.991931 0.185427 0.939472
Si Si2 0.689829 0.185462 0.763783
Si Si3 0.176561 0.814422 0.221980
Si Si4 0.356381 0.182407 0.586936
Si Si5 0.996170 0.818011 0.587826
Si Si6 0.286760 0.186333 0.035567
O O1 0.077476 0.259781 0.842363
O O2 0.000817 0.000000 0.931329
O O3 0.891030 0.239491 0.979531
O O4 0.000000 0.247917 0.000000
O O5 0.745273 0.250495 0.783774
O O6 0.742620 0.264685 0.671628
O O7 0.694751 0.000000 0.753963
O O8 0.063761 0.761842 0.313707
O O9 0.207594 0.755832 0.137390
O O10 0.182489 0.000000 0.221636
O O11 0.419341 0.289293 0.587904
O O12 0.402151 0.220850 0.491928
O O13 0.369654 0.000000 0.591764
O O14 0.023734 0.000000 0.573025
O O15 0.296318 0.000000 0.027913
O O16 0.250000 0.250000 0.000000
#
# Coordination Sequence:
#
# PCOD8078539 Si02
#       6
#     8   8   8   8   8   8
#     4  11  22  35  53  80 107 135 173 219 266 314
#     4  10  18  31  50  72  98 136 174 210 254 310
#     4   8  16  29  48  70  96 131 173 212 254 303
#     4  10  17  25  38  65 100 131 160 207 259 303
#     4   9  15  26  42  63  91 131 171 205 248 310
#     4  11  22  38  55  76 105 141 180 220 263 310
#
# _framework density 17.986677
#
# number of rings (size 3 to 8) (size 9 to 14) (size 15 to 20)
#    0.000    2.167    1.667    5.500    0.000    0.667 
#    0.000    2.500    0.000    0.000    0.000    1.167 
#    0.000    0.000    0.000    0.000    0.000    0.000 
#
# Total GULP energy -297430.854948 kJ/mol
# GULP energy per Si atom -12392.952289 kJ/mol
# Density = 1.794574 g / cm^3
# Si number density = 17.986677 Si / 1000 Ang^3
#
#
#
# Elastic Constant Matrix: (Units=GPa)
#
#
# Indices 1 2 3 4 5 6 
#
# 1 57.6139 8.3650 39.8079 0.0002 0.9668 -0.0003
# 2 8.3650 58.2543 35.1560 0.0006 -1.1830 -0.0009
# 3 39.8079 35.1560 195.3879 0.0001 -6.3451 0.0000
# 4 0.0002 0.0006 0.0001 25.6106 0.0000 -2.8451
# 5 0.9668 -1.1830 -6.3451 0.0000 14.8587 0.0001
# 6 -0.0003 -0.0009 0.0000 -2.8451 0.0001 18.5969
#
#
#
# Elastic Compliance Matrix: (Units=1/GPa)
#
#
# Indices 1 2 3 4 5 6 
#
# 1 0.020355 -0.000474 -0.004164 0.000000 -0.003140 0.000000
# 2 -0.000474 0.019268 -0.003366 0.000000 0.000127 0.000001
# 3 -0.004164 -0.003366 0.006665 0.000000 0.002849 0.000000
# 4 0.000000 0.000000 0.000000 0.039721 0.000000 0.006077
# 5 -0.003140 0.000127 0.002849 0.000000 0.068732 0.000000
# 6 0.000000 0.000001 0.000000 0.006077 0.000000 0.054702
#
#
# Mechanical properties :
#
#
# Convention : Reuss Voigt Hill
#
# Bulk Modulus (GPa) = 33.02475 53.10154 43.06314
# Shear Modulus (GPa) = 21.22738 27.00838 24.11788
#
# Velocity S-wave (km/s) = 3.43909 3.87922 3.66577
# Velocity P-wave (km/s) = 5.84554 7.04637 6.47386
#
# Compressibility (1/GPa) = 0.03028032
#
# Stress axis : x y z
#
# Youngs Moduli (GPa) = 49.12697 51.89885 150.04731
#
# Poissons Ratio (x) = 0.02459 0.62478
# Poissons Ratio (y) = 0.02328 0.50510
# Poissons Ratio (z) = 0.20456 0.17470
#
# Static dielectric constant tensor:
#      x y z
#    x 2.850420 0.000000 0.145710 
#    y 0.000000 3.217680 0.000000 
#    z 0.145710 0.000000 4.402920 
# 
# 
# High freq. dielectric constant tensor:
#      x y z
#    x 1.614850 0.000000 -0.007970 
#    y 0.000000 1.697250 0.000000 
#    z -0.007970 0.000000 1.732570 
# 
# From -- ./inp_files/229265.got.cif
#   From: 2010.06.25/outbox.cif.g09.slc.cpg/sg12_115_cif.got.tgz:229265.got - 2010.06.28 00:19:55.
