data_PCOD8078747
_publ_section_title
;
Structure prediction by ZEFSAII (Michael W. Deem and Ramdas Pophale) SiO2 
 PCOD8078747
Probable space group: C 2/M
;
_chemical_formula_sum "Si O2"
_cell_formula_units_Z 64
_cell_length_a 23.462466
_cell_length_b 8.618854
_cell_length_c 18.201961
_cell_angle_alpha 90.000000
_cell_angle_beta 90.736107
_cell_angle_gamma 90.000000
_cell_volume 3680.488939
_symmetry_space_group_name_H-M "C 2/M"
_symmetry_group_IT_number 12
_symmetry_cell_setting 'monoclinic'
loop_
_space_group_symop_operation_xyz
x,y,z
-x,y,-z
-x,-y,-z
x,-y,z
1/2+x,1/2+y,z
1/2-x,1/2+y,-z
1/2-x,1/2-y,-z
1/2+x,1/2-y,z
loop_
_atom_site_type_symbol
_atom_site_label
_atom_site_fract_x
_atom_site_fract_y
_atom_site_fract_z
Si Si1 0.245779 0.684084 0.918038
Si Si2 0.561592 0.183204 0.727196
Si Si3 0.434459 0.179651 0.563940
Si Si4 0.630521 0.316217 0.862629
Si Si5 0.431282 0.181812 0.725756
Si Si6 0.366513 0.682411 0.858103
Si Si7 0.563464 0.684699 0.004607
Si Si8 0.557512 0.680949 0.578882
O O1 0.237823 0.500000 0.922682
O O2 0.195368 0.762403 0.871342
O O3 0.301855 0.731483 0.873301
O O4 0.250000 0.750000 0.000000
O O5 0.601660 0.232281 0.794006
O O6 0.496376 0.241526 0.739620
O O7 0.587960 0.266028 0.654696
O O8 0.563572 0.000000 0.715886
O O9 0.408483 0.223857 0.643290
O O10 0.406931 0.277789 0.495418
O O11 0.501208 0.215378 0.572173
O O12 0.424952 0.000000 0.546803
O O13 0.627165 0.500000 0.851936
O O14 0.597733 0.258423 0.934352
O O15 0.386787 0.259148 0.779765
O O16 0.430404 0.000000 0.739059
O O17 0.372731 0.500000 0.859687
O O18 0.406535 0.753930 0.922529
O O19 0.562617 0.500000 0.007117
O O20 0.500000 0.753519 0.000000
O O21 0.543163 0.500000 0.580420
#
# Coordination Sequence:
#
# PCOD8078747 Si02
#       8
#     8   8   8   8   8   8   8   8
#     4  11  22  38  56  74  97 129 170 217 261 302
#     4  10  20  34  49  72 107 140 168 204 256 308
#     4   9  16  28  44  66 101 139 169 203 250 300
#     4  11  21  35  54  75  99 130 171 213 256 301
#     4   9  19  32  48  73 105 137 169 206 251 301
#     4  10  20  34  51  72  98 132 170 208 255 302
#     4   9  17  30  48  71  99 129 161 199 246 299
#     4  10  17  26  44  71  99 133 175 209 242 292
#
# _framework density 17.388994
#
# number of rings (size 3 to 8) (size 9 to 14) (size 15 to 20)
#    0.000    2.125    1.250    4.875    0.000    5.000 
#    0.000    0.000    0.000    2.625    0.000    0.875 
#    0.000    0.000    0.000    0.000    0.000    0.000 
#
# Total GULP energy -396662.379970 kJ/mol
# GULP energy per Si atom -12395.699374 kJ/mol
# Density = 1.734942 g / cm^3
# Si number density = 17.388994 Si / 1000 Ang^3
#
#
#
# Elastic Constant Matrix: (Units=GPa)
#
#
# Indices 1 2 3 4 5 6 
#
# 1 92.4199 24.6039 57.9581 0.0000 -6.8964 0.0000
# 2 24.6039 43.4483 33.4744 0.0000 -5.1720 0.0000
# 3 57.9581 33.4744 140.3634 0.0000 -21.4603 0.0000
# 4 0.0000 0.0000 0.0000 32.4586 0.0000 -1.2218
# 5 -6.8964 -5.1720 -21.4603 0.0000 8.4022 0.0000
# 6 0.0000 0.0000 0.0000 -1.2218 0.0000 20.3798
#
#
#
# Elastic Compliance Matrix: (Units=1/GPa)
#
#
# Indices 1 2 3 4 5 6 
#
# 1 0.015517 -0.004727 -0.006198 0.000000 -0.006003 0.000000
# 2 -0.004727 0.029637 -0.004791 0.000000 0.002126 0.000000
# 3 -0.006198 -0.004791 0.015747 0.000000 0.032182 0.000000
# 4 0.000000 0.000000 0.000000 0.030878 0.000000 0.001851
# 5 -0.006003 0.002126 0.032182 0.000000 0.197594 0.000000
# 6 0.000000 0.000000 0.000000 0.001851 0.000000 0.049179
#
#
# Mechanical properties :
#
#
# Convention : Reuss Voigt Hill
#
# Bulk Modulus (GPa) = 33.93369 56.47830 45.20600
# Shear Modulus (GPa) = 13.16460 22.92781 18.04620
#
# Velocity S-wave (km/s) = 2.75447 3.63509 3.22498
# Velocity P-wave (km/s) = 5.44729 7.08296 6.31828
#
# Compressibility (1/GPa) = 0.02946924
#
# Stress axis : x y z
#
# Youngs Moduli (GPa) = 64.44385 33.74180 63.50586
#
# Poissons Ratio (x) = 0.15948 0.39361
# Poissons Ratio (y) = 0.30460 0.30427
# Poissons Ratio (z) = 0.39942 0.16166
#
# Static dielectric constant tensor:
#      x y z
#    x 3.150020 0.000000 -0.208870 
#    y 0.000000 3.117780 0.000000 
#    z -0.208870 0.000000 3.884130 
# 
# 
# High freq. dielectric constant tensor:
#      x y z
#    x 1.627860 0.000000 -0.006370 
#    y 0.000000 1.670030 0.000000 
#    z -0.006370 0.000000 1.690080 
# 
# From -- ./inp_files/287711.got.cif
#   From: 2010.06.25/outbox.cif.g09.slc.cpg/sg12_144_cif.got.tgz:287711.got - 2010.06.28 00:19:55.
