data_PCOD8078148
_publ_section_title
;
Structure prediction by ZEFSAII (Michael W. Deem and Ramdas Pophale) SiO2 
 PCOD8078148
Probable space group: C 2/M
;
_chemical_formula_sum "Si O2"
_cell_formula_units_Z 56
_cell_length_a 28.549095
_cell_length_b 19.161823
_cell_length_c 14.566715
_cell_angle_alpha 90.000000
_cell_angle_beta 154.133241
_cell_angle_gamma 90.000000
_cell_volume 3476.609572
_symmetry_space_group_name_H-M "C 2/M"
_symmetry_group_IT_number 12
_symmetry_cell_setting 'monoclinic'
loop_
_space_group_symop_operation_xyz
x,y,z
-x,y,-z
-x,-y,-z
x,-y,z
1/2+x,1/2+y,z
1/2-x,1/2+y,-z
1/2-x,1/2-y,-z
1/2+x,1/2-y,z
loop_
_atom_site_type_symbol
_atom_site_label
_atom_site_fract_x
_atom_site_fract_y
_atom_site_fract_z
Si Si1 0.875924 0.314201 0.293665
Si Si2 0.914236 0.077943 0.236343
Si Si3 0.849461 0.918968 0.418271
Si Si4 0.140924 0.917235 0.170079
Si Si5 0.594581 0.417180 0.286328
Si Si6 0.273120 0.079311 0.237286
Si Si7 0.284057 0.334482 0.142757
O O1 0.863830 0.371992 0.352321
O O2 0.811583 0.245708 0.211680
O O3 0.000000 0.297488 0.500000
O O4 0.825864 0.341568 0.109272
O O5 0.882305 0.130928 0.260234
O O6 0.031363 0.096207 0.407257
O O7 0.909492 0.000000 0.270035
O O8 0.835601 0.084217 0.012070
O O9 0.844066 0.890833 0.513920
O O10 0.767846 0.874465 0.211035
O O11 0.817598 0.000000 0.355330
O O12 0.160757 0.894975 0.311388
O O13 0.240149 0.892557 0.280857
O O14 0.133588 0.000000 0.149100
O O15 0.026436 0.886411 0.933873
O O16 0.585320 0.500000 0.277194
O O17 0.317587 0.000000 0.318415
#
# Coordination Sequence:
#
# PCOD8078148 Si02
#       7
#     8   8   8   8   8   8   8
#     4  10  21  35  46  60  83 113 149 183 216 257
#     4   9  15  24  40  65  92 116 140 171 211 258
#     4  10  16  24  41  68  95 117 141 172 217 262
#     4   8  12  22  38  62  94 120 141 171 213 258
#     4   8  13  20  37  65  96 120 137 168 215 262
#     4   9  16  27  44  63  85 115 151 184 213 249
#     4  10  20  31  45  62  85 115 143 177 216 267
#
# _framework density 16.107647
#
# number of rings (size 3 to 8) (size 9 to 14) (size 15 to 20)
#    0.000    2.857    1.429    2.571    0.000    2.000 
#    0.000    0.000    0.000    0.857    0.000    1.000 
#    0.000    4.571    0.000    0.000    0.000    0.000 
#
# Total GULP energy -347006.135051 kJ/mol
# GULP energy per Si atom -12393.076252 kJ/mol
# Density = 1.607099 g / cm^3
# Si number density = 16.107647 Si / 1000 Ang^3
#
#
#
# Elastic Constant Matrix: (Units=GPa)
#
#
# Indices 1 2 3 4 5 6 
#
# 1 89.7378 29.0345 35.9499 0.0000 -26.2380 0.0000
# 2 29.0345 47.1723 13.1523 0.0000 -9.4887 0.0000
# 3 35.9499 13.1523 56.1716 0.0000 -16.3079 0.0000
# 4 0.0000 0.0000 0.0000 17.2540 0.0000 -3.7072
# 5 -26.2380 -9.4887 -16.3079 0.0000 28.6149 0.0000
# 6 0.0000 0.0000 0.0000 -3.7072 0.0000 2.7893
#
#
#
# Elastic Compliance Matrix: (Units=1/GPa)
#
#
# Indices 1 2 3 4 5 6 
#
# 1 0.020153 -0.007951 -0.007713 0.000000 0.011447 0.000000
# 2 -0.007951 0.026531 -0.000822 0.000000 0.001039 0.000000
# 3 -0.007713 -0.000822 0.024923 0.000000 0.006859 0.000000
# 4 0.000000 0.000000 0.000000 0.081124 0.000000 0.107819
# 5 0.011447 0.001039 0.006859 0.000000 0.049696 0.000000
# 6 0.000000 0.000000 0.000000 0.107819 0.000000 0.501814
#
#
# Mechanical properties :
#
#
# Convention : Reuss Voigt Hill
#
# Bulk Modulus (GPa) = 25.88354 38.81723 32.35039
# Shear Modulus (GPa) = 6.66587 17.39461 12.03024
#
# Velocity S-wave (km/s) = 2.03649 3.28974 2.73585
# Velocity P-wave (km/s) = 4.65121 6.21135 5.48701
#
# Compressibility (1/GPa) = 0.03863459
#
# Stress axis : x y z
#
# Youngs Moduli (GPa) = 49.62075 37.69198 40.12421
#
# Poissons Ratio (x) = 0.29969 0.30948
# Poissons Ratio (y) = 0.39454 0.03297
# Poissons Ratio (z) = 0.38272 0.03097
#
# Static dielectric constant tensor:
#      x y z
#    x 3.284290 0.000000 -0.357750 
#    y 0.000000 2.837250 0.000000 
#    z -0.357750 0.000000 2.901440 
# 
# 
# High freq. dielectric constant tensor:
#      x y z
#    x 1.612350 0.000000 -0.026020 
#    y 0.000000 1.586700 0.000000 
#    z -0.026020 0.000000 1.590660 
# 
# From -- ./inp_files/215484.got.cif
#   From: 2010.06.25/outbox.cif.g09.slc.cpg/sg12_108_cif.got.tgz:215484.got - 2010.06.28 00:19:55.
