data_PCOD8078665
_publ_section_title
;
Structure prediction by ZEFSAII (Michael W. Deem and Ramdas Pophale) SiO2 
 PCOD8078665
Probable space group: C 2/M
;
_chemical_formula_sum "Si O2"
_cell_formula_units_Z 56
_cell_length_a 27.571486
_cell_length_b 8.919091
_cell_length_c 14.597893
_cell_angle_alpha 90.000000
_cell_angle_beta 76.352844
_cell_angle_gamma 90.000000
_cell_volume 3488.455243
_symmetry_space_group_name_H-M "C 2/M"
_symmetry_group_IT_number 12
_symmetry_cell_setting 'monoclinic'
loop_
_space_group_symop_operation_xyz
x,y,z
-x,y,-z
-x,-y,-z
x,-y,z
1/2+x,1/2+y,z
1/2-x,1/2+y,-z
1/2-x,1/2-y,-z
1/2+x,1/2-y,z
loop_
_atom_site_type_symbol
_atom_site_label
_atom_site_fract_x
_atom_site_fract_y
_atom_site_fract_z
Si Si1 0.955859 0.177226 0.396148
Si Si2 0.545330 0.828905 0.123803
Si Si3 0.373589 0.675031 0.797640
Si Si4 0.065996 0.323804 0.777116
Si Si5 0.615085 0.828297 0.932287
Si Si6 0.303479 0.178521 0.964049
Si Si7 0.935297 0.823236 0.604519
O O1 0.925850 0.247825 0.324680
O O2 0.928550 0.230265 0.502483
O O3 0.012908 0.239596 0.374652
O O4 0.953935 0.000000 0.385358
O O5 0.576430 0.711077 0.169122
O O6 0.488009 0.784654 0.157785
O O7 0.555608 0.000000 0.152923
O O8 0.563187 0.812723 0.010873
O O9 0.360686 0.500000 0.811617
O O10 0.326779 0.769682 0.856356
O O11 0.386753 0.721652 0.686439
O O12 0.072793 0.500000 0.761716
O O13 0.105970 0.259699 0.834463
O O14 0.629290 0.000000 0.912322
O O15 0.661141 0.757490 0.969487
O O16 0.299962 0.000000 0.965774
O O17 0.250000 0.250000 0.000000
O O18 0.942529 0.000000 0.601117
#
# Coordination Sequence:
#
# PCOD8078665 Si02
#       7
#     8   8   8   8   8   8   8
#     4   9  16  28  42  59  87 125 160 188 216 253
#     4   9  16  26  40  60  88 122 154 182 212 254
#     4  10  17  28  47  68  89 118 153 187 221 262
#     4  10  17  26  41  63  89 120 154 185 216 255
#     4   8  16  29  44  61  86 119 149 175 217 274
#     4  10  20  35  52  70  90 114 143 183 229 274
#     4   8  15  27  43  60  86 124 159 184 217 262
#
# _framework density 16.052951
#
# number of rings (size 3 to 8) (size 9 to 14) (size 15 to 20)
#    0.000    2.857    1.429    3.000    0.000    1.714 
#    0.000    6.429    0.000    4.286    0.000    1.000 
#    0.000    0.000    0.000    0.000    0.000    0.000 
#
# Total GULP energy -346893.906595 kJ/mol
# GULP energy per Si atom -12389.068093 kJ/mol
# Density = 1.601641 g / cm^3
# Si number density = 16.052951 Si / 1000 Ang^3
#
#
#
# Elastic Constant Matrix: (Units=GPa)
#
#
# Indices 1 2 3 4 5 6 
#
# 1 74.0939 24.9645 63.1295 0.0000 -2.0661 0.0000
# 2 24.9645 37.0821 31.2827 0.0000 -4.0623 0.0000
# 3 63.1295 31.2827 132.2613 0.0000 3.7557 0.0000
# 4 0.0000 0.0000 0.0000 24.4100 0.0000 -0.0528
# 5 -2.0661 -4.0623 3.7557 0.0000 20.0542 0.0000
# 6 0.0000 0.0000 0.0000 -0.0528 0.0000 14.2497
#
#
#
# Elastic Compliance Matrix: (Units=1/GPa)
#
#
# Indices 1 2 3 4 5 6 
#
# 1 0.024801 -0.007910 -0.010047 0.000000 0.002835 0.000000
# 2 -0.007910 0.037667 -0.005355 0.000000 0.007818 0.000000
# 3 -0.010047 -0.005355 0.013757 0.000000 -0.004696 0.000000
# 4 0.000000 0.000000 0.000000 0.040967 0.000000 0.000152
# 5 0.002835 0.007818 -0.004696 0.000000 0.052620 0.000000
# 6 0.000000 0.000000 0.000000 0.000152 0.000000 0.070177
#
#
# Mechanical properties :
#
#
# Convention : Reuss Voigt Hill
#
# Bulk Modulus (GPa) = 33.78542 53.57675 43.68108
# Shear Modulus (GPa) = 16.86448 20.01349 18.43899
#
# Velocity S-wave (km/s) = 3.24474 3.53472 3.39283
# Velocity P-wave (km/s) = 5.92703 7.07859 6.52825
#
# Compressibility (1/GPa) = 0.02959857
#
# Stress axis : x y z
#
# Youngs Moduli (GPa) = 40.32068 26.54861 72.69271
#
# Poissons Ratio (x) = 0.21000 0.73037
# Poissons Ratio (y) = 0.31894 0.38930
# Poissons Ratio (z) = 0.40512 0.14218
#
# Static dielectric constant tensor:
#      x y z
#    x 2.852740 0.000000 0.099120 
#    y 0.000000 2.819540 0.000000 
#    z 0.099120 0.000000 3.395450 
# 
# 
# High freq. dielectric constant tensor:
#      x y z
#    x 1.574230 0.000000 0.006640 
#    y 0.000000 1.595780 0.000000 
#    z 0.006640 0.000000 1.622220 
# 
# From -- ./inp_files/247734.got.cif
#   From: 2010.06.25/outbox.cif.g09.slc.cpg/sg12_124_cif.got.tgz:247734.got - 2010.06.28 00:19:55.
