data_PCOD8078256
_publ_section_title
;
Structure prediction by ZEFSAII (Michael W. Deem and Ramdas Pophale) SiO2 
 PCOD8078256
Probable space group: C 2/M
;
_chemical_formula_sum "Si O2"
_cell_formula_units_Z 64
_cell_length_a 30.254063
_cell_length_b 8.912348
_cell_length_c 19.344780
_cell_angle_alpha 90.000000
_cell_angle_beta 50.248756
_cell_angle_gamma 90.000000
_cell_volume 4010.225557
_symmetry_space_group_name_H-M "C 2/M"
_symmetry_group_IT_number 12
_symmetry_cell_setting 'monoclinic'
loop_
_space_group_symop_operation_xyz
x,y,z
-x,y,-z
-x,-y,-z
x,-y,z
1/2+x,1/2+y,z
1/2-x,1/2+y,-z
1/2-x,1/2-y,-z
1/2+x,1/2-y,z
loop_
_atom_site_type_symbol
_atom_site_label
_atom_site_fract_x
_atom_site_fract_y
_atom_site_fract_z
Si Si1 0.372701 0.824173 0.877303
Si Si2 0.091319 0.177875 0.934078
Si Si3 0.811398 0.676744 0.079724
Si Si4 0.688622 0.176745 0.202473
Si Si5 0.996174 0.178162 0.753819
Si Si6 0.591318 0.322122 0.383257
Si Si7 0.977760 0.177366 0.124557
Si Si8 0.522251 0.322636 0.580054
O O1 0.336573 0.774997 0.846484
O O2 0.431750 0.736061 0.818222
O O3 0.386181 0.000000 0.863826
O O4 0.336610 0.774962 0.980369
O O5 0.148448 0.264053 0.898766
O O6 0.074907 0.228552 0.871849
O O7 0.101462 0.000000 0.929653
O O8 0.039200 0.234255 0.034907
O O9 0.805266 0.500000 0.092131
O O10 0.750000 0.749955 0.151095
O O11 0.648438 0.235909 0.304306
O O12 0.694786 0.000000 0.202587
O O13 0.029898 0.235450 0.788788
O O14 0.029917 0.235424 0.651388
O O15 0.992561 0.000000 0.757443
O O16 0.601467 0.500000 0.367379
O O17 0.574917 0.271459 0.478306
O O18 0.539191 0.265738 0.386696
O O19 0.980139 0.000000 0.118976
O O20 0.519862 0.500000 0.579234
#
# Coordination Sequence:
#
# PCOD8078256 Si02
#       8
#     8   8   8   8   8   8   8   8
#     4  10  21  33  43  64  96 123 155 193 226 263
#     4   9  16  30  47  67  93 121 152 191 229 267
#     4  11  22  34  47  65  90 124 161 194 229 270
#     4  11  22  34  47  65  90 124 161 194 229 270
#     4  10  16  27  49  72  92 125 160 183 217 271
#     4   9  16  30  47  67  93 121 152 191 229 267
#     4   8  15  26  46  71  94 119 152 188 226 269
#     4   8  15  26  46  71  94 119 152 188 226 269
#
# _framework density 15.959201999999999
#
# number of rings (size 3 to 8) (size 9 to 14) (size 15 to 20)
#    0.000    2.500    2.500    2.625    0.000    1.000 
#    0.000    3.750    0.000    0.000    0.000    0.875 
#    0.000    0.000    0.000    0.000    0.000    0.000 
#
# Total GULP energy -396625.545696 kJ/mol
# GULP energy per Si atom -12394.548303 kJ/mol
# Density = 1.592288 g / cm^3
# Si number density = 15.959202 Si / 1000 Ang^3
#
#
#
# Elastic Constant Matrix: (Units=GPa)
#
#
# Indices 1 2 3 4 5 6 
#
# 1 125.4752 32.2759 78.4448 -0.0016 14.4432 0.0007
# 2 32.2759 35.7404 32.1962 0.0044 -0.6561 -0.0045
# 3 78.4448 32.1962 126.2116 0.0041 14.5052 -0.0011
# 4 -0.0016 0.0044 0.0041 19.9645 0.0002 -4.1774
# 5 14.4432 -0.6561 14.5052 0.0002 25.5127 -0.0004
# 6 0.0007 -0.0045 -0.0011 -4.1774 -0.0004 20.1058
#
#
#
# Elastic Compliance Matrix: (Units=1/GPa)
#
#
# Indices 1 2 3 4 5 6 
#
# 1 0.014512 -0.007197 -0.006653 0.000004 -0.004618 -0.000002
# 2 -0.007197 0.040978 -0.007029 -0.000006 0.009124 0.000008
# 3 -0.006653 -0.007029 0.014379 -0.000002 -0.004589 -0.000001
# 4 0.000004 -0.000006 -0.000002 0.052365 -0.000001 0.010880
# 5 -0.004618 0.009124 -0.004589 -0.000001 0.044654 0.000002
# 6 -0.000002 0.000008 -0.000001 0.010880 0.000002 0.051997
#
#
# Mechanical properties :
#
#
# Convention : Reuss Voigt Hill
#
# Bulk Modulus (GPa) = 35.57290 63.69566 49.63428
# Shear Modulus (GPa) = 18.51760 22.75064 20.63412
#
# Velocity S-wave (km/s) = 3.41003 3.77974 3.59963
# Velocity P-wave (km/s) = 6.15164 7.68419 6.96022
#
# Compressibility (1/GPa) = 0.02811129
#
# Stress axis : x y z
#
# Youngs Moduli (GPa) = 68.90959 24.40330 69.54674
#
# Poissons Ratio (x) = 0.17562 0.46269
# Poissons Ratio (y) = 0.49591 0.48885
# Poissons Ratio (z) = 0.45846 0.17153
#
# Static dielectric constant tensor:
#      x y z
#    x 3.298010 0.000000 0.440050 
#    y 0.000000 2.797470 0.000000 
#    z 0.440050 0.000000 3.312630 
# 
# 
# High freq. dielectric constant tensor:
#      x y z
#    x 1.602460 0.000000 0.016360 
#    y 0.000000 1.593830 0.000000 
#    z 0.016360 0.000000 1.602980 
# 
# From -- ./inp_files/326897.got.cif
#   From: 2010.06.25/outbox.cif.g09.slc.cpg/sg12_164_cif.got.tgz:326897.got - 2010.06.28 00:19:55.
