data_PCOD8078629
_publ_section_title
;
Structure prediction by ZEFSAII (Michael W. Deem and Ramdas Pophale) SiO2 
 PCOD8078629
Probable space group: C 2/M
;
_chemical_formula_sum "Si O2"
_cell_formula_units_Z 60
_cell_length_a 20.962863
_cell_length_b 16.334629
_cell_length_c 13.287793
_cell_angle_alpha 90.000000
_cell_angle_beta 71.949455
_cell_angle_gamma 90.000000
_cell_volume 4326.078333
_symmetry_space_group_name_H-M "C 2/M"
_symmetry_group_IT_number 12
_symmetry_cell_setting 'monoclinic'
loop_
_space_group_symop_operation_xyz
x,y,z
-x,y,-z
-x,-y,-z
x,-y,z
1/2+x,1/2+y,z
1/2-x,1/2+y,-z
1/2-x,1/2-y,-z
1/2+x,1/2-y,z
loop_
_atom_site_type_symbol
_atom_site_label
_atom_site_fract_x
_atom_site_fract_y
_atom_site_fract_z
Si Si1 0.784201 0.334221 0.143422
Si Si2 0.619078 0.262501 0.050019
Si Si3 0.500000 0.806684 0.000000
Si Si4 0.097804 0.596864 0.381933
Si Si5 0.808564 0.690497 0.805333
Si Si6 0.788300 0.906367 0.000941
Si Si7 0.453298 0.903279 0.381578
Si Si8 0.903342 0.403342 0.193315
O O1 0.732142 0.269177 0.216690
O O2 0.746304 0.399846 0.091770
O O3 0.825689 0.380534 0.210058
O O4 0.834024 0.283564 0.050461
O O5 0.541860 0.251919 0.054844
O O6 0.631040 0.222811 0.153541
O O7 0.640996 0.357685 0.037033
O O8 0.548484 0.864839 0.913324
O O9 0.110047 0.500000 0.368635
O O10 0.161255 0.643011 0.304266
O O11 0.089828 0.626862 0.501319
O O12 0.030885 0.622656 0.353850
O O13 0.760659 0.629294 0.889953
O O14 0.804265 0.000000 0.018246
O O15 0.422393 0.867548 0.293778
O O16 0.449539 0.000000 0.382412
O O17 0.913324 0.500000 0.183644
#
# Coordination Sequence:
#
# PCOD8078629 Si02
#       8
#     8   8   4   8   8   8   8   8
#     4   8  16  26  36  53  78  98 117 151 191 215
#     4   8  16  26  36  53  78  98 117 151 191 215
#     4  10  17  26  39  56  76 100 124 148 179 222
#     4   9  15  25  39  55  73  98 127 153 179 216
#     4   9  15  25  39  55  73  98 127 153 179 216
#     4   9  15  25  39  55  73  98 127 153 179 216
#     4   8  16  26  36  53  78  98 117 151 191 215
#     4  10  17  26  39  56  76 100 124 148 179 222
#
# _framework density 13.869375
#
# number of rings (size 3 to 8) (size 9 to 14) (size 15 to 20)
#    0.000    3.200    0.000    4.200    0.000    0.000 
#    0.000    5.000    0.000    0.000    0.000    0.000 
#    0.000    0.000    0.000  118.800    0.000    0.000 
#
# Total GULP energy -371798.210256 kJ/mol
# GULP energy per Si atom -12393.273675 kJ/mol
# Density = 1.383781 g / cm^3
# Si number density = 13.869375 Si / 1000 Ang^3
#
#
#
# Elastic Constant Matrix: (Units=GPa)
#
#
# Indices 1 2 3 4 5 6 
#
# 1 82.8040 30.9378 31.8363 0.0000 11.0456 0.0000
# 2 30.9378 66.8479 24.1559 0.0000 -1.4640 0.0000
# 3 31.8363 24.1559 71.9725 0.0000 2.3499 0.0000
# 4 0.0000 0.0000 0.0000 16.8026 0.0000 -2.8723
# 5 11.0456 -1.4640 2.3499 0.0000 21.6929 0.0000
# 6 0.0000 0.0000 0.0000 -2.8723 0.0000 21.5052
#
#
#
# Elastic Compliance Matrix: (Units=1/GPa)
#
#
# Indices 1 2 3 4 5 6 
#
# 1 0.017750 -0.006461 -0.005393 0.000000 -0.008890 0.000000
# 2 -0.006461 0.019444 -0.003832 0.000000 0.005017 0.000000
# 3 -0.005393 -0.003832 0.017547 0.000000 0.000587 0.000000
# 4 0.000000 0.000000 0.000000 0.060905 0.000000 0.008135
# 5 -0.008890 0.005017 0.000587 0.000000 0.050900 0.000000
# 6 0.000000 0.000000 0.000000 0.008135 0.000000 0.047587
#
#
# Mechanical properties :
#
#
# Convention : Reuss Voigt Hill
#
# Bulk Modulus (GPa) = 42.79076 43.94271 43.36673
# Shear Modulus (GPa) = 19.73999 20.97977 20.35988
#
# Velocity S-wave (km/s) = 3.77673 3.89352 3.83557
# Velocity P-wave (km/s) = 7.06668 7.20866 7.13802
#
# Compressibility (1/GPa) = 0.02336953
#
# Stress axis : x y z
#
# Youngs Moduli (GPa) = 56.33838 51.42984 56.99115
#
# Poissons Ratio (x) = 0.33228 0.30734
# Poissons Ratio (y) = 0.36399 0.21838
# Poissons Ratio (z) = 0.30382 0.19707
#
# Static dielectric constant tensor:
#      x y z
#    x 3.036850 0.000000 0.222720 
#    y 0.000000 2.595660 0.000000 
#    z 0.222720 0.000000 2.708090 
# 
# 
# High freq. dielectric constant tensor:
#      x y z
#    x 1.523490 0.000000 0.007730 
#    y 0.000000 1.508170 0.000000 
#    z 0.007730 0.000000 1.512070 
# 
# From -- ./inp_files/168052.got.cif
#   From: 2010.06.25/outbox.cif.g09.slc.cpg/sg12_85_cif.got.tgz:168052.got - 2010.06.28 00:19:55.
