data_PCOD8078280
_publ_section_title
;
Structure prediction by ZEFSAII (Michael W. Deem and Ramdas Pophale) SiO2 
 PCOD8078280
Probable space group: C 2/M
;
_chemical_formula_sum "Si O2"
_cell_formula_units_Z 52
_cell_length_a 24.230877
_cell_length_b 14.828939
_cell_length_c 23.624862
_cell_angle_alpha 90.000000
_cell_angle_beta 21.436392
_cell_angle_gamma 90.000000
_cell_volume 3102.401088
_symmetry_space_group_name_H-M "C 2/M"
_symmetry_group_IT_number 12
_symmetry_cell_setting 'monoclinic'
loop_
_space_group_symop_operation_xyz
x,y,z
-x,y,-z
-x,-y,-z
x,-y,z
1/2+x,1/2+y,z
1/2-x,1/2+y,-z
1/2-x,1/2-y,-z
1/2+x,1/2-y,z
loop_
_atom_site_type_symbol
_atom_site_label
_atom_site_fract_x
_atom_site_fract_y
_atom_site_fract_z
Si Si1 0.851988 0.500000 0.383673
Si Si2 0.749848 0.668957 0.862489
Si Si3 0.077705 0.893888 0.795551
Si Si4 0.102962 0.500000 0.227795
Si Si5 0.841387 0.839394 0.404095
Si Si6 0.329396 0.000000 0.958543
Si Si7 0.824600 0.900100 0.180101
Si Si8 0.318817 0.312019 0.884114
O O1 0.746211 0.414022 0.476000
O O2 0.928307 0.500000 0.373778
O O3 0.987777 0.500000 0.207732
O O4 0.865309 0.589524 0.767496
O O5 0.748141 0.670743 0.795163
O O6 0.809543 0.761535 0.832557
O O7 0.583726 0.654003 0.046338
O O8 0.161032 0.864492 0.659443
O O9 0.188282 0.866200 0.742508
O O10 0.046156 0.000000 0.827246
O O11 0.212954 0.500000 0.067668
O O12 0.750000 0.750000 0.500000
O O13 0.008744 0.831379 0.267459
O O14 0.263956 0.907604 0.046654
O O15 0.750751 0.000000 0.242975
O O16 0.000000 0.909709 0.000000
O O17 0.250000 0.250000 0.000000
#
# Coordination Sequence:
#
# PCOD8078280 Si02
#       8
#     4   8   8   4   8   4   8   8
#     4  10  23  35  47  69 107 141 171 210 264 306
#     4  11  17  29  51  80 104 136 174 220 252 302
#     4  10  18  30  52  77 108 143 174 210 258 312
#     4  10  16  28  48  68 102 137 169 207 251 299
#     4  12  22  34  49  75 110 143 171 210 262 322
#     4  10  21  35  48  75 102 133 181 220 252 311
#     4   8  15  27  47  78 106 135 172 211 258 303
#     4  12  21  32  53  76 102 140 181 215 263 307
#
# _framework density 16.761210999999999
#
# number of rings (size 3 to 8) (size 9 to 14) (size 15 to 20)
#    0.462    1.077    5.385    3.231    0.000    0.000 
#    0.000    0.000    0.000    4.615    0.000    5.923 
#    0.000    2.462    0.000    0.000    0.000    0.000 
#
# Total GULP energy -322217.219693 kJ/mol
# GULP energy per Si atom -12392.969988 kJ/mol
# Density = 1.672306 g / cm^3
# Si number density = 16.761211 Si / 1000 Ang^3
#
#
#
# Elastic Constant Matrix: (Units=GPa)
#
#
# Indices 1 2 3 4 5 6 
#
# 1 101.4758 43.1956 24.0976 0.0101 -4.9054 -0.0008
# 2 43.1956 124.1006 44.7714 0.0199 -8.4989 -0.0073
# 3 24.0976 44.7714 80.6561 0.0241 -14.4679 -0.0076
# 4 0.0101 0.0199 0.0241 30.3246 -0.0054 -3.6812
# 5 -4.9054 -8.4989 -14.4679 -0.0054 17.2315 -0.0003
# 6 -0.0008 -0.0073 -0.0076 -3.6812 -0.0003 24.4321
#
#
#
# Elastic Compliance Matrix: (Units=1/GPa)
#
#
# Indices 1 2 3 4 5 6 
#
# 1 0.011723 -0.003520 -0.001485 0.000000 0.000354 -0.000001
# 2 -0.003520 0.011134 -0.005090 -0.000002 0.000216 0.000001
# 3 -0.001485 -0.005090 0.017826 -0.000008 0.012034 0.000003
# 4 0.000000 -0.000002 -0.000008 0.033591 0.000003 0.005061
# 5 0.000354 0.000216 0.012034 0.000003 0.068344 0.000005
# 6 -0.000001 0.000001 0.000003 0.005061 0.000005 0.041692
#
#
# Mechanical properties :
#
#
# Convention : Reuss Voigt Hill
#
# Bulk Modulus (GPa) = 48.79781 58.92907 53.86344
# Shear Modulus (GPa) = 23.65940 27.34216 25.50078
#
# Velocity S-wave (km/s) = 3.76114 4.04329 3.90477
# Velocity P-wave (km/s) = 6.93097 7.55195 7.24811
#
# Compressibility (1/GPa) = 0.02049272
#
# Stress axis : x y z
#
# Youngs Moduli (GPa) = 85.30354 89.81127 56.09791
#
# Poissons Ratio (x) = 0.31618 0.08329
# Poissons Ratio (y) = 0.30031 0.28554
# Poissons Ratio (z) = 0.12665 0.45715
#
# Static dielectric constant tensor:
#      x y z
#    x 3.335640 0.000000 0.009090 
#    y 0.000000 3.071370 0.000010 
#    z 0.009090 0.000010 2.996170 
# 
# 
# High freq. dielectric constant tensor:
#      x y z
#    x 1.630980 0.000000 -0.014140 
#    y 0.000000 1.629770 0.000000 
#    z -0.014140 0.000000 1.631670 
# 
# From -- ./inp_files/369541.got.cif
#   From: 2010.06.25/outbox.cif.g09.slc.cpg/sg12_185_cif.got.tgz:369541.got - 2010.06.28 00:19:55.
