data_PCOD8078734
_publ_section_title
;
Structure prediction by ZEFSAII (Michael W. Deem and Ramdas Pophale) SiO2 
 PCOD8078734
Probable space group: C 2/M
;
_chemical_formula_sum "Si O2"
_cell_formula_units_Z 64
_cell_length_a 26.442425
_cell_length_b 17.339848
_cell_length_c 24.645620
_cell_angle_alpha 90.000000
_cell_angle_beta 21.299218
_cell_angle_gamma 90.000000
_cell_volume 4104.669611
_symmetry_space_group_name_H-M "C 2/M"
_symmetry_group_IT_number 12
_symmetry_cell_setting 'monoclinic'
loop_
_space_group_symop_operation_xyz
x,y,z
-x,y,-z
-x,-y,-z
x,-y,z
1/2+x,1/2+y,z
1/2-x,1/2+y,-z
1/2-x,1/2-y,-z
1/2+x,1/2-y,z
loop_
_atom_site_type_symbol
_atom_site_label
_atom_site_fract_x
_atom_site_fract_y
_atom_site_fract_z
Si Si1 0.038137 0.234565 0.774309
Si Si2 0.635769 0.587968 0.435361
Si Si3 0.677483 0.314407 0.494453
Si Si4 0.190056 0.679140 0.953588
Si Si5 0.572051 0.775685 0.229672
Si Si6 0.200049 0.586058 0.048286
Si Si7 0.529939 0.587043 0.732551
Si Si8 0.184718 0.912529 0.264439
O O1 0.176149 0.285019 0.628631
O O2 0.938291 0.241880 0.820934
O O3 0.068429 0.142215 0.745969
O O4 0.946071 0.265480 0.916462
O O5 0.681851 0.500000 0.401818
O O6 0.702917 0.647664 0.410397
O O7 0.469706 0.593834 0.605248
O O8 0.688475 0.613219 0.323294
O O9 0.577391 0.238514 0.591784
O O10 0.611034 0.380156 0.598988
O O11 0.320494 0.728922 0.841613
O O12 0.214005 0.642234 0.870890
O O13 0.156806 0.613511 0.031334
O O14 0.623593 0.863887 0.171963
O O15 0.143125 0.500000 0.113319
O O16 0.365864 0.588044 0.886420
O O17 0.581639 0.500000 0.692524
O O18 0.237766 0.000000 0.205998
#
# Coordination Sequence:
#
# PCOD8078734 Si02
#       8
#     8   8   8   8   8   8   8   8
#     4  10  20  31  41  66  93 121 154 188 221 269
#     4   9  17  30  47  70  94 117 156 197 224 261
#     4  11  19  30  46  65  92 127 154 178 228 274
#     4  11  16  30  47  64  90 122 155 183 227 263
#     4  10  17  30  45  63  89 118 154 187 223 261
#     4  10  17  26  44  68  90 115 153 189 219 261
#     4  10  17  28  45  65  88 119 155 183 218 269
#     4   9  17  29  48  72  92 116 157 199 224 255
#
# _framework density 15.591998
#
# number of rings (size 3 to 8) (size 9 to 14) (size 15 to 20)
#    0.000    2.000    5.000    3.750    0.000    2.000 
#    0.000   10.000    0.000    1.500    0.000    0.000 
#    0.000    6.000    0.000    0.000    0.000    0.000 
#
# Total GULP energy -396528.315334 kJ/mol
# GULP energy per Si atom -12391.509854 kJ/mol
# Density = 1.555651 g / cm^3
# Si number density = 15.591998 Si / 1000 Ang^3
#
#
#
# Elastic Constant Matrix: (Units=GPa)
#
#
# Indices 1 2 3 4 5 6 
#
# 1 37.6342 38.7571 30.6059 0.0042 13.5825 -0.0012
# 2 38.7571 117.6486 45.0507 -0.0077 12.7003 0.0044
# 3 30.6059 45.0507 79.2613 0.0017 8.6434 0.0004
# 4 0.0042 -0.0077 0.0017 26.0470 -0.0014 7.1981
# 5 13.5825 12.7003 8.6434 -0.0014 20.7939 0.0006
# 6 -0.0012 0.0044 0.0004 7.1981 0.0006 18.5910
#
#
#
# Elastic Compliance Matrix: (Units=1/GPa)
#
#
# Indices 1 2 3 4 5 6 
#
# 1 0.058312 -0.011364 -0.013262 -0.000017 -0.025636 0.000014
# 2 -0.011364 0.013452 -0.003322 0.000008 0.000588 -0.000007
# 3 -0.013262 -0.003322 0.019336 0.000000 0.002654 -0.000001
# 4 -0.000017 0.000008 0.000000 0.042992 0.000010 -0.016646
# 5 -0.025636 0.000588 0.002654 0.000010 0.063374 -0.000008
# 6 0.000014 -0.000007 -0.000001 -0.016646 -0.000008 0.060234
#
#
# Mechanical properties :
#
#
# Convention : Reuss Voigt Hill
#
# Bulk Modulus (GPa) = 28.40536 51.48574 39.94555
# Shear Modulus (GPa) = 15.36893 21.09507 18.23200
#
# Velocity S-wave (km/s) = 3.14298 3.68223 3.42324
# Velocity P-wave (km/s) = 5.60612 7.15337 6.42648
#
# Compressibility (1/GPa) = 0.03520463
#
# Stress axis : x y z
#
# Youngs Moduli (GPa) = 17.14910 74.33729 51.71667
#
# Poissons Ratio (x) = 0.84477 0.68586
# Poissons Ratio (y) = 0.19488 0.17180
# Poissons Ratio (z) = 0.22743 0.24695
#
# Static dielectric constant tensor:
#      x y z
#    x 2.655000 -0.000010 0.043870 
#    y -0.000010 3.315750 0.000020 
#    z 0.043870 0.000020 3.006300 
# 
# 
# High freq. dielectric constant tensor:
#      x y z
#    x 1.553400 0.000000 -0.004780 
#    y 0.000000 1.594870 0.000000 
#    z -0.004780 0.000000 1.596370 
# 
# From -- ./inp_files/352270.got.cif
#   From: 2010.06.25/outbox.cif.g09.slc.cpg/sg12_177_cif.got.tgz:352270.got - 2010.06.28 00:19:55.
