data_PCOD8078143
_publ_section_title
;
Structure prediction by ZEFSAII (Michael W. Deem and Ramdas Pophale) SiO2 
 PCOD8078143
Probable space group: C 2/M
;
_chemical_formula_sum "Si O2"
_cell_formula_units_Z 56
_cell_length_a 34.855954
_cell_length_b 9.026851
_cell_length_c 13.889184
_cell_angle_alpha 90.000000
_cell_angle_beta 53.425067
_cell_angle_gamma 90.000000
_cell_volume 3509.520970
_symmetry_space_group_name_H-M "C 2/M"
_symmetry_group_IT_number 12
_symmetry_cell_setting 'monoclinic'
loop_
_space_group_symop_operation_xyz
x,y,z
-x,y,-z
-x,-y,-z
x,-y,z
1/2+x,1/2+y,z
1/2-x,1/2+y,-z
1/2-x,1/2-y,-z
1/2+x,1/2-y,z
loop_
_atom_site_type_symbol
_atom_site_label
_atom_site_fract_x
_atom_site_fract_y
_atom_site_fract_z
Si Si1 0.485466 0.176641 0.418416
Si Si2 0.109644 0.333421 0.538205
Si Si3 0.885198 0.675270 0.100536
Si Si4 0.203144 0.173591 0.686009
Si Si5 0.965052 0.675227 0.843330
Si Si6 0.698838 0.673189 0.470572
Si Si7 0.945773 0.665708 0.182991
O O1 0.500000 0.244618 0.500000
O O2 0.431585 0.227557 0.472015
O O3 0.523625 0.235634 0.281188
O O4 0.486685 0.000000 0.419640
O O5 0.124972 0.500000 0.485710
O O6 0.155606 0.227248 0.467228
O O7 0.090041 0.333528 0.674797
O O8 0.876318 0.500000 0.126428
O O9 0.834852 0.758028 0.182403
O O10 0.919783 0.743415 0.131755
O O11 0.911295 0.711888 0.959249
O O12 0.253951 0.243897 0.635581
O O13 0.188573 0.211772 0.597871
O O14 0.206327 0.000000 0.698828
O O15 0.974171 0.500000 0.827967
O O16 0.004104 0.742457 0.860641
O O17 0.706463 0.500000 0.444345
O O18 0.956939 0.500000 0.131299
#
# Coordination Sequence:
#
# PCOD8078143 Si02
#       7
#     8   8   8   8   8   8   8
#     4   8  14  25  42  67  94 114 139 178 216 251
#     4   9  15  25  43  64  86 114 145 176 213 251
#     4  10  16  24  40  60  84 114 147 178 207 242
#     4  10  20  30  41  58  85 117 147 177 212 253
#     4   8  14  22  36  60  85 113 146 175 206 247
#     4  10  19  30  43  60  83 113 148 181 212 249
#     4   8  13  21  35  57  83 110 142 175 201 235
#
# _framework density 15.956594000000001
#
# number of rings (size 3 to 8) (size 9 to 14) (size 15 to 20)
#    0.000    3.000    1.429    3.000    0.000    2.857 
#    0.000    0.000    0.000    5.571    0.000    1.000 
#    0.000    0.000    0.000    0.000    0.000    0.000 
#
# Total GULP energy -346939.585518 kJ/mol
# GULP energy per Si atom -12390.699483 kJ/mol
# Density = 1.592028 g / cm^3
# Si number density = 15.956594 Si / 1000 Ang^3
#
#
#
# Elastic Constant Matrix: (Units=GPa)
#
#
# Indices 1 2 3 4 5 6 
#
# 1 95.0940 28.4914 59.8201 0.0000 -7.7518 0.0000
# 2 28.4914 43.7434 34.5249 0.0000 -11.5793 0.0000
# 3 59.8201 34.5249 104.6741 0.0000 -19.4741 0.0000
# 4 0.0000 0.0000 0.0000 15.0720 0.0000 -6.8027
# 5 -7.7518 -11.5793 -19.4741 0.0000 23.1315 0.0000
# 6 0.0000 0.0000 0.0000 -6.8027 0.0000 15.0030
#
#
#
# Elastic Compliance Matrix: (Units=1/GPa)
#
#
# Indices 1 2 3 4 5 6 
#
# 1 0.017447 -0.005434 -0.009008 0.000000 -0.004457 0.000000
# 2 -0.005434 0.033958 -0.006250 0.000000 0.009916 0.000000
# 3 -0.009008 -0.006250 0.018520 0.000000 0.009444 0.000000
# 4 0.000000 0.000000 0.000000 0.083420 0.000000 0.037824
# 5 -0.004457 0.009916 0.009444 0.000000 0.054652 0.000000
# 6 0.000000 0.000000 0.000000 0.037824 0.000000 0.083804
#
#
# Mechanical properties :
#
#
# Convention : Reuss Voigt Hill
#
# Bulk Modulus (GPa) = 35.03740 54.35381 44.69560
# Shear Modulus (GPa) = 14.59012 18.68631 16.63822
#
# Velocity S-wave (km/s) = 3.02712 3.42580 3.23262
# Velocity P-wave (km/s) = 5.85009 7.05590 6.48110
#
# Compressibility (1/GPa) = 0.02854093
#
# Stress axis : x y z
#
# Youngs Moduli (GPa) = 57.31598 29.44835 53.99654
#
# Poissons Ratio (x) = 0.16003 0.48638
# Poissons Ratio (y) = 0.31147 0.33747
# Poissons Ratio (z) = 0.51628 0.18405
#
# Static dielectric constant tensor:
#      x y z
#    x 3.004280 0.000000 -0.050150 
#    y 0.000000 2.635900 0.000000 
#    z -0.050150 0.000000 3.055380 
# 
# 
# High freq. dielectric constant tensor:
#      x y z
#    x 1.587260 0.000000 -0.021050 
#    y 0.000000 1.571080 0.000000 
#    z -0.021050 0.000000 1.602650 
# 
# From -- ./inp_files/247914.got.cif
#   From: 2010.06.25/outbox.cif.g09.slc.cpg/sg12_124_cif.got.tgz:247914.got - 2010.06.28 00:19:55.
