data_PCOD8078655
_publ_section_title
;
Structure prediction by ZEFSAII (Michael W. Deem and Ramdas Pophale) SiO2 
 PCOD8078655
Probable space group: C 2/M
;
_chemical_formula_sum "Si O2"
_cell_formula_units_Z 64
_cell_length_a 24.411825
_cell_length_b 8.916695
_cell_length_c 18.902794
_cell_angle_alpha 90.000000
_cell_angle_beta 100.813039
_cell_angle_gamma 90.000000
_cell_volume 4041.567190
_symmetry_space_group_name_H-M "C 2/M"
_symmetry_group_IT_number 12
_symmetry_cell_setting 'monoclinic'
loop_
_space_group_symop_operation_xyz
x,y,z
-x,y,-z
-x,-y,-z
x,-y,z
1/2+x,1/2+y,z
1/2-x,1/2+y,-z
1/2-x,1/2-y,-z
1/2+x,1/2-y,z
loop_
_atom_site_type_symbol
_atom_site_label
_atom_site_fract_x
_atom_site_fract_y
_atom_site_fract_z
Si Si1 0.234946 0.676183 0.388200
Si Si2 0.950367 0.826231 0.693773
Si Si3 0.057602 0.330923 0.971872
Si Si4 0.666952 0.176308 0.510584
Si Si5 0.838108 0.177839 0.740816
Si Si6 0.608963 0.176118 0.123511
Si Si7 0.500219 0.673738 0.845398
Si Si8 0.050552 0.178342 0.463102
O O1 0.242810 0.500000 0.380649
O O2 0.294144 0.748802 0.420947
O O3 0.190193 0.715479 0.438342
O O4 0.214998 0.748546 0.309801
O O5 0.893284 0.761842 0.713520
O O6 0.962435 0.758364 0.619269
O O7 0.002565 0.799601 0.760584
O O8 0.939624 0.000000 0.679965
O O9 0.065879 0.500000 0.947209
O O10 0.056094 0.225582 0.901070
O O11 0.107739 0.286749 0.038467
O O12 0.000000 0.312790 0.000000
O O13 0.606209 0.245772 0.505613
O O14 0.665232 0.000000 0.523463
O O15 0.841985 0.235211 0.823360
O O16 0.832191 0.000000 0.739106
O O17 0.549796 0.224761 0.139812
O O18 0.616812 0.000000 0.137700
O O19 0.487666 0.500000 0.858618
O O20 0.000000 0.231489 0.500000
O O21 0.058038 0.000000 0.467259
#
# Coordination Sequence:
#
# PCOD8078655 Si02
#       8
#     8   8   8   8   8   8   8   8
#     4  10  19  30  46  65  85 111 141 174 215 260
#     4   8  15  26  38  56  79 102 135 176 212 249
#     4   8  14  23  32  45  68  99 131 166 201 239
#     4  10  20  32  46  65  86 109 139 178 220 257
#     4  10  17  26  41  59  82 108 136 175 212 245
#     4   9  16  24  33  48  74 103 134 166 200 245
#     4   9  15  22  34  50  69  97 132 173 209 241
#     4  10  19  32  49  64  83 114 147 180 219 262
#
# _framework density 15.83544
#
# number of rings (size 3 to 8) (size 9 to 14) (size 15 to 20)
#    0.000    2.750    1.250    3.375    0.000    4.000 
#    0.000    0.625    0.000    0.000    0.000    0.000 
#    0.000    0.000    0.000    1.125    0.000   13.125 
#
# Total GULP energy -396489.688064 kJ/mol
# GULP energy per Si atom -12390.302752 kJ/mol
# Density = 1.579940 g / cm^3
# Si number density = 15.835440 Si / 1000 Ang^3
#
#
#
# Elastic Constant Matrix: (Units=GPa)
#
#
# Indices 1 2 3 4 5 6 
#
# 1 65.5871 34.2310 51.0799 0.0000 18.4286 0.0000
# 2 34.2310 59.8539 42.0978 0.0000 15.8159 0.0000
# 3 51.0799 42.0978 116.4568 0.0000 39.9357 0.0000
# 4 0.0000 0.0000 0.0000 24.3945 0.0000 11.3184
# 5 18.4286 15.8159 39.9357 0.0000 26.0830 0.0000
# 6 0.0000 0.0000 0.0000 11.3184 0.0000 18.0087
#
#
#
# Elastic Compliance Matrix: (Units=1/GPa)
#
#
# Indices 1 2 3 4 5 6 
#
# 1 0.026596 -0.009366 -0.007966 0.000000 -0.000915 0.000000
# 2 -0.009366 0.025779 -0.004463 0.000000 -0.002181 0.000000
# 3 -0.007966 -0.004463 0.022815 0.000000 -0.026598 0.000000
# 4 0.000000 0.000000 0.000000 0.057867 0.000000 -0.036369
# 5 -0.000915 -0.002181 -0.026598 0.000000 0.081033 0.000000
# 6 0.000000 0.000000 0.000000 -0.036369 0.000000 0.078387
#
#
# Mechanical properties :
#
#
# Convention : Reuss Voigt Hill
#
# Bulk Modulus (GPa) = 31.64450 55.19058 43.41754
# Shear Modulus (GPa) = 14.42582 21.32984 17.87783
#
# Velocity S-wave (km/s) = 3.02152 3.67409 3.36367
# Velocity P-wave (km/s) = 5.67446 7.27508 6.52405
#
# Compressibility (1/GPa) = 0.03160107
#
# Stress axis : x y z
#
# Youngs Moduli (GPa) = 37.59910 38.79111 43.83048
#
# Poissons Ratio (x) = 0.36332 0.34916
# Poissons Ratio (y) = 0.35215 0.19560
# Poissons Ratio (z) = 0.29952 0.17311
#
# Static dielectric constant tensor:
#      x y z
#    x 2.575250 0.000000 0.436170 
#    y 0.000000 2.980350 0.000000 
#    z 0.436170 0.000000 3.556680 
# 
# 
# High freq. dielectric constant tensor:
#      x y z
#    x 1.539050 0.000000 0.047690 
#    y 0.000000 1.611220 0.000000 
#    z 0.047690 0.000000 1.613430 
# 
# From -- ./inp_files/281248.got.cif
#   From: 2010.06.25/outbox.cif.g09.slc.cpg/sg12_141_cif.got.tgz:281248.got - 2010.06.28 00:19:55.
