data_PCOD8078250
_publ_section_title
;
Structure prediction by ZEFSAII (Michael W. Deem and Ramdas Pophale) SiO2 
 PCOD8078250
Probable space group: C 2/M
;
_chemical_formula_sum "Si O2"
_cell_formula_units_Z 52
_cell_length_a 17.133203
_cell_length_b 22.047619
_cell_length_c 14.013349
_cell_angle_alpha 90.000000
_cell_angle_beta 35.909695
_cell_angle_gamma 90.000000
_cell_volume 3104.682419
_symmetry_space_group_name_H-M "C 2/M"
_symmetry_group_IT_number 12
_symmetry_cell_setting 'monoclinic'
loop_
_space_group_symop_operation_xyz
x,y,z
-x,y,-z
-x,-y,-z
x,-y,z
1/2+x,1/2+y,z
1/2-x,1/2+y,-z
1/2-x,1/2-y,-z
1/2+x,1/2-y,z
loop_
_atom_site_type_symbol
_atom_site_label
_atom_site_fract_x
_atom_site_fract_y
_atom_site_fract_z
Si Si1 0.889501 0.367889 0.421536
Si Si2 0.339348 0.624964 0.066800
Si Si3 0.000000 0.694134 0.500000
Si Si4 0.795101 0.500000 0.760832
Si Si5 0.199486 0.259860 0.171425
Si Si6 0.961601 0.724036 0.846308
Si Si7 0.086869 0.500000 0.553706
Si Si8 0.615880 0.665859 0.766095
O O1 0.895599 0.440062 0.399968
O O2 0.734685 0.348670 0.575277
O O3 0.959138 0.349322 0.452757
O O4 0.964797 0.337938 0.256825
O O5 0.282080 0.558033 0.123866
O O6 0.248748 0.671137 0.095402
O O7 0.335062 0.657043 0.174770
O O8 0.488833 0.621422 0.876406
O O9 0.878594 0.738588 0.650389
O O10 0.800157 0.500000 0.640883
O O11 0.941833 0.500000 0.654074
O O12 0.094290 0.241589 0.193200
O O13 0.329345 0.215285 0.044800
O O14 0.068938 0.765188 0.794660
#
# Coordination Sequence:
#
# PCOD8078250 Si02
#       8
#     8   8   4   4   8   8   4   8
#     4  11  19  31  44  67  91 126 153 194 222 269
#     4  10  19  29  46  65  97 124 161 184 222 264
#     4  10  16  27  48  64  92 121 154 182 224 262
#     4  11  18  30  43  66  93 129 155 189 208 263
#     4   9  16  31  44  66  85 126 155 192 219 272
#     4   9  19  29  46  60  92 124 157 186 237 261
#     4  11  20  27  46  65  90 122 170 180 213 270
#     4  10  19  30  42  65  90 127 156 193 226 270
#
# _framework density 16.748895000000001
#
# number of rings (size 3 to 8) (size 9 to 14) (size 15 to 20)
#    0.000    2.000    3.077    3.231    0.000    1.846 
#    0.000    0.000    0.000    0.000    0.000    0.000 
#    0.000   10.462    0.000    1.615    0.000    8.846 
#
# Total GULP energy -322140.510261 kJ/mol
# GULP energy per Si atom -12390.019625 kJ/mol
# Density = 1.671077 g / cm^3
# Si number density = 16.748895 Si / 1000 Ang^3
#
#
#
# Elastic Constant Matrix: (Units=GPa)
#
#
# Indices 1 2 3 4 5 6 
#
# 1 25.8008 7.8548 2.6637 0.0038 -5.7571 -0.0030
# 2 7.8548 72.8315 47.6008 0.0015 2.5875 -0.0007
# 3 2.6637 47.6008 131.9880 0.0032 -18.4544 -0.0022
# 4 0.0038 0.0015 0.0032 15.7327 -0.0029 6.1791
# 5 -5.7571 2.5875 -18.4544 -0.0029 19.1124 0.0024
# 6 -0.0030 -0.0007 -0.0022 6.1791 0.0024 18.0682
#
#
#
# Elastic Compliance Matrix: (Units=1/GPa)
#
#
# Indices 1 2 3 4 5 6 
#
# 1 0.045351 -0.008895 0.005053 -0.000011 0.019744 0.000009
# 2 -0.008895 0.021548 -0.009681 -0.000001 -0.014945 0.000001
# 3 0.005053 -0.009681 0.013135 0.000000 0.015516 0.000000
# 4 -0.000011 -0.000001 0.000000 0.073424 0.000011 -0.025110
# 5 0.019744 -0.014945 0.015516 0.000011 0.075275 -0.000009
# 6 0.000009 0.000001 0.000000 -0.025110 -0.000009 0.063933
#
#
# Mechanical properties :
#
#
# Convention : Reuss Voigt Hill
#
# Bulk Modulus (GPa) = 18.87224 38.53987 28.70605
# Shear Modulus (GPa) = 14.82034 22.08272 18.45153
#
# Velocity S-wave (km/s) = 2.97788 3.63500 3.32272
# Velocity P-wave (km/s) = 4.80790 6.37793 5.64774
#
# Compressibility (1/GPa) = 0.05298789
#
# Stress axis : x y z
#
# Youngs Moduli (GPa) = 22.05047 46.40817 76.13045
#
# Poissons Ratio (x) = 0.41281 -0.38472
# Poissons Ratio (y) = 0.19614 0.73703
# Poissons Ratio (z) = -0.11143 0.44928
#
# Static dielectric constant tensor:
#      x y z
#    x 2.970610 -0.000010 -0.265380 
#    y -0.000010 3.000490 0.000000 
#    z -0.265380 0.000000 3.577300 
# 
# 
# High freq. dielectric constant tensor:
#      x y z
#    x 1.616210 0.000000 -0.037010 
#    y 0.000000 1.610620 0.000000 
#    z -0.037010 0.000000 1.659370 
# 
# From -- ./inp_files/227121.got.cif
#   From: 2010.06.25/outbox.cif.g09.slc.cpg/sg12_114_cif.got.tgz:227121.got - 2010.06.28 00:19:55.
