data_PCOD8078641
_publ_section_title
;
Structure prediction by ZEFSAII (Michael W. Deem and Ramdas Pophale) SiO2 
 PCOD8078641
Probable space group: C 2/M
;
_chemical_formula_sum "Si O2"
_cell_formula_units_Z 64
_cell_length_a 28.229912
_cell_length_b 9.115919
_cell_length_c 30.372368
_cell_angle_alpha 90.000000
_cell_angle_beta 32.400990
_cell_angle_gamma 90.000000
_cell_volume 4188.175645
_symmetry_space_group_name_H-M "C 2/M"
_symmetry_group_IT_number 12
_symmetry_cell_setting 'monoclinic'
loop_
_space_group_symop_operation_xyz
x,y,z
-x,y,-z
-x,-y,-z
x,-y,z
1/2+x,1/2+y,z
1/2-x,1/2+y,-z
1/2-x,1/2-y,-z
1/2+x,1/2-y,z
loop_
_atom_site_type_symbol
_atom_site_label
_atom_site_fract_x
_atom_site_fract_y
_atom_site_fract_z
Si Si1 0.835109 0.670834 0.304606
Si Si2 0.281207 0.163905 0.541146
Si Si3 0.882631 0.837800 0.396231
Si Si4 0.158918 0.674423 0.059742
Si Si5 0.506500 0.325796 0.771293
Si Si6 0.611169 0.832656 0.832634
Si Si7 0.104915 0.834053 0.921667
Si Si8 0.590438 0.170165 0.018030
O O1 0.846317 0.500000 0.308669
O O2 0.745686 0.735430 0.396201
O O3 0.826674 0.690522 0.258614
O O4 0.920692 0.758799 0.253390
O O5 0.201127 0.163445 0.570058
O O6 0.368120 0.227894 0.448493
O O7 0.302892 0.000000 0.540616
O O8 0.967156 0.793509 0.300330
O O9 0.895194 0.000000 0.406281
O O10 0.161943 0.500000 0.065059
O O11 0.085896 0.745742 0.148660
O O12 0.250000 0.750000 0.000000
O O13 0.138367 0.714129 0.025400
O O14 0.500094 0.500000 0.785162
O O15 0.648386 0.738194 0.844173
O O16 0.611353 0.000000 0.848317
O O17 0.512068 0.785001 0.896926
O O18 0.136795 0.755640 0.941352
O O19 0.137263 0.000000 0.898482
O O20 0.000000 0.817940 0.000000
O O21 0.601135 0.000000 0.999350
#
# Coordination Sequence:
#
# PCOD8078641 Si02
#       8
#     8   8   8   8   8   8   8   8
#     4  10  17  26  40  58  82 112 142 171 205 247
#     4   9  16  24  35  55  78 104 136 170 205 239
#     4   8  15  26  38  53  74 102 135 168 204 246
#     4  11  22  35  48  64  83 108 142 179 220 256
#     4  10  19  30  44  60  78 104 138 177 216 251
#     4   9  16  27  41  58  80 110 141 168 203 249
#     4   9  17  26  39  61  81 101 132 170 209 244
#     4   9  17  31  45  57  77 106 138 170 208 254
#
# _framework density 15.281115
#
# number of rings (size 3 to 8) (size 9 to 14) (size 15 to 20)
#    0.000    2.625    1.250    2.625    0.000    7.000 
#    0.000    0.000    0.000    0.000    0.000    0.000 
#    0.000    0.000    0.000    1.125    0.000   21.750 
#
# Total GULP energy -396693.449862 kJ/mol
# GULP energy per Si atom -12396.670308 kJ/mol
# Density = 1.524633 g / cm^3
# Si number density = 15.281115 Si / 1000 Ang^3
#
#
#
# Elastic Constant Matrix: (Units=GPa)
#
#
# Indices 1 2 3 4 5 6 
#
# 1 52.2415 40.6981 44.9006 0.0135 15.2266 -0.0091
# 2 40.6981 106.2362 63.5659 0.0410 17.7504 -0.0481
# 3 44.9006 63.5659 103.2078 -0.0010 23.3583 -0.0132
# 4 0.0135 0.0410 -0.0010 27.7900 0.0003 5.9835
# 5 15.2266 17.7504 23.3583 0.0003 19.4165 0.0049
# 6 -0.0091 -0.0481 -0.0132 5.9835 0.0049 17.9746
#
#
#
# Elastic Compliance Matrix: (Units=1/GPa)
#
#
# Indices 1 2 3 4 5 6 
#
# 1 0.034749 -0.006206 -0.008811 -0.000008 -0.010977 0.000000
# 2 -0.006206 0.016195 -0.006905 -0.000031 -0.001631 0.000046
# 3 -0.008811 -0.006905 0.020314 0.000018 -0.011215 -0.000011
# 4 -0.000008 -0.000031 0.000018 0.038762 0.000016 -0.012904
# 5 -0.010977 -0.001631 -0.011215 0.000016 0.075095 -0.000044
# 6 0.000000 0.000046 -0.000011 -0.012904 -0.000044 0.059930
#
#
# Mechanical properties :
#
#
# Convention : Reuss Voigt Hill
#
# Bulk Modulus (GPa) = 36.47896 62.22385 49.35140
# Shear Modulus (GPa) = 16.77710 20.53761 18.65735
#
# Velocity S-wave (km/s) = 3.31705 3.67002 3.49799
# Velocity P-wave (km/s) = 6.21242 7.66594 6.97713
#
# Compressibility (1/GPa) = 0.02741306
#
# Stress axis : x y z
#
# Youngs Moduli (GPa) = 28.77811 61.74836 49.22804
#
# Poissons Ratio (x) = 0.38320 0.43374
# Poissons Ratio (y) = 0.17859 0.33994
# Poissons Ratio (z) = 0.25356 0.42639
#
# Static dielectric constant tensor:
#      x y z
#    x 2.552490 -0.000020 0.345080 
#    y -0.000020 3.103850 0.000030 
#    z 0.345080 0.000030 3.045830 
# 
# 
# High freq. dielectric constant tensor:
#      x y z
#    x 1.527730 0.000000 0.041060 
#    y 0.000000 1.601710 0.000000 
#    z 0.041060 0.000000 1.574450 
# 
# From -- ./inp_files/384557.got.cif
#   From: 2010.06.25/outbox.cif.g09.slc.cpg/sg12_193_cif.got.tgz:384557.got - 2010.06.28 00:19:55.
