data_PCOD8078721
_publ_section_title
;
Structure prediction by ZEFSAII (Michael W. Deem and Ramdas Pophale) SiO2 
 PCOD8078721
Probable space group: C 2/M
;
_chemical_formula_sum "Si O2"
_cell_formula_units_Z 64
_cell_length_a 24.123702
_cell_length_b 13.640504
_cell_length_c 12.357179
_cell_angle_alpha 90.000000
_cell_angle_beta 112.703254
_cell_angle_gamma 90.000000
_cell_volume 3751.178217
_symmetry_space_group_name_H-M "C 2/M"
_symmetry_group_IT_number 12
_symmetry_cell_setting 'monoclinic'
loop_
_space_group_symop_operation_xyz
x,y,z
-x,y,-z
-x,-y,-z
x,-y,z
1/2+x,1/2+y,z
1/2-x,1/2+y,-z
1/2-x,1/2-y,-z
1/2+x,1/2-y,z
loop_
_atom_site_type_symbol
_atom_site_label
_atom_site_fract_x
_atom_site_fract_y
_atom_site_fract_z
Si Si1 0.435827 0.738878 0.983623
Si Si2 0.903977 0.887532 0.754343
Si Si3 0.219665 0.109748 0.992316
Si Si4 0.274143 0.386771 0.576489
Si Si5 0.635926 0.610726 0.722784
Si Si6 0.468070 0.613158 0.213747
Si Si7 0.770535 0.203853 0.347135
Si Si8 0.811019 0.701254 0.913360
O O1 0.412073 0.670950 0.870079
O O2 0.382973 0.818789 0.962320
O O3 0.500000 0.788313 0.000000
O O4 0.442824 0.675378 0.095872
O O5 0.843618 0.856344 0.647072
O O6 0.960676 0.868165 0.716828
O O7 0.900995 0.000000 0.786627
O O8 0.171287 0.119560 0.861548
O O9 0.284978 0.137204 0.992368
O O10 0.222236 0.000000 0.042181
O O11 0.202342 0.183029 0.076056
O O12 0.260910 0.500000 0.594276
O O13 0.233027 0.318338 0.622358
O O14 0.258690 0.365875 0.440434
O O15 0.639818 0.500000 0.679387
O O16 0.567106 0.640258 0.701173
O O17 0.663485 0.683973 0.654299
O O18 0.454755 0.500000 0.175286
O O19 0.719746 0.172338 0.222843
#
# Coordination Sequence:
#
# PCOD8078721 Si02
#       8
#     8   8   8   8   8   8   8   8
#     4  10  17  26  43  68  98 126 152 183 225 274
#     4   9  17  28  43  66  95 127 157 185 222 272
#     4   9  18  29  45  68  97 127 151 184 229 278
#     4  10  20  34  49  66  92 123 158 199 235 271
#     4   9  16  28  46  69  98 128 153 181 222 274
#     4   9  16  26  43  68  99 129 152 175 217 283
#     4  10  20  32  47  66  93 123 157 197 234 271
#     4  10  18  30  46  70  97 122 156 190 226 279
#
# _framework density 17.061305999999998
#
# number of rings (size 3 to 8) (size 9 to 14) (size 15 to 20)
#    0.000    2.500    2.500    0.750    0.000    3.000 
#    0.000    0.625    0.000    3.375    0.000    0.000 
#    0.000    9.000    0.000    0.000    0.000    0.000 
#
# Total GULP energy -396630.898912 kJ/mol
# GULP energy per Si atom -12394.715591 kJ/mol
# Density = 1.702247 g / cm^3
# Si number density = 17.061306 Si / 1000 Ang^3
#
#
#
# Elastic Constant Matrix: (Units=GPa)
#
#
# Indices 1 2 3 4 5 6 
#
# 1 123.9685 33.1424 24.6977 0.0000 -8.3200 0.0000
# 2 33.1424 53.0319 13.8151 0.0000 -0.3520 0.0000
# 3 24.6977 13.8151 50.6550 0.0000 -0.6534 0.0000
# 4 0.0000 0.0000 0.0000 16.7502 0.0000 -2.2397
# 5 -8.3200 -0.3520 -0.6534 0.0000 18.1500 0.0000
# 6 0.0000 0.0000 0.0000 -2.2397 0.0000 24.3559
#
#
#
# Elastic Compliance Matrix: (Units=1/GPa)
#
#
# Indices 1 2 3 4 5 6 
#
# 1 0.010602 -0.005666 -0.003564 0.000000 0.004622 0.000000
# 2 -0.005666 0.023328 -0.003629 0.000000 -0.002276 0.000000
# 3 -0.003564 -0.003629 0.022457 0.000000 -0.000896 0.000000
# 4 0.000000 0.000000 0.000000 0.060444 0.000000 0.005558
# 5 0.004622 -0.002276 -0.000896 0.000000 0.057139 0.000000
# 6 0.000000 0.000000 0.000000 0.005558 0.000000 0.041569
#
#
# Mechanical properties :
#
#
# Convention : Reuss Voigt Hill
#
# Bulk Modulus (GPa) = 32.60688 41.21844 36.91266
# Shear Modulus (GPa) = 19.88232 22.25124 21.06678
#
# Velocity S-wave (km/s) = 3.41742 3.61528 3.51774
# Velocity P-wave (km/s) = 5.89277 6.45279 6.17913
#
# Compressibility (1/GPa) = 0.03066837
#
# Stress axis : x y z
#
# Youngs Moduli (GPa) = 94.32480 42.86688 44.52912
#
# Poissons Ratio (x) = 0.24290 0.15870
# Poissons Ratio (y) = 0.53448 0.16159
# Poissons Ratio (z) = 0.33617 0.15556
#
# Static dielectric constant tensor:
#      x y z
#    x 3.656580 0.000000 0.007820 
#    y 0.000000 3.016760 0.000000 
#    z 0.007820 0.000000 3.006640 
# 
# 
# High freq. dielectric constant tensor:
#      x y z
#    x 1.669770 0.000000 -0.009000 
#    y 0.000000 1.621200 0.000000 
#    z -0.009000 0.000000 1.639930 
# 
# From -- ./inp_files/176134.got.cif
#   From: 2010.06.25/outbox.cif.g09.slc.cpg/sg12_89_cif.got.tgz:176134.got - 2010.06.28 00:19:55.
