data_PCOD8078311
_publ_section_title
;
Structure prediction by ZEFSAII (Michael W. Deem and Ramdas Pophale) SiO2 
 PCOD8078311
Probable space group: C 2/M
;
_chemical_formula_sum "Si O2"
_cell_formula_units_Z 48
_cell_length_a 26.517547
_cell_length_b 12.585396
_cell_length_c 19.371227
_cell_angle_alpha 90.000000
_cell_angle_beta 154.642475
_cell_angle_gamma 90.000000
_cell_volume 2768.664283
_symmetry_space_group_name_H-M "C 2/M"
_symmetry_group_IT_number 12
_symmetry_cell_setting 'monoclinic'
loop_
_space_group_symop_operation_xyz
x,y,z
-x,y,-z
-x,-y,-z
x,-y,z
1/2+x,1/2+y,z
1/2-x,1/2+y,-z
1/2-x,1/2-y,-z
1/2+x,1/2-y,z
loop_
_atom_site_type_symbol
_atom_site_label
_atom_site_fract_x
_atom_site_fract_y
_atom_site_fract_z
Si Si1 0.435862 0.117649 0.848393
Si Si2 0.218748 0.875967 0.662458
Si Si3 0.243203 0.878680 0.951475
Si Si4 0.201643 0.625282 0.828482
Si Si5 0.644522 0.791209 0.039050
Si Si6 0.021021 0.795989 0.601885
O O1 0.302807 0.155328 0.701425
O O2 0.435753 0.000000 0.813193
O O3 0.500000 0.107221 0.000000
O O4 0.505336 0.203394 0.886453
O O5 0.282155 0.856938 0.813925
O O6 0.103502 0.801445 0.512247
O O7 0.184247 0.000000 0.615871
O O8 0.342114 0.844995 0.019043
O O9 0.113617 0.864221 0.759851
O O10 0.263337 0.000000 0.994764
O O11 0.261759 0.826713 0.050706
O O12 0.195647 0.500000 0.811872
O O13 0.300589 0.671784 0.897739
O O14 0.072527 0.676225 0.654718
O O15 0.000000 0.846955 0.500000
#
# Coordination Sequence:
#
# PCOD8078311 Si02
#       6
#     8   8   8   8   8   8
#     4   8  15  26  44  70 101 126 147 188 246 301
#     4  10  18  28  45  76 106 122 146 195 257 297
#     4  10  19  31  50  72  99 126 158 200 244 297
#     4  10  22  36  47  66  97 139 173 195 229 278
#     4  10  16  29  49  71  93 127 162 197 237 286
#     4  11  19  30  49  76  99 126 154 201 248 291
#
# _framework density 17.336881000000002
#
# number of rings (size 3 to 8) (size 9 to 14) (size 15 to 20)
#    0.000    2.167    3.333    5.000    0.000    1.000 
#    0.000    0.000    0.000    9.500    0.000    4.667 
#    0.000    0.000    0.000    0.000    0.000    0.000 
#
# Total GULP energy -297315.151605 kJ/mol
# GULP energy per Si atom -12388.131317 kJ/mol
# Density = 1.729742 g / cm^3
# Si number density = 17.336881 Si / 1000 Ang^3
#
#
#
# Elastic Constant Matrix: (Units=GPa)
#
#
# Indices 1 2 3 4 5 6 
#
# 1 115.8714 46.8629 53.0546 0.0000 36.6009 0.0000
# 2 46.8629 76.2293 26.3562 0.0000 25.6070 0.0000
# 3 53.0546 26.3562 71.0274 0.0000 20.1887 0.0000
# 4 0.0000 0.0000 0.0000 17.3643 0.0000 0.9157
# 5 36.6009 25.6070 20.1887 0.0000 40.2414 0.0000
# 6 0.0000 0.0000 0.0000 0.9157 0.0000 24.0374
#
#
#
# Elastic Compliance Matrix: (Units=1/GPa)
#
#
# Indices 1 2 3 4 5 6 
#
# 1 0.017126 -0.004775 -0.008697 0.000000 -0.008175 0.000000
# 2 -0.004775 0.018895 -0.001471 0.000000 -0.006942 0.000000
# 3 -0.008697 -0.001471 0.021701 0.000000 -0.002041 0.000000
# 4 0.000000 0.000000 0.000000 0.057705 0.000000 -0.002198
# 5 -0.008175 -0.006942 -0.002041 0.000000 0.037727 0.000000
# 6 0.000000 0.000000 0.000000 -0.002198 0.000000 0.041686
#
#
# Mechanical properties :
#
#
# Convention : Reuss Voigt Hill
#
# Bulk Modulus (GPa) = 35.92561 57.29730 46.61146
# Shear Modulus (GPa) = 21.36717 25.45224 23.40970
#
# Velocity S-wave (km/s) = 3.51446 3.83573 3.67861
# Velocity P-wave (km/s) = 6.10210 7.26211 6.70723
#
# Compressibility (1/GPa) = 0.02783529
#
# Stress axis : x y z
#
# Youngs Moduli (GPa) = 58.39145 52.92525 46.08024
#
# Poissons Ratio (x) = 0.25274 0.40075
# Poissons Ratio (y) = 0.27884 0.06779
# Poissons Ratio (z) = 0.50782 0.07786
#
# Static dielectric constant tensor:
#      x y z
#    x 3.541310 0.000000 0.328280 
#    y 0.000000 3.103210 0.000000 
#    z 0.328280 0.000000 3.240390 
# 
# 
# High freq. dielectric constant tensor:
#      x y z
#    x 1.664920 0.000000 0.010940 
#    y 0.000000 1.655360 0.000000 
#    z 0.010940 0.000000 1.649740 
# 
# From -- ./inp_files/166349.got.cif
#   From: 2010.06.25/outbox.cif.g09.slc.cpg/sg12_84_cif.got.tgz:166349.got - 2010.06.28 00:19:55.
