data_PCOD8078800
_publ_section_title
;
Structure prediction by ZEFSAII (Michael W. Deem and Ramdas Pophale) SiO2 
 PCOD8078800
Probable space group: C 2/M
;
_chemical_formula_sum "Si O2"
_cell_formula_units_Z 56
_cell_length_a 34.265832
_cell_length_b 13.241045
_cell_length_c 7.966093
_cell_angle_alpha 90.000000
_cell_angle_beta 95.619596
_cell_angle_gamma 90.000000
_cell_volume 3596.968625
_symmetry_space_group_name_H-M "C 2/M"
_symmetry_group_IT_number 12
_symmetry_cell_setting 'monoclinic'
loop_
_space_group_symop_operation_xyz
x,y,z
-x,y,-z
-x,-y,-z
x,-y,z
1/2+x,1/2+y,z
1/2-x,1/2+y,-z
1/2-x,1/2-y,-z
1/2+x,1/2-y,z
loop_
_atom_site_type_symbol
_atom_site_label
_atom_site_fract_x
_atom_site_fract_y
_atom_site_fract_z
Si Si1 0.702133 0.695962 0.141741
Si Si2 0.878451 0.883147 0.388315
Si Si3 0.200778 0.880514 0.500622
Si Si4 0.751200 0.884290 0.148029
Si Si5 0.959312 0.114460 0.536394
Si Si6 0.959163 0.885848 0.928906
Si Si7 0.376454 0.617317 0.003529
O O1 0.717386 0.664778 0.333902
O O2 0.713109 0.812857 0.113553
O O3 0.655237 0.680551 0.116000
O O4 0.721560 0.626992 0.005126
O O5 0.843339 0.837489 0.485837
O O6 0.920788 0.830764 0.441717
O O7 0.883424 0.000000 0.438617
O O8 0.865445 0.869948 0.191983
O O9 0.226946 0.850218 0.672152
O O10 0.199681 0.000000 0.484091
O O11 0.737157 0.000000 0.153274
O O12 0.954257 0.117792 0.730581
O O13 0.000000 0.169876 0.500000
O O14 0.961507 0.000000 0.466934
O O15 0.919992 0.836203 0.991285
O O16 0.961205 0.000000 0.000512
O O17 0.000000 0.830606 0.000000
O O18 0.374938 0.500000 0.945117
#
# Coordination Sequence:
#
# PCOD8078800 Si02
#       7
#     8   8   8   8   8   8   8
#     4  11  20  31  50  68  86 118 152 181 226 269
#     4   9  16  25  38  56  80 110 142 181 215 248
#     4  10  18  30  47  66  88 113 147 184 222 264
#     4  10  21  35  47  66  92 114 146 189 227 267
#     4   9  15  22  31  47  73 107 144 176 210 247
#     4   9  16  24  35  54  80 112 146 178 213 255
#     4  10  17  27  42  61  86 114 148 183 217 257
#
# _framework density 15.568664
#
# number of rings (size 3 to 8) (size 9 to 14) (size 15 to 20)
#    0.000    2.286    1.429    3.429    0.000    5.714 
#    0.000    0.000    0.000    0.000    0.000    0.000 
#    0.000    0.571    0.000    0.000    0.000   12.143 
#
# Total GULP energy -346994.225566 kJ/mol
# GULP energy per Si atom -12392.650913 kJ/mol
# Density = 1.553323 g / cm^3
# Si number density = 15.568664 Si / 1000 Ang^3
#
#
#
# Elastic Constant Matrix: (Units=GPa)
#
#
# Indices 1 2 3 4 5 6 
#
# 1 103.1619 33.6553 30.2184 0.0000 5.5685 0.0000
# 2 33.6553 35.2387 16.4431 0.0000 7.3082 0.0000
# 3 30.2184 16.4431 83.2557 0.0000 -2.6935 0.0000
# 4 0.0000 0.0000 0.0000 10.9786 0.0000 0.9731
# 5 5.5685 7.3082 -2.6935 0.0000 24.8423 0.0000
# 6 0.0000 0.0000 0.0000 0.9731 0.0000 12.2631
#
#
#
# Elastic Compliance Matrix: (Units=1/GPa)
#
#
# Indices 1 2 3 4 5 6 
#
# 1 0.014656 -0.012722 -0.002802 0.000000 0.000154 0.000000
# 2 -0.012722 0.044932 -0.004608 0.000000 -0.010866 0.000000
# 3 -0.002802 -0.004608 0.014052 0.000000 0.003507 0.000000
# 4 0.000000 0.000000 0.000000 0.091731 0.000000 -0.007279
# 5 0.000154 -0.010866 0.003507 0.000000 0.043797 0.000000
# 6 0.000000 0.000000 0.000000 -0.007279 0.000000 0.082123
#
#
# Mechanical properties :
#
#
# Convention : Reuss Voigt Hill
#
# Bulk Modulus (GPa) = 29.96188 42.47666 36.21927
# Shear Modulus (GPa) = 14.59081 19.03943 16.81512
#
# Velocity S-wave (km/s) = 3.06468 3.50084 3.28999
# Velocity P-wave (km/s) = 5.64002 6.60937 6.14384
#
# Compressibility (1/GPa) = 0.03337574
#
# Stress axis : x y z
#
# Youngs Moduli (GPa) = 68.22930 22.25574 71.16523
#
# Poissons Ratio (x) = 0.28314 0.19941
# Poissons Ratio (y) = 0.86803 0.32794
# Poissons Ratio (z) = 0.19118 0.10256
#
# Static dielectric constant tensor:
#      x y z
#    x 3.262990 0.000000 0.009210 
#    y 0.000000 2.358680 0.000000 
#    z 0.009210 0.000000 3.082350 
# 
# 
# High freq. dielectric constant tensor:
#      x y z
#    x 1.612130 0.000000 -0.001880 
#    y 0.000000 1.502650 0.000000 
#    z -0.001880 0.000000 1.618920 
# 
# From -- ./inp_files/110877.got.cif
#   From: 2010.06.25/outbox.cif.g09.slc.cpg/sg12_56_cif.got.tgz:110877.got - 2010.06.28 00:19:55.
