data_PCOD8078642
_publ_section_title
;
Structure prediction by ZEFSAII (Michael W. Deem and Ramdas Pophale) SiO2 
 PCOD8078642
Probable space group: C 2/M
;
_chemical_formula_sum "Si O2"
_cell_formula_units_Z 64
_cell_length_a 28.524410
_cell_length_b 8.781584
_cell_length_c 16.521266
_cell_angle_alpha 90.000000
_cell_angle_beta 97.146343
_cell_angle_gamma 90.000000
_cell_volume 4106.255090
_symmetry_space_group_name_H-M "C 2/M"
_symmetry_group_IT_number 12
_symmetry_cell_setting 'monoclinic'
loop_
_space_group_symop_operation_xyz
x,y,z
-x,y,-z
-x,-y,-z
x,-y,z
1/2+x,1/2+y,z
1/2-x,1/2+y,-z
1/2-x,1/2-y,-z
1/2+x,1/2-y,z
loop_
_atom_site_type_symbol
_atom_site_label
_atom_site_fract_x
_atom_site_fract_y
_atom_site_fract_z
Si Si1 0.972636 0.826748 0.077746
Si Si2 0.943743 0.322831 0.831908
Si Si3 0.364503 0.177711 0.696493
Si Si4 0.774909 0.818944 0.764477
Si Si5 0.109339 0.321276 0.019959
Si Si6 0.322156 0.675731 0.547715
Si Si7 0.716324 0.181366 0.059749
Si Si8 0.732862 0.679131 0.611829
O O1 0.005072 0.757639 0.156253
O O2 0.963684 0.000000 0.097015
O O3 0.921302 0.748597 0.060254
O O4 0.000000 0.800059 0.000000
O O5 0.953504 0.500000 0.843546
O O6 0.916364 0.284014 0.742770
O O7 0.910742 0.263646 0.898169
O O8 0.325143 0.269548 0.737971
O O9 0.363323 0.226314 0.601001
O O10 0.353268 0.000000 0.704552
O O11 0.768949 0.754349 0.852488
O O12 0.731472 0.744918 0.702814
O O13 0.770557 0.000000 0.764273
O O14 0.105060 0.500000 0.012084
O O15 0.163303 0.268000 0.024784
O O16 0.332778 0.500000 0.567546
O O17 0.316232 0.705020 0.449243
O O18 0.273007 0.721939 0.577486
O O19 0.720967 0.000000 0.066072
O O20 0.750000 0.250000 0.000000
O O21 0.746069 0.500000 0.614227
#
# Coordination Sequence:
#
# PCOD8078642 Si02
#       8
#     8   8   8   8   8   8   8   8
#     4   9  17  26  39  61  82 101 132 172 208 242
#     4   9  16  27  41  58  80 111 142 167 204 250
#     4  10  17  26  40  58  82 112 142 173 206 246
#     4  11  20  29  43  60  78 105 139 176 215 251
#     4   9  17  31  46  57  77 107 137 169 208 255
#     4   9  16  24  35  55  78 104 136 170 206 242
#     4  11  22  36  49  64  83 107 141 179 220 256
#     4   9  16  26  39  53  75 104 136 171 205 246
#
# _framework density 15.585977
#
# number of rings (size 3 to 8) (size 9 to 14) (size 15 to 20)
#    0.000    2.375    1.250    4.500    0.000    5.000 
#    0.000    0.000    0.000    0.000    0.000    0.000 
#    0.000    0.000    0.000    1.125    0.000   21.000 
#
# Total GULP energy -396530.880868 kJ/mol
# GULP energy per Si atom -12391.590027 kJ/mol
# Density = 1.555050 g / cm^3
# Si number density = 15.585977 Si / 1000 Ang^3
#
#
#
# Elastic Constant Matrix: (Units=GPa)
#
#
# Indices 1 2 3 4 5 6 
#
# 1 70.9840 31.8805 56.7508 0.0000 27.8492 0.0000
# 2 31.8805 59.3713 39.7783 0.0000 15.7742 0.0000
# 3 56.7508 39.7783 102.8180 0.0000 36.4664 0.0000
# 4 0.0000 0.0000 0.0000 24.5370 0.0000 6.4469
# 5 27.8492 15.7742 36.4664 0.0000 29.3839 0.0000
# 6 0.0000 0.0000 0.0000 6.4469 0.0000 18.6393
#
#
#
# Elastic Compliance Matrix: (Units=1/GPa)
#
#
# Indices 1 2 3 4 5 6 
#
# 1 0.029301 -0.006114 -0.009149 0.000000 -0.013134 0.000000
# 2 -0.006114 0.024100 -0.006101 0.000000 0.000429 0.000000
# 3 -0.009149 -0.006101 0.023041 0.000000 -0.016648 0.000000
# 4 0.000000 0.000000 0.000000 0.044829 0.000000 -0.015505
# 5 -0.013134 0.000429 -0.016648 0.000000 0.066910 0.000000
# 6 0.000000 0.000000 0.000000 -0.015505 0.000000 0.059013
#
#
# Mechanical properties :
#
#
# Convention : Reuss Voigt Hill
#
# Bulk Modulus (GPa) = 29.66252 54.44360 42.05306
# Shear Modulus (GPa) = 16.60240 21.49630 19.04935
#
# Velocity S-wave (km/s) = 3.26730 3.71780 3.49981
# Velocity P-wave (km/s) = 5.77118 7.31002 6.58570
#
# Compressibility (1/GPa) = 0.03371257
#
# Stress axis : x y z
#
# Youngs Moduli (GPa) = 34.12808 41.49356 43.40151
#
# Poissons Ratio (x) = 0.25371 0.39709
# Poissons Ratio (y) = 0.20867 0.26480
# Poissons Ratio (z) = 0.31224 0.25316
#
# Static dielectric constant tensor:
#      x y z
#    x 2.768520 0.000000 0.529160 
#    y 0.000000 3.041230 0.000000 
#    z 0.529160 0.000000 3.192130 
# 
# 
# High freq. dielectric constant tensor:
#      x y z
#    x 1.549470 0.000000 0.055590 
#    y 0.000000 1.612640 0.000000 
#    z 0.055590 0.000000 1.581220 
# 
# From -- ./inp_files/287659.got.cif
#   From: 2010.06.25/outbox.cif.g09.slc.cpg/sg12_144_cif.got.tgz:287659.got - 2010.06.28 00:19:55.
