data_PCOD8078425
_publ_section_title
;
Structure prediction by ZEFSAII (Michael W. Deem and Ramdas Pophale) SiO2 
 PCOD8078425
Probable space group: C 2/M
;
_chemical_formula_sum "Si O2"
_cell_formula_units_Z 40
_cell_length_a 5.188225
_cell_length_b 26.813574
_cell_length_c 13.224745
_cell_angle_alpha 90.000000
_cell_angle_beta 106.434377
_cell_angle_gamma 90.000000
_cell_volume 1764.594045
_symmetry_space_group_name_H-M "C 2/M"
_symmetry_group_IT_number 12
_symmetry_cell_setting 'monoclinic'
loop_
_space_group_symop_operation_xyz
x,y,z
-x,y,-z
-x,-y,-z
x,-y,z
1/2+x,1/2+y,z
1/2-x,1/2+y,-z
1/2-x,1/2-y,-z
1/2+x,1/2-y,z
loop_
_atom_site_type_symbol
_atom_site_label
_atom_site_fract_x
_atom_site_fract_y
_atom_site_fract_z
Si Si1 0.856282 0.940689 0.758358
Si Si2 0.284874 0.305719 0.046407
Si Si3 0.801180 0.127292 0.566615
Si Si4 0.545948 0.282164 0.713550
Si Si5 0.945322 0.440818 0.882159
O O1 0.767966 0.917202 0.642872
O O2 0.662162 0.920821 0.825757
O O3 0.153610 0.921361 0.817221
O O4 0.841483 0.000000 0.745791
O O5 0.388378 0.306865 0.171815
O O6 0.500000 0.334272 0.000000
O O7 0.250000 0.250000 0.000000
O O8 0.000000 0.333817 0.000000
O O9 0.500000 0.141340 0.500000
O O10 0.938623 0.176143 0.627099
O O11 0.000000 0.108323 0.500000
O O12 0.820802 0.260357 0.698840
O O13 0.954518 0.500000 0.884597
O O14 0.000000 0.419776 0.000000
#
# Coordination Sequence:
#
# PCOD8078425 Si02
#       5
#     8   8   8   8   8
#     4  10  21  40  66  93 126 169 212 259 318 376
#     4  10  16  32  59  90 117 151 185 238 299 365
#     4  12  28  46  62  89 125 163 222 281 312 362
#     4  12  23  40  67  90 121 164 204 252 318 383
#     4   9  17  33  63  97 131 164 197 246 314 388
#
# _framework density 22.668104
#
# number of rings (size 3 to 8) (size 9 to 14) (size 15 to 20)
#    0.000    1.400    4.000    3.000    0.000    5.600 
#    0.000    3.000    0.000    0.000    0.000    0.000 
#    0.000    0.000    0.000    0.000    0.000    0.000 
#
# Total GULP energy -248028.133460 kJ/mol
# GULP energy per Si atom -12401.406673 kJ/mol
# Density = 2.261651 g / cm^3
# Si number density = 22.668104 Si / 1000 Ang^3
#
#
#
# Elastic Constant Matrix: (Units=GPa)
#
#
# Indices 1 2 3 4 5 6 
#
# 1 200.5961 23.2228 70.9988 0.0000 -0.4608 0.0000
# 2 23.2228 43.5709 35.4357 0.0000 -0.5170 0.0000
# 3 70.9988 35.4357 160.3082 0.0000 -0.3660 0.0000
# 4 0.0000 0.0000 0.0000 36.8989 0.0000 8.3909
# 5 -0.4608 -0.5170 -0.3660 0.0000 53.3939 0.0000
# 6 0.0000 0.0000 0.0000 8.3909 0.0000 17.9440
#
#
#
# Elastic Compliance Matrix: (Units=1/GPa)
#
#
# Indices 1 2 3 4 5 6 
#
# 1 0.005968 -0.001257 -0.002365 0.000000 0.000023 0.000000
# 2 -0.001257 0.028249 -0.005687 0.000000 0.000224 0.000000
# 3 -0.002365 -0.005687 0.008543 0.000000 -0.000017 0.000000
# 4 0.000000 0.000000 0.000000 0.030326 0.000000 -0.014181
# 5 0.000023 0.000224 -0.000017 0.000000 0.018731 0.000000
# 6 0.000000 0.000000 0.000000 -0.014181 0.000000 0.062360
#
#
# Mechanical properties :
#
#
# Convention : Reuss Voigt Hill
#
# Bulk Modulus (GPa) = 41.42361 73.75442 57.58902
# Shear Modulus (GPa) = 27.64850 39.96856 33.80853
#
# Velocity S-wave (km/s) = 3.49622 4.20361 3.86613
# Velocity P-wave (km/s) = 5.88317 7.49451 6.73719
#
# Compressibility (1/GPa) = 0.02414082
#
# Stress axis : x y z
#
# Youngs Moduli (GPa) = 167.56470 35.39952 117.06034
#
# Poissons Ratio (x) = 0.04449 0.27687
# Poissons Ratio (y) = 0.21062 0.66574
# Poissons Ratio (z) = 0.39632 0.20132
#
# Static dielectric constant tensor:
#      x y z
#    x 3.804890 0.000000 -0.085770 
#    y 0.000000 2.295540 0.000000 
#    z -0.085770 0.000000 4.183900 
# 
# 
# High freq. dielectric constant tensor:
#      x y z
#    x 1.921790 0.000000 0.000640 
#    y 0.000000 1.881260 0.000000 
#    z 0.000640 0.000000 1.898060 
# 
# From -- ./inp_files/116172.got.cif
#   From: 2010.06.25/outbox.cif.g09.slc.cpg/sg12_59_cif.got.tgz:116172.got - 2010.06.28 00:19:55.
