data_PCOD8078626
_publ_section_title
;
Structure prediction by ZEFSAII (Michael W. Deem and Ramdas Pophale) SiO2 
 PCOD8078626
Probable space group: C 2/M
;
_chemical_formula_sum "Si O2"
_cell_formula_units_Z 56
_cell_length_a 27.653707
_cell_length_b 9.718905
_cell_length_c 14.250068
_cell_angle_alpha 90.000000
_cell_angle_beta 77.237756
_cell_angle_gamma 90.000000
_cell_volume 3735.284528
_symmetry_space_group_name_H-M "C 2/M"
_symmetry_group_IT_number 12
_symmetry_cell_setting 'monoclinic'
loop_
_space_group_symop_operation_xyz
x,y,z
-x,y,-z
-x,-y,-z
x,-y,z
1/2+x,1/2+y,z
1/2-x,1/2+y,-z
1/2-x,1/2-y,-z
1/2+x,1/2-y,z
loop_
_atom_site_type_symbol
_atom_site_label
_atom_site_fract_x
_atom_site_fract_y
_atom_site_fract_z
Si Si1 0.705811 0.657436 0.407855
Si Si2 0.711024 0.158842 0.893467
Si Si3 0.317138 0.840823 0.415204
Si Si4 0.945117 0.663536 0.032849
Si Si5 0.868899 0.663443 0.211572
Si Si6 0.865041 0.341428 0.915813
Si Si7 0.683031 0.660976 0.204827
O O1 0.695204 0.500000 0.438992
O O2 0.676353 0.751483 0.494294
O O3 0.764536 0.687723 0.387154
O O4 0.684702 0.692480 0.314643
O O5 0.675860 0.228640 0.830154
O O6 0.766303 0.219483 0.863952
O O7 0.716768 0.000000 0.863942
O O8 0.686235 0.178676 0.005318
O O9 0.360923 0.795629 0.323850
O O10 0.322225 0.000000 0.441201
O O11 0.948175 0.500000 0.031523
O O12 0.920713 0.714261 0.142471
O O13 0.911268 0.709640 0.959341
O O14 0.000000 0.728739 0.000000
O O15 0.866263 0.500000 0.202130
O O16 0.872215 0.500000 0.883084
O O17 0.861550 0.247198 0.824152
O O18 0.674077 0.500000 0.188901
#
# Coordination Sequence:
#
# PCOD8078626 Si02
#       7
#     8   8   8   8   8   8   8
#     4   9  17  26  37  54  79 110 139 165 193 228
#     4   8  13  23  37  54  78 108 135 158 186 228
#     4   9  15  25  40  57  77 105 138 168 196 227
#     4   8  14  25  42  64  85 103 127 163 205 244
#     4   8  12  21  39  59  79 105 135 162 194 239
#     4   9  17  26  39  59  81 103 131 165 196 229
#     4  10  17  26  39  54  78 112 140 158 187 233
#
# _framework density 14.992165
#
# number of rings (size 3 to 8) (size 9 to 14) (size 15 to 20)
#    0.000    3.286    1.429    2.143    0.000    0.571 
#    0.000    0.000    0.000    3.857    0.000    1.000 
#    0.000    8.000    0.000    0.000    0.000    0.000 
#
# Total GULP energy -346900.890905 kJ/mol
# GULP energy per Si atom -12389.317532 kJ/mol
# Density = 1.495804 g / cm^3
# Si number density = 14.992165 Si / 1000 Ang^3
#
#
#
# Elastic Constant Matrix: (Units=GPa)
#
#
# Indices 1 2 3 4 5 6 
#
# 1 77.2722 25.7640 56.3462 0.0000 -4.4079 0.0000
# 2 25.7640 38.3690 45.6054 0.0000 2.3805 0.0000
# 3 56.3462 45.6054 103.9253 0.0000 -0.4842 0.0000
# 4 0.0000 0.0000 0.0000 24.2643 0.0000 4.0070
# 5 -4.4079 2.3805 -0.4842 0.0000 16.7904 0.0000
# 6 0.0000 0.0000 0.0000 4.0070 0.0000 10.6206
#
#
#
# Elastic Compliance Matrix: (Units=1/GPa)
#
#
# Indices 1 2 3 4 5 6 
#
# 1 0.021958 -0.002052 -0.010978 0.000000 0.005739 0.000000
# 2 -0.002052 0.055885 -0.023454 0.000000 -0.009138 0.000000
# 3 -0.010978 -0.023454 0.025872 0.000000 0.001189 0.000000
# 4 0.000000 0.000000 0.000000 0.043951 0.000000 -0.016582
# 5 0.005739 -0.009138 0.001189 0.000000 0.062394 0.000000
# 6 0.000000 0.000000 0.000000 -0.016582 0.000000 0.100413
#
#
# Mechanical properties :
#
#
# Convention : Reuss Voigt Hill
#
# Bulk Modulus (GPa) = 32.52331 52.77755 42.65043
# Shear Modulus (GPa) = 12.70038 16.45846 14.57942
#
# Velocity S-wave (km/s) = 2.91372 3.31691 3.12183
# Velocity P-wave (km/s) = 5.74981 7.06746 6.44241
#
# Compressibility (1/GPa) = 0.03074717
#
# Stress axis : x y z
#
# Youngs Moduli (GPa) = 45.54204 17.89397 38.65177
#
# Poissons Ratio (x) = 0.03672 0.42431
# Poissons Ratio (y) = 0.09345 0.90653
# Poissons Ratio (z) = 0.49995 0.41968
#
# Static dielectric constant tensor:
#      x y z
#    x 2.869780 0.000000 -0.139970 
#    y 0.000000 2.536050 0.000000 
#    z -0.139970 0.000000 2.934550 
# 
# 
# High freq. dielectric constant tensor:
#      x y z
#    x 1.538720 0.000000 -0.001060 
#    y 0.000000 1.535110 0.000000 
#    z -0.001060 0.000000 1.574400 
# 
# From -- ./inp_files/181587.got.cif
#   From: 2010.06.25/outbox.cif.g09.slc.cpg/sg12_91_cif.got.tgz:181587.got - 2010.06.28 00:19:55.
