data_PCOD8078990
_publ_section_title
;
Structure prediction by ZEFSAII (Michael W. Deem and Ramdas Pophale) SiO2 
 PCOD8078990
Probable space group: C 2/M
;
_chemical_formula_sum "Si O2"
_cell_formula_units_Z 48
_cell_length_a 30.547080
_cell_length_b 8.729961
_cell_length_c 12.169996
_cell_angle_alpha 90.000000
_cell_angle_beta 117.905256
_cell_angle_gamma 90.000000
_cell_volume 2868.061453
_symmetry_space_group_name_H-M "C 2/M"
_symmetry_group_IT_number 12
_symmetry_cell_setting 'monoclinic'
loop_
_space_group_symop_operation_xyz
x,y,z
-x,y,-z
-x,-y,-z
x,-y,z
1/2+x,1/2+y,z
1/2-x,1/2+y,-z
1/2-x,1/2-y,-z
1/2+x,1/2-y,z
loop_
_atom_site_type_symbol
_atom_site_label
_atom_site_fract_x
_atom_site_fract_y
_atom_site_fract_z
Si Si1 0.574575 0.180056 0.093997
Si Si2 0.762731 0.322911 0.128574
Si Si3 0.466812 0.321943 0.360231
Si Si4 0.500928 0.321632 0.160521
Si Si5 0.366042 0.179191 0.185159
Si Si6 0.160964 0.819817 0.079120
O O1 0.554143 0.263657 0.179356
O O2 0.630995 0.231450 0.138771
O O3 0.571664 0.000000 0.108739
O O4 0.542062 0.227353 0.950490
O O5 0.754624 0.500000 0.101706
O O6 0.820794 0.286060 0.219642
O O7 0.719520 0.271894 0.163897
O O8 0.750000 0.250000 0.000000
O O9 0.500000 0.263601 0.500000
O O10 0.453603 0.500000 0.356739
O O11 0.497605 0.289065 0.285786
O O12 0.415976 0.228206 0.304021
O O13 0.493926 0.500000 0.124776
O O14 0.367634 0.000000 0.156846
O O15 0.358954 0.272989 0.064608
O O16 0.151818 0.000000 0.082814
#
# Coordination Sequence:
#
# PCOD8078990 Si02
#       6
#     8   8   8   8   8   8
#     4  11  20  29  45  69  97 122 152 193 234 276
#     4   8  16  27  41  63  91 121 152 185 225 278
#     4  10  21  35  50  68  92 125 162 195 228 274
#     4  10  19  32  48  65  90 124 159 189 230 283
#     4  10  18  29  45  67  94 122 154 194 235 271
#     4  10  17  28  45  66  94 127 156 183 227 283
#
# _framework density 16.736042999999999
#
# number of rings (size 3 to 8) (size 9 to 14) (size 15 to 20)
#    0.000    2.167    1.667    4.000    0.000    2.333 
#    0.000    0.000    0.000    0.000    0.000    1.167 
#    0.000    0.000    0.000    0.000    0.000    0.000 
#
# Total GULP energy -297380.649214 kJ/mol
# GULP energy per Si atom -12390.860384 kJ/mol
# Density = 1.669795 g / cm^3
# Si number density = 16.736043 Si / 1000 Ang^3
#
#
#
# Elastic Constant Matrix: (Units=GPa)
#
#
# Indices 1 2 3 4 5 6 
#
# 1 164.4872 37.4709 38.4243 0.0000 0.1978 0.0000
# 2 37.4709 51.9197 13.6880 0.0000 -0.1487 0.0000
# 3 38.4243 13.6880 57.5236 0.0000 -2.7946 0.0000
# 4 0.0000 0.0000 0.0000 8.1157 0.0000 0.7096
# 5 0.1978 -0.1487 -2.7946 0.0000 16.2828 0.0000
# 6 0.0000 0.0000 0.0000 0.7096 0.0000 26.8052
#
#
#
# Elastic Compliance Matrix: (Units=1/GPa)
#
#
# Indices 1 2 3 4 5 6 
#
# 1 0.008187 -0.004757 -0.004381 0.000000 -0.000895 0.000000
# 2 -0.004757 0.023320 -0.002378 0.000000 -0.000138 0.000000
# 3 -0.004381 -0.002378 0.021053 0.000000 0.003645 0.000000
# 4 0.000000 0.000000 0.000000 0.123504 0.000000 -0.003270
# 5 -0.000895 -0.000138 0.003645 0.000000 0.062050 0.000000
# 6 0.000000 0.000000 0.000000 -0.003270 0.000000 0.037393
#
#
# Mechanical properties :
#
#
# Convention : Reuss Voigt Hill
#
# Bulk Modulus (GPa) = 33.86453 50.34409 42.10431
# Shear Modulus (GPa) = 16.21364 22.53056 19.37210
#
# Velocity S-wave (km/s) = 3.11591 3.67308 3.40591
# Velocity P-wave (km/s) = 5.76399 6.93796 6.37804
#
# Compressibility (1/GPa) = 0.02952942
#
# Stress axis : x y z
#
# Youngs Moduli (GPa) = 122.13772 42.88145 47.49839
#
# Poissons Ratio (x) = 0.20397 0.20807
# Poissons Ratio (y) = 0.58097 0.11297
# Poissons Ratio (z) = 0.53504 0.10199
#
# Static dielectric constant tensor:
#      x y z
#    x 3.983510 0.000000 0.042870 
#    y 0.000000 3.128130 0.000000 
#    z 0.042870 0.000000 2.654740 
# 
# 
# High freq. dielectric constant tensor:
#      x y z
#    x 1.673780 0.000000 -0.002220 
#    y 0.000000 1.657230 0.000000 
#    z -0.002220 0.000000 1.569920 
# 
# From -- ./inp_files/185964.got.cif
#   From: 2010.06.25/outbox.cif.g09.slc.cpg/sg12_93_cif.got.tgz:185964.got - 2010.06.28 00:19:55.
