data_PCOD8078390
_publ_section_title
;
Structure prediction by ZEFSAII (Michael W. Deem and Ramdas Pophale) SiO2 
 PCOD8078390
Probable space group: C 2/M
;
_chemical_formula_sum "Si O2"
_cell_formula_units_Z 56
_cell_length_a 19.183266
_cell_length_b 17.477606
_cell_length_c 13.348648
_cell_angle_alpha 90.000000
_cell_angle_beta 46.976753
_cell_angle_gamma 90.000000
_cell_volume 3271.936405
_symmetry_space_group_name_H-M "C 2/M"
_symmetry_group_IT_number 12
_symmetry_cell_setting 'monoclinic'
loop_
_space_group_symop_operation_xyz
x,y,z
-x,y,-z
-x,-y,-z
x,-y,z
1/2+x,1/2+y,z
1/2-x,1/2+y,-z
1/2-x,1/2-y,-z
1/2+x,1/2-y,z
loop_
_atom_site_type_symbol
_atom_site_label
_atom_site_fract_x
_atom_site_fract_y
_atom_site_fract_z
Si Si1 0.378309 0.084586 0.513168
Si Si2 0.703089 0.414620 0.541499
Si Si3 0.739976 0.837070 0.715958
Si Si4 0.415703 0.088295 0.005419
Si Si5 0.149240 0.762870 0.654195
Si Si6 0.893405 0.277453 0.639873
Si Si7 0.524477 0.167626 0.253089
O O1 0.305942 0.088737 0.491843
O O2 0.353490 0.147507 0.621459
O O3 0.482220 0.098865 0.362425
O O4 0.377264 0.000000 0.563462
O O5 0.658991 0.500000 0.590580
O O6 0.717215 0.390952 0.412362
O O7 0.633287 0.355161 0.668915
O O8 0.662456 0.774936 0.750443
O O9 0.826230 0.794544 0.686043
O O10 0.685867 0.890731 0.847599
O O11 0.429374 0.139259 0.893951
O O12 0.415772 0.000000 0.973866
O O13 0.500000 0.106033 0.000000
O O14 0.250000 0.750000 0.500000
O O15 0.061838 0.726685 0.680501
O O16 0.000000 0.257239 0.500000
O O17 0.894213 0.292030 0.759001
#
# Coordination Sequence:
#
# PCOD8078390 Si02
#       7
#     8   8   8   8   8   8   8
#     4  10  17  28  47  75 106 134 163 209 268 312
#     4  10  17  28  51  78 101 129 171 218 263 303
#     4  11  19  34  53  74 107 141 173 213 254 310
#     4  11  22  35  54  81 107 136 172 210 259 312
#     4  10  16  31  51  72  99 135 170 209 253 299
#     4  10  21  33  51  77 104 139 176 215 261 313
#     4  11  20  33  50  74 107 139 171 213 253 309
#
# _framework density 17.115247
#
# number of rings (size 3 to 8) (size 9 to 14) (size 15 to 20)
#    0.000    1.571    5.714    3.429    0.000    6.000 
#    0.000    0.000    0.000    7.714    0.000    3.000 
#    0.000    0.000    0.000    0.000    0.000    0.000 
#
# Total GULP energy -347083.776412 kJ/mol
# GULP energy per Si atom -12395.849158 kJ/mol
# Density = 1.707629 g / cm^3
# Si number density = 17.115247 Si / 1000 Ang^3
#
#
#
# Elastic Constant Matrix: (Units=GPa)
#
#
# Indices 1 2 3 4 5 6 
#
# 1 94.7842 39.9709 20.5453 0.0000 16.5164 0.0000
# 2 39.9709 98.3553 15.7429 0.0000 2.5293 0.0000
# 3 20.5453 15.7429 45.4253 0.0000 12.4371 0.0000
# 4 0.0000 0.0000 0.0000 23.8604 0.0000 1.2097
# 5 16.5164 2.5293 12.4371 0.0000 22.4568 0.0000
# 6 0.0000 0.0000 0.0000 1.2097 0.0000 24.1925
#
#
#
# Elastic Compliance Matrix: (Units=1/GPa)
#
#
# Indices 1 2 3 4 5 6 
#
# 1 0.014949 -0.005460 -0.002389 0.000000 -0.009056 0.000000
# 2 -0.005460 0.012778 -0.003141 0.000000 0.004316 0.000000
# 3 -0.002389 -0.003141 0.027824 0.000000 -0.013299 0.000000
# 4 0.000000 0.000000 0.000000 0.042017 0.000000 -0.002101
# 5 -0.009056 0.004316 -0.013299 0.000000 0.058069 0.000000
# 6 0.000000 0.000000 0.000000 -0.002101 0.000000 0.041440
#
#
# Mechanical properties :
#
#
# Convention : Reuss Voigt Hill
#
# Bulk Modulus (GPa) = 29.78734 43.45368 36.62051
# Shear Modulus (GPa) = 21.71578 24.92230 23.31904
#
# Velocity S-wave (km/s) = 3.56588 3.82009 3.69517
# Velocity P-wave (km/s) = 5.86479 6.70085 6.29671
#
# Compressibility (1/GPa) = 0.03357131
#
# Stress axis : x y z
#
# Youngs Moduli (GPa) = 66.89577 78.26131 35.93967
#
# Poissons Ratio (x) = 0.42728 0.08588
# Poissons Ratio (y) = 0.36523 0.11287
# Poissons Ratio (z) = 0.15984 0.24579
#
# Static dielectric constant tensor:
#      x y z
#    x 3.223010 0.000000 0.207980 
#    y 0.000000 3.632030 0.000000 
#    z 0.207980 0.000000 2.931110 
# 
# 
# High freq. dielectric constant tensor:
#      x y z
#    x 1.654750 0.000000 0.022780 
#    y 0.000000 1.665970 0.000000 
#    z 0.022780 0.000000 1.621590 
# 
# From -- ./inp_files/157742.got.cif
#   From: 2010.06.25/outbox.cif.g09.slc.cpg/sg12_79_cif.got.tgz:157742.got - 2010.06.28 00:19:55.
