data_PCOD8078299
_publ_section_title
;
Structure prediction by ZEFSAII (Michael W. Deem and Ramdas Pophale) SiO2 
 PCOD8078299
Probable space group: C 2/M
;
_chemical_formula_sum "Si O2"
_cell_formula_units_Z 60
_cell_length_a 17.874834
_cell_length_b 13.717911
_cell_length_c 14.040638
_cell_angle_alpha 90.000000
_cell_angle_beta 104.403652
_cell_angle_gamma 90.000000
_cell_volume 3334.622274
_symmetry_space_group_name_H-M "C 2/M"
_symmetry_group_IT_number 12
_symmetry_cell_setting 'monoclinic'
loop_
_space_group_symop_operation_xyz
x,y,z
-x,y,-z
-x,-y,-z
x,-y,z
1/2+x,1/2+y,z
1/2-x,1/2+y,-z
1/2-x,1/2-y,-z
1/2+x,1/2-y,z
loop_
_atom_site_type_symbol
_atom_site_label
_atom_site_fract_x
_atom_site_fract_y
_atom_site_fract_z
Si Si1 0.096171 0.236948 0.438573
Si Si2 0.539532 0.888898 0.173630
Si Si3 0.025730 0.610227 0.637751
Si Si4 0.519350 0.389460 0.712982
Si Si5 0.914366 0.888226 0.855438
Si Si6 0.000000 0.748032 0.000000
Si Si7 0.678134 0.760430 0.276626
Si Si8 0.144137 0.232814 0.660275
O O1 0.164327 0.262723 0.386047
O O2 0.132510 0.197237 0.547715
O O3 0.041178 0.331266 0.440968
O O4 0.044310 0.151514 0.379189
O O5 0.495694 0.883586 0.258633
O O6 0.487360 0.824139 0.085530
O O7 0.625510 0.843227 0.209858
O O8 0.547445 0.000000 0.139663
O O9 0.027939 0.500000 0.600609
O O10 0.110934 0.656987 0.654198
O O11 0.533764 0.500000 0.689851
O O12 0.490749 0.378312 0.812830
O O13 0.599139 0.332774 0.722697
O O14 0.928623 0.821861 0.954069
O O15 0.842264 0.845761 0.773492
O O16 0.897854 0.000000 0.878944
O O17 0.767273 0.777409 0.282696
#
# Coordination Sequence:
#
# PCOD8078299 Si02
#       8
#     8   8   8   8   8   4   8   8
#     4   9  18  31  46  66  93 127 165 200 228 261
#     4   9  18  33  51  71  95 121 151 189 233 280
#     4   9  18  32  48  67  94 126 159 195 232 270
#     4   9  18  32  48  67  94 126 159 195 232 270
#     4   9  18  33  51  71  95 121 151 189 233 280
#     4  10  16  28  56  82  90 106 152 198 232 274
#     4   9  19  32  45  67 100 129 152 189 236 276
#     4  11  19  28  47  71  94 125 164 196 228 270
#
# _framework density 17.993043
#
# number of rings (size 3 to 8) (size 9 to 14) (size 15 to 20)
#    0.000    2.667    0.000    4.800    0.000    3.200 
#    0.000    0.000    0.000   20.800    0.000   22.400 
#    0.000    0.000    0.000    0.000    0.000    0.000 
#
# Total GULP energy -371816.227008 kJ/mol
# GULP energy per Si atom -12393.874234 kJ/mol
# Density = 1.795209 g / cm^3
# Si number density = 17.993043 Si / 1000 Ang^3
#
#
#
# Elastic Constant Matrix: (Units=GPa)
#
#
# Indices 1 2 3 4 5 6 
#
# 1 102.6186 30.3980 25.1642 0.0000 12.6051 0.0000
# 2 30.3980 114.5887 31.0367 0.0000 5.5799 0.0000
# 3 25.1642 31.0367 67.3349 0.0000 9.1909 0.0000
# 4 0.0000 0.0000 0.0000 15.3792 0.0000 -9.0687
# 5 12.6051 5.5799 9.1909 0.0000 11.0287 0.0000
# 6 0.0000 0.0000 0.0000 -9.0687 0.0000 16.0443
#
#
#
# Elastic Compliance Matrix: (Units=1/GPa)
#
#
# Indices 1 2 3 4 5 6 
#
# 1 0.012264 -0.002149 -0.002063 0.000000 -0.011211 0.000000
# 2 -0.002149 0.010367 -0.004056 0.000000 0.000591 0.000000
# 3 -0.002063 -0.004056 0.019057 0.000000 -0.011472 0.000000
# 4 0.000000 0.000000 0.000000 0.097529 0.000000 0.055126
# 5 -0.011211 0.000591 -0.011472 0.000000 0.112747 0.000000
# 6 0.000000 0.000000 0.000000 0.055126 0.000000 0.093486
#
#
# Mechanical properties :
#
#
# Convention : Reuss Voigt Hill
#
# Bulk Modulus (GPa) = 39.75595 50.86000 45.30797
# Shear Modulus (GPa) = 13.50002 21.68667 17.59335
#
# Velocity S-wave (km/s) = 2.74212 3.47548 3.13035
# Velocity P-wave (km/s) = 5.67175 6.66582 6.18878
#
# Compressibility (1/GPa) = 0.02515347
#
# Stress axis : x y z
#
# Youngs Moduli (GPa) = 81.53767 96.46282 52.47319
#
# Poissons Ratio (x) = 0.20729 0.10823
# Poissons Ratio (y) = 0.17521 0.21283
# Poissons Ratio (z) = 0.16818 0.39125
#
# Static dielectric constant tensor:
#      x y z
#    x 3.082470 0.000000 -0.154670 
#    y 0.000000 3.609570 0.000000 
#    z -0.154670 0.000000 3.308060 
# 
# 
# High freq. dielectric constant tensor:
#      x y z
#    x 1.661560 0.000000 -0.010210 
#    y 0.000000 1.704660 0.000000 
#    z -0.010210 0.000000 1.694410 
# 
# From -- ./inp_files/224861.got.cif
#   From: 2010.06.25/outbox.cif.g09.slc.cpg/sg12_113_cif.got.tgz:224861.got - 2010.06.28 00:19:55.
