data_PCOD8078224
_publ_section_title
;
Structure prediction by ZEFSAII (Michael W. Deem and Ramdas Pophale) SiO2 
 PCOD8078224
Probable space group: C 2/M
;
_chemical_formula_sum "Si O2"
_cell_formula_units_Z 40
_cell_length_a 7.720139
_cell_length_b 29.330764
_cell_length_c 9.801955
_cell_angle_alpha 90.000000
_cell_angle_beta 113.191507
_cell_angle_gamma 90.000000
_cell_volume 2040.178892
_symmetry_space_group_name_H-M "C 2/M"
_symmetry_group_IT_number 12
_symmetry_cell_setting 'monoclinic'
loop_
_space_group_symop_operation_xyz
x,y,z
-x,y,-z
-x,-y,-z
x,-y,z
1/2+x,1/2+y,z
1/2-x,1/2+y,-z
1/2-x,1/2-y,-z
1/2+x,1/2-y,z
loop_
_atom_site_type_symbol
_atom_site_label
_atom_site_fract_x
_atom_site_fract_y
_atom_site_fract_z
Si Si1 0.464999 0.702132 0.330252
Si Si2 0.468745 0.105761 0.328689
Si Si3 0.640056 0.605763 0.671311
Si Si4 0.365252 0.797869 0.330251
Si Si5 0.086990 0.052798 0.173981
O O1 0.500000 0.708057 0.500000
O O2 0.334771 0.657755 0.265238
O O3 0.374222 0.750001 0.248440
O O4 0.655332 0.691734 0.310666
O O5 0.500000 0.105964 0.500000
O O6 0.655094 0.087110 0.310185
O O7 0.430459 0.157753 0.265235
O O8 0.294565 0.073905 0.238888
O O9 0.500000 0.605966 0.500000
O O10 0.555672 0.573909 0.761112
O O11 0.500000 0.791947 0.500000
O O12 0.108148 0.000000 0.216313
O O13 0.000000 0.061349 0.000000
#
# Coordination Sequence:
#
# PCOD8078224 Si02
#       5
#     8   8   8   8   8
#     4  10  16  26  47  84 124 157 193 242 295 348
#     4  11  20  38  63  94 125 157 203 254 302 353
#     4  11  20  38  63  94 125 157 203 254 302 353
#     4  10  16  26  47  84 124 157 193 242 295 348
#     4  11  26  46  64  87 121 161 203 250 309 371
#
# _framework density 19.606123
#
# number of rings (size 3 to 8) (size 9 to 14) (size 15 to 20)
#    0.000    1.400    4.000    7.200    0.000    2.400 
#    0.000    2.000    0.000    1.200    0.000    0.000 
#    0.000    0.000    0.000    0.000    0.000    0.000 
#
# Total GULP energy -247877.223824 kJ/mol
# GULP energy per Si atom -12393.861191 kJ/mol
# Density = 1.956150 g / cm^3
# Si number density = 19.606123 Si / 1000 Ang^3
#
#
#
# Elastic Constant Matrix: (Units=GPa)
#
#
# Indices 1 2 3 4 5 6 
#
# 1 186.8668 66.4035 35.3133 0.0000 -0.0039 0.0000
# 2 66.4035 165.2696 59.4291 0.0000 -0.0068 0.0000
# 3 35.3133 59.4291 44.5683 0.0000 0.0003 0.0000
# 4 0.0000 0.0000 0.0000 -18.5561 0.0000 -0.0022
# 5 -0.0039 -0.0068 0.0003 0.0000 15.7938 0.0000
# 6 0.0000 0.0000 0.0000 -0.0022 0.0000 25.8895
#
#
#
# Elastic Compliance Matrix: (Units=1/GPa)
#
#
# Indices 1 2 3 4 5 6 
#
# 1 0.006470 -0.001453 -0.003190 0.000000 0.000001 0.000000
# 2 -0.001453 0.011951 -0.014785 0.000000 0.000005 0.000000
# 3 -0.003190 -0.014785 0.044679 0.000000 -0.000008 0.000000
# 4 0.000000 0.000000 0.000000 -0.053891 0.000000 -0.000005
# 5 0.000001 0.000005 -0.000008 0.000000 0.063316 0.000000
# 6 0.000000 0.000000 0.000000 -0.000005 0.000000 0.038626
#
#
# Mechanical properties :
#
#
# Convention : Reuss Voigt Hill
#
# Bulk Modulus (GPa) = 41.24329 79.88853 60.56591
# Shear Modulus (GPa) = 31.62811 20.32934 25.97872
#
# Velocity S-wave (km/s) = 4.02079 3.22357 3.64405
# Velocity P-wave (km/s) = 6.52972 7.39529 6.97595
#
# Compressibility (1/GPa) = 0.02424637
#
# Stress axis : x y z
#
# Youngs Moduli (GPa) = 154.54961 83.67641 22.38192
#
# Poissons Ratio (x) = 0.12157 0.07139
# Poissons Ratio (y) = 0.22453 0.33091
# Poissons Ratio (z) = 0.49294 1.23712
#
# Static dielectric constant tensor:
#      x y z
#    x 3.689250 0.000000 0.000010 
#    y 0.000000 4.193250 0.000000 
#    z 0.000010 0.000000 3.036510 
# 
# 
# High freq. dielectric constant tensor:
#      x y z
#    x 1.783800 0.000000 0.000000 
#    y 0.000000 1.782630 0.000000 
#    z 0.000000 0.000000 1.695450 
# 
# From -- ./inp_files/41881.got.cif
#   From: 2010.06.25/outbox.cif.g09.slc.cpg/sg12_21_cif.got.tgz:41881.got - 2010.06.28 00:19:55.
