data_PCOD8078710
_publ_section_title
;
Structure prediction by ZEFSAII (Michael W. Deem and Ramdas Pophale) SiO2 
 PCOD8078710
Probable space group: C 2/M
;
_chemical_formula_sum "Si O2"
_cell_formula_units_Z 64
_cell_length_a 23.134096
_cell_length_b 31.245846
_cell_length_c 4.992585
_cell_angle_alpha 90.000000
_cell_angle_beta 102.037088
_cell_angle_gamma 90.000000
_cell_volume 3529.513387
_symmetry_space_group_name_H-M "C 2/M"
_symmetry_group_IT_number 12
_symmetry_cell_setting 'monoclinic'
loop_
_space_group_symop_operation_xyz
x,y,z
-x,y,-z
-x,-y,-z
x,-y,z
1/2+x,1/2+y,z
1/2-x,1/2+y,-z
1/2-x,1/2-y,-z
1/2+x,1/2-y,z
loop_
_atom_site_type_symbol
_atom_site_label
_atom_site_fract_x
_atom_site_fract_y
_atom_site_fract_z
Si Si1 0.566792 0.295450 0.034103
Si Si2 0.883888 0.294578 0.838029
Si Si3 0.726488 0.549660 0.190236
Si Si4 0.567977 0.842258 0.614524
Si Si5 0.566685 0.352276 0.534441
Si Si6 0.327641 0.894482 0.389591
Si Si7 0.320939 0.597202 0.355955
Si Si8 0.283683 0.850589 0.847487
O O1 0.610572 0.255996 0.119463
O O2 0.579027 0.333715 0.252330
O O3 0.500000 0.278109 0.000000
O O4 0.577827 0.313702 0.750395
O O5 0.906495 0.307287 0.566703
O O6 0.813424 0.304815 0.805803
O O7 0.922880 0.322079 0.084319
O O8 0.716052 0.500000 0.230233
O O9 0.797237 0.559846 0.289525
O O10 0.688362 0.577506 0.360666
O O11 0.703147 0.562186 0.875176
O O12 0.500000 0.852528 0.500000
O O13 0.603051 0.887867 0.616562
O O14 0.500000 0.370052 0.500000
O O15 0.610244 0.392308 0.623389
O O16 0.318724 0.885273 0.695764
O O17 0.292683 0.859826 0.170768
O O18 0.285497 0.642775 0.290620
#
# Coordination Sequence:
#
# PCOD8078710 Si02
#       8
#     8   8   8   8   8   8   8   8
#     4  10  19  31  46  67  94 126 166 201 228 264
#     4  10  18  29  44  67  96 125 164 211 240 255
#     4  10  19  33  56  79  95 115 147 191 236 279
#     4  10  17  26  43  66  94 131 166 196 235 270
#     4  10  21  35  51  69  93 128 160 187 228 282
#     4   8  16  28  43  67  96 122 152 188 227 279
#     4  10  19  35  54  73  97 122 153 187 227 287
#     4   8  16  29  46  66  92 125 155 190 235 273
#
# _framework density 18.132812000000001
#
# number of rings (size 3 to 8) (size 9 to 14) (size 15 to 20)
#    0.000    2.500    0.000    3.000    0.000    1.000 
#    0.000    1.250    0.000    2.625    0.000    0.000 
#    0.000   12.000    0.000    0.000    0.000    2.000 
#
# Total GULP energy -396564.515382 kJ/mol
# GULP energy per Si atom -12392.641106 kJ/mol
# Density = 1.809154 g / cm^3
# Si number density = 18.132812 Si / 1000 Ang^3
#
#
#
# Elastic Constant Matrix: (Units=GPa)
#
#
# Indices 1 2 3 4 5 6 
#
# 1 83.0484 33.2534 9.7890 0.0000 10.7981 0.0000
# 2 33.2534 59.1065 2.4297 0.0000 10.7208 0.0000
# 3 9.7890 2.4297 66.0061 0.0000 -4.1890 0.0000
# 4 0.0000 0.0000 0.0000 14.4397 0.0000 3.2199
# 5 10.7981 10.7208 -4.1890 0.0000 24.9021 0.0000
# 6 0.0000 0.0000 0.0000 3.2199 0.0000 14.2786
#
#
#
# Elastic Compliance Matrix: (Units=1/GPa)
#
#
# Indices 1 2 3 4 5 6 
#
# 1 0.016130 -0.008286 -0.002330 0.000000 -0.003819 0.000000
# 2 -0.008286 0.022702 0.000001 0.000000 -0.006180 0.000000
# 3 -0.002330 0.000001 0.015728 0.000000 0.003655 0.000000
# 4 0.000000 0.000000 0.000000 0.072920 0.000000 -0.016444
# 5 -0.003819 -0.006180 0.003655 0.000000 0.045089 0.000000
# 6 0.000000 0.000000 0.000000 -0.016444 0.000000 0.073743
#
#
# Mechanical properties :
#
#
# Convention : Reuss Voigt Hill
#
# Bulk Modulus (GPa) = 30.00351 33.23391 31.61871
# Shear Modulus (GPa) = 17.94359 21.57000 19.75680
#
# Velocity S-wave (km/s) = 3.14915 3.45274 3.30443
# Velocity P-wave (km/s) = 5.45942 5.85346 5.65987
#
# Compressibility (1/GPa) = 0.03332944
#
# Stress axis : x y z
#
# Youngs Moduli (GPa) = 61.99524 44.04994 63.58274
#
# Poissons Ratio (x) = 0.36502 0.14812
# Poissons Ratio (y) = 0.51372 -0.00007
# Poissons Ratio (z) = 0.14442 -0.00005
#
# Static dielectric constant tensor:
#      x y z
#    x 3.418680 0.000000 -0.001030 
#    y 0.000000 2.891120 0.000000 
#    z -0.001030 0.000000 3.539010 
# 
# 
# High freq. dielectric constant tensor:
#      x y z
#    x 1.693820 0.000000 -0.009700 
#    y 0.000000 1.650240 0.000000 
#    z -0.009700 0.000000 1.727490 
# 
# From -- ./inp_files/22804.got.cif
#   From: 2010.06.25/outbox.cif.g09.slc.cpg/sg12_12_cif.got.tgz:22804.got - 2010.06.28 00:19:55.
