data_PCOD8078070
_publ_section_title
;
Structure prediction by ZEFSAII (Michael W. Deem and Ramdas Pophale) SiO2 
 PCOD8078070
Probable space group: C 2/M
;
_chemical_formula_sum "Si O2"
_cell_formula_units_Z 56
_cell_length_a 13.982851
_cell_length_b 27.658325
_cell_length_c 27.414912
_cell_angle_alpha 90.000000
_cell_angle_beta 159.350086
_cell_angle_gamma 90.000000
_cell_volume 3739.047139
_symmetry_space_group_name_H-M "C 2/M"
_symmetry_group_IT_number 12
_symmetry_cell_setting 'monoclinic'
loop_
_space_group_symop_operation_xyz
x,y,z
-x,y,-z
-x,-y,-z
x,-y,z
1/2+x,1/2+y,z
1/2-x,1/2+y,-z
1/2-x,1/2-y,-z
1/2+x,1/2-y,z
loop_
_atom_site_type_symbol
_atom_site_label
_atom_site_fract_x
_atom_site_fract_y
_atom_site_fract_z
Si Si1 0.853557 0.553058 0.218643
Si Si2 0.510710 0.149199 0.173198
Si Si3 0.655804 0.277843 0.718262
Si Si4 0.250930 0.552960 0.945549
Si Si5 0.022941 0.207871 0.064404
Si Si6 0.859641 0.243127 0.482399
Si Si7 0.556983 0.150820 0.306484
O O1 0.980337 0.500000 0.291165
O O2 0.785403 0.557496 0.129395
O O3 0.067553 0.596038 0.333920
O O4 0.568013 0.559015 0.110781
O O5 0.733257 0.168629 0.240836
O O6 0.426549 0.095615 0.114942
O O7 0.640736 0.150180 0.289472
O O8 0.254781 0.184764 0.050012
O O9 0.895399 0.247486 0.857004
O O10 0.394290 0.278986 0.628977
O O11 0.573388 0.251958 0.628095
O O12 0.149420 0.500000 0.915139
O O13 0.244869 0.165782 0.164342
O O14 0.000000 0.232903 0.000000
O O15 0.755227 0.187432 0.429250
O O16 0.000000 0.260858 0.500000
#
# Coordination Sequence:
#
# PCOD8078070 Si02
#       7
#     8   8   8   8   8   8   8
#     4   8  12  20  35  58  83 111 143 167 190 238
#     4  10  15  25  41  62  88 108 138 173 211 254
#     4  10  20  29  44  61  79 115 149 177 216 245
#     4   8  13  20  35  59  87 111 133 163 202 250
#     4   9  17  27  41  63  87 113 139 174 213 254
#     4  10  19  33  43  56  80 115 158 183 200 246
#     4   9  15  25  42  58  82 118 146 169 201 241
#
# _framework density 14.977077
#
# number of rings (size 3 to 8) (size 9 to 14) (size 15 to 20)
#    0.000    2.857    2.857    1.286    0.000    0.000 
#    0.000    0.000    0.000    1.286    0.000    0.000 
#    0.000    1.143    0.000    0.714    0.000    6.143 
#
# Total GULP energy -346938.038831 kJ/mol
# GULP energy per Si atom -12390.644244 kJ/mol
# Density = 1.494299 g / cm^3
# Si number density = 14.977077 Si / 1000 Ang^3
#
#
#
# Elastic Constant Matrix: (Units=GPa)
#
#
# Indices 1 2 3 4 5 6 
#
# 1 65.4281 43.8035 25.8569 -0.0243 11.1294 0.0010
# 2 43.8035 109.8640 29.2135 -0.0873 10.1340 0.0072
# 3 25.8569 29.2135 45.4434 -0.1239 -0.8219 0.0261
# 4 -0.0243 -0.0873 -0.1239 15.5217 -0.0101 5.3505
# 5 11.1294 10.1340 -0.8219 -0.0101 22.6726 -0.0037
# 6 0.0010 0.0072 0.0261 5.3505 -0.0037 18.4881
#
#
#
# Elastic Compliance Matrix: (Units=1/GPa)
#
#
# Indices 1 2 3 4 5 6 
#
# 1 0.025448 -0.006423 -0.010531 -0.000102 -0.010002 0.000043
# 2 -0.006423 0.013240 -0.004910 0.000025 -0.002943 -0.000006
# 3 -0.010531 -0.004910 0.031308 0.000250 0.008499 -0.000112
# 4 -0.000102 0.000025 0.000250 0.071567 0.000076 -0.020712
# 5 -0.010002 -0.002943 0.008499 0.000076 0.050640 -0.000022
# 6 0.000043 -0.000006 -0.000112 -0.020712 -0.000022 0.060083
#
#
# Mechanical properties :
#
#
# Convention : Reuss Voigt Hill
#
# Bulk Modulus (GPa) = 38.07040 46.49815 42.28427
# Shear Modulus (GPa) = 16.40575 19.46061 17.93318
#
# Velocity S-wave (km/s) = 3.31326 3.60857 3.46406
# Velocity P-wave (km/s) = 6.33334 6.96247 6.65534
#
# Compressibility (1/GPa) = 0.02626713
#
# Stress axis : x y z
#
# Youngs Moduli (GPa) = 39.29642 75.52755 31.94021
#
# Poissons Ratio (x) = 0.48513 0.33638
# Poissons Ratio (y) = 0.25241 0.15682
# Poissons Ratio (z) = 0.41385 0.37083
#
# Static dielectric constant tensor:
#      x y z
#    x 2.649110 -0.000080 0.105990 
#    y -0.000080 3.041010 -0.000320 
#    z 0.105990 -0.000320 2.823180 
# 
# 
# High freq. dielectric constant tensor:
#      x y z
#    x 1.527980 0.000000 0.015290 
#    y 0.000000 1.561090 -0.000040 
#    z 0.015290 -0.000040 1.565340 
# 
# From -- ./inp_files/137289.got.cif
#   From: 2010.06.25/outbox.cif.g09.slc.cpg/sg12_69_cif.got.tgz:137289.got - 2010.06.28 00:19:55.
