data_PCOD8078500
_publ_section_title
;
Structure prediction by ZEFSAII (Michael W. Deem and Ramdas Pophale) SiO2 
 PCOD8078500
Probable space group: C 2/M
;
_chemical_formula_sum "Si O2"
_cell_formula_units_Z 64
_cell_length_a 24.928388
_cell_length_b 9.028593
_cell_length_c 17.805213
_cell_angle_alpha 90.000000
_cell_angle_beta 96.523822
_cell_angle_gamma 90.000000
_cell_volume 3981.439446
_symmetry_space_group_name_H-M "C 2/M"
_symmetry_group_IT_number 12
_symmetry_cell_setting 'monoclinic'
loop_
_space_group_symop_operation_xyz
x,y,z
-x,y,-z
-x,-y,-z
x,-y,z
1/2+x,1/2+y,z
1/2-x,1/2+y,-z
1/2-x,1/2-y,-z
1/2+x,1/2-y,z
loop_
_atom_site_type_symbol
_atom_site_label
_atom_site_fract_x
_atom_site_fract_y
_atom_site_fract_z
Si Si1 0.918548 0.331933 0.791213
Si Si2 0.268548 0.173007 0.078316
Si Si3 0.561185 0.170904 0.367128
Si Si4 0.653579 0.670079 0.101717
Si Si5 0.627709 0.323700 0.929817
Si Si6 0.063549 0.664276 0.527785
Si Si7 0.455933 0.174770 0.182756
Si Si8 0.450623 0.673319 0.332183
O O1 0.910912 0.500000 0.814591
O O2 0.901608 0.307004 0.700759
O O3 0.879046 0.240323 0.836204
O O4 0.980850 0.284988 0.811854
O O5 0.217844 0.194591 0.126985
O O6 0.323367 0.255185 0.113250
O O7 0.280211 0.000000 0.066713
O O8 0.250000 0.250000 0.000000
O O9 0.592474 0.199770 0.451413
O O10 0.512896 0.287485 0.354235
O O11 0.538466 0.000000 0.362310
O O12 0.638439 0.500000 0.100213
O O13 0.635341 0.730709 0.017053
O O14 0.628017 0.500000 0.921696
O O15 0.571759 0.255217 0.892142
O O16 0.079292 0.500000 0.557445
O O17 0.081372 0.775351 0.597233
O O18 0.000000 0.674737 0.500000
O O19 0.429764 0.240449 0.255068
O O20 0.445605 0.000000 0.178474
O O21 0.442030 0.500000 0.318804
#
# Coordination Sequence:
#
# PCOD8078500 Si02
#       8
#     8   8   8   8   8   8   8   8
#     4   9  18  30  44  62  86 118 154 183 210 252
#     4   9  17  31  49  68  87 109 139 178 223 265
#     4   8  15  27  39  54  79 112 146 177 211 252
#     4   9  19  32  46  65  89 114 141 177 222 263
#     4  10  20  33  48  67  87 111 145 184 224 262
#     4   8  13  23  38  53  75 108 142 175 211 251
#     4  10  20  33  45  60  86 120 152 180 215 260
#     4  10  17  24  37  58  82 108 141 179 215 253
#
# _framework density 16.074587999999999
#
# number of rings (size 3 to 8) (size 9 to 14) (size 15 to 20)
#    0.000    2.875    0.000    4.500    0.000    8.250 
#    0.000    2.500    0.000    0.000    0.000    0.000 
#    0.000    1.000    0.000    3.000    0.000    6.000 
#
# Total GULP energy -396425.441531 kJ/mol
# GULP energy per Si atom -12388.295048 kJ/mol
# Density = 1.603800 g / cm^3
# Si number density = 16.074588 Si / 1000 Ang^3
#
#
#
# Elastic Constant Matrix: (Units=GPa)
#
#
# Indices 1 2 3 4 5 6 
#
# 1 47.0747 25.0554 32.1580 0.0000 -17.1887 0.0000
# 2 25.0554 75.6059 32.4821 0.0000 -12.5948 0.0000
# 3 32.1580 32.4821 87.6943 0.0000 -27.0827 0.0000
# 4 0.0000 0.0000 0.0000 27.1663 0.0000 -2.9120
# 5 -17.1887 -12.5948 -27.0827 0.0000 10.8441 0.0000
# 6 0.0000 0.0000 0.0000 -2.9120 0.0000 23.3506
#
#
#
# Elastic Compliance Matrix: (Units=1/GPa)
#
#
# Indices 1 2 3 4 5 6 
#
# 1 0.073950 -0.006849 0.040063 0.000000 0.209318 0.000000
# 2 -0.006849 0.017048 -0.004551 0.000000 -0.002423 0.000000
# 3 0.040063 -0.004551 0.071608 0.000000 0.237056 0.000000
# 4 0.000000 0.000000 0.000000 0.037309 0.000000 0.004653
# 5 0.209318 -0.002423 0.237056 0.000000 1.013230 0.000000
# 6 0.000000 0.000000 0.000000 0.004653 0.000000 0.043406
#
#
# Mechanical properties :
#
#
# Convention : Reuss Voigt Hill
#
# Bulk Modulus (GPa) = 4.54688 43.30734 23.92711
# Shear Modulus (GPa) = 3.92916 20.31750 12.12333
#
# Velocity S-wave (km/s) = 1.56513 3.55907 2.74924
# Velocity P-wave (km/s) = 2.47001 6.62490 4.99951
#
# Compressibility (1/GPa) = 0.21993108
#
# Stress axis : x y z
#
# Youngs Moduli (GPa) = 13.52261 58.65788 13.96494
#
# Poissons Ratio (x) = 0.40177 -0.55948
# Poissons Ratio (y) = 0.09262 0.06356
# Poissons Ratio (z) = -0.54176 0.26696
#
# Static dielectric constant tensor:
#      x y z
#    x 2.792840 0.000000 -0.136010 
#    y 0.000000 3.064620 0.000000 
#    z -0.136010 0.000000 3.386380 
# 
# 
# High freq. dielectric constant tensor:
#      x y z
#    x 1.561750 0.000000 -0.011920 
#    y 0.000000 1.624910 0.000000 
#    z -0.011920 0.000000 1.618040 
# 
# From -- ./inp_files/291614.got.cif
#   From: 2010.06.25/outbox.cif.g09.slc.cpg/sg12_146_cif.got.tgz:291614.got - 2010.06.28 00:19:55.
