data_PCOD8078240
_publ_section_title
;
Structure prediction by ZEFSAII (Michael W. Deem and Ramdas Pophale) SiO2 
 PCOD8078240
Probable space group: C 2/M
;
_chemical_formula_sum "Si O2"
_cell_formula_units_Z 64
_cell_length_a 25.025612
_cell_length_b 14.503134
_cell_length_c 10.812064
_cell_angle_alpha 90.000000
_cell_angle_beta 72.846983
_cell_angle_gamma 90.000000
_cell_volume 3749.688528
_symmetry_space_group_name_H-M "C 2/M"
_symmetry_group_IT_number 12
_symmetry_cell_setting 'monoclinic'
loop_
_space_group_symop_operation_xyz
x,y,z
-x,y,-z
-x,-y,-z
x,-y,z
1/2+x,1/2+y,z
1/2-x,1/2+y,-z
1/2-x,1/2-y,-z
1/2+x,1/2-y,z
loop_
_atom_site_type_symbol
_atom_site_label
_atom_site_fract_x
_atom_site_fract_y
_atom_site_fract_z
Si Si1 0.389616 0.605028 0.561693
Si Si2 0.125644 0.895523 0.941583
Si Si3 0.534199 0.285326 0.863216
Si Si4 0.555613 0.604418 0.219490
Si Si5 0.240113 0.898854 0.321816
Si Si6 0.200039 0.604305 0.461035
Si Si7 0.621231 0.243840 0.623226
Si Si8 0.786002 0.211953 0.254525
O O1 0.400981 0.500000 0.508995
O O2 0.427780 0.629958 0.652803
O O3 0.325515 0.617245 0.643566
O O4 0.405963 0.677048 0.443974
O O5 0.072482 0.865344 0.895862
O O6 0.181037 0.834618 0.881048
O O7 0.139956 0.000000 0.894785
O O8 0.110600 0.885490 0.095942
O O9 0.492375 0.327502 0.792057
O O10 0.574790 0.215460 0.759261
O O11 0.500000 0.236322 0.000000
O O12 0.533118 0.500000 0.226714
O O13 0.258069 0.893150 0.452174
O O14 0.271027 0.817271 0.225512
O O15 0.256482 0.000000 0.256342
O O16 0.185924 0.500000 0.431151
O O17 0.141003 0.654295 0.533056
O O18 0.229703 0.656037 0.326239
O O19 0.675184 0.288814 0.650712
#
# Coordination Sequence:
#
# PCOD8078240 Si02
#       8
#     8   8   8   8   8   8   8   8
#     4  10  18  28  44  64  93 124 148 178 219 269
#     4   9  17  28  45  66  92 123 150 182 220 259
#     4   9  18  31  47  64  88 119 149 185 223 262
#     4   9  18  31  43  63  92 122 154 182 217 266
#     4   9  16  27  42  63  95 125 143 176 224 260
#     4  10  17  27  45  69  94 116 145 186 224 260
#     4  10  18  29  45  68  93 116 149 181 222 271
#     4  10  16  27  45  70  92 115 153 183 217 267
#
# _framework density 17.068085
#
# number of rings (size 3 to 8) (size 9 to 14) (size 15 to 20)
#    0.000    2.500    2.500    1.500    0.000    4.500 
#    0.000    1.875    0.000    0.375    0.000    4.375 
#    0.000    0.000    0.000    0.000    0.000    0.000 
#
# Total GULP energy -396616.745078 kJ/mol
# GULP energy per Si atom -12394.273284 kJ/mol
# Density = 1.702924 g / cm^3
# Si number density = 17.068085 Si / 1000 Ang^3
#
#
#
# Elastic Constant Matrix: (Units=GPa)
#
#
# Indices 1 2 3 4 5 6 
#
# 1 48.7792 22.7812 31.1077 0.0000 -10.0195 0.0000
# 2 22.7812 83.7798 37.2758 0.0000 -18.2629 0.0000
# 3 31.1077 37.2758 71.1908 0.0000 -22.7239 0.0000
# 4 0.0000 0.0000 0.0000 19.5015 0.0000 -3.8978
# 5 -10.0195 -18.2629 -22.7239 0.0000 29.4366 0.0000
# 6 0.0000 0.0000 0.0000 -3.8978 0.0000 12.5356
#
#
#
# Elastic Compliance Matrix: (Units=1/GPa)
#
#
# Indices 1 2 3 4 5 6 
#
# 1 0.028972 -0.003001 -0.011326 0.000000 -0.000744 0.000000
# 2 -0.003001 0.016327 -0.005746 0.000000 0.004672 0.000000
# 3 -0.011326 -0.005746 0.026057 0.000000 0.012695 0.000000
# 4 0.000000 0.000000 0.000000 0.054676 0.000000 0.017001
# 5 -0.000744 0.004672 0.012695 0.000000 0.046417 0.000000
# 6 0.000000 0.000000 0.000000 0.017001 0.000000 0.085059
#
#
# Mechanical properties :
#
#
# Convention : Reuss Voigt Hill
#
# Bulk Modulus (GPa) = 32.04121 42.89769 37.46945
# Shear Modulus (GPa) = 16.23075 19.80039 18.01557
#
# Velocity S-wave (km/s) = 3.08708 3.40969 3.25239
# Velocity P-wave (km/s) = 5.61427 6.37881 6.00871
#
# Compressibility (1/GPa) = 0.03120981
#
# Stress axis : x y z
#
# Youngs Moduli (GPa) = 34.51598 61.24728 38.37806
#
# Poissons Ratio (x) = 0.18380 0.43466
# Poissons Ratio (y) = 0.10358 0.22053
# Poissons Ratio (z) = 0.39092 0.35195
#
# Static dielectric constant tensor:
#      x y z
#    x 3.023310 0.000000 -0.163620 
#    y 0.000000 3.186210 0.000000 
#    z -0.163620 0.000000 3.162510 
# 
# 
# High freq. dielectric constant tensor:
#      x y z
#    x 1.639990 0.000000 -0.015640 
#    y 0.000000 1.632620 0.000000 
#    z -0.015640 0.000000 1.646270 
# 
# From -- ./inp_files/176115.got.cif
#   From: 2010.06.25/outbox.cif.g09.slc.cpg/sg12_89_cif.got.tgz:176115.got - 2010.06.28 00:19:55.
