data_PCOD8078214
_publ_section_title
;
Structure prediction by ZEFSAII (Michael W. Deem and Ramdas Pophale) SiO2 
 PCOD8078214
Probable space group: C 2/M
;
_chemical_formula_sum "Si O2"
_cell_formula_units_Z 64
_cell_length_a 17.142726
_cell_length_b 13.583682
_cell_length_c 30.892071
_cell_angle_alpha 90.000000
_cell_angle_beta 32.402488
_cell_angle_gamma 90.000000
_cell_volume 3854.770765
_symmetry_space_group_name_H-M "C 2/M"
_symmetry_group_IT_number 12
_symmetry_cell_setting 'monoclinic'
loop_
_space_group_symop_operation_xyz
x,y,z
-x,y,-z
-x,-y,-z
x,-y,z
1/2+x,1/2+y,z
1/2-x,1/2+y,-z
1/2-x,1/2-y,-z
1/2+x,1/2-y,z
loop_
_atom_site_type_symbol
_atom_site_label
_atom_site_fract_x
_atom_site_fract_y
_atom_site_fract_z
Si Si1 0.330007 0.615720 0.363713
Si Si2 0.847640 0.884287 0.774730
Si Si3 0.346575 0.884495 0.214609
Si Si4 0.253118 0.791850 0.686567
Si Si5 0.527153 0.609497 0.848332
Si Si6 0.032958 0.608848 0.535165
Si Si7 0.240996 0.886771 0.091036
Si Si8 0.403697 0.218257 0.946326
O O1 0.326365 0.500000 0.351617
O O2 0.484482 0.645681 0.312131
O O3 0.306378 0.683180 0.332914
O O4 0.204414 0.637621 0.458475
O O5 0.750325 0.848180 0.780641
O O6 0.788928 0.840015 0.847680
O O7 0.835679 0.000000 0.784968
O O8 0.288519 0.821538 0.282843
O O9 0.514473 0.859664 0.123996
O O10 0.329835 0.000000 0.233193
O O11 0.427707 0.811275 0.607350
O O12 0.181190 0.864980 0.754980
O O13 0.528570 0.500000 0.866351
O O14 0.404428 0.624586 0.869179
O O15 0.499962 0.681970 0.901933
O O16 0.005257 0.500000 0.568194
O O17 0.000000 0.604857 0.500000
O O18 0.288792 0.000000 0.071404
O O19 0.378070 0.829141 0.005492
O O20 0.250000 0.250000 0.000000
#
# Coordination Sequence:
#
# PCOD8078214 Si02
#       8
#     8   8   8   8   8   8   8   8
#     4   9  15  27  49  75  97 115 145 192 239 274
#     4   9  17  29  46  67  94 123 147 185 235 275
#     4  10  21  33  44  66  97 124 152 184 225 274
#     4  10  16  26  45  68  94 121 153 185 227 271
#     4   9  15  24  41  66  90 110 140 182 226 269
#     4   8  14  23  42  73  99 115 143 193 238 267
#     4   9  15  25  43  63  86 113 143 179 222 269
#     4   9  18  29  43  64  90 114 146 184 228 267
#
# _framework density 16.602803000000002
#
# number of rings (size 3 to 8) (size 9 to 14) (size 15 to 20)
#    0.000    2.875    1.250    2.250    0.000    1.000 
#    0.000    2.500    0.000    3.375    0.000   14.000 
#    0.000    0.000    0.000    0.000    0.000    0.000 
#
# Total GULP energy -396475.415022 kJ/mol
# GULP energy per Si atom -12389.856719 kJ/mol
# Density = 1.656501 g / cm^3
# Si number density = 16.602803 Si / 1000 Ang^3
#
#
#
# Elastic Constant Matrix: (Units=GPa)
#
#
# Indices 1 2 3 4 5 6 
#
# 1 41.0500 20.1278 23.9880 0.0000 -6.5342 0.0000
# 2 20.1278 91.5470 47.6979 0.0002 0.2792 0.0000
# 3 23.9880 47.6979 120.3470 -0.0005 -12.0826 0.0001
# 4 0.0000 0.0002 -0.0005 29.3637 0.0000 2.8876
# 5 -6.5342 0.2792 -12.0826 0.0000 14.7228 0.0000
# 6 0.0000 0.0000 0.0001 2.8876 0.0000 13.7767
#
#
#
# Elastic Compliance Matrix: (Units=1/GPa)
#
#
# Indices 1 2 3 4 5 6 
#
# 1 0.030381 -0.005226 -0.002856 0.000000 0.011239 0.000000
# 2 -0.005226 0.015035 -0.005644 0.000000 -0.007236 0.000000
# 3 -0.002856 -0.005644 0.011986 0.000000 0.008676 0.000000
# 4 0.000000 0.000000 0.000000 0.034772 0.000000 -0.007288
# 5 0.011239 -0.007236 0.008676 0.000000 0.080167 0.000000
# 6 0.000000 0.000000 0.000000 -0.007288 0.000000 0.074114
#
#
# Mechanical properties :
#
#
# Convention : Reuss Voigt Hill
#
# Bulk Modulus (GPa) = 33.38800 48.50794 40.94797
# Shear Modulus (GPa) = 17.61241 22.31467 19.96354
#
# Velocity S-wave (km/s) = 3.26054 3.67008 3.47135
# Velocity P-wave (km/s) = 5.85904 6.87310 6.38623
#
# Compressibility (1/GPa) = 0.02995088
#
# Stress axis : x y z
#
# Youngs Moduli (GPa) = 32.91557 66.51206 83.42720
#
# Poissons Ratio (x) = 0.34758 0.23828
# Poissons Ratio (y) = 0.17201 0.47084
# Poissons Ratio (z) = 0.09401 0.37538
#
# Static dielectric constant tensor:
#      x y z
#    x 2.920500 0.000000 -0.194200 
#    y 0.000000 3.103600 0.000000 
#    z -0.194200 0.000000 3.625780 
# 
# 
# High freq. dielectric constant tensor:
#      x y z
#    x 1.592000 0.000000 -0.019650 
#    y 0.000000 1.616510 0.000000 
#    z -0.019650 0.000000 1.657230 
# 
# From -- ./inp_files/379349.got.cif
#   From: 2010.06.25/outbox.cif.g09.slc.cpg/sg12_190_cif.got.tgz:379349.got - 2010.06.28 00:19:55.
