data_PCOD8078621
_publ_section_title
;
Structure prediction by ZEFSAII (Michael W. Deem and Ramdas Pophale) SiO2 
 PCOD8078621
Probable space group: C 2/M
;
_chemical_formula_sum "Si O2"
_cell_formula_units_Z 40
_cell_length_a 25.980845
_cell_length_b 8.819998
_cell_length_c 9.250717
_cell_angle_alpha 90.000000
_cell_angle_beta 86.992715
_cell_angle_gamma 90.000000
_cell_volume 2116.891809
_symmetry_space_group_name_H-M "C 2/M"
_symmetry_group_IT_number 12
_symmetry_cell_setting 'monoclinic'
loop_
_space_group_symop_operation_xyz
x,y,z
-x,y,-z
-x,-y,-z
x,-y,z
1/2+x,1/2+y,z
1/2-x,1/2+y,-z
1/2-x,1/2-y,-z
1/2+x,1/2-y,z
loop_
_atom_site_type_symbol
_atom_site_label
_atom_site_fract_x
_atom_site_fract_y
_atom_site_fract_z
Si Si1 0.339986 0.821616 0.647506
Si Si2 0.742884 0.677726 0.846377
Si Si3 0.957049 0.323996 0.346412
Si Si4 0.556589 0.321298 0.341671
Si Si5 0.844681 0.673826 0.313880
O O1 0.288268 0.766254 0.733744
O O2 0.387977 0.739277 0.720419
O O3 0.335669 0.773683 0.480498
O O4 0.349402 0.000000 0.659432
O O5 0.744856 0.500000 0.865380
O O6 0.688198 0.723115 0.787720
O O7 0.750000 0.750000 0.000000
O O8 0.964990 0.500000 0.385216
O O9 0.948943 0.227122 0.491805
O O10 0.904941 0.305008 0.259951
O O11 0.008501 0.256825 0.261028
O O12 0.553602 0.500000 0.321835
O O13 0.827431 0.500000 0.297239
#
# Coordination Sequence:
#
# PCOD8078621 Si02
#       5
#     8   8   8   8   8
#     4   9  19  35  53  75 103 137 171 206 253 307
#     4  11  23  37  54  74 101 136 172 211 257 305
#     4   9  16  28  46  70 104 139 165 199 249 304
#     4  10  17  25  44  75 105 132 165 208 250 292
#     4   9  18  33  54  78 103 132 170 210 250 298
#
# _framework density 18.895629
#
# number of rings (size 3 to 8) (size 9 to 14) (size 15 to 20)
#    0.000    2.400    0.000    6.000    0.000    5.600 
#    0.000    0.000    0.000    1.200    0.000    8.400 
#    0.000    0.000    0.000    0.000    0.000    0.000 
#
# Total GULP energy -247891.832707 kJ/mol
# GULP energy per Si atom -12394.591635 kJ/mol
# Density = 1.885262 g / cm^3
# Si number density = 18.895629 Si / 1000 Ang^3
#
#
#
# Elastic Constant Matrix: (Units=GPa)
#
#
# Indices 1 2 3 4 5 6 
#
# 1 161.1431 56.6522 45.1569 0.0000 24.6394 0.0000
# 2 56.6522 72.0166 27.6099 0.0000 7.3797 0.0000
# 3 45.1569 27.6099 59.1139 0.0000 13.6955 0.0000
# 4 0.0000 0.0000 0.0000 21.0848 0.0000 4.5299
# 5 24.6394 7.3797 13.6955 0.0000 7.3334 0.0000
# 6 0.0000 0.0000 0.0000 4.5299 0.0000 37.6630
#
#
#
# Elastic Compliance Matrix: (Units=1/GPa)
#
#
# Indices 1 2 3 4 5 6 
#
# 1 0.016470 -0.009009 0.004136 0.000000 -0.053996 0.000000
# 2 -0.009009 0.021909 -0.009264 0.000000 0.025523 0.000000
# 3 0.004136 -0.009264 0.033744 0.000000 -0.067593 0.000000
# 4 0.000000 0.000000 0.000000 0.048685 0.000000 -0.005856
# 5 -0.053996 0.025523 -0.067593 0.000000 0.418334 0.000000
# 6 0.000000 0.000000 0.000000 -0.005856 0.000000 0.027256
#
#
# Mechanical properties :
#
#
# Convention : Reuss Voigt Hill
#
# Bulk Modulus (GPa) = 22.80554 61.23462 42.02008
# Shear Modulus (GPa) = 8.20631 24.07321 16.13976
#
# Velocity S-wave (km/s) = 2.08624 3.57320 2.92576
# Velocity P-wave (km/s) = 4.23068 7.03568 5.80514
#
# Compressibility (1/GPa) = 0.04384899
#
# Stress axis : x y z
#
# Youngs Moduli (GPa) = 60.71647 45.64370 29.63523
#
# Poissons Ratio (x) = 0.41119 -0.12258
# Poissons Ratio (y) = 0.54698 0.27454
# Poissons Ratio (z) = -0.25113 0.42285
#
# Static dielectric constant tensor:
#      x y z
#    x 4.429110 0.000000 0.039340 
#    y 0.000000 3.389360 0.000000 
#    z 0.039340 0.000000 3.013120 
# 
# 
# High freq. dielectric constant tensor:
#      x y z
#    x 1.764880 0.000000 0.005790 
#    y 0.000000 1.736780 0.000000 
#    z 0.005790 0.000000 1.666920 
# 
# From -- ./inp_files/101021.got.cif
#   From: 2010.06.25/outbox.cif.g09.slc.cpg/sg12_51_cif.got.tgz:101021.got - 2010.06.28 00:19:55.
