data_PCOD8078989
_publ_section_title
;
Structure prediction by ZEFSAII (Michael W. Deem and Ramdas Pophale) SiO2 
 PCOD8078989
Probable space group: C 2/M
;
_chemical_formula_sum "Si O2"
_cell_formula_units_Z 56
_cell_length_a 24.157753
_cell_length_b 18.108655
_cell_length_c 10.350877
_cell_angle_alpha 90.000000
_cell_angle_beta 134.026021
_cell_angle_gamma 90.000000
_cell_volume 3255.842698
_symmetry_space_group_name_H-M "C 2/M"
_symmetry_group_IT_number 12
_symmetry_cell_setting 'monoclinic'
loop_
_space_group_symop_operation_xyz
x,y,z
-x,y,-z
-x,-y,-z
x,-y,z
1/2+x,1/2+y,z
1/2-x,1/2+y,-z
1/2-x,1/2-y,-z
1/2+x,1/2-y,z
loop_
_atom_site_type_symbol
_atom_site_label
_atom_site_fract_x
_atom_site_fract_y
_atom_site_fract_z
Si Si1 0.590444 0.179242 0.138040
Si Si2 0.175662 0.087298 0.790613
Si Si3 0.356620 0.658692 0.757039
Si Si4 0.678028 0.081963 0.112366
Si Si5 0.293943 0.917316 0.560455
Si Si6 0.406605 0.416064 0.092849
Si Si7 0.917141 0.915709 0.601932
O O1 0.640150 0.253114 0.233041
O O2 0.609519 0.140903 0.028722
O O3 0.622221 0.124081 0.303072
O O4 0.500000 0.193640 0.000000
O O5 0.266014 0.106670 0.913973
O O6 0.148460 0.118755 0.884819
O O7 0.125241 0.119702 0.591005
O O8 0.161949 0.000000 0.769490
O O9 0.268641 0.629939 0.619682
O O10 0.400225 0.631670 0.701147
O O11 0.400801 0.630502 0.953970
O O12 0.731690 0.078221 0.329721
O O13 0.643251 0.000000 0.029161
O O14 0.301736 0.000000 0.513839
O O15 0.382496 0.500000 0.021871
O O16 0.492939 0.411703 0.285078
O O17 0.891590 0.000000 0.588639
#
# Coordination Sequence:
#
# PCOD8078989 Si02
#       7
#     8   8   8   8   8   8   8
#     4  10  20  32  49  76 104 127 161 207 249 289
#     4   9  16  30  47  66  92 127 173 210 236 279
#     4  12  20  31  47  73 106 130 153 196 255 305
#     4   8  16  31  52  71  89 123 165 207 245 277
#     4   9  18  32  52  72  94 129 167 202 241 285
#     4  10  20  28  42  69 100 133 167 203 241 287
#     4  10  17  28  45  65  96 138 174 201 233 282
#
# _framework density 17.199846999999998
#
# number of rings (size 3 to 8) (size 9 to 14) (size 15 to 20)
#    0.857    1.429    1.429    3.429    0.000    4.000 
#    0.000    0.714    0.000    0.000    0.000    1.000 
#    0.000    4.571    0.000    0.000    0.000    0.000 
#
# Total GULP energy -346924.486817 kJ/mol
# GULP energy per Si atom -12390.160243 kJ/mol
# Density = 1.716070 g / cm^3
# Si number density = 17.199847 Si / 1000 Ang^3
#
#
#
# Elastic Constant Matrix: (Units=GPa)
#
#
# Indices 1 2 3 4 5 6 
#
# 1 68.7071 28.6558 20.0108 0.0000 -7.5707 0.0000
# 2 28.6558 96.2737 23.5800 0.0000 7.9131 0.0000
# 3 20.0108 23.5800 47.3799 0.0000 4.5598 0.0000
# 4 0.0000 0.0000 0.0000 20.2254 0.0000 9.9305
# 5 -7.5707 7.9131 4.5598 0.0000 30.5350 0.0000
# 6 0.0000 0.0000 0.0000 9.9305 0.0000 14.9377
#
#
#
# Elastic Compliance Matrix: (Units=1/GPa)
#
#
# Indices 1 2 3 4 5 6 
#
# 1 0.019144 -0.004696 -0.006414 0.000000 0.006921 0.000000
# 2 -0.004696 0.013131 -0.004172 0.000000 -0.003944 0.000000
# 3 -0.006414 -0.004172 0.026319 0.000000 -0.004439 0.000000
# 4 0.000000 0.000000 0.000000 0.073402 0.000000 -0.048797
# 5 0.006921 -0.003944 -0.004439 0.000000 0.036150 0.000000
# 6 0.000000 0.000000 0.000000 -0.048797 0.000000 0.099385
#
#
# Mechanical properties :
#
#
# Convention : Reuss Voigt Hill
#
# Bulk Modulus (GPa) = 35.67786 39.65045 37.66415
# Shear Modulus (GPa) = 16.26342 22.48055 19.37198
#
# Velocity S-wave (km/s) = 3.07833 3.61920 3.35966
# Velocity P-wave (km/s) = 5.78126 6.36927 6.08237
#
# Compressibility (1/GPa) = 0.02802859
#
# Stress axis : x y z
#
# Youngs Moduli (GPa) = 52.23581 76.15652 37.99586
#
# Poissons Ratio (x) = 0.35763 0.24372
# Poissons Ratio (y) = 0.24530 0.15852
# Poissons Ratio (z) = 0.33506 0.31773
#
# Static dielectric constant tensor:
#      x y z
#    x 3.085500 0.000000 -0.033450 
#    y 0.000000 3.069060 0.000000 
#    z -0.033450 0.000000 2.938000 
# 
# 
# High freq. dielectric constant tensor:
#      x y z
#    x 1.651670 0.000000 0.008670 
#    y 0.000000 1.645230 0.000000 
#    z 0.008670 0.000000 1.635590 
# 
# From -- ./inp_files/98911.got.cif
#   From: 2010.06.25/outbox.cif.g09.slc.cpg/sg12_50_cif.got.tgz:98911.got - 2010.06.28 00:19:55.
