data_PCOD8078136
_publ_section_title
;
Structure prediction by ZEFSAII (Michael W. Deem and Ramdas Pophale) SiO2 
 PCOD8078136
Probable space group: C 2/M
;
_chemical_formula_sum "Si O2"
_cell_formula_units_Z 52
_cell_length_a 25.979411
_cell_length_b 28.399057
_cell_length_c 5.325509
_cell_angle_alpha 90.000000
_cell_angle_beta 114.304617
_cell_angle_gamma 90.000000
_cell_volume 3580.874706
_symmetry_space_group_name_H-M "C 2/M"
_symmetry_group_IT_number 12
_symmetry_cell_setting 'monoclinic'
loop_
_space_group_symop_operation_xyz
x,y,z
-x,y,-z
-x,-y,-z
x,-y,z
1/2+x,1/2+y,z
1/2-x,1/2+y,-z
1/2-x,1/2-y,-z
1/2+x,1/2-y,z
loop_
_atom_site_type_symbol
_atom_site_label
_atom_site_fract_x
_atom_site_fract_y
_atom_site_fract_z
Si Si1 0.132635 0.074353 0.509311
Si Si2 0.670017 0.284608 0.088435
Si Si3 0.649207 0.680074 0.546622
Si Si4 0.297521 0.553078 0.850332
Si Si5 0.783614 0.319207 0.817153
Si Si6 0.963193 0.000000 0.676073
Si Si7 0.728125 0.857579 0.706375
O O1 0.118612 0.129766 0.485620
O O2 0.168574 0.060755 0.824990
O O3 0.074030 0.047003 0.399761
O O4 0.164019 0.061583 0.315183
O O5 0.631670 0.290438 0.261788
O O6 0.702591 0.235611 0.153882
O O7 0.714917 0.326811 0.177764
O O8 0.631705 0.290404 0.760983
O O9 0.716600 0.673362 0.681058
O O10 0.274199 0.500000 0.797443
O O11 0.243589 0.587421 0.735210
O O12 0.808143 0.344283 0.615464
O O13 0.808029 0.344637 0.116313
O O14 0.000000 0.000000 0.500000
O O15 0.000000 0.000000 0.000000
#
# Coordination Sequence:
#
# PCOD8078136 Si02
#       7
#     8   8   8   8   8   4   8
#     4  12  20  34  48  56  73  88 111 156 192 248
#     4  10  16  23  38  55  82  98 112 132 158 208
#     4  10  16  26  38  57  72  94 116 129 168 214
#     4  12  19  30  44  60  68  93 119 152 188 224
#     4  10  16  24  36  56  80 100 112 133 160 203
#     4  12  26  40  50  62  70  88 122 168 226 266
#     4  10  16  25  34  52  77  90 122 137 162 209
#
# _framework density 14.521592
#
# number of rings (size 3 to 8) (size 9 to 14) (size 15 to 20)
#    0.000    1.231    7.692    5.538    0.000    0.000 
#    0.000    0.000    0.000    0.000    0.000    0.000 
#    0.000    0.000    0.000    0.000    0.000    0.000 
#
# Total GULP energy -322203.391475 kJ/mol
# GULP energy per Si atom -12392.438134 kJ/mol
# Density = 1.448854 g / cm^3
# Si number density = 14.521592 Si / 1000 Ang^3
#
#
#
# Elastic Constant Matrix: (Units=GPa)
#
#
# Indices 1 2 3 4 5 6 
#
# 1 28.0432 30.3420 32.3443 0.0000 -16.4591 0.0000
# 2 30.3420 104.4583 33.4243 0.0000 -5.1551 0.0000
# 3 32.3443 33.4243 98.2262 0.0000 -41.5168 0.0000
# 4 0.0000 0.0000 0.0000 27.6204 0.0000 -5.1046
# 5 -16.4591 -5.1551 -41.5168 0.0000 28.3005 0.0000
# 6 0.0000 0.0000 0.0000 -5.1046 0.0000 14.8985
#
#
#
# Elastic Compliance Matrix: (Units=1/GPa)
#
#
# Indices 1 2 3 4 5 6 
#
# 1 0.089385 -0.022621 -0.003961 0.000000 0.042053 0.000000
# 2 -0.022621 0.017407 -0.007093 0.000000 -0.020390 0.000000
# 3 -0.003961 -0.007093 0.032580 0.000000 0.044199 0.000000
# 4 0.000000 0.000000 0.000000 0.038653 0.000000 0.013244
# 5 0.042053 -0.020390 0.044199 0.000000 0.120918 0.000000
# 6 0.000000 0.000000 0.000000 0.013244 0.000000 0.071659
#
#
# Mechanical properties :
#
#
# Convention : Reuss Voigt Hill
#
# Bulk Modulus (GPa) = 13.88460 46.99433 30.43946
# Shear Modulus (GPa) = 10.82347 23.13833 16.98090
#
# Velocity S-wave (km/s) = 2.73305 3.99604 3.42329
# Velocity P-wave (km/s) = 4.42058 7.32960 6.05246
#
# Compressibility (1/GPa) = 0.07202224
#
# Stress axis : x y z
#
# Youngs Moduli (GPa) = 11.18752 57.44762 30.69387
#
# Poissons Ratio (x) = 1.29951 0.12159
# Poissons Ratio (y) = 0.25307 0.21771
# Poissons Ratio (z) = 0.04432 0.40747
#
# Static dielectric constant tensor:
#      x y z
#    x 2.911340 0.000000 -1.571610 
#    y 0.000000 3.032030 0.000000 
#    z -1.571610 0.000000 5.181780 
# 
# 
# High freq. dielectric constant tensor:
#      x y z
#    x 1.476490 0.000000 -0.064580 
#    y 0.000000 1.562020 0.000000 
#    z -0.064580 0.000000 1.571470 
# 
# From -- ./inp_files/17453.got.cif
#   From: 2010.06.25/outbox.cif.g09.slc.cpg/sg12_9_cif.got.tgz:17453.got - 2010.06.28 00:19:55.
