data_PCOD8078440
_publ_section_title
;
Structure prediction by ZEFSAII (Michael W. Deem and Ramdas Pophale) SiO2 
 PCOD8078440
Probable space group: C 2/M
;
_chemical_formula_sum "Si O2"
_cell_formula_units_Z 40
_cell_length_a 11.850339
_cell_length_b 29.069588
_cell_length_c 9.386879
_cell_angle_alpha 90.000000
_cell_angle_beta 37.294609
_cell_angle_gamma 90.000000
_cell_volume 1959.302696
_symmetry_space_group_name_H-M "C 2/M"
_symmetry_group_IT_number 12
_symmetry_cell_setting 'monoclinic'
loop_
_space_group_symop_operation_xyz
x,y,z
-x,y,-z
-x,-y,-z
x,-y,z
1/2+x,1/2+y,z
1/2-x,1/2+y,-z
1/2-x,1/2-y,-z
1/2+x,1/2-y,z
loop_
_atom_site_type_symbol
_atom_site_label
_atom_site_fract_x
_atom_site_fract_y
_atom_site_fract_z
Si Si1 0.515821 0.550410 0.756974
Si Si2 0.019588 0.146903 0.641128
Si Si3 0.703764 0.069961 0.278204
Si Si4 0.305281 0.202052 0.512249
Si Si5 0.210527 0.327026 0.168227
O O1 0.555179 0.500000 0.647166
O O2 0.493925 0.591401 0.664940
O O3 0.687197 0.565637 0.683509
O O4 0.324671 0.544559 0.036973
O O5 0.218746 0.160878 0.504746
O O6 0.000000 0.164826 0.500000
O O7 0.868701 0.173314 0.889845
O O8 0.500000 0.046741 0.500000
O O9 0.672666 0.122237 0.264316
O O10 0.250000 0.250000 0.500000
O O11 0.230244 0.201768 0.750861
O O12 0.526724 0.194782 0.283808
#
# Coordination Sequence:
#
# PCOD8078440 Si02
#       5
#     8   8   8   8   8
#     4  10  21  34  56  92 122 157 208 254 303 369
#     4  11  24  42  62  88 128 171 205 251 315 368
#     4  10  16  33  61  87 121 156 199 252 311 361
#     4  11  23  41  66  93 120 159 210 256 314 370
#     4  10  21  42  65  89 124 163 201 259 308 365
#
# _framework density 20.415427000000001
#
# number of rings (size 3 to 8) (size 9 to 14) (size 15 to 20)
#    0.000    1.600    4.000    1.800    2.800    3.600 
#    3.600    0.000    0.000    0.000    0.000    8.400 
#    0.000    0.000    0.000    0.000    0.000    0.000 
#
# Total GULP energy -247902.353269 kJ/mol
# GULP energy per Si atom -12395.117663 kJ/mol
# Density = 2.036896 g / cm^3
# Si number density = 20.415427 Si / 1000 Ang^3
#
#
#
# Elastic Constant Matrix: (Units=GPa)
#
#
# Indices 1 2 3 4 5 6 
#
# 1 130.1677 40.7117 60.0875 0.0000 0.7348 0.0000
# 2 40.7117 124.8052 23.7169 0.0000 1.9680 0.0000
# 3 60.0875 23.7169 81.7823 0.0000 7.8641 0.0000
# 4 0.0000 0.0000 0.0000 5.1015 0.0000 -14.7697
# 5 0.7348 1.9680 7.8641 0.0000 35.6844 0.0000
# 6 0.0000 0.0000 0.0000 -14.7697 0.0000 280.1190
#
#
#
# Elastic Compliance Matrix: (Units=1/GPa)
#
#
# Indices 1 2 3 4 5 6 
#
# 1 0.012390 -0.002442 -0.008565 0.000000 0.001767 0.000000
# 2 -0.002442 0.008961 -0.000778 0.000000 -0.000272 0.000000
# 3 -0.008565 -0.000778 0.019130 0.000000 -0.003997 0.000000
# 4 0.000000 0.000000 0.000000 0.231332 0.000000 0.012197
# 5 0.001767 -0.000272 -0.003997 0.000000 0.028883 0.000000
# 6 0.000000 0.000000 0.000000 0.012197 0.000000 0.004213
#
#
# Mechanical properties :
#
#
# Convention : Reuss Voigt Hill
#
# Bulk Modulus (GPa) = 59.13270 65.08749 62.11010
# Shear Modulus (GPa) = 14.96482 78.33027 46.64755
#
# Velocity S-wave (km/s) = 2.71036 6.20092 4.78527
# Velocity P-wave (km/s) = 6.23076 9.12246 7.81158
#
# Compressibility (1/GPa) = 0.01691112
#
# Stress axis : x y z
#
# Youngs Moduli (GPa) = 80.71129 111.59149 52.27256
#
# Poissons Ratio (x) = 0.27249 0.44771
# Poissons Ratio (y) = 0.19709 0.04069
# Poissons Ratio (z) = 0.69128 0.08687
#
# Static dielectric constant tensor:
#      x y z
#    x 3.637380 0.000000 -0.207710 
#    y 0.000000 3.707410 0.000000 
#    z -0.207710 0.000000 3.717780 
# 
# 
# High freq. dielectric constant tensor:
#      x y z
#    x 1.791190 0.000000 -0.017180 
#    y 0.000000 1.804450 0.000000 
#    z -0.017180 0.000000 1.781860 
# 
# From -- ./inp_files/53998.got.cif
#   From: 2010.06.25/outbox.cif.g09.slc.cpg/sg12_27_cif.got.tgz:53998.got - 2010.06.28 00:19:55.
