data_PCOD8078446
_publ_section_title
;
Structure prediction by ZEFSAII (Michael W. Deem and Ramdas Pophale) SiO2 
 PCOD8078446
Probable space group: C 2/M
;
_chemical_formula_sum "Si O2"
_cell_formula_units_Z 44
_cell_length_a 9.530334
_cell_length_b 17.732265
_cell_length_c 14.258645
_cell_angle_alpha 90.000000
_cell_angle_beta 109.035918
_cell_angle_gamma 90.000000
_cell_volume 2277.858887
_symmetry_space_group_name_H-M "C 2/M"
_symmetry_group_IT_number 12
_symmetry_cell_setting 'monoclinic'
loop_
_space_group_symop_operation_xyz
x,y,z
-x,y,-z
-x,-y,-z
x,-y,z
1/2+x,1/2+y,z
1/2-x,1/2+y,-z
1/2-x,1/2-y,-z
1/2+x,1/2-y,z
loop_
_atom_site_type_symbol
_atom_site_label
_atom_site_fract_x
_atom_site_fract_y
_atom_site_fract_z
Si Si1 0.121726 0.141919 0.669212
Si Si2 0.500000 0.749531 0.000000
Si Si3 0.186867 0.203078 0.872013
Si Si4 0.374199 0.084083 0.601286
Si Si5 0.138380 0.692617 0.702534
Si Si6 0.192257 0.914292 0.379648
O O1 0.151468 0.137104 0.788757
O O2 0.234671 0.089163 0.639390
O O3 0.133680 0.229916 0.640227
O O4 0.961669 0.109621 0.607329
O O5 0.638691 0.802118 0.062235
O O6 0.429370 0.697001 0.066938
O O7 0.160597 0.285267 0.816611
O O8 0.487433 0.147400 0.657313
O O9 0.324424 0.096749 0.483247
O O10 0.443090 0.000000 0.626197
O O11 0.276010 0.641153 0.700395
O O12 0.185040 0.000000 0.342353
#
# Coordination Sequence:
#
# PCOD8078446 Si02
#       6
#     8   4   8   8   8   8
#     4  10  21  36  53  80 112 131 191 223 263 309
#     4  10  16  34  56  82 108 126 160 230 274 330
#     4   9  20  32  55  84 104 130 173 218 278 321
#     4  11  22  35  52  77 111 154 187 212 255 310
#     4  10  21  36  53  80 112 131 191 223 263 309
#     4  11  22  35  52  77 111 154 187 212 255 310
#
# _framework density 19.316385
#
# number of rings (size 3 to 8) (size 9 to 14) (size 15 to 20)
#    1.091    0.727    0.000    5.455    0.000    7.273 
#    0.000    0.000    0.000    0.000    0.000   89.091 
#    0.000    0.000    0.000    0.000    0.000    0.000 
#
# Total GULP energy -272661.660494 kJ/mol
# GULP energy per Si atom -12393.711841 kJ/mol
# Density = 1.927242 g / cm^3
# Si number density = 19.316385 Si / 1000 Ang^3
#
#
#
# Elastic Constant Matrix: (Units=GPa)
#
#
# Indices 1 2 3 4 5 6 
#
# 1 84.1046 11.1818 2.7180 0.0000 1.4292 0.0000
# 2 11.1818 80.8519 25.2086 0.0000 -0.5659 0.0000
# 3 2.7180 25.2086 54.6947 0.0000 2.4700 0.0000
# 4 0.0000 0.0000 0.0000 12.4624 0.0000 -3.0740
# 5 1.4292 -0.5659 2.4700 0.0000 38.6490 0.0000
# 6 0.0000 0.0000 0.0000 -3.0740 0.0000 22.5490
#
#
#
# Elastic Compliance Matrix: (Units=1/GPa)
#
#
# Indices 1 2 3 4 5 6 
#
# 1 0.012124 -0.001751 0.000226 0.000000 -0.000488 0.000000
# 2 -0.001751 0.014712 -0.006726 0.000000 0.000710 0.000000
# 3 0.000226 -0.006726 0.021439 0.000000 -0.001477 0.000000
# 4 0.000000 0.000000 0.000000 0.083033 0.000000 0.011319
# 5 -0.000488 0.000710 -0.001477 0.000000 0.025997 0.000000
# 6 0.000000 0.000000 0.000000 0.011319 0.000000 0.045891
#
#
# Mechanical properties :
#
#
# Convention : Reuss Voigt Hill
#
# Bulk Modulus (GPa) = 31.47185 33.09645 32.28415
# Shear Modulus (GPa) = 21.71196 26.76829 24.24012
#
# Velocity S-wave (km/s) = 3.35627 3.72665 3.54630
# Velocity P-wave (km/s) = 5.59890 5.97397 5.78947
#
# Compressibility (1/GPa) = 0.03177443
#
# Stress axis : x y z
#
# Youngs Moduli (GPa) = 82.48309 67.96964 46.64460
#
# Poissons Ratio (x) = 0.11900 -0.01056
# Poissons Ratio (y) = 0.14441 0.31373
# Poissons Ratio (z) = -0.01868 0.45716
#
# Static dielectric constant tensor:
#      x y z
#    x 3.619140 0.000000 0.014730 
#    y 0.000000 3.252800 0.000000 
#    z 0.014730 0.000000 3.442570 
# 
# 
# High freq. dielectric constant tensor:
#      x y z
#    x 1.773030 0.000000 0.006180 
#    y 0.000000 1.722230 0.000000 
#    z 0.006180 0.000000 1.738090 
# 
# From -- ./inp_files/256735.got.cif
#   From: 2010.06.25/outbox.cif.g09.slc.cpg/sg12_129_cif.got.tgz:256735.got - 2010.06.28 00:19:55.
