data_PCOD8078553
_publ_section_title
;
Structure prediction by ZEFSAII (Michael W. Deem and Ramdas Pophale) SiO2 
 PCOD8078553
Probable space group: C 2/M
;
_chemical_formula_sum "Si O2"
_cell_formula_units_Z 56
_cell_length_a 22.751112
_cell_length_b 8.636715
_cell_length_c 25.806113
_cell_angle_alpha 90.000000
_cell_angle_beta 140.384599
_cell_angle_gamma 90.000000
_cell_volume 3233.279799
_symmetry_space_group_name_H-M "C 2/M"
_symmetry_group_IT_number 12
_symmetry_cell_setting 'monoclinic'
loop_
_space_group_symop_operation_xyz
x,y,z
-x,y,-z
-x,-y,-z
x,-y,z
1/2+x,1/2+y,z
1/2-x,1/2+y,-z
1/2-x,1/2-y,-z
1/2+x,1/2-y,z
loop_
_atom_site_type_symbol
_atom_site_label
_atom_site_fract_x
_atom_site_fract_y
_atom_site_fract_z
Si Si1 0.134240 0.819835 0.087690
Si Si2 0.766898 0.683316 0.262810
Si Si3 0.324800 0.179805 0.622168
Si Si4 0.531962 0.815961 0.577292
Si Si5 0.507819 0.180714 0.929528
Si Si6 0.606642 0.318043 0.229591
Si Si7 0.863918 0.318837 0.532303
O O1 0.231385 0.771346 0.180673
O O2 0.057883 0.783969 0.079158
O O3 0.133505 0.000000 0.073327
O O4 0.112107 0.723662 0.019710
O O5 0.771573 0.500000 0.270981
O O6 0.868108 0.755752 0.340644
O O7 0.696596 0.743793 0.259341
O O8 0.383338 0.274798 0.703661
O O9 0.218012 0.227710 0.551488
O O10 0.368054 0.221511 0.595794
O O11 0.333368 0.000000 0.640795
O O12 0.500000 0.750586 0.500000
O O13 0.459413 0.763564 0.571725
O O14 0.538506 0.000000 0.579615
O O15 0.485120 0.232444 0.855302
O O16 0.489670 0.000000 0.925078
O O17 0.593060 0.500000 0.214269
O O18 0.845509 0.500000 0.510546
#
# Coordination Sequence:
#
# PCOD8078553 Si02
#       7
#     8   8   8   8   8   8   8
#     4   9  15  25  39  58  87 120 151 179 212 259
#     4   8  15  25  41  65  88 112 146 184 216 252
#     4  10  19  30  44  64  89 115 145 181 218 256
#     4   9  15  25  44  68  89 111 145 184 215 248
#     4  10  17  25  39  61  88 116 145 179 220 260
#     4  10  18  29  45  65  88 115 146 179 219 263
#     4   9  18  31  47  65  86 115 148 180 216 256
#
# _framework density 17.319873999999999
#
# number of rings (size 3 to 8) (size 9 to 14) (size 15 to 20)
#    0.000    2.714    0.000    5.143    0.000    2.857 
#    0.000    0.000    0.000    8.143    0.000    1.000 
#    0.000    0.000    0.000    0.000    0.000    0.000 
#
# Total GULP energy -347022.173546 kJ/mol
# GULP energy per Si atom -12393.649055 kJ/mol
# Density = 1.728045 g / cm^3
# Si number density = 17.319874 Si / 1000 Ang^3
#
#
#
# Elastic Constant Matrix: (Units=GPa)
#
#
# Indices 1 2 3 4 5 6 
#
# 1 59.7379 12.9221 47.4680 0.0000 -2.3880 0.0000
# 2 12.9221 44.0228 34.7762 0.0000 -4.2154 0.0002
# 3 47.4680 34.7762 168.7979 0.0000 -7.5700 0.0000
# 4 0.0000 0.0000 0.0000 26.3911 0.0000 -5.9600
# 5 -2.3880 -4.2154 -7.5700 0.0000 19.6264 0.0000
# 6 0.0000 0.0002 0.0000 -5.9600 0.0000 12.4946
#
#
#
# Elastic Compliance Matrix: (Units=1/GPa)
#
#
# Indices 1 2 3 4 5 6 
#
# 1 0.021682 -0.001846 -0.005715 0.000000 0.000037 0.000000
# 2 -0.001846 0.027560 -0.004990 0.000000 0.003770 -0.000001
# 3 -0.005715 -0.004990 0.008629 0.000000 0.001561 0.000000
# 4 0.000000 0.000000 0.000000 0.042466 0.000000 0.020257
# 5 0.000037 0.003770 0.001561 0.000000 0.052368 0.000000
# 6 0.000000 -0.000001 0.000000 0.020257 0.000000 0.089697
#
#
# Mechanical properties :
#
#
# Convention : Reuss Voigt Hill
#
# Bulk Modulus (GPa) = 30.51620 51.43236 40.97428
# Shear Modulus (GPa) = 17.95793 23.52858 20.74325
#
# Velocity S-wave (km/s) = 3.22349 3.68975 3.46447
# Velocity P-wave (km/s) = 5.61355 6.92187 6.30176
#
# Compressibility (1/GPa) = 0.03276947
#
# Stress axis : x y z
#
# Youngs Moduli (GPa) = 46.12135 36.28434 115.88190
#
# Poissons Ratio (x) = 0.06698 0.66229
# Poissons Ratio (y) = 0.08514 0.57823
# Poissons Ratio (z) = 0.26359 0.18105
#
# Static dielectric constant tensor:
#      x y z
#    x 2.914280 0.000000 0.013960 
#    y 0.000000 2.973770 0.000000 
#    z 0.013960 0.000000 3.998380 
# 
# 
# High freq. dielectric constant tensor:
#      x y z
#    x 1.609380 0.000000 -0.010770 
#    y 0.000000 1.651660 0.000000 
#    z -0.010770 0.000000 1.692150 
# 
# From -- ./inp_files/348617.got.cif
#   From: 2010.06.25/outbox.cif.g09.slc.cpg/sg12_175_cif.got.tgz:348617.got - 2010.06.28 00:19:55.
