data_PCOD8078988
_publ_section_title
;
Structure prediction by ZEFSAII (Michael W. Deem and Ramdas Pophale) SiO2 
 PCOD8078988
Probable space group: C 2/M
;
_chemical_formula_sum "Si O2"
_cell_formula_units_Z 48
_cell_length_a 28.361421
_cell_length_b 9.180511
_cell_length_c 12.156265
_cell_angle_alpha 90.000000
_cell_angle_beta 68.531327
_cell_angle_gamma 90.000000
_cell_volume 2945.549760
_symmetry_space_group_name_H-M "C 2/M"
_symmetry_group_IT_number 12
_symmetry_cell_setting 'monoclinic'
loop_
_space_group_symop_operation_xyz
x,y,z
-x,y,-z
-x,-y,-z
x,-y,z
1/2+x,1/2+y,z
1/2-x,1/2+y,-z
1/2-x,1/2-y,-z
1/2+x,1/2-y,z
loop_
_atom_site_type_symbol
_atom_site_label
_atom_site_fract_x
_atom_site_fract_y
_atom_site_fract_z
Si Si1 0.723520 0.331196 0.924103
Si Si2 0.749207 0.666344 0.661271
Si Si3 0.919504 0.169316 0.250688
Si Si4 0.390066 0.668723 0.025764
Si Si5 0.515294 0.164522 0.113494
Si Si6 0.170583 0.332288 0.583333
O O1 0.724635 0.500000 0.951564
O O2 0.754224 0.297478 0.785822
O O3 0.665673 0.278220 0.960381
O O4 0.750000 0.250000 0.000000
O O5 0.729267 0.500000 0.662082
O O6 0.804186 0.686321 0.558527
O O7 0.709100 0.774898 0.642326
O O8 0.896683 0.197138 0.149569
O O9 0.881311 0.241195 0.371026
O O10 0.974078 0.245178 0.218009
O O11 0.925878 0.000000 0.271944
O O12 0.399355 0.500000 0.991071
O O13 0.429871 0.761149 0.920074
O O14 0.517813 0.000000 0.156487
O O15 0.500000 0.168033 0.000000
O O16 0.158484 0.500000 0.620193
#
# Coordination Sequence:
#
# PCOD8078988 Si02
#       6
#     8   8   8   8   8   8
#     4  10  20  34  49  67  92 125 163 196 229 271
#     4   9  18  33  46  63  93 126 155 189 235 281
#     4  10  17  28  45  65  94 127 153 180 230 286
#     4   9  17  30  45  61  89 126 156 185 229 279
#     4   9  17  27  41  65  93 117 151 192 227 270
#     4  10  18  27  46  70  93 121 155 192 230 275
#
# _framework density 16.295769
#
# number of rings (size 3 to 8) (size 9 to 14) (size 15 to 20)
#    0.000    2.500    1.667    1.500    0.000    4.667 
#    0.000    0.000    0.000    0.000    0.000    1.167 
#    0.000    9.333    0.000    0.000    0.000    0.000 
#
# Total GULP energy -297600.732675 kJ/mol
# GULP energy per Si atom -12400.030528 kJ/mol
# Density = 1.625868 g / cm^3
# Si number density = 16.295769 Si / 1000 Ang^3
#
#
#
# Elastic Constant Matrix: (Units=GPa)
#
#
# Indices 1 2 3 4 5 6 
#
# 1 88.7823 52.7397 56.4875 0.0000 -21.8238 0.0000
# 2 52.7397 105.1848 54.8797 0.0000 -22.4373 0.0000
# 3 56.4875 54.8797 91.6658 0.0000 -20.2434 0.0000
# 4 0.0000 0.0000 0.0000 24.8068 0.0000 -7.5589
# 5 -21.8238 -22.4373 -20.2434 0.0000 30.1676 0.0000
# 6 0.0000 0.0000 0.0000 -7.5589 0.0000 30.6263
#
#
#
# Elastic Compliance Matrix: (Units=1/GPa)
#
#
# Indices 1 2 3 4 5 6 
#
# 1 0.021187 -0.004713 -0.008950 0.000000 0.005816 0.000000
# 2 -0.004713 0.015714 -0.005489 0.000000 0.004595 0.000000
# 3 -0.008950 -0.005489 0.020403 0.000000 0.003134 0.000000
# 4 0.000000 0.000000 0.000000 0.043590 0.000000 0.010758
# 5 0.005816 0.004595 0.003134 0.000000 0.042876 0.000000
# 6 0.000000 0.000000 0.000000 0.010758 0.000000 0.035307
#
#
# Mechanical properties :
#
#
# Convention : Reuss Voigt Hill
#
# Bulk Modulus (GPa) = 52.63163 68.20520 60.41842
# Shear Modulus (GPa) = 22.34987 25.22189 23.78588
#
# Velocity S-wave (km/s) = 3.70741 3.93842 3.82466
# Velocity P-wave (km/s) = 7.12000 7.91372 7.52733
#
# Compressibility (1/GPa) = 0.01899998
#
# Stress axis : x y z
#
# Youngs Moduli (GPa) = 47.19768 63.63713 49.01246
#
# Poissons Ratio (x) = 0.29992 0.43868
# Poissons Ratio (y) = 0.22244 0.26903
# Poissons Ratio (z) = 0.42244 0.34930
#
# Static dielectric constant tensor:
#      x y z
#    x 2.924100 0.000000 -0.390820 
#    y 0.000000 3.186880 0.000000 
#    z -0.390820 0.000000 2.997720 
# 
# 
# High freq. dielectric constant tensor:
#      x y z
#    x 1.601290 0.000000 -0.041290 
#    y 0.000000 1.638280 0.000000 
#    z -0.041290 0.000000 1.602050 
# 
# From -- ./inp_files/179223.got.cif
#   From: 2010.06.25/outbox.cif.g09.slc.cpg/sg12_90_cif.got.tgz:179223.got - 2010.06.28 00:19:55.
