data_PCOD8078110
_publ_section_title
;
Structure prediction by ZEFSAII (Michael W. Deem and Ramdas Pophale) SiO2 
 PCOD8078110
Probable space group: C 2/M
;
_chemical_formula_sum "Si O2"
_cell_formula_units_Z 44
_cell_length_a 14.812753
_cell_length_b 17.675029
_cell_length_c 10.585367
_cell_angle_alpha 90.000000
_cell_angle_beta 61.456944
_cell_angle_gamma 90.000000
_cell_volume 2434.574023
_symmetry_space_group_name_H-M "C 2/M"
_symmetry_group_IT_number 12
_symmetry_cell_setting 'monoclinic'
loop_
_space_group_symop_operation_xyz
x,y,z
-x,y,-z
-x,-y,-z
x,-y,z
1/2+x,1/2+y,z
1/2-x,1/2+y,-z
1/2-x,1/2-y,-z
1/2+x,1/2-y,z
loop_
_atom_site_type_symbol
_atom_site_label
_atom_site_fract_x
_atom_site_fract_y
_atom_site_fract_z
Si Si1 0.719690 0.581871 0.299943
Si Si2 0.166261 0.912986 0.053309
Si Si3 0.292533 0.233283 0.333298
Si Si4 0.500000 0.635607 0.500000
Si Si5 0.010226 0.788324 0.233093
Si Si6 0.700809 0.797805 0.145288
O O1 0.763144 0.500000 0.310092
O O2 0.724958 0.593134 0.146448
O O3 0.791861 0.642530 0.320263
O O4 0.600134 0.584120 0.418602
O O5 0.065397 0.858459 0.122352
O O6 0.134981 0.000000 0.041958
O O7 0.251020 0.882356 0.895204
O O8 0.250000 0.250000 0.500000
O O9 0.405967 0.265939 0.230908
O O10 0.218728 0.265605 0.273802
O O11 0.520049 0.687989 0.606464
O O12 0.079502 0.712123 0.198874
O O13 0.750000 0.750000 0.000000
#
# Coordination Sequence:
#
# PCOD8078110 Si02
#       6
#     8   8   8   4   8   8
#     4  10  19  33  55  82 112 143 185 237 279 320
#     4   9  19  37  58  82 110 144 187 235 282 322
#     4  12  21  35  56  84 115 148 187 226 272 338
#     4  10  15  34  54  82 109 144 182 228 283 320
#     4  10  19  32  56  83 112 147 186 224 275 334
#     4  10  19  37  54  79 111 148 186 221 275 330
#
# _framework density 18.072977000000002
#
# number of rings (size 3 to 8) (size 9 to 14) (size 15 to 20)
#    0.000    1.818    7.273    0.273    0.000    3.636 
#    0.000    3.636    0.000    2.182    0.000    3.818 
#    0.000    0.000    0.000    0.000    0.000    0.000 
#
# Total GULP energy -272600.307344 kJ/mol
# GULP energy per Si atom -12390.923061 kJ/mol
# Density = 1.803184 g / cm^3
# Si number density = 18.072977 Si / 1000 Ang^3
#
#
#
# Elastic Constant Matrix: (Units=GPa)
#
#
# Indices 1 2 3 4 5 6 
#
# 1 73.3266 39.9521 8.9620 0.0000 -12.0768 0.0000
# 2 39.9521 136.3278 29.5162 0.0000 -11.2226 0.0000
# 3 8.9620 29.5162 65.2034 0.0000 6.6512 0.0000
# 4 0.0000 0.0000 0.0000 7.3256 0.0000 0.1655
# 5 -12.0768 -11.2226 6.6512 0.0000 20.4148 0.0000
# 6 0.0000 0.0000 0.0000 0.1655 0.0000 30.0245
#
#
#
# Elastic Compliance Matrix: (Units=1/GPa)
#
#
# Indices 1 2 3 4 5 6 
#
# 1 0.017452 -0.004108 -0.001409 0.000000 0.008525 0.000000
# 2 -0.004108 0.009840 -0.004338 0.000000 0.004393 0.000000
# 3 -0.001409 -0.004338 0.018435 0.000000 -0.009224 0.000000
# 4 0.000000 0.000000 0.000000 0.136525 0.000000 -0.000752
# 5 0.008525 0.004393 -0.009224 0.000000 0.059447 0.000000
# 6 0.000000 0.000000 0.000000 -0.000752 0.000000 0.033310
#
#
# Mechanical properties :
#
#
# Convention : Reuss Voigt Hill
#
# Bulk Modulus (GPa) = 38.43493 47.96869 43.20181
# Shear Modulus (GPa) = 16.48043 24.64813 20.56428
#
# Velocity S-wave (km/s) = 3.02301 3.69699 3.37686
# Velocity P-wave (km/s) = 5.78770 6.69499 6.25781
#
# Compressibility (1/GPa) = 0.02601800
#
# Stress axis : x y z
#
# Youngs Moduli (GPa) = 57.30029 101.62816 54.24513
#
# Poissons Ratio (x) = 0.41745 0.07643
# Poissons Ratio (y) = 0.23537 0.23530
# Poissons Ratio (z) = 0.08073 0.44084
#
# Static dielectric constant tensor:
#      x y z
#    x 3.254480 0.000000 -0.170130 
#    y 0.000000 3.608330 0.000000 
#    z -0.170130 0.000000 3.556890 
# 
# 
# High freq. dielectric constant tensor:
#      x y z
#    x 1.678260 0.000000 -0.000420 
#    y 0.000000 1.687930 0.000000 
#    z -0.000420 0.000000 1.702180 
# 
# From -- ./inp_files/144732.got.cif
#   From: 2010.06.25/outbox.cif.g09.slc.cpg/sg12_73_cif.got.tgz:144732.got - 2010.06.28 00:19:55.
