data_PCOD8078587
_publ_section_title
;
Structure prediction by ZEFSAII (Michael W. Deem and Ramdas Pophale) SiO2 
 PCOD8078587
Probable space group: C 2/M
;
_chemical_formula_sum "Si O2"
_cell_formula_units_Z 40
_cell_length_a 27.886842
_cell_length_b 9.181822
_cell_length_c 13.930932
_cell_angle_alpha 90.000000
_cell_angle_beta 139.157709
_cell_angle_gamma 90.000000
_cell_volume 2332.772022
_symmetry_space_group_name_H-M "C 2/M"
_symmetry_group_IT_number 12
_symmetry_cell_setting 'monoclinic'
loop_
_space_group_symop_operation_xyz
x,y,z
-x,y,-z
-x,-y,-z
x,-y,z
1/2+x,1/2+y,z
1/2-x,1/2+y,-z
1/2-x,1/2-y,-z
1/2+x,1/2-y,z
loop_
_atom_site_type_symbol
_atom_site_label
_atom_site_fract_x
_atom_site_fract_y
_atom_site_fract_z
Si Si1 0.670834 0.673372 0.174225
Si Si2 0.317325 0.671110 0.405093
Si Si3 0.471415 0.672812 0.556625
Si Si4 0.116408 0.827734 0.295594
Si Si5 0.966719 0.173350 0.152884
O O1 0.677914 0.500000 0.185005
O O2 0.747725 0.742359 0.259292
O O3 0.648124 0.735602 0.244518
O O4 0.610176 0.728574 0.006156
O O5 0.302423 0.500000 0.374248
O O6 0.387105 0.717915 0.446651
O O7 0.331413 0.717574 0.536939
O O8 0.500000 0.741935 0.500000
O O9 0.476941 0.500000 0.561269
O O10 0.522410 0.730234 0.721437
O O11 0.034043 0.767933 0.189391
O O12 0.112336 0.000000 0.281707
O O13 0.969460 0.000000 0.155917
#
# Coordination Sequence:
#
# PCOD8078587 Si02
#       5
#     8   8   8   8   8
#     4  10  17  25  41  64  88 109 130 164 206 242
#     4   9  17  28  42  61  84 108 136 168 200 239
#     4   8  14  27  46  62  76 102 141 176 201 232
#     4   8  14  25  41  60  82 111 142 166 191 230
#     4   8  14  24  40  62  82 103 138 175 199 228
#
# _framework density 17.146982000000001
#
# number of rings (size 3 to 8) (size 9 to 14) (size 15 to 20)
#    0.000    3.400    0.000    3.600    0.000    2.400 
#    0.000    1.000    0.000    7.800    0.000    0.000 
#    0.000    0.000    0.000    0.000    0.000    0.000 
#
# Total GULP energy -247858.703749 kJ/mol
# GULP energy per Si atom -12392.935187 kJ/mol
# Density = 1.710795 g / cm^3
# Si number density = 17.146982 Si / 1000 Ang^3
#
#
#
# Elastic Constant Matrix: (Units=GPa)
#
#
# Indices 1 2 3 4 5 6 
#
# 1 127.2419 16.7296 81.6119 0.0000 -0.9266 0.0000
# 2 16.7296 13.5685 22.9042 0.0000 6.3643 0.0000
# 3 81.6119 22.9042 134.8441 0.0000 21.6417 0.0000
# 4 0.0000 0.0000 0.0000 19.2871 0.0000 9.1228
# 5 -0.9266 6.3643 21.6417 0.0000 27.9355 0.0000
# 6 0.0000 0.0000 0.0000 9.1228 0.0000 15.6206
#
#
#
# Elastic Compliance Matrix: (Units=1/GPa)
#
#
# Indices 1 2 3 4 5 6 
#
# 1 0.014763 -0.006937 -0.009238 0.000000 0.009227 0.000000
# 2 -0.006937 0.109840 -0.011883 0.000000 -0.016048 0.000000
# 3 -0.009238 -0.011883 0.016719 0.000000 -0.010551 0.000000
# 4 0.000000 0.000000 0.000000 0.071637 0.000000 -0.041838
# 5 0.009227 -0.016048 -0.010551 0.000000 0.047933 0.000000
# 6 0.000000 0.000000 0.000000 -0.041838 0.000000 0.088452
#
#
# Mechanical properties :
#
#
# Convention : Reuss Voigt Hill
#
# Bulk Modulus (GPa) = 11.73618 57.57175 34.65397
# Shear Modulus (GPa) = 11.52441 22.86256 17.19348
#
# Velocity S-wave (km/s) = 2.59529 3.65544 3.17000
# Velocity P-wave (km/s) = 3.97996 7.17389 5.80106
#
# Compressibility (1/GPa) = 0.08520657
#
# Stress axis : x y z
#
# Youngs Moduli (GPa) = 67.73563 9.10418 59.81284
#
# Poissons Ratio (x) = 0.06315 0.55254
# Poissons Ratio (y) = 0.46986 0.71077
# Poissons Ratio (z) = 0.62573 0.10819
#
# Static dielectric constant tensor:
#      x y z
#    x 3.442460 0.000000 -0.142520 
#    y 0.000000 2.541770 0.000000 
#    z -0.142520 0.000000 3.450130 
# 
# 
# High freq. dielectric constant tensor:
#      x y z
#    x 1.657620 0.000000 0.006050 
#    y 0.000000 1.593890 0.000000 
#    z 0.006050 0.000000 1.667270 
# 
# From -- ./inp_files/140402.got.cif
#   From: 2010.06.25/outbox.cif.g09.slc.cpg/sg12_71_cif.got.tgz:140402.got - 2010.06.28 00:19:55.
