data_PCOD8078043
_publ_section_title
;
Structure prediction by ZEFSAII (Michael W. Deem and Ramdas Pophale) SiO2 
 PCOD8078043
Probable space group: C 2/M
;
_chemical_formula_sum "Si O2"
_cell_formula_units_Z 56
_cell_length_a 5.311164
_cell_length_b 26.165508
_cell_length_c 27.833531
_cell_angle_alpha 90.000000
_cell_angle_beta 95.474542
_cell_angle_gamma 90.000000
_cell_volume 3850.363246
_symmetry_space_group_name_H-M "C 2/M"
_symmetry_group_IT_number 12
_symmetry_cell_setting 'monoclinic'
loop_
_space_group_symop_operation_xyz
x,y,z
-x,y,-z
-x,-y,-z
x,-y,z
1/2+x,1/2+y,z
1/2-x,1/2+y,-z
1/2-x,1/2-y,-z
1/2+x,1/2-y,z
loop_
_atom_site_type_symbol
_atom_site_label
_atom_site_fract_x
_atom_site_fract_y
_atom_site_fract_z
Si Si1 0.971313 0.614781 0.942623
Si Si2 0.557712 0.216574 0.115359
Si Si3 0.662644 0.810420 0.325273
Si Si4 0.182680 0.194999 0.365348
Si Si5 0.111228 0.717390 0.222429
Si Si6 0.239767 0.193356 0.479533
Si Si7 0.528705 0.442382 0.057412
O O1 0.712415 0.585888 0.923468
O O2 0.961729 0.672062 0.923457
O O3 0.211060 0.585889 0.923468
O O4 0.000000 0.617355 0.000000
O O5 0.803685 0.249992 0.107255
O O6 0.584670 0.191706 0.169313
O O7 0.422859 0.835645 0.347958
O O8 0.669937 0.750416 0.339857
O O9 0.633804 0.821353 0.267589
O O10 0.925113 0.835645 0.347957
O O11 0.211227 0.198271 0.422448
O O12 0.364057 0.749999 0.228082
O O13 0.500000 0.164740 0.500000
O O14 0.250000 0.250000 0.500000
O O15 0.000000 0.164740 0.500000
O O16 0.538884 0.500000 0.077767
O O17 0.500000 0.443169 0.000000
#
# Coordination Sequence:
#
# PCOD8078043 Si02
#       7
#     8   8   8   8   8   8   8
#     4  10  19  31  46  65  87 109 134 162 190 231
#     4  10  21  31  43  58  81 112 140 162 190 229
#     4  10  14  22  31  43  53  68  98 140 174 202
#     4  10  16  20  31  42  52  69  97 131 173 212
#     4  10  16  27  37  49  64  85 116 153 186 211
#     4  10  16  22  26  35  53  72  88 113 158 222
#     4   9  17  30  49  69  86 103 126 160 201 235
#
# _framework density 14.544082
#
# number of rings (size 3 to 8) (size 9 to 14) (size 15 to 20)
#    0.000    2.143    2.857    5.571    0.000    2.286 
#    0.000    0.000    0.000    0.000    0.000    0.000 
#    0.000    0.000    0.000    0.000    0.000    0.000 
#
# Total GULP energy -346903.633868 kJ/mol
# GULP energy per Si atom -12389.415495 kJ/mol
# Density = 1.451098 g / cm^3
# Si number density = 14.544082 Si / 1000 Ang^3
#
#
#
# Elastic Constant Matrix: (Units=GPa)
#
#
# Indices 1 2 3 4 5 6 
#
# 1 169.2825 31.6807 30.7818 0.0000 2.9778 0.0000
# 2 31.6807 46.8358 22.9131 0.0000 0.2682 0.0000
# 3 30.7818 22.9131 49.2817 0.0000 0.5469 0.0000
# 4 0.0000 0.0000 0.0000 0.2581 0.0000 0.3643
# 5 2.9778 0.2682 0.5469 0.0000 18.6033 0.0000
# 6 0.0000 0.0000 0.0000 0.3643 0.0000 12.7380
#
#
#
# Elastic Compliance Matrix: (Units=1/GPa)
#
#
# Indices 1 2 3 4 5 6 
#
# 1 0.007075 -0.003396 -0.002829 0.000000 -0.001000 0.000000
# 2 -0.003396 0.029268 -0.011492 0.000000 0.000460 0.000000
# 3 -0.002829 -0.011492 0.027404 0.000000 -0.000187 0.000000
# 4 0.000000 0.000000 0.000000 4.038168 0.000000 -0.115494
# 5 -0.001000 0.000460 -0.000187 0.000000 0.053913 0.000000
# 6 0.000000 0.000000 0.000000 -0.115494 0.000000 0.081808
#
#
# Mechanical properties :
#
#
# Convention : Reuss Voigt Hill
#
# Bulk Modulus (GPa) = 35.31971 48.46123 41.89047
# Shear Modulus (GPa) = 1.16754 18.32150 9.74452
#
# Velocity S-wave (km/s) = 0.89694 3.55311 2.59124
# Velocity P-wave (km/s) = 5.04083 7.08698 6.14961
#
# Compressibility (1/GPa) = 0.02831281
#
# Stress axis : x y z
#
# Youngs Moduli (GPa) = 141.34636 34.16757 36.49153
#
# Poissons Ratio (x) = 0.11603 0.10324
# Poissons Ratio (y) = 0.47998 0.41935
# Poissons Ratio (z) = 0.39988 0.39264
#
# Static dielectric constant tensor:
#      x y z
#    x 3.240010 0.000000 0.009080 
#    y 0.000000 2.184080 0.000000 
#    z 0.009080 0.000000 2.929150 
# 
# 
# High freq. dielectric constant tensor:
#      x y z
#    x 1.600360 0.000000 0.001310 
#    y 0.000000 1.456770 0.000000 
#    z 0.001310 0.000000 1.555670 
# 
# From -- ./inp_files/355027.got.cif
#   From: 2010.06.25/outbox.cif.g09.slc.cpg/sg12_178_cif.got.tgz:355027.got - 2010.06.28 00:19:55.
