data_PCOD8078501
_publ_section_title
;
Structure prediction by ZEFSAII (Michael W. Deem and Ramdas Pophale) SiO2 
 PCOD8078501
Probable space group: C 2/M
;
_chemical_formula_sum "Si O2"
_cell_formula_units_Z 48
_cell_length_a 24.844457
_cell_length_b 9.381337
_cell_length_c 14.425342
_cell_angle_alpha 90.000000
_cell_angle_beta 68.115455
_cell_angle_gamma 90.000000
_cell_volume 3119.886372
_symmetry_space_group_name_H-M "C 2/M"
_symmetry_group_IT_number 12
_symmetry_cell_setting 'monoclinic'
loop_
_space_group_symop_operation_xyz
x,y,z
-x,y,-z
-x,-y,-z
x,-y,z
1/2+x,1/2+y,z
1/2-x,1/2+y,-z
1/2-x,1/2-y,-z
1/2+x,1/2-y,z
loop_
_atom_site_type_symbol
_atom_site_label
_atom_site_fract_x
_atom_site_fract_y
_atom_site_fract_z
Si Si1 0.522087 0.667511 0.272759
Si Si2 0.459096 0.331467 0.947241
Si Si3 0.831825 0.166329 0.002272
Si Si4 0.209930 0.337571 0.143652
Si Si5 0.558921 0.657565 0.520492
Si Si6 0.611869 0.164616 0.338851
O O1 0.537793 0.500000 0.272984
O O2 0.517463 0.714772 0.168886
O O3 0.459805 0.699031 0.362358
O O4 0.572325 0.758079 0.288523
O O5 0.461680 0.500000 0.955083
O O6 0.392764 0.277857 0.005113
O O7 0.500000 0.261320 0.000000
O O8 0.821083 0.239005 0.910972
O O9 0.837375 0.000000 0.976970
O O10 0.778669 0.199822 0.107065
O O11 0.202682 0.500000 0.113932
O O12 0.178824 0.317067 0.263184
O O13 0.500000 0.660532 0.500000
O O14 0.586921 0.500000 0.499951
O O15 0.604741 0.767079 0.445911
O O16 0.593535 0.000000 0.356449
#
# Coordination Sequence:
#
# PCOD8078501 Si02
#       6
#     8   8   8   8   8   8
#     4   9  16  27  40  56  80 106 132 164 199 235
#     4   9  16  26  43  64  81 102 136 172 202 234
#     4   9  16  27  42  58  79 107 135 163 199 239
#     4   9  17  26  38  59  84 107 131 162 198 239
#     4   8  15  25  37  54  78 105 132 161 196 239
#     4  10  17  24  37  58  83 106 131 161 195 239
#
# _framework density 15.385175
#
# number of rings (size 3 to 8) (size 9 to 14) (size 15 to 20)
#    0.000    3.000    1.667    1.500    0.000    3.667 
#    0.000    0.000    0.000    2.000    0.000    1.167 
#    0.000    0.000    0.000    0.000    0.000    0.000 
#
# Total GULP energy -297360.350247 kJ/mol
# GULP energy per Si atom -12390.014594 kJ/mol
# Density = 1.535016 g / cm^3
# Si number density = 15.385175 Si / 1000 Ang^3
#
#
#
# Elastic Constant Matrix: (Units=GPa)
#
#
# Indices 1 2 3 4 5 6 
#
# 1 86.3214 25.7386 58.5873 0.0000 -10.9384 0.0000
# 2 25.7386 50.3235 40.7647 0.0000 -10.2593 0.0000
# 3 58.5873 40.7647 129.0514 0.0000 -21.2062 0.0000
# 4 0.0000 0.0000 0.0000 18.6936 0.0000 -5.0580
# 5 -10.9384 -10.2593 -21.2062 0.0000 21.9079 0.0000
# 6 0.0000 0.0000 0.0000 -5.0580 0.0000 10.9004
#
#
#
# Elastic Compliance Matrix: (Units=1/GPa)
#
#
# Indices 1 2 3 4 5 6 
#
# 1 0.017151 -0.003256 -0.006661 0.000000 0.000591 0.000000
# 2 -0.003256 0.027823 -0.006465 0.000000 0.005146 0.000000
# 3 -0.006661 -0.006465 0.013997 0.000000 0.007196 0.000000
# 4 0.000000 0.000000 0.000000 0.061175 0.000000 0.028387
# 5 0.000591 0.005146 0.007196 0.000000 0.055316 0.000000
# 6 0.000000 0.000000 0.000000 0.028387 0.000000 0.104912
#
#
# Mechanical properties :
#
#
# Convention : Reuss Voigt Hill
#
# Bulk Modulus (GPa) = 38.15654 57.31973 47.73814
# Shear Modulus (GPa) = 15.53409 19.67409 17.60409
#
# Velocity S-wave (km/s) = 3.18099 3.57987 3.38631
# Velocity P-wave (km/s) = 6.19244 7.37730 6.81069
#
# Compressibility (1/GPa) = 0.02620783
#
# Stress axis : x y z
#
# Youngs Moduli (GPa) = 58.30549 35.94181 71.44271
#
# Poissons Ratio (x) = 0.11703 0.47585
# Poissons Ratio (y) = 0.18985 0.46187
# Poissons Ratio (z) = 0.38835 0.23236
#
# Static dielectric constant tensor:
#      x y z
#    x 2.843580 0.000000 -0.286550 
#    y 0.000000 2.886300 0.000000 
#    z -0.286550 0.000000 3.358920 
# 
# 
# High freq. dielectric constant tensor:
#      x y z
#    x 1.540480 0.000000 -0.032820 
#    y 0.000000 1.578760 0.000000 
#    z -0.032820 0.000000 1.595940 
# 
# From -- ./inp_files/236579.got.cif
#   From: 2010.06.25/outbox.cif.g09.slc.cpg/sg12_119_cif.got.tgz:236579.got - 2010.06.28 00:19:55.
