data_PCOD8078188
_publ_section_title
;
Structure prediction by ZEFSAII (Michael W. Deem and Ramdas Pophale) SiO2 
 PCOD8078188
Probable space group: C 2/M
;
_chemical_formula_sum "Si O2"
_cell_formula_units_Z 56
_cell_length_a 17.187348
_cell_length_b 14.856788
_cell_length_c 14.618564
_cell_angle_alpha 90.000000
_cell_angle_beta 105.283929
_cell_angle_gamma 90.000000
_cell_volume 3600.807482
_symmetry_space_group_name_H-M "C 2/M"
_symmetry_group_IT_number 12
_symmetry_cell_setting 'monoclinic'
loop_
_space_group_symop_operation_xyz
x,y,z
-x,y,-z
-x,-y,-z
x,-y,z
1/2+x,1/2+y,z
1/2-x,1/2+y,-z
1/2-x,1/2-y,-z
1/2+x,1/2-y,z
loop_
_atom_site_type_symbol
_atom_site_label
_atom_site_fract_x
_atom_site_fract_y
_atom_site_fract_z
Si Si1 0.259630 0.098370 0.159284
Si Si2 0.771177 0.783544 0.221356
Si Si3 0.132771 0.173038 0.239578
Si Si4 0.394289 0.394845 0.379300
Si Si5 0.300953 0.396822 0.062822
Si Si6 0.423066 0.604784 0.594221
Si Si7 0.515474 0.397201 0.898368
O O1 0.311526 0.184481 0.210968
O O2 0.178663 0.094127 0.196783
O O3 0.302909 0.000000 0.181060
O O4 0.236466 0.119189 0.047872
O O5 0.682048 0.766436 0.238072
O O6 0.827741 0.836678 0.307555
O O7 0.754304 0.837639 0.123035
O O8 0.130071 0.157029 0.347590
O O9 0.041397 0.172542 0.173672
O O10 0.373696 0.500000 0.361460
O O11 0.481987 0.373843 0.364442
O O12 0.392713 0.365974 0.484820
O O13 0.292508 0.500000 0.089372
O O14 0.393859 0.366732 0.094248
O O15 0.408519 0.500000 0.603778
O O16 0.500996 0.500000 0.860165
O O17 0.500000 0.389046 0.000000
#
# Coordination Sequence:
#
# PCOD8078188 Si02
#       7
#     8   8   8   8   8   8   8
#     4   9  18  29  42  64  96 125 154 186 220 268
#     4  10  20  28  43  67  98 126 152 184 226 281
#     4  10  19  26  43  64  99 121 150 182 225 270
#     4   9  18  33  50  72  95 118 149 185 231 287
#     4  10  18  30  47  66  95 127 154 189 232 275
#     4   9  17  31  52  71  92 119 147 188 239 283
#     4  10  16  25  43  67  91 116 148 188 230 270
#
# _framework density 15.552068
#
# number of rings (size 3 to 8) (size 9 to 14) (size 15 to 20)
#    0.857    1.571    1.429    3.857    0.000    2.857 
#    0.000    0.000    0.000    0.000    0.000   10.000 
#    0.000   16.571    0.000    0.286    0.000    0.000 
#
# Total GULP energy -346884.280951 kJ/mol
# GULP energy per Si atom -12388.724320 kJ/mol
# Density = 1.551667 g / cm^3
# Si number density = 15.552068 Si / 1000 Ang^3
#
#
#
# Elastic Constant Matrix: (Units=GPa)
#
#
# Indices 1 2 3 4 5 6 
#
# 1 56.4708 35.6927 38.6117 0.0000 -8.9632 0.0000
# 2 35.6927 73.7792 41.7656 0.0000 2.8695 0.0000
# 3 38.6117 41.7656 89.5135 0.0000 -11.1488 0.0000
# 4 0.0000 0.0000 0.0000 291.2990 0.0000 -3.4129
# 5 -8.9632 2.8695 -11.1488 0.0000 30.6071 0.0000
# 6 0.0000 0.0000 0.0000 -3.4129 0.0000 26.6756
#
#
#
# Elastic Compliance Matrix: (Units=1/GPa)
#
#
# Indices 1 2 3 4 5 6 
#
# 1 0.030847 -0.011154 -0.007172 0.000000 0.007467 0.000000
# 2 -0.011154 0.023241 -0.007030 0.000000 -0.008006 0.000000
# 3 -0.007172 -0.007030 0.018191 0.000000 0.005185 0.000000
# 4 0.000000 0.000000 0.000000 0.003438 0.000000 0.000440
# 5 0.007467 -0.008006 0.005185 0.000000 0.037498 0.000000
# 6 0.000000 0.000000 0.000000 0.000440 0.000000 0.037544
#
#
# Mechanical properties :
#
#
# Convention : Reuss Voigt Hill
#
# Bulk Modulus (GPa) = 46.36470 50.21151 48.28810
# Shear Modulus (GPa) = 23.96276 76.62923 50.29599
#
# Velocity S-wave (km/s) = 3.92957 7.02707 5.69303
# Velocity P-wave (km/s) = 7.10394 9.90937 8.62153
#
# Compressibility (1/GPa) = 0.02156813
#
# Stress axis : x y z
#
# Youngs Moduli (GPa) = 32.41840 43.02810 54.97291
#
# Poissons Ratio (x) = 0.47991 0.39425
# Poissons Ratio (y) = 0.36158 0.38645
# Poissons Ratio (z) = 0.23249 0.30248
#
# Static dielectric constant tensor:
#      x y z
#    x 2.917200 0.000000 -0.240460 
#    y 0.000000 2.795240 0.000000 
#    z -0.240460 0.000000 3.078060 
# 
# 
# High freq. dielectric constant tensor:
#      x y z
#    x 1.567600 0.000000 -0.015830 
#    y 0.000000 1.572450 0.000000 
#    z -0.015830 0.000000 1.609460 
# 
# From -- ./inp_files/224354.got.cif
#   From: 2010.06.25/outbox.cif.g09.slc.cpg/sg12_113_cif.got.tgz:224354.got - 2010.06.28 00:19:55.
