data_PCOD8078632
_publ_section_title
;
Structure prediction by ZEFSAII (Michael W. Deem and Ramdas Pophale) SiO2 
 PCOD8078632
Probable space group: C 2/M
;
_chemical_formula_sum "Si O2"
_cell_formula_units_Z 56
_cell_length_a 27.808469
_cell_length_b 9.419988
_cell_length_c 14.414480
_cell_angle_alpha 90.000000
_cell_angle_beta 74.446349
_cell_angle_gamma 90.000000
_cell_volume 3637.675384
_symmetry_space_group_name_H-M "C 2/M"
_symmetry_group_IT_number 12
_symmetry_cell_setting 'monoclinic'
loop_
_space_group_symop_operation_xyz
x,y,z
-x,y,-z
-x,-y,-z
x,-y,z
1/2+x,1/2+y,z
1/2-x,1/2+y,-z
1/2-x,1/2-y,-z
1/2+x,1/2-y,z
loop_
_atom_site_type_symbol
_atom_site_label
_atom_site_fract_x
_atom_site_fract_y
_atom_site_fract_z
Si Si1 0.715688 0.339813 0.889351
Si Si2 0.364859 0.666786 0.928486
Si Si3 0.867334 0.160336 0.219262
Si Si4 0.690536 0.334463 0.216742
Si Si5 0.055494 0.168981 0.974137
Si Si6 0.181407 0.664878 0.603042
Si Si7 0.795626 0.836170 0.584534
O O1 0.733696 0.500000 0.900272
O O2 0.682928 0.336169 0.813779
O O3 0.763251 0.242754 0.852944
O O4 0.683413 0.275262 0.991020
O O5 0.365678 0.500000 0.947576
O O6 0.358372 0.700853 0.821918
O O7 0.415981 0.727584 0.947710
O O8 0.914035 0.215084 0.133517
O O9 0.860358 0.264153 0.310203
O O10 0.877218 0.000000 0.249854
O O11 0.703371 0.500000 0.207015
O O12 0.681514 0.289167 0.327825
O O13 0.052361 0.000000 0.979084
O O14 0.000000 0.235816 0.000000
O O15 0.168696 0.500000 0.598704
O O16 0.177833 0.737344 0.504317
O O17 0.236232 0.689452 0.617541
O O18 0.807436 0.000000 0.555063
#
# Coordination Sequence:
#
# PCOD8078632 Si02
#       7
#     8   8   8   8   8   8   8
#     4   9  16  25  37  56  83 113 141 164 193 237
#     4   8  15  25  38  58  83 110 137 167 202 241
#     4   9  16  26  42  62  85 111 138 172 207 241
#     4  10  17  26  39  57  83 112 140 168 201 238
#     4   8  14  26  44  66  88 109 136 169 207 250
#     4  10  18  28  41  58  80 110 145 176 206 244
#     4   9  18  28  38  55  81 113 144 173 205 239
#
# _framework density 15.394447
#
# number of rings (size 3 to 8) (size 9 to 14) (size 15 to 20)
#    0.000    3.000    1.429    2.571    0.000    1.143 
#    0.000    0.000    0.000    0.429    0.000    1.000 
#    0.000    8.000    0.000    0.000    0.000    0.000 
#
# Total GULP energy -346985.789946 kJ/mol
# GULP energy per Si atom -12392.349641 kJ/mol
# Density = 1.535941 g / cm^3
# Si number density = 15.394447 Si / 1000 Ang^3
#
#
#
# Elastic Constant Matrix: (Units=GPa)
#
#
# Indices 1 2 3 4 5 6 
#
# 1 85.3896 27.2357 62.1466 0.0000 5.1703 0.0000
# 2 27.2357 44.1749 43.4278 0.0000 4.7918 0.0000
# 3 62.1466 43.4278 115.4497 0.0000 16.5312 0.0000
# 4 0.0000 0.0000 0.0000 19.7486 0.0000 -0.8320
# 5 5.1703 4.7918 16.5312 0.0000 20.1495 0.0000
# 6 0.0000 0.0000 0.0000 -0.8320 0.0000 9.3651
#
#
#
# Elastic Compliance Matrix: (Units=1/GPa)
#
#
# Indices 1 2 3 4 5 6 
#
# 1 0.019725 -0.002532 -0.010228 0.000000 0.003932 0.000000
# 2 -0.002532 0.036394 -0.012669 0.000000 0.002389 0.000000
# 3 -0.010228 -0.012669 0.020539 0.000000 -0.011213 0.000000
# 4 0.000000 0.000000 0.000000 0.050827 0.000000 0.004516
# 5 0.003932 0.002389 -0.011213 0.000000 0.057252 0.000000
# 6 0.000000 0.000000 0.000000 0.004516 0.000000 0.107181
#
#
# Mechanical properties :
#
#
# Convention : Reuss Voigt Hill
#
# Bulk Modulus (GPa) = 38.76196 56.73716 47.74956
# Shear Modulus (GPa) = 14.22976 17.33292 15.78134
#
# Velocity S-wave (km/s) = 3.04360 3.35911 3.20524
# Velocity P-wave (km/s) = 6.13068 7.20975 6.69200
#
# Compressibility (1/GPa) = 0.02579849
#
# Stress axis : x y z
#
# Youngs Moduli (GPa) = 50.69743 27.47687 48.68794
#
# Poissons Ratio (x) = 0.06958 0.49800
# Poissons Ratio (y) = 0.12838 0.61683
# Poissons Ratio (z) = 0.51855 0.34811
#
# Static dielectric constant tensor:
#      x y z
#    x 2.940810 0.000000 0.162130 
#    y 0.000000 2.745070 0.000000 
#    z 0.162130 0.000000 2.990990 
# 
# 
# High freq. dielectric constant tensor:
#      x y z
#    x 1.553070 0.000000 0.017000 
#    y 0.000000 1.567080 0.000000 
#    z 0.017000 0.000000 1.588510 
# 
# From -- ./inp_files/243004.got.cif
#   From: 2010.06.25/outbox.cif.g09.slc.cpg/sg12_122_cif.got.tgz:243004.got - 2010.06.28 00:19:55.
