data_PCOD8078463
_publ_section_title
;
Structure prediction by ZEFSAII (Michael W. Deem and Ramdas Pophale) SiO2 
 PCOD8078463
Probable space group: C 2/M
;
_chemical_formula_sum "Si O2"
_cell_formula_units_Z 40
_cell_length_a 14.569605
_cell_length_b 13.989504
_cell_length_c 14.763754
_cell_angle_alpha 90.000000
_cell_angle_beta 38.228251
_cell_angle_gamma 90.000000
_cell_volume 1862.062506
_symmetry_space_group_name_H-M "C 2/M"
_symmetry_group_IT_number 12
_symmetry_cell_setting 'monoclinic'
loop_
_space_group_symop_operation_xyz
x,y,z
-x,y,-z
-x,-y,-z
x,-y,z
1/2+x,1/2+y,z
1/2-x,1/2+y,-z
1/2-x,1/2-y,-z
1/2+x,1/2-y,z
loop_
_atom_site_type_symbol
_atom_site_label
_atom_site_fract_x
_atom_site_fract_y
_atom_site_fract_z
Si Si1 0.500000 0.339974 0.000000
Si Si2 0.316487 0.500000 0.064459
Si Si3 0.818660 0.000000 0.542352
Si Si4 0.450501 0.792127 0.895609
Si Si5 0.480996 0.000000 0.817649
Si Si6 0.440880 0.500000 0.778148
Si Si7 0.863826 0.794668 0.785256
Si Si8 0.000000 0.841346 0.500000
O O1 0.355250 0.405117 0.090402
O O2 0.438045 0.271156 0.129862
O O3 0.145334 0.500000 0.162907
O O4 0.434213 0.500000 0.890808
O O5 0.890567 0.000000 0.386861
O O6 0.868578 0.093684 0.559652
O O7 0.646237 0.000000 0.650471
O O8 0.467134 0.906063 0.891102
O O9 0.468824 0.758679 0.777285
O O10 0.299014 0.756991 0.063499
O O11 0.356738 0.408547 0.803786
O O12 0.926041 0.774661 0.635642
#
# Coordination Sequence:
#
# PCOD8078463 Si02
#       8
#     4   4   4   8   4   4   8   4
#     4  11  24  37  64 104 122 169 216 269 314 400
#     4  11  20  42  69  91 131 168 217 264 330 380
#     4   9  22  37  61  94 131 165 219 259 330 390
#     4  11  22  37  62  98 132 157 223 265 324 371
#     4  12  24  42  62  96 131 176 204 283 323 367
#     4  10  16  40  65  88 122 180 201 256 329 393
#     4  10  19  38  65  92 126 172 207 270 318 392
#     4   9  20  40  64  93 128 170 218 263 326 397
#
# _framework density 21.481556999999999
#
# number of rings (size 3 to 8) (size 9 to 14) (size 15 to 20)
#    0.000    1.600    4.000    1.800    2.800    0.400 
#    0.000    6.000    0.000    3.000    0.000    0.000 
#    0.000    0.000    0.000    0.000    0.000    0.000 
#
# Total GULP energy -247788.086592 kJ/mol
# GULP energy per Si atom -12389.404330 kJ/mol
# Density = 2.143266 g / cm^3
# Si number density = 21.481557 Si / 1000 Ang^3
#
#
#
# Elastic Constant Matrix: (Units=GPa)
#
#
# Indices 1 2 3 4 5 6 
#
# 1 118.4304 49.2367 63.6692 0.0000 3.7026 0.0000
# 2 49.2367 127.4684 21.4759 0.0000 11.3233 0.0000
# 3 63.6692 21.4759 137.3277 -0.0001 20.6441 0.0000
# 4 0.0000 0.0000 -0.0001 8.8798 0.0000 2.3082
# 5 3.7026 11.3233 20.6441 0.0000 46.1000 0.0000
# 6 0.0000 0.0000 0.0000 2.3082 0.0000 26.7850
#
#
#
# Elastic Compliance Matrix: (Units=1/GPa)
#
#
# Indices 1 2 3 4 5 6 
#
# 1 0.013368 -0.004404 -0.005908 0.000000 0.002654 0.000000
# 2 -0.004404 0.009608 0.000901 0.000000 -0.002410 0.000000
# 3 -0.005908 0.000901 0.010552 0.000000 -0.004472 0.000000
# 4 0.000000 0.000000 0.000000 0.115196 0.000000 -0.009927
# 5 0.002654 -0.002410 -0.004472 0.000000 0.024074 0.000000
# 6 0.000000 0.000000 0.000000 -0.009927 0.000000 0.038190
#
#
# Mechanical properties :
#
#
# Convention : Reuss Voigt Hill
#
# Bulk Modulus (GPa) = 67.99136 72.44336 70.21736
# Shear Modulus (GPa) = 21.30278 32.94260 27.12269
#
# Velocity S-wave (km/s) = 3.15251 3.92028 3.55717
# Velocity P-wave (km/s) = 6.70603 7.36805 7.04482
#
# Compressibility (1/GPa) = 0.01470775
#
# Stress axis : x y z
#
# Youngs Moduli (GPa) = 74.80605 104.07581 94.76605
#
# Poissons Ratio (x) = 0.45834 0.55988
# Poissons Ratio (y) = 0.32944 -0.08543
# Poissons Ratio (z) = 0.44195 -0.09382
#
# Static dielectric constant tensor:
#      x y z
#    x 3.897490 0.000000 0.196220 
#    y 0.000000 3.937080 0.000000 
#    z 0.196220 0.000000 3.851890 
# 
# 
# High freq. dielectric constant tensor:
#      x y z
#    x 1.835630 0.000000 0.011360 
#    y 0.000000 1.851340 0.000000 
#    z 0.011360 0.000000 1.810580 
# 
# From -- ./inp_files/214631.got.cif
#   From: 2010.06.25/outbox.cif.g09.slc.cpg/sg12_108_cif.got.tgz:214631.got - 2010.06.28 00:19:55.
