data_PCOD8078371
_publ_section_title
;
Structure prediction by ZEFSAII (Michael W. Deem and Ramdas Pophale) SiO2 
 PCOD8078371
Probable space group: C 2/M
;
_chemical_formula_sum "Si O2"
_cell_formula_units_Z 40
_cell_length_a 27.811747
_cell_length_b 17.580852
_cell_length_c 9.936689
_cell_angle_alpha 90.000000
_cell_angle_beta 153.249299
_cell_angle_gamma 90.000000
_cell_volume 2186.895020
_symmetry_space_group_name_H-M "C 2/M"
_symmetry_group_IT_number 12
_symmetry_cell_setting 'monoclinic'
loop_
_space_group_symop_operation_xyz
x,y,z
-x,y,-z
-x,-y,-z
x,-y,z
1/2+x,1/2+y,z
1/2-x,1/2+y,-z
1/2-x,1/2-y,-z
1/2+x,1/2-y,z
loop_
_atom_site_type_symbol
_atom_site_label
_atom_site_fract_x
_atom_site_fract_y
_atom_site_fract_z
Si Si1 0.772870 0.213763 0.199686
Si Si2 0.927319 0.622100 0.934515
Si Si3 0.005202 0.795901 0.862713
Si Si4 0.727016 0.686181 0.333379
Si Si5 0.897912 0.414905 0.160628
O O1 0.755309 0.282511 0.258197
O O2 0.895584 0.185991 0.511288
O O3 0.750000 0.250000 0.000000
O O4 0.698419 0.142498 0.050313
O O5 0.807076 0.618277 0.572640
O O6 0.971801 0.706274 0.074765
O O7 0.928536 0.579393 0.079593
O O8 0.000000 0.582853 0.000000
O O9 0.102519 0.838331 0.028337
O O10 0.000000 0.829488 0.000000
O O11 0.750000 0.750000 0.500000
O O12 0.865175 0.500000 0.125776
O O13 0.000000 0.386017 0.500000
#
# Coordination Sequence:
#
# PCOD8078371 Si02
#       5
#     8   8   8   8   8
#     4  12  22  32  56  85 108 145 194 239 280 327
#     4  10  17  33  58  84 111 143 184 232 286 325
#     4  10  16  30  52  80 109 137 172 238 282 318
#     4  10  17  31  53  83 110 134 174 241 284 321
#     4  11  24  39  53  78 121 156 185 229 287 349
#
# _framework density 18.290773000000002
#
# number of rings (size 3 to 8) (size 9 to 14) (size 15 to 20)
#    0.000    1.400   10.000    1.200    0.000    0.400 
#    0.000    0.000    0.000    5.400    0.000    1.400 
#    0.000    0.000    0.000    0.000    0.000    0.000 
#
# Total GULP energy -247874.318332 kJ/mol
# GULP energy per Si atom -12393.715917 kJ/mol
# Density = 1.824914 g / cm^3
# Si number density = 18.290773 Si / 1000 Ang^3
#
#
#
# Elastic Constant Matrix: (Units=GPa)
#
#
# Indices 1 2 3 4 5 6 
#
# 1 120.3952 12.1155 66.6300 0.0000 -4.2062 0.0000
# 2 12.1155 37.3238 26.0111 0.0000 0.9378 0.0000
# 3 66.6300 26.0111 177.8873 0.0000 13.8504 0.0000
# 4 0.0000 0.0000 0.0000 6.1987 0.0000 0.5070
# 5 -4.2062 0.9378 13.8504 0.0000 43.3126 0.0000
# 6 0.0000 0.0000 0.0000 0.5070 0.0000 8.8867
#
#
#
# Elastic Compliance Matrix: (Units=1/GPa)
#
#
# Indices 1 2 3 4 5 6 
#
# 1 0.010728 -0.000683 -0.004103 0.000000 0.002369 0.000000
# 2 -0.000683 0.029901 -0.004165 0.000000 0.000618 0.000000
# 3 -0.004103 -0.004165 0.007990 0.000000 -0.002863 0.000000
# 4 0.000000 0.000000 0.000000 0.162082 0.000000 -0.009247
# 5 0.002369 0.000618 -0.002863 0.000000 0.024220 0.000000
# 6 0.000000 0.000000 0.000000 -0.009247 0.000000 0.113056
#
#
# Mechanical properties :
#
#
# Convention : Reuss Voigt Hill
#
# Bulk Modulus (GPa) = 32.55312 60.56882 46.56097
# Shear Modulus (GPa) = 13.29374 27.06956 20.18165
#
# Velocity S-wave (km/s) = 2.69885 3.85119 3.32532
# Velocity P-wave (km/s) = 5.24861 7.27749 6.34468
#
# Compressibility (1/GPa) = 0.03071902
#
# Stress axis : x y z
#
# Youngs Moduli (GPa) = 93.21296 33.44371 125.15216
#
# Poissons Ratio (x) = 0.02283 0.51350
# Poissons Ratio (y) = 0.06362 0.52122
# Poissons Ratio (z) = 0.38245 0.13928
#
# Static dielectric constant tensor:
#      x y z
#    x 3.866010 0.000000 0.375640 
#    y 0.000000 2.817850 0.000000 
#    z 0.375640 0.000000 3.899760 
# 
# 
# High freq. dielectric constant tensor:
#      x y z
#    x 1.721640 0.000000 0.005470 
#    y 0.000000 1.645410 0.000000 
#    z 0.005470 0.000000 1.724500 
# 
# From -- ./inp_files/61377.got.cif
#   From: 2010.06.25/outbox.cif.g09.slc.cpg/sg12_31_cif.got.tgz:61377.got - 2010.06.28 00:19:55.
