data_PCOD8078669
_publ_section_title
;
Structure prediction by ZEFSAII (Michael W. Deem and Ramdas Pophale) SiO2 
 PCOD8078669
Probable space group: C 2/M
;
_chemical_formula_sum "Si O2"
_cell_formula_units_Z 64
_cell_length_a 26.913234
_cell_length_b 9.059565
_cell_length_c 23.750011
_cell_angle_alpha 90.000000
_cell_angle_beta 134.914104
_cell_angle_gamma 90.000000
_cell_volume 4100.833676
_symmetry_space_group_name_H-M "C 2/M"
_symmetry_group_IT_number 12
_symmetry_cell_setting 'monoclinic'
loop_
_space_group_symop_operation_xyz
x,y,z
-x,y,-z
-x,-y,-z
x,-y,z
1/2+x,1/2+y,z
1/2-x,1/2+y,-z
1/2-x,1/2-y,-z
1/2+x,1/2-y,z
loop_
_atom_site_type_symbol
_atom_site_label
_atom_site_fract_x
_atom_site_fract_y
_atom_site_fract_z
Si Si1 0.301160 0.331543 0.500376
Si Si2 0.907822 0.827552 0.672687
Si Si3 0.817019 0.674813 0.027305
Si Si4 0.348814 0.673764 0.818573
Si Si5 0.965955 0.666291 0.184203
Si Si6 0.699965 0.174060 0.328643
Si Si7 0.487808 0.164464 0.906850
Si Si8 0.857634 0.328950 0.936369
O O1 0.283312 0.500000 0.496178
O O2 0.250000 0.250000 0.500000
O O3 0.380351 0.298696 0.585942
O O4 0.278158 0.292659 0.417717
O O5 0.860967 0.739481 0.680340
O O6 0.987891 0.771466 0.738790
O O7 0.904944 0.000000 0.685989
O O8 0.808506 0.500000 0.021396
O O9 0.885156 0.720660 0.118681
O O10 0.750000 0.750000 0.000000
O O11 0.826512 0.728905 0.970564
O O12 0.338491 0.500000 0.807580
O O13 0.300915 0.748893 0.732551
O O14 0.430193 0.713725 0.874827
O O15 0.323279 0.733888 0.858786
O O16 0.970732 0.500000 0.211506
O O17 0.994934 0.673615 0.144656
O O18 0.685591 0.000000 0.310100
O O19 0.458791 0.000000 0.897881
O O20 0.558172 0.194696 0.998728
O O21 0.838966 0.500000 0.912967
#
# Coordination Sequence:
#
# PCOD8078669 Si02
#       8
#     8   8   8   8   8   8   8   8
#     4   8  16  27  39  56  80 112 150 185 218 254
#     4  10  17  26  41  64  88 110 146 193 224 249
#     4   9  19  35  53  70  88 113 145 181 221 266
#     4  12  22  28  39  63  90 114 148 192 222 247
#     4   9  17  29  45  65  88 119 151 175 214 270
#     4  10  18  29  42  55  81 124 157 179 216 264
#     4   9  17  30  45  58  81 118 152 178 210 257
#     4   9  19  34  48  62  82 115 150 176 214 269
#
# _framework density 15.606583000000001
#
# number of rings (size 3 to 8) (size 9 to 14) (size 15 to 20)
#    0.000    2.500    1.250    3.750    0.000    4.000 
#    0.000    2.500    0.000    0.000    0.000    0.000 
#    0.000    1.000    0.000   11.250    0.000    5.625 
#
# Total GULP energy -396515.530015 kJ/mol
# GULP energy per Si atom -12391.110313 kJ/mol
# Density = 1.557106 g / cm^3
# Si number density = 15.606583 Si / 1000 Ang^3
#
#
#
# Elastic Constant Matrix: (Units=GPa)
#
#
# Indices 1 2 3 4 5 6 
#
# 1 46.0368 26.4255 40.0621 0.0000 3.8930 0.0000
# 2 26.4255 81.2969 61.9022 0.0000 -1.8486 0.0000
# 3 40.0621 61.9022 148.3409 0.0000 -2.5635 0.0000
# 4 0.0000 0.0000 0.0000 22.7538 0.0000 0.5145
# 5 3.8930 -1.8486 -2.5635 0.0000 14.2211 0.0000
# 6 0.0000 0.0000 0.0000 0.5145 0.0000 19.9204
#
#
#
# Elastic Compliance Matrix: (Units=1/GPa)
#
#
# Indices 1 2 3 4 5 6 
#
# 1 0.031304 -0.005625 -0.006287 0.000000 -0.010434 0.000000
# 2 -0.005625 0.019054 -0.006382 0.000000 0.002866 0.000000
# 3 -0.006287 -0.006382 0.011153 0.000000 0.002902 0.000000
# 4 0.000000 0.000000 0.000000 0.043974 0.000000 -0.001136
# 5 -0.010434 0.002866 0.002902 0.000000 0.074070 0.000000
# 6 0.000000 0.000000 0.000000 -0.001136 0.000000 0.050229
#
#
# Mechanical properties :
#
#
# Convention : Reuss Voigt Hill
#
# Bulk Modulus (GPa) = 40.12665 59.16156 49.64411
# Shear Modulus (GPa) = 18.20286 21.19803 19.70045
#
# Velocity S-wave (km/s) = 3.41890 3.68948 3.55676
# Velocity P-wave (km/s) = 6.43058 7.49267 6.98185
#
# Compressibility (1/GPa) = 0.02492109
#
# Stress axis : x y z
#
# Youngs Moduli (GPa) = 31.94447 52.48209 89.66440
#
# Poissons Ratio (x) = 0.29524 0.56373
# Poissons Ratio (y) = 0.17970 0.57228
# Poissons Ratio (z) = 0.20084 0.33496
#
# Static dielectric constant tensor:
#      x y z
#    x 2.626180 0.000000 0.019610 
#    y 0.000000 2.954710 0.000000 
#    z 0.019610 0.000000 3.690840 
# 
# 
# High freq. dielectric constant tensor:
#      x y z
#    x 1.534170 0.000000 -0.006870 
#    y 0.000000 1.602590 0.000000 
#    z -0.006870 0.000000 1.614590 
# 
# From -- ./inp_files/350969.got.cif
#   From: 2010.06.25/outbox.cif.g09.slc.cpg/sg12_176_cif.got.tgz:350969.got - 2010.06.28 00:19:55.
