data_PCOD8078719
_publ_section_title
;
Structure prediction by ZEFSAII (Michael W. Deem and Ramdas Pophale) SiO2 
 PCOD8078719
Probable space group: C 2/M
;
_chemical_formula_sum "Si O2"
_cell_formula_units_Z 64
_cell_length_a 19.323519
_cell_length_b 8.995373
_cell_length_c 26.505334
_cell_angle_alpha 90.000000
_cell_angle_beta 129.661994
_cell_angle_gamma 90.000000
_cell_volume 3546.742138
_symmetry_space_group_name_H-M "C 2/M"
_symmetry_group_IT_number 12
_symmetry_cell_setting 'monoclinic'
loop_
_space_group_symop_operation_xyz
x,y,z
-x,y,-z
-x,-y,-z
x,-y,z
1/2+x,1/2+y,z
1/2-x,1/2+y,-z
1/2-x,1/2-y,-z
1/2+x,1/2-y,z
loop_
_atom_site_type_symbol
_atom_site_label
_atom_site_fract_x
_atom_site_fract_y
_atom_site_fract_z
Si Si1 0.226676 0.324641 0.606674
Si Si2 0.743647 0.173018 0.168759
Si Si3 0.059812 0.827207 0.076332
Si Si4 0.771077 0.670598 0.723931
Si Si5 0.070664 0.823860 0.793468
Si Si6 0.165453 0.825365 0.486684
Si Si7 0.584798 0.326409 0.349370
Si Si8 0.024774 0.325419 0.161970
O O1 0.215457 0.500000 0.598061
O O2 0.214779 0.271028 0.658637
O O3 0.150958 0.250101 0.534844
O O4 0.323731 0.263877 0.633081
O O5 0.659661 0.268738 0.111038
O O6 0.766500 0.204849 0.237918
O O7 0.828904 0.220975 0.175373
O O8 0.718961 0.000000 0.150740
O O9 0.013973 0.741433 0.101312
O O10 0.064975 0.000000 0.092410
O O11 0.000000 0.795572 0.000000
O O12 0.755858 0.500000 0.702030
O O13 0.876457 0.712335 0.770751
O O14 0.002656 0.759281 0.718962
O O15 0.049733 0.747819 0.836948
O O16 0.061275 0.000000 0.794816
O O17 0.250000 0.750000 0.500000
O O18 0.082630 0.795178 0.409035
O O19 0.182395 0.000000 0.501205
O O20 0.585674 0.500000 0.339484
O O21 0.008076 0.500000 0.150843
#
# Coordination Sequence:
#
# PCOD8078719 Si02
#       8
#     8   8   8   8   8   8   8   8
#     4  10  17  26  43  68  93 126 170 214 261 306
#     4   9  20  35  54  80 108 137 169 209 259 307
#     4  10  21  38  60  82 105 137 174 209 248 298
#     4   9  17  30  46  70 100 130 167 213 258 302
#     4  10  18  33  54  77 108 140 170 209 258 311
#     4   9  16  26  39  62  94 127 165 211 258 306
#     4   8  15  26  43  67  95 128 166 205 251 305
#     4  10  20  33  53  82 109 135 171 212 255 301
#
# _framework density 18.044730000000001
#
# number of rings (size 3 to 8) (size 9 to 14) (size 15 to 20)
#    0.000    2.625    1.250    3.000    0.000    3.500 
#    0.000    1.250    0.000    0.750    0.000    5.250 
#    0.000    0.000    0.000    0.000    0.000    0.000 
#
# Total GULP energy -396671.112411 kJ/mol
# GULP energy per Si atom -12395.972263 kJ/mol
# Density = 1.800366 g / cm^3
# Si number density = 18.044730 Si / 1000 Ang^3
#
#
#
# Elastic Constant Matrix: (Units=GPa)
#
#
# Indices 1 2 3 4 5 6 
#
# 1 106.8006 41.2349 48.6837 0.0000 -11.6873 0.0000
# 2 41.2349 80.0258 51.6640 0.0000 -10.3145 0.0000
# 3 48.6837 51.6640 108.5559 0.0000 -14.1490 0.0000
# 4 0.0000 0.0000 0.0000 29.1086 0.0000 -5.6706
# 5 -11.6873 -10.3145 -14.1490 0.0000 17.8100 0.0000
# 6 0.0000 0.0000 0.0000 -5.6706 0.0000 23.4607
#
#
#
# Elastic Compliance Matrix: (Units=1/GPa)
#
#
# Indices 1 2 3 4 5 6 
#
# 1 0.012825 -0.003959 -0.003424 0.000000 0.003403 0.000000
# 2 -0.003959 0.019526 -0.007119 0.000000 0.003054 0.000000
# 3 -0.003424 -0.007119 0.014842 0.000000 0.005421 0.000000
# 4 0.000000 0.000000 0.000000 0.036052 0.000000 0.008714
# 5 0.003403 0.003054 0.005421 0.000000 0.064458 0.000000
# 6 0.000000 0.000000 0.000000 0.008714 0.000000 0.044731
#
#
# Mechanical properties :
#
#
# Convention : Reuss Voigt Hill
#
# Bulk Modulus (GPa) = 54.97945 64.28306 59.63126
# Shear Modulus (GPa) = 21.97809 24.32917 23.15363
#
# Velocity S-wave (km/s) = 3.49374 3.67586 3.58596
# Velocity P-wave (km/s) = 6.84175 7.32923 7.08968
#
# Compressibility (1/GPa) = 0.01818861
#
# Stress axis : x y z
#
# Youngs Moduli (GPa) = 77.97284 51.21449 67.37676
#
# Poissons Ratio (x) = 0.20278 0.23068
# Poissons Ratio (y) = 0.30873 0.47965
# Poissons Ratio (z) = 0.26695 0.36459
#
# Static dielectric constant tensor:
#      x y z
#    x 3.151340 0.000000 -0.170290 
#    y 0.000000 3.252360 0.000000 
#    z -0.170290 0.000000 3.529000 
# 
# 
# High freq. dielectric constant tensor:
#      x y z
#    x 1.665390 0.000000 -0.020350 
#    y 0.000000 1.694250 0.000000 
#    z -0.020350 0.000000 1.699050 
# 
# From -- ./inp_files/365233.got.cif
#   From: 2010.06.25/outbox.cif.g09.slc.cpg/sg12_183_cif.got.tgz:365233.got - 2010.06.28 00:19:55.
