data_PCOD8078505
_publ_section_title
;
Structure prediction by ZEFSAII (Michael W. Deem and Ramdas Pophale) SiO2 
 PCOD8078505
Probable space group: C 2/M
;
_chemical_formula_sum "Si O2"
_cell_formula_units_Z 64
_cell_length_a 22.573634
_cell_length_b 8.838340
_cell_length_c 23.309874
_cell_angle_alpha 90.000000
_cell_angle_beta 54.277327
_cell_angle_gamma 90.000000
_cell_volume 3775.628591
_symmetry_space_group_name_H-M "C 2/M"
_symmetry_group_IT_number 12
_symmetry_cell_setting 'monoclinic'
loop_
_space_group_symop_operation_xyz
x,y,z
-x,y,-z
-x,-y,-z
x,-y,z
1/2+x,1/2+y,z
1/2-x,1/2+y,-z
1/2-x,1/2-y,-z
1/2+x,1/2-y,z
loop_
_atom_site_type_symbol
_atom_site_label
_atom_site_fract_x
_atom_site_fract_y
_atom_site_fract_z
Si Si1 0.347516 0.825133 0.129933
Si Si2 0.854970 0.325242 0.297042
Si Si3 0.560530 0.678851 0.536195
Si Si4 0.046522 0.174927 0.844161
Si Si5 0.677122 0.322702 0.564786
Si Si6 0.556302 0.831981 0.020810
Si Si7 0.726398 0.328938 0.279409
Si Si8 0.911289 0.678129 0.598587
O O1 0.395138 0.708703 0.139524
O O2 0.262805 0.802944 0.195681
O O3 0.370474 0.000000 0.132054
O O4 0.364091 0.793071 0.052821
O O5 0.863927 0.500000 0.307688
O O6 0.930278 0.266470 0.225946
O O7 0.840198 0.232256 0.362218
O O8 0.787670 0.296827 0.292431
O O9 0.551281 0.500000 0.533967
O O10 0.609995 0.722692 0.562056
O O11 0.598496 0.744941 0.457846
O O12 0.481909 0.754804 0.590568
O O13 0.966497 0.222904 0.913755
O O14 0.045067 0.000000 0.829209
O O15 0.689529 0.500000 0.558418
O O16 0.750000 0.250000 0.500000
O O17 0.557086 0.000000 0.046340
O O18 0.500000 0.819968 0.000000
O O19 0.696809 0.500000 0.302112
O O20 0.659801 0.213626 0.323353
O O21 0.920652 0.500000 0.585704
#
# Coordination Sequence:
#
# PCOD8078505 Si02
#       8
#     8   8   8   8   8   8   8   8
#     4   8  15  26  39  56  82 118 155 187 222 270
#     4  10  20  33  48  65  90 125 159 191 228 272
#     4  10  21  37  53  68  90 121 152 183 225 275
#     4  10  17  24  37  58  85 116 151 190 228 268
#     4  11  23  36  52  73  95 121 152 187 228 272
#     4   8  13  23  37  53  78 114 153 187 221 266
#     4   9  17  30  46  65  91 124 157 186 226 275
#     4  11  21  32  50  73  93 116 150 192 230 264
#
# _framework density 16.95082
#
# number of rings (size 3 to 8) (size 9 to 14) (size 15 to 20)
#    0.000    2.375    0.000    6.375    0.000    9.750 
#    0.000    0.000    0.000    0.000    0.000    0.000 
#    0.000    1.000    0.000    3.000    0.000    5.375 
#
# Total GULP energy -396616.687132 kJ/mol
# GULP energy per Si atom -12394.271473 kJ/mol
# Density = 1.691224 g / cm^3
# Si number density = 16.950820 Si / 1000 Ang^3
#
#
#
# Elastic Constant Matrix: (Units=GPa)
#
#
# Indices 1 2 3 4 5 6 
#
# 1 48.9371 32.8672 41.4576 0.0001 -10.3067 -0.0007
# 2 32.8672 68.4366 26.9299 0.0003 -6.9398 -0.0007
# 3 41.4576 26.9299 126.4091 0.0004 -23.9446 0.0000
# 4 0.0001 0.0003 0.0004 29.4134 -0.0002 -2.6096
# 5 -10.3067 -6.9398 -23.9446 -0.0002 19.7732 0.0001
# 6 -0.0007 -0.0007 0.0000 -2.6096 0.0001 17.5894
#
#
#
# Elastic Compliance Matrix: (Units=1/GPa)
#
#
# Indices 1 2 3 4 5 6 
#
# 1 0.038572 -0.014656 -0.008686 0.000000 0.004443 0.000001
# 2 -0.014656 0.021574 0.000257 0.000000 0.000243 0.000000
# 3 -0.008686 0.000257 0.012801 0.000000 0.011063 0.000000
# 4 0.000000 0.000000 0.000000 0.034452 0.000000 0.005111
# 5 0.004443 0.000243 0.011063 0.000000 0.066372 0.000000
# 6 0.000001 0.000000 0.000000 0.005111 0.000000 0.057611
#
#
# Mechanical properties :
#
#
# Convention : Reuss Voigt Hill
#
# Bulk Modulus (GPa) = 37.34754 49.58804 43.46779
# Shear Modulus (GPa) = 17.45331 22.85705 20.15518
#
# Velocity S-wave (km/s) = 3.21229 3.67609 3.45199
# Velocity P-wave (km/s) = 5.98658 6.88010 6.44883
#
# Compressibility (1/GPa) = 0.02677553
#
# Stress axis : x y z
#
# Youngs Moduli (GPa) = 25.92546 46.35120 78.12105
#
# Poissons Ratio (x) = 0.67932 0.67859
# Poissons Ratio (y) = 0.37996 -0.02004
# Poissons Ratio (z) = 0.22520 -0.01189
#
# Static dielectric constant tensor:
#      x y z
#    x 2.838940 0.000020 -0.440420 
#    y 0.000020 3.188030 -0.000060 
#    z -0.440420 -0.000060 4.264830 
# 
# 
# High freq. dielectric constant tensor:
#      x y z
#    x 1.589820 0.000000 -0.026860 
#    y 0.000000 1.661440 0.000000 
#    z -0.026860 0.000000 1.670230 
# 
# From -- ./inp_files/323633.got.cif
#   From: 2010.06.25/outbox.cif.g09.slc.cpg/sg12_162_cif.got.tgz:323633.got - 2010.06.28 00:19:55.
