data_PCOD8078590
_publ_section_title
;
Structure prediction by ZEFSAII (Michael W. Deem and Ramdas Pophale) SiO2 
 PCOD8078590
Probable space group: C 2/M
;
_chemical_formula_sum "Si O2"
_cell_formula_units_Z 48
_cell_length_a 24.395670
_cell_length_b 9.054400
_cell_length_c 21.812482
_cell_angle_alpha 90.000000
_cell_angle_beta 142.059096
_cell_angle_gamma 90.000000
_cell_volume 2962.412587
_symmetry_space_group_name_H-M "C 2/M"
_symmetry_group_IT_number 12
_symmetry_cell_setting 'monoclinic'
loop_
_space_group_symop_operation_xyz
x,y,z
-x,y,-z
-x,-y,-z
x,-y,z
1/2+x,1/2+y,z
1/2-x,1/2+y,-z
1/2-x,1/2-y,-z
1/2+x,1/2-y,z
loop_
_atom_site_type_symbol
_atom_site_label
_atom_site_fract_x
_atom_site_fract_y
_atom_site_fract_z
Si Si1 0.664536 0.172411 0.499161
Si Si2 0.966637 0.673391 0.175048
Si Si3 0.135740 0.828157 0.346886
Si Si4 0.714679 0.169481 0.027346
Si Si5 0.395233 0.671250 0.232432
Si Si6 0.025449 0.827395 0.454675
O O1 0.769658 0.202190 0.601931
O O2 0.630235 0.255000 0.408729
O O3 0.613004 0.237179 0.512047
O O4 0.644534 0.000000 0.473658
O O5 0.986424 0.500000 0.195255
O O6 0.935403 0.727690 0.214484
O O7 0.057813 0.756679 0.236478
O O8 0.890004 0.713628 0.055989
O O9 0.117456 0.000000 0.339669
O O10 0.787230 0.200058 0.145397
O O11 0.714356 0.000000 0.008879
O O12 0.750000 0.250000 0.000000
O O13 0.412565 0.500000 0.230477
O O14 0.441918 0.711986 0.337433
O O15 0.000000 0.774802 0.500000
O O16 0.048982 0.000000 0.473729
#
# Coordination Sequence:
#
# PCOD8078590 Si02
#       6
#     8   8   8   8   8   8
#     4  10  20  32  46  65  88 117 152 187 222 263
#     4  10  17  25  41  66  91 115 146 180 218 266
#     4  10  19  30  45  65  91 120 146 179 227 275
#     4   8  15  25  38  59  86 115 145 177 215 263
#     4   9  16  28  43  59  87 122 149 179 221 263
#     4  10  20  32  47  67  91 121 154 185 220 263
#
# _framework density 16.203009999999999
#
# number of rings (size 3 to 8) (size 9 to 14) (size 15 to 20)
#    0.000    2.500    1.667    1.500    0.000    3.000 
#    0.000    0.000    0.000    0.000    0.000    1.167 
#    0.000    9.333    0.000    0.000    0.000    0.000 
#
# Total GULP energy -297346.075272 kJ/mol
# GULP energy per Si atom -12389.419803 kJ/mol
# Density = 1.616613 g / cm^3
# Si number density = 16.203010 Si / 1000 Ang^3
#
#
#
# Elastic Constant Matrix: (Units=GPa)
#
#
# Indices 1 2 3 4 5 6 
#
# 1 81.1953 39.1915 53.3850 0.0000 16.0264 0.0000
# 2 39.1915 69.4503 41.0054 0.0000 16.9298 0.0000
# 3 53.3850 41.0054 118.2754 0.0000 31.9949 0.0000
# 4 0.0000 0.0000 0.0000 21.1753 0.0000 7.4408
# 5 16.0264 16.9298 31.9949 0.0000 27.3458 0.0000
# 6 0.0000 0.0000 0.0000 7.4408 0.0000 21.8622
#
#
#
# Elastic Compliance Matrix: (Units=1/GPa)
#
#
# Indices 1 2 3 4 5 6 
#
# 1 0.020270 -0.007662 -0.006675 0.000000 0.000674 0.000000
# 2 -0.007662 0.021619 -0.002386 0.000000 -0.006102 0.000000
# 3 -0.006675 -0.002386 0.015855 0.000000 -0.013162 0.000000
# 4 0.000000 0.000000 0.000000 0.053640 0.000000 -0.018256
# 5 0.000674 -0.006102 -0.013162 0.000000 0.055351 0.000000
# 6 0.000000 0.000000 0.000000 -0.018256 0.000000 0.051955
#
#
# Mechanical properties :
#
#
# Convention : Reuss Voigt Hill
#
# Bulk Modulus (GPa) = 41.15543 59.56498 50.36021
# Shear Modulus (GPa) = 19.21341 23.09926 21.15633
#
# Velocity S-wave (km/s) = 3.44727 3.77983 3.61737
# Velocity P-wave (km/s) = 6.42650 7.47602 6.97104
#
# Compressibility (1/GPa) = 0.02429813
#
# Stress axis : x y z
#
# Youngs Moduli (GPa) = 49.33423 46.25628 63.07001
#
# Poissons Ratio (x) = 0.35440 0.42100
# Poissons Ratio (y) = 0.37798 0.15050
# Poissons Ratio (z) = 0.32931 0.11038
#
# Static dielectric constant tensor:
#      x y z
#    x 2.759510 0.000000 0.485560 
#    y 0.000000 9.200850 0.000000 
#    z 0.485560 0.000000 3.690580 
# 
# 
# High freq. dielectric constant tensor:
#      x y z
#    x 1.569210 0.000000 0.042610 
#    y 0.000000 1.633630 0.000000 
#    z 0.042610 0.000000 1.631230 
# 
# From -- ./inp_files/236876.got.cif
#   From: 2010.06.25/outbox.cif.g09.slc.cpg/sg12_119_cif.got.tgz:236876.got - 2010.06.28 00:19:55.
