data_PCOD8078091
_publ_section_title
;
Structure prediction by ZEFSAII (Michael W. Deem and Ramdas Pophale) SiO2 
 PCOD8078091
Probable space group: C 2/M
;
_chemical_formula_sum "Si O2"
_cell_formula_units_Z 48
_cell_length_a 27.570126
_cell_length_b 13.530309
_cell_length_c 9.397399
_cell_angle_alpha 90.000000
_cell_angle_beta 56.073292
_cell_angle_gamma 90.000000
_cell_volume 2908.724229
_symmetry_space_group_name_H-M "C 2/M"
_symmetry_group_IT_number 12
_symmetry_cell_setting 'monoclinic'
loop_
_space_group_symop_operation_xyz
x,y,z
-x,y,-z
-x,-y,-z
x,-y,z
1/2+x,1/2+y,z
1/2-x,1/2+y,-z
1/2-x,1/2-y,-z
1/2+x,1/2-y,z
loop_
_atom_site_type_symbol
_atom_site_label
_atom_site_fract_x
_atom_site_fract_y
_atom_site_fract_z
Si Si1 0.505507 0.609273 0.821952
Si Si2 0.310772 0.111978 0.531576
Si Si3 0.377893 0.295825 0.355807
Si Si4 0.267457 0.718733 0.127673
Si Si5 0.378031 0.382813 0.043526
Si Si6 0.237963 0.888589 0.371802
O O1 0.522545 0.500000 0.739575
O O2 0.557220 0.682719 0.688223
O O3 0.500000 0.608114 0.000000
O O4 0.441412 0.639810 0.867435
O O5 0.365944 0.179073 0.395555
O O6 0.282699 0.147921 0.725491
O O7 0.259967 0.122545 0.497321
O O8 0.333356 0.000000 0.509177
O O9 0.373039 0.326648 0.200564
O O10 0.329894 0.357381 0.523197
O O11 0.328426 0.659062 0.020371
O O12 0.275454 0.817500 0.208861
O O13 0.250000 0.750000 0.000000
O O14 0.370107 0.500000 0.082490
O O15 0.245323 0.000000 0.303842
#
# Coordination Sequence:
#
# PCOD8078091 Si02
#       6
#     8   8   8   8   8   8
#     4   8  15  24  43  74 100 124 153 193 244 290
#     4  10  19  32  51  71  95 129 165 204 245 283
#     4  10  15  28  49  74  97 124 158 199 241 287
#     4  11  21  32  47  71 100 131 161 196 244 294
#     4  10  17  29  48  72 103 130 156 194 243 292
#     4  10  18  30  49  70  94 126 163 203 243 284
#
# _framework density 16.502081
#
# number of rings (size 3 to 8) (size 9 to 14) (size 15 to 20)
#    0.000    2.167    3.333    4.000    0.000    1.333 
#    0.000    0.000    0.000    9.500    0.000   11.667 
#    0.000    0.000    0.000    0.000    0.000    0.000 
#
# Total GULP energy -297507.132731 kJ/mol
# GULP energy per Si atom -12396.130530 kJ/mol
# Density = 1.646452 g / cm^3
# Si number density = 16.502081 Si / 1000 Ang^3
#
#
#
# Elastic Constant Matrix: (Units=GPa)
#
#
# Indices 1 2 3 4 5 6 
#
# 1 94.5284 53.6647 46.0963 0.0000 -23.3590 0.0000
# 2 53.6647 142.6936 46.7679 0.0000 -18.1709 0.0000
# 3 46.0963 46.7679 56.2444 0.0000 -6.1825 0.0000
# 4 0.0000 0.0000 0.0000 19.0030 0.0000 -6.8609
# 5 -23.3590 -18.1709 -6.1825 0.0000 31.9370 0.0000
# 6 0.0000 0.0000 0.0000 -6.8609 0.0000 24.8224
#
#
#
# Elastic Compliance Matrix: (Units=1/GPa)
#
#
# Indices 1 2 3 4 5 6 
#
# 1 0.022007 -0.001725 -0.015265 0.000000 0.012160 0.000000
# 2 -0.001725 0.010300 -0.006790 0.000000 0.003285 0.000000
# 3 -0.015265 -0.006790 0.035030 0.000000 -0.008248 0.000000
# 4 0.000000 0.000000 0.000000 0.058457 0.000000 0.016157
# 5 0.012160 0.003285 -0.008248 0.000000 0.040478 0.000000
# 6 0.000000 0.000000 0.000000 0.016157 0.000000 0.044752
#
#
# Mechanical properties :
#
#
# Convention : Reuss Voigt Hill
#
# Bulk Modulus (GPa) = 50.56483 65.16936 57.86710
# Shear Modulus (GPa) = 18.85527 24.94830 21.90179
#
# Velocity S-wave (km/s) = 3.38390 3.89244 3.64705
# Velocity P-wave (km/s) = 6.78054 7.73167 7.27168
#
# Compressibility (1/GPa) = 0.01977659
#
# Stress axis : x y z
#
# Youngs Moduli (GPa) = 45.44029 97.08275 28.54659
#
# Poissons Ratio (x) = 0.16744 0.43578
# Poissons Ratio (y) = 0.07837 0.19384
# Poissons Ratio (z) = 0.69367 0.65923
#
# Static dielectric constant tensor:
#      x y z
#    x 3.178160 0.000000 -0.316300 
#    y 0.000000 3.268400 0.000000 
#    z -0.316300 0.000000 2.887040 
# 
# 
# High freq. dielectric constant tensor:
#      x y z
#    x 1.614620 0.000000 -0.020950 
#    y 0.000000 1.637050 0.000000 
#    z -0.020950 0.000000 1.605900 
# 
# From -- ./inp_files/85691.got.cif
#   From: 2010.06.25/outbox.cif.g09.slc.cpg/sg12_43_cif.got.tgz:85691.got - 2010.06.28 00:19:55.
