data_PCOD8078537
_publ_section_title
;
Structure prediction by ZEFSAII (Michael W. Deem and Ramdas Pophale) SiO2 
 PCOD8078537
Probable space group: C 2/M
;
_chemical_formula_sum "Si O2"
_cell_formula_units_Z 56
_cell_length_a 30.478542
_cell_length_b 13.057155
_cell_length_c 9.648475
_cell_angle_alpha 90.000000
_cell_angle_beta 106.646299
_cell_angle_gamma 90.000000
_cell_volume 3678.818550
_symmetry_space_group_name_H-M "C 2/M"
_symmetry_group_IT_number 12
_symmetry_cell_setting 'monoclinic'
loop_
_space_group_symop_operation_xyz
x,y,z
-x,y,-z
-x,-y,-z
x,-y,z
1/2+x,1/2+y,z
1/2-x,1/2+y,-z
1/2-x,1/2-y,-z
1/2+x,1/2-y,z
loop_
_atom_site_type_symbol
_atom_site_label
_atom_site_fract_x
_atom_site_fract_y
_atom_site_fract_z
Si Si1 0.310294 0.697916 0.178258
Si Si2 0.251777 0.618387 0.885872
Si Si3 0.143536 0.121774 0.516260
Si Si4 0.041628 0.880502 0.448450
Si Si5 0.111182 0.881007 0.924475
Si Si6 0.488731 0.619443 0.135725
Si Si7 0.332788 0.381880 0.763877
O O1 0.294369 0.815914 0.172272
O O2 0.317562 0.654782 0.339745
O O3 0.272729 0.631803 0.059541
O O4 0.358317 0.692215 0.142496
O O5 0.239349 0.500000 0.851979
O O6 0.288022 0.661069 0.804068
O O7 0.092964 0.164053 0.517555
O O8 0.157752 0.168652 0.378299
O O9 0.140331 0.000000 0.502870
O O10 0.000000 0.829405 0.500000
O O11 0.030011 0.859633 0.277502
O O12 0.042457 0.000000 0.486588
O O13 0.122983 0.866385 0.097727
O O14 0.119523 0.000000 0.888026
O O15 0.059858 0.841590 0.849280
O O16 0.480890 0.500000 0.101873
O O17 0.500000 0.674025 0.000000
O O18 0.322956 0.500000 0.729932
#
# Coordination Sequence:
#
# PCOD8078537 Si02
#       7
#     8   8   8   8   8   8   8
#     4  10  18  27  44  61  75 102 131 159 199 235
#     4   9  18  32  44  57  77  99 128 164 199 237
#     4  10  17  25  38  58  81 104 133 161 187 227
#     4   9  16  23  31  48  77 107 129 154 185 213
#     4   9  15  25  39  57  83 111 138 161 185 227
#     4   9  15  22  34  52  77 111 140 156 178 219
#     4   8  15  26  39  54  77 106 129 157 193 225
#
# _framework density 15.222277999999999
#
# number of rings (size 3 to 8) (size 9 to 14) (size 15 to 20)
#    0.000    2.857    0.000    3.857    0.000    6.286 
#    0.000    0.000    0.000    0.000    0.000    0.000 
#    0.000    5.714    0.000    0.000    0.000    0.714 
#
# Total GULP energy -346932.194737 kJ/mol
# GULP energy per Si atom -12390.435526 kJ/mol
# Density = 1.518763 g / cm^3
# Si number density = 15.222278 Si / 1000 Ang^3
#
#
#
# Elastic Constant Matrix: (Units=GPa)
#
#
# Indices 1 2 3 4 5 6 
#
# 1 79.6516 28.9855 31.0008 0.0000 3.4646 0.0000
# 2 28.9855 31.0889 10.9444 0.0000 -1.8720 0.0000
# 3 31.0008 10.9444 68.7699 0.0000 -6.7480 0.0000
# 4 0.0000 0.0000 0.0000 10.7165 0.0000 2.9047
# 5 3.4646 -1.8720 -6.7480 0.0000 20.0099 0.0000
# 6 0.0000 0.0000 0.0000 2.9047 0.0000 11.7558
#
#
#
# Elastic Compliance Matrix: (Units=1/GPa)
#
#
# Indices 1 2 3 4 5 6 
#
# 1 0.023088 -0.019155 -0.008199 0.000000 -0.008555 0.000000
# 2 -0.019155 0.050005 0.001511 0.000000 0.008504 0.000000
# 3 -0.008199 0.001511 0.018771 0.000000 0.007891 0.000000
# 4 0.000000 0.000000 0.000000 0.100012 0.000000 -0.024712
# 5 -0.008555 0.008504 0.007891 0.000000 0.054913 0.000000
# 6 0.000000 0.000000 0.000000 -0.024712 0.000000 0.091171
#
#
# Mechanical properties :
#
#
# Convention : Reuss Voigt Hill
#
# Bulk Modulus (GPa) = 24.88866 35.70796 30.29831
# Shear Modulus (GPa) = 12.40575 15.73509 14.07042
#
# Velocity S-wave (km/s) = 2.85787 3.21859 3.04358
# Velocity P-wave (km/s) = 5.22260 6.10910 5.68316
#
# Compressibility (1/GPa) = 0.04017895
#
# Stress axis : x y z
#
# Youngs Moduli (GPa) = 43.31171 19.99803 53.27345
#
# Poissons Ratio (x) = 0.38306 0.43679
# Poissons Ratio (y) = 0.82964 -0.08051
# Poissons Ratio (z) = 0.35511 -0.03022
#
# Static dielectric constant tensor:
#      x y z
#    x 3.105020 0.000000 -0.114670 
#    y 0.000000 2.320960 0.000000 
#    z -0.114670 0.000000 3.132550 
# 
# 
# High freq. dielectric constant tensor:
#      x y z
#    x 1.589990 0.000000 -0.003680 
#    y 0.000000 1.491850 0.000000 
#    z -0.003680 0.000000 1.600700 
# 
# From -- ./inp_files/103964.got.cif
#   From: 2010.06.25/outbox.cif.g09.slc.cpg/sg12_52_cif.got.tgz:103964.got - 2010.06.28 00:19:55.
