data_PCOD8078858
_publ_section_title
;
Structure prediction by ZEFSAII (Michael W. Deem and Ramdas Pophale) SiO2 
 PCOD8078858
Probable space group: C 2/M
;
_chemical_formula_sum "Si O2"
_cell_formula_units_Z 56
_cell_length_a 31.353687
_cell_length_b 18.020671
_cell_length_c 5.338046
_cell_angle_alpha 90.000000
_cell_angle_beta 64.083898
_cell_angle_gamma 90.000000
_cell_volume 2712.761829
_symmetry_space_group_name_H-M "C 2/M"
_symmetry_group_IT_number 12
_symmetry_cell_setting 'monoclinic'
loop_
_space_group_symop_operation_xyz
x,y,z
-x,y,-z
-x,-y,-z
x,-y,z
1/2+x,1/2+y,z
1/2-x,1/2+y,-z
1/2-x,1/2-y,-z
1/2+x,1/2-y,z
loop_
_atom_site_type_symbol
_atom_site_label
_atom_site_fract_x
_atom_site_fract_y
_atom_site_fract_z
Si Si1 0.300482 0.720717 0.278502
Si Si2 0.055482 0.778307 0.356161
Si Si3 0.916890 0.606919 0.719251
Si Si4 0.102387 0.226495 0.736526
Si Si5 0.754937 0.414473 0.671138
Si Si6 0.809861 0.630650 0.027613
Si Si7 0.552898 0.880938 0.859418
O O1 0.250000 0.750000 0.500000
O O2 0.340455 0.718950 0.393682
O O3 0.292531 0.636527 0.203969
O O4 0.316106 0.779182 0.021735
O O5 0.063422 0.690586 0.336537
O O6 0.081659 0.811655 0.537075
O O7 0.000000 0.798371 0.500000
O O8 0.079036 0.811928 0.043156
O O9 0.861129 0.594990 0.871306
O O10 0.937266 0.569316 0.413326
O O11 0.938490 0.569267 0.914296
O O12 0.090888 0.314087 0.764166
O O13 0.739195 0.500000 0.718132
O O14 0.782430 0.393760 0.852048
O O15 0.785824 0.399435 0.343129
O O16 0.500000 0.847492 0.000000
#
# Coordination Sequence:
#
# PCOD8078858 Si02
#       7
#     8   8   8   8   8   8   8
#     4  10  22  36  59  86 112 154 190 240 285 337
#     4  10  18  28  46  73 118 147 170 219 291 337
#     4  10  17  27  47  72 106 138 179 217 269 334
#     4  10  18  29  45  72 110 144 182 215 273 338
#     4  11  25  41  57  79 116 151 196 240 291 340
#     4  11  21  38  60  82 109 150 192 239 282 339
#     4  10  17  27  44  71 117 146 168 218 291 336
#
# _framework density 20.643169
#
# number of rings (size 3 to 8) (size 9 to 14) (size 15 to 20)
#    0.000    1.714    2.857    6.000    6.000    2.286 
#    0.000    0.000    0.000    0.000    0.000    0.000 
#    0.000   72.571    0.000    0.000    0.000    0.286 
#
# Total GULP energy -346874.685113 kJ/mol
# GULP energy per Si atom -12388.381611 kJ/mol
# Density = 2.059618 g / cm^3
# Si number density = 20.643169 Si / 1000 Ang^3
#
#
#
# Elastic Constant Matrix: (Units=GPa)
#
#
# Indices 1 2 3 4 5 6 
#
# 1 176.0838 31.0028 63.4713 0.0000 14.5641 0.0000
# 2 31.0028 84.9342 8.6322 0.0000 5.7386 0.0000
# 3 63.4713 8.6322 142.4906 0.0000 41.4345 0.0000
# 4 0.0000 0.0000 0.0000 -16.4432 0.0000 -6.1574
# 5 14.5641 5.7386 41.4345 0.0000 51.8026 0.0000
# 6 0.0000 0.0000 0.0000 -6.1574 0.0000 -4.2183
#
#
#
# Elastic Compliance Matrix: (Units=1/GPa)
#
#
# Indices 1 2 3 4 5 6 
#
# 1 0.007222 -0.002358 -0.003336 0.000000 0.000899 0.000000
# 2 -0.002358 0.012654 0.000650 0.000000 -0.001258 0.000000
# 3 -0.003336 0.000650 0.010702 0.000000 -0.007694 0.000000
# 4 0.000000 0.000000 0.000000 -0.134134 0.000000 0.195794
# 5 0.000899 -0.001258 -0.007694 0.000000 0.025345 0.000000
# 6 0.000000 0.000000 0.000000 0.195794 0.000000 -0.522862
#
#
# Mechanical properties :
#
#
# Convention : Reuss Voigt Hill
#
# Bulk Modulus (GPa) = 48.80445 67.74682 58.27563
# Shear Modulus (GPa) = -8.55936 26.25504 8.84784
#
# Velocity S-wave (km/s) = -2.03847 3.57017 2.07253
# Velocity P-wave (km/s) = 4.26061 7.06287 5.83253
#
# Compressibility (1/GPa) = 0.02048993
#
# Stress axis : x y z
#
# Youngs Moduli (GPa) = 138.45989 79.02932 93.44223
#
# Poissons Ratio (x) = 0.18635 0.31169
# Poissons Ratio (y) = 0.32649 -0.06071
# Poissons Ratio (z) = 0.46185 -0.05135
#
# Static dielectric constant tensor:
#      x y z
#    x 4.367790 0.000000 0.788990 
#    y 0.000000 3.510640 0.000000 
#    z 0.788990 0.000000 5.533200 
# 
# 
# High freq. dielectric constant tensor:
#      x y z
#    x 1.826330 0.000000 0.016060 
#    y 0.000000 1.726090 0.000000 
#    z 0.016060 0.000000 1.828070 
# 
# From -- ./inp_files/31987.got.cif
#   From: 2010.06.25/outbox.cif.g09.slc.cpg/sg12_16_cif.got.tgz:31987.got - 2010.06.28 00:19:55.
