data_PCOD8078386
_publ_section_title
;
Structure prediction by ZEFSAII (Michael W. Deem and Ramdas Pophale) SiO2 
 PCOD8078386
Probable space group: C 2/M
;
_chemical_formula_sum "Si O2"
_cell_formula_units_Z 48
_cell_length_a 8.733229
_cell_length_b 22.754782
_cell_length_c 18.442241
_cell_angle_alpha 90.000000
_cell_angle_beta 50.184222
_cell_angle_gamma 90.000000
_cell_volume 2815.030269
_symmetry_space_group_name_H-M "C 2/M"
_symmetry_group_IT_number 12
_symmetry_cell_setting 'monoclinic'
loop_
_space_group_symop_operation_xyz
x,y,z
-x,y,-z
-x,-y,-z
x,-y,z
1/2+x,1/2+y,z
1/2-x,1/2+y,-z
1/2-x,1/2-y,-z
1/2+x,1/2-y,z
loop_
_atom_site_type_symbol
_atom_site_label
_atom_site_fract_x
_atom_site_fract_y
_atom_site_fract_z
Si Si1 0.957235 0.226581 0.705490
Si Si2 0.529890 0.236260 0.837679
Si Si3 0.328201 0.667292 0.099106
Si Si4 0.217460 0.931192 0.461637
Si Si5 0.281910 0.860826 0.580855
Si Si6 0.591936 0.863088 0.302945
O O1 0.735499 0.200411 0.759744
O O2 0.998662 0.221273 0.778464
O O3 0.963091 0.294148 0.677541
O O4 0.118901 0.189024 0.612882
O O5 0.559282 0.276723 0.899269
O O6 0.347163 0.190736 0.901200
O O7 0.228822 0.625007 0.190018
O O8 0.500000 0.634121 0.000000
O O9 0.241481 0.915049 0.539262
O O10 0.386063 0.899226 0.361947
O O11 0.000000 0.911526 0.500000
O O12 0.249465 0.000000 0.442750
O O13 0.500000 0.833157 0.500000
O O14 0.279332 0.882212 0.665376
#
# Coordination Sequence:
#
# PCOD8078386 Si02
#       6
#     8   8   8   8   8   8
#     4  10  16  31  45  73 106 133 165 195 243 299
#     4   8  17  27  44  64 102 139 165 196 234 284
#     4  10  17  29  47  72 103 137 170 201 241 290
#     4  10  23  38  54  74  93 123 169 214 259 302
#     4  10  20  32  50  70 101 136 165 203 244 301
#     4   9  20  33  48  75 103 135 165 204 244 296
#
# _framework density 17.051327000000001
#
# number of rings (size 3 to 8) (size 9 to 14) (size 15 to 20)
#    0.000    2.833    3.333    0.500    4.667    6.333 
#    0.000    0.000    0.000    0.500    0.000    0.000 
#    0.000    2.667    0.000    0.000    0.000    0.000 
#
# Total GULP energy -297345.738323 kJ/mol
# GULP energy per Si atom -12389.405763 kJ/mol
# Density = 1.701252 g / cm^3
# Si number density = 17.051327 Si / 1000 Ang^3
#
#
#
# Elastic Constant Matrix: (Units=GPa)
#
#
# Indices 1 2 3 4 5 6 
#
# 1 108.7942 23.6405 53.2830 0.0000 -18.4150 0.0000
# 2 23.6405 41.0623 36.3763 0.0000 -10.5041 0.0000
# 3 53.2830 36.3763 136.0514 0.0000 -21.4719 0.0000
# 4 0.0000 0.0000 0.0000 9.3618 0.0000 -1.4329
# 5 -18.4150 -10.5041 -21.4719 0.0000 28.8053 0.0000
# 6 0.0000 0.0000 0.0000 -1.4329 0.0000 19.8812
#
#
#
# Elastic Compliance Matrix: (Units=1/GPa)
#
#
# Indices 1 2 3 4 5 6 
#
# 1 0.012176 -0.003007 -0.003297 0.000000 0.004230 0.000000
# 2 -0.003007 0.033590 -0.006997 0.000000 0.005111 0.000000
# 3 -0.003297 -0.006997 0.011080 0.000000 0.003600 0.000000
# 4 0.000000 0.000000 0.000000 0.108009 0.000000 0.007785
# 5 0.004230 0.005111 0.003600 0.000000 0.041967 0.000000
# 6 0.000000 0.000000 0.000000 0.007785 0.000000 0.050860
#
#
# Mechanical properties :
#
#
# Convention : Reuss Voigt Hill
#
# Bulk Modulus (GPa) = 33.06370 56.94527 45.00449
# Shear Modulus (GPa) = 16.98570 23.11686 20.05128
#
# Velocity S-wave (km/s) = 3.15961 3.68601 3.43291
# Velocity P-wave (km/s) = 5.72221 7.18223 6.49338
#
# Compressibility (1/GPa) = 0.03024465
#
# Stress axis : x y z
#
# Youngs Moduli (GPa) = 82.13052 29.77051 90.25020
#
# Poissons Ratio (x) = 0.08953 0.29755
# Poissons Ratio (y) = 0.24698 0.63146
# Poissons Ratio (z) = 0.27078 0.20830
#
# Static dielectric constant tensor:
#      x y z
#    x 3.613930 0.000000 -0.120690 
#    y 0.000000 2.640010 0.000000 
#    z -0.120690 0.000000 3.323760 
# 
# 
# High freq. dielectric constant tensor:
#      x y z
#    x 1.681630 0.000000 -0.010240 
#    y 0.000000 1.588560 0.000000 
#    z -0.010240 0.000000 1.658880 
# 
# From -- ./inp_files/301375.got.cif
#   From: 2010.06.25/outbox.cif.g09.slc.cpg/sg12_151_cif.got.tgz:301375.got - 2010.06.28 00:19:55.
