data_PCOD8078269
_publ_section_title
;
Structure prediction by ZEFSAII (Michael W. Deem and Ramdas Pophale) SiO2 
 PCOD8078269
Probable space group: C 2/M
;
_chemical_formula_sum "Si O2"
_cell_formula_units_Z 48
_cell_length_a 13.936247
_cell_length_b 22.226937
_cell_length_c 13.054481
_cell_angle_alpha 90.000000
_cell_angle_beta 46.912473
_cell_angle_gamma 90.000000
_cell_volume 2953.200333
_symmetry_space_group_name_H-M "C 2/M"
_symmetry_group_IT_number 12
_symmetry_cell_setting 'monoclinic'
loop_
_space_group_symop_operation_xyz
x,y,z
-x,y,-z
-x,-y,-z
x,-y,z
1/2+x,1/2+y,z
1/2-x,1/2+y,-z
1/2-x,1/2-y,-z
1/2+x,1/2-y,z
loop_
_atom_site_type_symbol
_atom_site_label
_atom_site_fract_x
_atom_site_fract_y
_atom_site_fract_z
Si Si1 0.634879 0.702383 0.941656
Si Si2 0.283548 0.624806 0.305497
Si Si3 0.644521 0.233860 0.492553
Si Si4 0.802667 0.000000 0.217958
Si Si5 0.368345 0.719562 0.714948
Si Si6 0.936352 0.125244 0.815133
Si Si7 0.102777 0.000000 0.070065
O O1 0.667906 0.649326 0.838679
O O2 0.747312 0.752461 0.865488
O O3 0.500000 0.733366 0.000000
O O4 0.619230 0.673173 0.063623
O O5 0.167531 0.665514 0.437060
O O6 0.230928 0.557765 0.320307
O O7 0.405553 0.622831 0.295324
O O8 0.750000 0.250000 0.500000
O O9 0.661920 0.280079 0.384435
O O10 0.497766 0.239489 0.643841
O O11 0.955627 0.000000 0.135357
O O12 0.795075 0.000000 0.099562
O O13 0.393739 0.651289 0.735025
O O14 0.873545 0.059360 0.877983
#
# Coordination Sequence:
#
# PCOD8078269 Si02
#       7
#     8   8   8   4   8   8   4
#     4   9  17  28  46  72 101 123 153 199 254 292
#     4   9  16  27  48  69  98 128 158 194 243 293
#     4  10  19  34  48  66  96 135 166 199 243 280
#     4   9  14  26  44  73  97 129 156 194 244 291
#     4  10  20  30  49  70  97 128 164 201 239 291
#     4  10  16  28  45  73 100 122 153 200 245 293
#     4   9  16  24  46  71 102 127 151 194 251 294
#
# _framework density 16.253554000000001
#
# number of rings (size 3 to 8) (size 9 to 14) (size 15 to 20)
#    0.000    2.500    3.333    0.500    0.000    0.000 
#    0.000    0.000    0.000   12.000    0.000    0.583 
#    0.000    0.000    0.000    0.000    0.000    0.000 
#
# Total GULP energy -297488.148068 kJ/mol
# GULP energy per Si atom -12395.339503 kJ/mol
# Density = 1.621656 g / cm^3
# Si number density = 16.253554 Si / 1000 Ang^3
#
#
#
# Elastic Constant Matrix: (Units=GPa)
#
#
# Indices 1 2 3 4 5 6 
#
# 1 85.3066 46.5048 25.7231 0.0000 4.9126 0.0000
# 2 46.5048 120.9027 40.8315 0.0000 6.2779 0.0000
# 3 25.7231 40.8315 63.2870 0.0000 -8.8896 0.0000
# 4 0.0000 0.0000 0.0000 17.1914 0.0000 2.5787
# 5 4.9126 6.2779 -8.8896 0.0000 19.7679 0.0000
# 6 0.0000 0.0000 0.0000 2.5787 0.0000 20.6425
#
#
#
# Elastic Compliance Matrix: (Units=1/GPa)
#
#
# Indices 1 2 3 4 5 6 
#
# 1 0.015606 -0.004385 -0.004124 0.000000 -0.004340 0.000000
# 2 -0.004385 0.012757 -0.007327 0.000000 -0.006257 0.000000
# 3 -0.004124 -0.007327 0.024204 0.000000 0.014236 0.000000
# 4 0.000000 0.000000 0.000000 0.059279 0.000000 -0.007405
# 5 -0.004340 -0.006257 0.014236 0.000000 0.060055 0.000000
# 6 0.000000 0.000000 0.000000 -0.007405 0.000000 0.049369
#
#
# Mechanical properties :
#
#
# Convention : Reuss Voigt Hill
#
# Bulk Modulus (GPa) = 47.85650 55.06833 51.46242
# Shear Modulus (GPa) = 19.23758 21.94949 20.59354
#
# Velocity S-wave (km/s) = 3.44407 3.67882 3.56338
# Velocity P-wave (km/s) = 6.73224 7.21106 6.97576
#
# Compressibility (1/GPa) = 0.02089580
#
# Stress axis : x y z
#
# Youngs Moduli (GPa) = 64.07700 78.38706 41.31481
#
# Poissons Ratio (x) = 0.34371 0.17038
# Poissons Ratio (y) = 0.28096 0.30273
# Poissons Ratio (z) = 0.26424 0.57437
#
# Static dielectric constant tensor:
#      x y z
#    x 2.961200 0.000000 0.002510 
#    y 0.000000 3.081690 0.000000 
#    z 0.002510 0.000000 3.028680 
# 
# 
# High freq. dielectric constant tensor:
#      x y z
#    x 1.605330 0.000000 0.005450 
#    y 0.000000 1.608750 0.000000 
#    z 0.005450 0.000000 1.612820 
# 
# From -- ./inp_files/146553.got.cif
#   From: 2010.06.25/outbox.cif.g09.slc.cpg/sg12_74_cif.got.tgz:146553.got - 2010.06.28 00:19:55.
