data_PCOD8078058
_publ_section_title
;
Structure prediction by ZEFSAII (Michael W. Deem and Ramdas Pophale) SiO2 
 PCOD8078058
Probable space group: C 2/M
;
_chemical_formula_sum "Si O2"
_cell_formula_units_Z 44
_cell_length_a 19.882946
_cell_length_b 11.683731
_cell_length_c 8.885625
_cell_angle_alpha 90.000000
_cell_angle_beta 98.990633
_cell_angle_gamma 90.000000
_cell_volume 2038.831946
_symmetry_space_group_name_H-M "C 2/M"
_symmetry_group_IT_number 12
_symmetry_cell_setting 'monoclinic'
loop_
_space_group_symop_operation_xyz
x,y,z
-x,y,-z
-x,-y,-z
x,-y,z
1/2+x,1/2+y,z
1/2-x,1/2+y,-z
1/2-x,1/2-y,-z
1/2+x,1/2-y,z
loop_
_atom_site_type_symbol
_atom_site_label
_atom_site_fract_x
_atom_site_fract_y
_atom_site_fract_z
Si Si1 0.839933 0.251505 0.381517
Si Si2 0.143402 0.000000 0.512684
Si Si3 0.521128 0.743628 0.679654
Si Si4 0.713206 0.727624 0.141930
Si Si5 0.482985 0.500000 0.716619
Si Si6 0.150065 0.000000 0.181415
Si Si7 0.886905 0.636029 0.704666
O O1 0.836827 0.113317 0.388877
O O2 0.768724 0.293208 0.291650
O O3 0.851010 0.306126 0.548906
O O4 0.901519 0.292238 0.290572
O O5 0.180522 0.000000 0.362893
O O6 0.061396 0.000000 0.455493
O O7 0.500000 0.741309 0.500000
O O8 0.526905 0.614826 0.745459
O O9 0.465178 0.819189 0.750349
O O10 0.673164 0.611032 0.100246
O O11 0.658587 0.826126 0.167950
O O12 0.750000 0.750000 0.000000
O O13 0.431652 0.500000 0.840575
O O14 0.887723 0.500000 0.689833
#
# Coordination Sequence:
#
# PCOD8078058 Si02
#       7
#     8   4   8   8   4   4   8
#     4  11  23  36  64  95 118 154 197 248 294 351
#     4  10  17  35  65  94 118 145 197 246 301 343
#     4  10  17  34  59  93 121 148 188 245 300 351
#     4  12  27  43  59  85 122 162 202 242 291 350
#     4  10  14  33  61  94 119 142 189 244 309 341
#     4  10  20  41  65  84 113 163 191 246 300 340
#     4  11  23  39  63  89 122 154 196 247 296 353
#
# _framework density 21.580984999999998
#
# number of rings (size 3 to 8) (size 9 to 14) (size 15 to 20)
#    0.545    0.727    7.273    1.364    3.818    3.273 
#    0.000    0.909    0.000    2.182    0.000    0.000 
#    0.000    0.000    0.000    0.000    0.000    0.000 
#
# Total GULP energy -272653.739516 kJ/mol
# GULP energy per Si atom -12393.351796 kJ/mol
# Density = 2.153187 g / cm^3
# Si number density = 21.580985 Si / 1000 Ang^3
#
#
#
# Elastic Constant Matrix: (Units=GPa)
#
#
# Indices 1 2 3 4 5 6 
#
# 1 85.4378 30.1257 20.5865 0.0000 -39.1458 0.0000
# 2 30.1257 129.3313 12.4467 0.0000 -9.5379 0.0000
# 3 20.5865 12.4467 49.2527 0.0000 -27.7769 0.0000
# 4 0.0000 0.0000 0.0000 11.4034 0.0000 -6.2703
# 5 -39.1458 -9.5379 -27.7769 0.0000 29.9518 0.0000
# 6 0.0000 0.0000 0.0000 -6.2703 0.0000 18.6123
#
#
#
# Elastic Compliance Matrix: (Units=1/GPa)
#
#
# Indices 1 2 3 4 5 6 
#
# 1 0.048643 -0.007764 0.033733 0.000000 0.092386 0.000000
# 2 -0.007764 0.009192 -0.006603 0.000000 -0.013344 0.000000
# 3 0.033733 -0.006603 0.066146 0.000000 0.103328 0.000000
# 4 0.000000 0.000000 0.000000 0.107631 0.000000 0.036260
# 5 0.092386 -0.013344 0.103328 0.000000 0.245709 0.000000
# 6 0.000000 0.000000 0.000000 0.036260 0.000000 0.065943
#
#
# Mechanical properties :
#
#
# Convention : Reuss Voigt Hill
#
# Bulk Modulus (GPa) = 6.14576 43.37107 24.75841
# Shear Modulus (GPa) = 8.94822 25.38436 17.16629
#
# Velocity S-wave (km/s) = 2.03847 3.43335 2.82341
# Velocity P-wave (km/s) = 2.89731 5.98813 4.70384
#
# Compressibility (1/GPa) = 0.16271386
#
# Stress axis : x y z
#
# Youngs Moduli (GPa) = 20.55774 108.79053 15.11798
#
# Poissons Ratio (x) = 0.84464 -0.50998
# Poissons Ratio (y) = 0.15961 0.09983
# Poissons Ratio (z) = -0.69348 0.71837
#
# Static dielectric constant tensor:
#      x y z
#    x 4.423840 0.000000 -0.403480 
#    y 0.000000 3.815050 0.000000 
#    z -0.403480 0.000000 3.445430 
# 
# 
# High freq. dielectric constant tensor:
#      x y z
#    x 1.857100 0.000000 -0.039390 
#    y 0.000000 1.839410 0.000000 
#    z -0.039390 0.000000 1.805790 
# 
# From -- ./inp_files/84115.got.cif
#   From: 2010.06.25/outbox.cif.g09.slc.cpg/sg12_43_cif.got.tgz:84115.got - 2010.06.28 00:19:55.
