data_PCOD8078597
_publ_section_title
;
Structure prediction by ZEFSAII (Michael W. Deem and Ramdas Pophale) SiO2 
 PCOD8078597
Probable space group: C 2/M
;
_chemical_formula_sum "Si O2"
_cell_formula_units_Z 48
_cell_length_a 18.034714
_cell_length_b 13.802731
_cell_length_c 12.729878
_cell_angle_alpha 90.000000
_cell_angle_beta 108.061021
_cell_angle_gamma 90.000000
_cell_volume 3012.688938
_symmetry_space_group_name_H-M "C 2/M"
_symmetry_group_IT_number 12
_symmetry_cell_setting 'monoclinic'
loop_
_space_group_symop_operation_xyz
x,y,z
-x,y,-z
-x,-y,-z
x,-y,z
1/2+x,1/2+y,z
1/2-x,1/2+y,-z
1/2-x,1/2-y,-z
1/2+x,1/2-y,z
loop_
_atom_site_type_symbol
_atom_site_label
_atom_site_fract_x
_atom_site_fract_y
_atom_site_fract_z
Si Si1 0.494091 0.272986 0.810066
Si Si2 0.840397 0.734073 0.865103
Si Si3 0.700261 0.608665 0.774277
Si Si4 0.431687 0.893244 0.054336
Si Si5 0.032991 0.888273 0.627136
Si Si6 0.875396 0.110048 0.033194
O O1 0.406036 0.252141 0.806547
O O2 0.541705 0.171095 0.833827
O O3 0.491973 0.318397 0.693554
O O4 0.538340 0.343666 0.912238
O O5 0.763383 0.691877 0.774458
O O6 0.859109 0.654160 0.962529
O O7 0.827524 0.835545 0.920116
O O8 0.733800 0.500000 0.769353
O O9 0.626079 0.627001 0.666585
O O10 0.672887 0.619512 0.881615
O O11 0.408641 0.000000 0.085017
O O12 0.500000 0.897866 0.000000
O O13 0.000000 0.858872 0.500000
O O14 0.013320 0.000000 0.647397
O O15 0.886634 0.000000 0.002738
#
# Coordination Sequence:
#
# PCOD8078597 Si02
#       6
#     8   8   8   8   8   8
#     4   9  17  27  43  67  90 117 152 187 220 257
#     4  10  17  25  41  68  97 119 144 181 223 263
#     4   9  17  29  45  65  89 116 148 185 221 262
#     4   8  14  24  38  60  92 124 147 166 198 255
#     4   9  18  34  53  67  82 112 153 193 233 276
#     4   9  17  28  42  63  95 130 152 171 210 267
#
# _framework density 15.932608999999999
#
# number of rings (size 3 to 8) (size 9 to 14) (size 15 to 20)
#    0.000    3.000    0.000    4.000    0.000    2.667 
#    0.000    0.833    0.000    0.500    0.000    0.000 
#    0.000    0.000    0.000    0.000    0.000    0.000 
#
# Total GULP energy -297464.354154 kJ/mol
# GULP energy per Si atom -12394.348090 kJ/mol
# Density = 1.589635 g / cm^3
# Si number density = 15.932609 Si / 1000 Ang^3
#
#
#
# Elastic Constant Matrix: (Units=GPa)
#
#
# Indices 1 2 3 4 5 6 
#
# 1 76.0756 41.7700 34.3500 0.0000 11.6369 0.0000
# 2 41.7700 128.6971 52.9181 0.0000 3.4278 0.0000
# 3 34.3500 52.9181 90.9070 0.0000 6.0705 0.0000
# 4 0.0000 0.0000 0.0000 21.1522 0.0000 0.3776
# 5 11.6369 3.4278 6.0705 0.0000 14.6000 0.0000
# 6 0.0000 0.0000 0.0000 0.3776 0.0000 25.1189
#
#
#
# Elastic Compliance Matrix: (Units=1/GPa)
#
#
# Indices 1 2 3 4 5 6 
#
# 1 0.019204 -0.004285 -0.003916 0.000000 -0.012672 0.000000
# 2 -0.004285 0.011172 -0.005078 0.000000 0.002904 0.000000
# 3 -0.003916 -0.005078 0.015580 0.000000 -0.002165 0.000000
# 4 0.000000 0.000000 0.000000 0.047289 0.000000 -0.000711
# 5 -0.012672 0.002904 -0.002165 0.000000 0.078812 0.000000
# 6 0.000000 0.000000 0.000000 -0.000711 0.000000 0.039821
#
#
# Mechanical properties :
#
#
# Convention : Reuss Voigt Hill
#
# Bulk Modulus (GPa) = 51.55076 61.52843 56.53960
# Shear Modulus (GPa) = 20.41635 23.28368 21.85001
#
# Velocity S-wave (km/s) = 3.58358 3.82695 3.70726
# Velocity P-wave (km/s) = 7.03906 7.63081 7.34090
#
# Compressibility (1/GPa) = 0.01939836
#
# Stress axis : x y z
#
# Youngs Moduli (GPa) = 52.07207 89.51285 64.18386
#
# Poissons Ratio (x) = 0.38359 0.25133
# Poissons Ratio (y) = 0.22314 0.32591
# Poissons Ratio (z) = 0.20390 0.45453
#
# Static dielectric constant tensor:
#      x y z
#    x 2.871280 0.000000 0.142020 
#    y 0.000000 3.351630 0.000000 
#    z 0.142020 0.000000 2.718300 
# 
# 
# High freq. dielectric constant tensor:
#      x y z
#    x 1.599950 0.000000 0.011390 
#    y 0.000000 1.620700 0.000000 
#    z 0.011390 0.000000 1.566890 
# 
# From -- ./inp_files/155477.got.cif
#   From: 2010.06.25/outbox.cif.g09.slc.cpg/sg12_78_cif.got.tgz:155477.got - 2010.06.28 00:19:55.
