data_PCOD8078082
_publ_section_title
;
Structure prediction by ZEFSAII (Michael W. Deem and Ramdas Pophale) SiO2 
 PCOD8078082
Probable space group: C 2/M
;
_chemical_formula_sum "Si O2"
_cell_formula_units_Z 56
_cell_length_a 20.688163
_cell_length_b 25.377236
_cell_length_c 15.329460
_cell_angle_alpha 90.000000
_cell_angle_beta 156.136921
_cell_angle_gamma 90.000000
_cell_volume 3255.875933
_symmetry_space_group_name_H-M "C 2/M"
_symmetry_group_IT_number 12
_symmetry_cell_setting 'monoclinic'
loop_
_space_group_symop_operation_xyz
x,y,z
-x,y,-z
-x,-y,-z
x,-y,z
1/2+x,1/2+y,z
1/2-x,1/2+y,-z
1/2-x,1/2-y,-z
1/2+x,1/2-y,z
loop_
_atom_site_type_symbol
_atom_site_label
_atom_site_fract_x
_atom_site_fract_y
_atom_site_fract_z
Si Si1 0.144352 0.167037 0.006164
Si Si2 0.473612 0.262083 0.663519
Si Si3 0.615718 0.846606 0.845910
Si Si4 0.646698 0.677296 0.730869
Si Si5 0.032877 0.557214 0.402855
Si Si6 0.269764 0.442358 0.844880
Si Si7 0.674298 0.754341 0.182448
O O1 0.001302 0.193082 0.772151
O O2 0.310836 0.166058 0.158472
O O3 0.105929 0.105386 0.981685
O O4 0.173433 0.197954 0.132398
O O5 0.534174 0.207102 0.778838
O O6 0.574601 0.275646 0.701263
O O7 0.289012 0.254288 0.409170
O O8 0.487507 0.894084 0.688973
O O9 0.757359 0.862791 0.088290
O O10 0.500000 0.648116 0.500000
O O11 0.769992 0.700455 0.814043
O O12 0.044177 0.500000 0.369267
O O13 0.193941 0.566673 0.655982
O O14 0.875241 0.557378 0.266832
O O15 0.356458 0.500000 0.955634
O O16 0.500000 0.769462 0.000000
#
# Coordination Sequence:
#
# PCOD8078082 Si02
#       7
#     8   8   8   8   8   8   8
#     4  10  17  29  44  66  93 118 154 181 217 269
#     4  10  18  29  48  66  87 121 154 183 219 265
#     4  10  15  27  47  65  86 121 153 187 216 258
#     4   9  17  30  44  63  88 118 152 183 220 266
#     4   8  14  22  37  66  94 115 141 178 227 266
#     4   8  14  24  40  63  91 118 143 180 221 261
#     4  11  21  30  42  64  97 123 144 182 228 267
#
# _framework density 17.199672
#
# number of rings (size 3 to 8) (size 9 to 14) (size 15 to 20)
#    0.000    2.571    2.857    2.571    0.000    1.714 
#    0.000    0.000    0.000    0.857    0.000    3.000 
#    0.000    1.143    0.000    0.000    0.000    0.000 
#
# Total GULP energy -346884.953371 kJ/mol
# GULP energy per Si atom -12388.748335 kJ/mol
# Density = 1.716052 g / cm^3
# Si number density = 17.199672 Si / 1000 Ang^3
#
#
#
# Elastic Constant Matrix: (Units=GPa)
#
#
# Indices 1 2 3 4 5 6 
#
# 1 31.1323 27.2708 33.4910 0.0000 -3.9076 0.0000
# 2 27.2708 116.9019 61.7126 0.0000 -21.6151 0.0000
# 3 33.4910 61.7126 104.8379 0.0000 -20.3297 0.0000
# 4 0.0000 0.0000 0.0000 23.7609 0.0000 -10.3883
# 5 -3.9076 -21.6151 -20.3297 0.0000 26.3860 0.0000
# 6 0.0000 0.0000 0.0000 -10.3883 0.0000 10.9492
#
#
#
# Elastic Compliance Matrix: (Units=1/GPa)
#
#
# Indices 1 2 3 4 5 6 
#
# 1 0.052214 -0.005922 -0.014855 0.000000 -0.008564 0.000000
# 2 -0.005922 0.013756 -0.004927 0.000000 0.006596 0.000000
# 3 -0.014855 -0.004927 0.018781 0.000000 0.008234 0.000000
# 4 0.000000 0.000000 0.000000 0.071918 0.000000 0.068234
# 5 -0.008564 0.006596 0.008234 0.000000 0.048378 0.000000
# 6 0.000000 0.000000 0.000000 0.068234 0.000000 0.156070
#
#
# Mechanical properties :
#
#
# Convention : Reuss Voigt Hill
#
# Bulk Modulus (GPa) = 29.99047 55.31342 42.65195
# Shear Modulus (GPa) = 11.80253 20.91239 16.35746
#
# Velocity S-wave (km/s) = 2.62240 3.49070 3.08723
# Velocity P-wave (km/s) = 5.16176 6.96247 6.12861
#
# Compressibility (1/GPa) = 0.03334392
#
# Stress axis : x y z
#
# Youngs Moduli (GPa) = 19.15212 72.69561 53.24623
#
# Poissons Ratio (x) = 0.43051 0.79095
# Poissons Ratio (y) = 0.11342 0.26232
# Poissons Ratio (z) = 0.28450 0.35814
#
# Static dielectric constant tensor:
#      x y z
#    x 2.870270 0.000000 -0.314970 
#    y 0.000000 3.512450 0.000000 
#    z -0.314970 0.000000 3.275600 
# 
# 
# High freq. dielectric constant tensor:
#      x y z
#    x 1.622520 0.000000 -0.022400 
#    y 0.000000 1.644170 0.000000 
#    z -0.022400 0.000000 1.652830 
# 
# From -- ./inp_files/65473.got.cif
#   From: 2010.06.25/outbox.cif.g09.slc.cpg/sg12_33_cif.got.tgz:65473.got - 2010.06.28 00:19:55.
