data_PCOD8078016
_publ_section_title
;
Structure prediction by ZEFSAII (Michael W. Deem and Ramdas Pophale) SiO2 
 PCOD8078016
Probable space group: P 21/M
;
_chemical_formula_sum "Si O2"
_cell_formula_units_Z 28
_cell_length_a 30.000000
_cell_length_b 9.000000
_cell_length_c 30.000000
_cell_angle_alpha 90.000000
_cell_angle_beta 170.000000
_cell_angle_gamma 90.000000
_cell_volume 1406.550239
_symmetry_space_group_name_H-M "P 21/M"
_symmetry_group_IT_number 11
_symmetry_cell_setting 'monoclinic'
loop_
_space_group_symop_operation_xyz
x,y,z
-x,1/2+y,-z
-x,-y,-z
x,1/2-y,z
loop_
_atom_site_type_symbol
_atom_site_label
_atom_site_fract_x
_atom_site_fract_y
_atom_site_fract_z
Si Si1 0.043868 0.424820 0.940560
Si Si2 0.194345 0.004848 0.795867
Si Si3 0.333322 0.577196 0.679311
Si Si4 0.925141 0.071375 0.123690
Si Si5 0.517888 0.422990 0.470293
Si Si6 0.768287 0.250000 0.235600
Si Si7 0.405626 0.574226 0.646460
Si Si8 0.237897 0.250000 0.766304
O O1 0.048701 0.250000 0.932760
O O2 0.081843 0.524741 0.934575
O O3 0.776250 0.472215 0.699469
O O4 0.273455 0.467315 0.199950
O O5 0.221694 0.120594 0.784395
O O6 0.926779 0.005718 0.558675
O O7 0.214543 0.871355 0.783890
O O8 0.419729 0.005629 0.054278
O O9 0.330500 0.750000 0.688017
O O10 0.346869 0.548120 0.640251
O O11 0.923506 0.250000 0.126636
O O12 0.182474 0.004172 0.398601
O O13 0.677581 0.001403 0.903854
O O14 0.500000 0.500000 0.500000
O O15 0.523515 0.250000 0.485560
O O16 0.002892 0.250000 0.500725
O O17 0.503907 0.250000 0.001907
O O18 0.416608 0.750000 0.645588
#
# Coordination Sequence:
#
# PCOD8078016 Si02
#       8
#     4   4   4   4   4   2   4   2
#     4  10  21  38  61  86 122 171 217 262 313 388
#     4  12  23  42  65  91 125 158 207 252 299 369
#     4  11  22  43  67  92 116 164 212 249 298 367
#     4  12  25  43  64 102 134 166 213 274 342 385
#     4  10  21  36  57  87 121 163 217 267 319 375
#     4  12  26  40  58 100 122 164 196 248 318 362
#     4  11  24  44  71  94 126 171 222 264 316 400
#     4  12  22  42  66  86 128 160 208 250 296 356
#
# _framework density 19.906860999999999
#
# number of rings (size 3 to 8) (size 9 to 14) (size 15 to 20)
#    0.000    0.857    1.429    6.429    0.000    4.571 
#    7.714    0.000    0.000    0.000    0.000    0.000 
#    0.000    0.000    0.000    0.000    0.000    0.000 
#
# Total GULP energy -347049.166277 kJ/mol
# GULP energy per Si atom -12394.613081 kJ/mol
# Density = 1.986155 g / cm^3
# Si number density = 19.906861 Si / 1000 Ang^3
#
#
#
# Elastic Constant Matrix: (Units=GPa)
#
#
# Indices 1 2 3 4 5 6 
#
# 1 116.8172 44.1440 31.4398 0.0000 4.3245 0.0000
# 2 44.1440 108.3659 22.1969 0.0000 -0.6104 0.0000
# 3 31.4398 22.1969 144.1127 0.0000 4.8388 0.0000
# 4 0.0000 0.0000 0.0000 27.3466 0.0000 -1.5916
# 5 4.3245 -0.6104 4.8388 0.0000 49.7461 0.0000
# 6 0.0000 0.0000 0.0000 -1.5916 0.0000 47.6411
#
#
#
# Elastic Compliance Matrix: (Units=1/GPa)
#
#
# Indices 1 2 3 4 5 6 
#
# 1 0.010532 -0.003954 -0.001662 0.000000 -0.000802 0.000000
# 2 -0.003954 0.011017 -0.000853 0.000000 0.000562 0.000000
# 3 -0.001662 -0.000853 0.007453 0.000000 -0.000591 0.000000
# 4 0.000000 0.000000 0.000000 0.036639 0.000000 0.001224
# 5 -0.000802 0.000562 -0.000591 0.000000 0.020236 0.000000
# 6 0.000000 0.000000 0.000000 0.001224 0.000000 0.021031
#
#
# Mechanical properties :
#
#
# Convention : Reuss Voigt Hill
#
# Bulk Modulus (GPa) = 62.25421 62.76191 62.50806
# Shear Modulus (GPa) = 39.93626 43.04778 41.49202
#
# Velocity S-wave (km/s) = 4.48387 4.65527 4.57037
# Velocity P-wave (km/s) = 7.62545 7.77764 7.70192
#
# Compressibility (1/GPa) = 0.01606317
#
# Stress axis : x y z
#
# Youngs Moduli (GPa) = 94.95260 90.77112 134.17898
#
# Poissons Ratio (x) = 0.35894 0.22295
# Poissons Ratio (y) = 0.37547 0.11446
# Poissons Ratio (z) = 0.15777 0.07743
#
# Static dielectric constant tensor:
#      x y z
#    x 3.902850 0.000000 0.009000 
#    y 0.000000 3.682730 0.000000 
#    z 0.009000 0.000000 4.011580 
# 
# 
# High freq. dielectric constant tensor:
#      x y z
#    x 1.804030 0.000000 0.000370 
#    y 0.000000 1.778070 0.000000 
#    z 0.000370 0.000000 1.806010 
# 
# From -- ./inp_files/73884.got.cif
#   From: 2010.06.25/outbox.ucp.g09.slc.cvg/sg11_37_cif.got.tgz:73884.got - 2010.06.28 13:43:20.
