data_PCOD8078335
_publ_section_title
;
Structure prediction by ZEFSAII (Michael W. Deem and Ramdas Pophale) SiO2 
 PCOD8078335
Probable space group: C 2/M
;
_chemical_formula_sum "Si O2"
_cell_formula_units_Z 56
_cell_length_a 5.249232
_cell_length_b 27.768716
_cell_length_c 21.549668
_cell_angle_alpha 90.000000
_cell_angle_beta 82.890937
_cell_angle_gamma 90.000000
_cell_volume 3117.026951
_symmetry_space_group_name_H-M "C 2/M"
_symmetry_group_IT_number 12
_symmetry_cell_setting 'monoclinic'
loop_
_space_group_symop_operation_xyz
x,y,z
-x,y,-z
-x,-y,-z
x,-y,z
1/2+x,1/2+y,z
1/2-x,1/2+y,-z
1/2-x,1/2-y,-z
1/2+x,1/2-y,z
loop_
_atom_site_type_symbol
_atom_site_label
_atom_site_fract_x
_atom_site_fract_y
_atom_site_fract_z
Si Si1 0.429845 0.057220 0.142492
Si Si2 0.730098 0.556682 0.537533
Si Si3 0.641384 0.620655 0.657292
Si Si4 0.154183 0.769785 0.625722
Si Si5 0.599796 0.119596 0.737569
Si Si6 0.033937 0.057237 0.929725
Si Si7 0.923242 0.728461 0.234717
O O1 0.388545 0.078400 0.211621
O O2 0.698172 0.076099 0.106346
O O3 0.201159 0.075680 0.105151
O O4 0.427157 0.000000 0.148897
O O5 0.500000 0.573920 0.500000
O O6 0.718837 0.500000 0.549239
O O7 0.701584 0.581028 0.604603
O O8 0.000000 0.572569 0.500000
O O9 0.683751 0.673222 0.627456
O O10 0.348347 0.614127 0.686941
O O11 0.837661 0.612695 0.707592
O O12 0.413081 0.745855 0.589941
O O13 0.085350 0.745861 0.693899
O O14 0.602561 0.171393 0.770353
O O15 0.035313 0.000000 0.932144
O O16 0.000000 0.078231 0.000000
O O17 0.699454 0.753711 0.200842
#
# Coordination Sequence:
#
# PCOD8078335 Si02
#       7
#     8   8   8   8   8   8   8
#     4  10  21  33  46  75 116 138 162 220 257 289
#     4  10  23  43  60  75  98 131 180 227 247 286
#     4  12  21  33  58  79  98 140 171 204 262 322
#     4  10  16  30  49  75  98 130 161 204 245 302
#     4  12  21  31  51  82 110 139 163 200 267 326
#     4   9  17  33  54  70  94 145 191 210 244 295
#     4  10  16  30  47  70 100 138 165 200 236 302
#
# _framework density 17.965837000000001
#
# number of rings (size 3 to 8) (size 9 to 14) (size 15 to 20)
#    0.000    1.571    5.714    2.143    0.000    2.857 
#    0.000    0.000    0.000    2.571    0.000    0.000 
#    0.000   11.429    0.000    0.000    0.000    0.000 
#
# Total GULP energy -347172.292856 kJ/mol
# GULP energy per Si atom -12399.010459 kJ/mol
# Density = 1.792495 g / cm^3
# Si number density = 17.965837 Si / 1000 Ang^3
#
#
#
# Elastic Constant Matrix: (Units=GPa)
#
#
# Indices 1 2 3 4 5 6 
#
# 1 144.9195 19.9971 25.5239 0.0000 -7.5651 0.0000
# 2 19.9971 45.0697 28.6782 0.0000 -0.1490 0.0000
# 3 25.5239 28.6782 53.8962 0.0000 -1.3507 0.0000
# 4 0.0000 0.0000 0.0000 0.6981 0.0000 -1.5893
# 5 -7.5651 -0.1490 -1.3507 0.0000 11.7752 0.0000
# 6 0.0000 0.0000 0.0000 -1.5893 0.0000 16.1565
#
#
#
# Elastic Compliance Matrix: (Units=1/GPa)
#
#
# Indices 1 2 3 4 5 6 
#
# 1 0.007861 -0.001782 -0.002656 0.000000 0.004723 0.000000
# 2 -0.001782 0.033981 -0.017305 0.000000 -0.002700 0.000000
# 3 -0.002656 -0.017305 0.029055 0.000000 0.001408 0.000000
# 4 0.000000 0.000000 0.000000 1.845815 0.000000 0.181568
# 5 0.004723 -0.002700 0.001408 0.000000 0.088086 0.000000
# 6 0.000000 0.000000 0.000000 0.181568 0.000000 0.079755
#
#
# Mechanical properties :
#
#
# Convention : Reuss Voigt Hill
#
# Bulk Modulus (GPa) = 36.48208 43.58709 40.03458
# Shear Modulus (GPa) = 2.33954 17.03835 9.68894
#
# Velocity S-wave (km/s) = 1.14238 3.08291 2.32480
# Velocity P-wave (km/s) = 4.70005 6.08163 5.43492
#
# Compressibility (1/GPa) = 0.02741072
#
# Stress axis : x y z
#
# Youngs Moduli (GPa) = 127.21640 29.42819 34.41705
#
# Poissons Ratio (x) = 0.05244 0.09141
# Poissons Ratio (y) = 0.22671 0.59559
# Poissons Ratio (z) = 0.33789 0.50926
#
# Static dielectric constant tensor:
#      x y z
#    x 4.785910 0.000000 -0.103390 
#    y 0.000000 3.158160 0.000000 
#    z -0.103390 0.000000 2.954560 
# 
# 
# High freq. dielectric constant tensor:
#      x y z
#    x 1.733360 0.000000 -0.005670 
#    y 0.000000 1.678640 0.000000 
#    z -0.005670 0.000000 1.649590 
# 
# From -- ./inp_files/253872.got.cif
#   From: 2010.06.25/outbox.cif.g09.slc.cpg/sg12_127_cif.got.tgz:253872.got - 2010.06.28 00:19:55.
