data_PCOD8078196
_publ_section_title
;
Structure prediction by ZEFSAII (Michael W. Deem and Ramdas Pophale) SiO2 
 PCOD8078196
Probable space group: C 2/M
;
_chemical_formula_sum "Si O2"
_cell_formula_units_Z 56
_cell_length_a 19.879784
_cell_length_b 20.981087
_cell_length_c 12.173027
_cell_angle_alpha 90.000000
_cell_angle_beta 40.120953
_cell_angle_gamma 90.000000
_cell_volume 3271.869692
_symmetry_space_group_name_H-M "C 2/M"
_symmetry_group_IT_number 12
_symmetry_cell_setting 'monoclinic'
loop_
_space_group_symop_operation_xyz
x,y,z
-x,y,-z
-x,-y,-z
x,-y,z
1/2+x,1/2+y,z
1/2-x,1/2+y,-z
1/2-x,1/2-y,-z
1/2+x,1/2-y,z
loop_
_atom_site_type_symbol
_atom_site_label
_atom_site_fract_x
_atom_site_fract_y
_atom_site_fract_z
Si Si1 0.076196 0.574137 0.804777
Si Si2 0.032960 0.378924 0.620189
Si Si3 0.564304 0.574210 0.770079
Si Si4 0.210845 0.713191 0.396135
Si Si5 0.652092 0.615397 0.883217
Si Si6 0.275373 0.346908 0.544686
Si Si7 0.355376 0.930393 0.716189
O O1 0.099421 0.500000 0.761114
O O2 0.027524 0.601589 0.753790
O O3 0.182910 0.608857 0.702760
O O4 0.000000 0.588495 0.000000
O O5 0.091952 0.311490 0.527355
O O6 0.100514 0.428954 0.463807
O O7 0.914848 0.378401 0.718982
O O8 0.538596 0.500000 0.777310
O O9 0.637699 0.577323 0.786438
O O10 0.623531 0.607584 0.594548
O O11 0.459941 0.616671 0.917455
O O12 0.295944 0.685204 0.202903
O O13 0.248874 0.687868 0.465197
O O14 0.206512 0.789793 0.390639
O O15 0.731311 0.579709 0.866187
O O16 0.376627 0.000000 0.740420
#
# Coordination Sequence:
#
# PCOD8078196 Si02
#       7
#     8   8   8   8   8   8   8
#     4  10  19  31  46  70  99 126 161 204 244 278
#     4   9  17  28  45  69  98 128 155 195 242 296
#     4  10  17  27  45  70 101 128 153 196 250 295
#     4   8  16  30  42  62  94 121 158 190 232 289
#     4   9  17  27  42  71 100 126 150 194 249 302
#     4   9  17  30  44  64  88 127 162 191 233 280
#     4  10  16  25  46  74 101 127 155 192 251 308
#
# _framework density 17.115596
#
# number of rings (size 3 to 8) (size 9 to 14) (size 15 to 20)
#    0.000    2.714    0.000    4.714    0.000    0.000 
#   10.286    0.000    0.000    0.857    7.429    0.000 
#    0.000    4.571    0.000    0.000    0.000    0.000 
#
# Total GULP energy -346923.437847 kJ/mol
# GULP energy per Si atom -12390.122780 kJ/mol
# Density = 1.707664 g / cm^3
# Si number density = 17.115596 Si / 1000 Ang^3
#
#
#
# Elastic Constant Matrix: (Units=GPa)
#
#
# Indices 1 2 3 4 5 6 
#
# 1 86.4779 35.6943 38.9398 0.0000 -20.3329 0.0000
# 2 35.6943 90.3263 65.8962 0.0000 -11.8936 0.0000
# 3 38.9398 65.8962 95.6505 0.0000 -14.2885 0.0000
# 4 0.0000 0.0000 0.0000 20.7373 0.0000 -0.5304
# 5 -20.3329 -11.8936 -14.2885 0.0000 25.7573 0.0000
# 6 0.0000 0.0000 0.0000 -0.5304 0.0000 19.3660
#
#
#
# Elastic Compliance Matrix: (Units=1/GPa)
#
#
# Indices 1 2 3 4 5 6 
#
# 1 0.016553 -0.002814 -0.003317 0.000000 0.009927 0.000000
# 2 -0.002814 0.022824 -0.014541 0.000000 0.000251 0.000000
# 3 -0.003317 -0.014541 0.022275 0.000000 0.003023 0.000000
# 4 0.000000 0.000000 0.000000 0.048256 0.000000 0.001322
# 5 0.009927 0.000251 0.003023 0.000000 0.048454 0.000000
# 6 0.000000 0.000000 0.000000 0.001322 0.000000 0.051673
#
#
# Mechanical properties :
#
#
# Convention : Reuss Voigt Hill
#
# Bulk Modulus (GPa) = 49.24356 61.50171 55.37264
# Shear Modulus (GPa) = 19.36863 21.96706 20.66784
#
# Velocity S-wave (km/s) = 3.36763 3.58642 3.47874
# Velocity P-wave (km/s) = 6.62985 7.29116 6.96835
#
# Compressibility (1/GPa) = 0.02030722
#
# Stress axis : x y z
#
# Youngs Moduli (GPa) = 60.41187 43.81265 44.89417
#
# Poissons Ratio (x) = 0.12330 0.14892
# Poissons Ratio (y) = 0.17001 0.65281
# Poissons Ratio (z) = 0.20039 0.63709
#
# Static dielectric constant tensor:
#      x y z
#    x 3.092550 0.000000 -0.178940 
#    y 0.000000 3.370760 0.000000 
#    z -0.178940 0.000000 3.080520 
# 
# 
# High freq. dielectric constant tensor:
#      x y z
#    x 1.632190 0.000000 -0.025760 
#    y 0.000000 1.650180 0.000000 
#    z -0.025760 0.000000 1.642550 
# 
# From -- ./inp_files/169390.got.cif
#   From: 2010.06.25/outbox.cif.g09.slc.cpg/sg12_85_cif.got.tgz:169390.got - 2010.06.28 00:19:55.
