data_PCOD8078480
_publ_section_title
;
Structure prediction by ZEFSAII (Michael W. Deem and Ramdas Pophale) SiO2 
 PCOD8078480
Probable space group: C 2/M
;
_chemical_formula_sum "Si O2"
_cell_formula_units_Z 56
_cell_length_a 19.786405
_cell_length_b 8.833953
_cell_length_c 20.940498
_cell_angle_alpha 90.000000
_cell_angle_beta 118.887318
_cell_angle_gamma 90.000000
_cell_volume 3204.797472
_symmetry_space_group_name_H-M "C 2/M"
_symmetry_group_IT_number 12
_symmetry_cell_setting 'monoclinic'
loop_
_space_group_symop_operation_xyz
x,y,z
-x,y,-z
-x,-y,-z
x,-y,z
1/2+x,1/2+y,z
1/2-x,1/2+y,-z
1/2-x,1/2-y,-z
1/2+x,1/2-y,z
loop_
_atom_site_type_symbol
_atom_site_label
_atom_site_fract_x
_atom_site_fract_y
_atom_site_fract_z
Si Si1 0.925705 0.175264 0.696971
Si Si2 0.494316 0.324359 0.855434
Si Si3 0.110688 0.319954 0.573925
Si Si4 0.151574 0.324905 0.152006
Si Si5 0.414305 0.668752 0.989865
Si Si6 0.469902 0.681525 0.579142
Si Si7 0.776122 0.821641 0.701824
O O1 0.947932 0.246571 0.639096
O O2 0.846031 0.243079 0.689568
O O3 0.996559 0.201438 0.779835
O O4 0.911579 0.000000 0.677849
O O5 0.470675 0.500000 0.858924
O O6 0.429638 0.213908 0.853156
O O7 0.575126 0.288227 0.929422
O O8 0.100136 0.500000 0.563652
O O9 0.095296 0.241944 0.498801
O O10 0.196197 0.272367 0.633629
O O11 0.052056 0.253686 0.599273
O O12 0.169145 0.500000 0.161146
O O13 0.147350 0.272990 0.075579
O O14 0.218836 0.245147 0.224043
O O15 0.381895 0.500000 0.968251
O O16 0.500000 0.683059 0.000000
O O17 0.475377 0.500000 0.578116
O O18 0.783309 0.000000 0.711745
#
# Coordination Sequence:
#
# PCOD8078480 Si02
#       7
#     8   8   8   8   8   8   8
#     4   8  15  29  48  69  91 118 152 186 223 265
#     4   8  14  26  41  57  84 121 156 183 212 261
#     4  10  20  34  51  68  89 119 154 188 219 262
#     4  10  17  23  36  61  91 117 144 185 230 266
#     4   8  13  22  37  55  80 119 156 181 211 259
#     4  10  19  32  51  71  93 118 145 184 229 272
#     4   9  18  33  49  64  88 122 156 187 220 265
#
# _framework density 17.473801999999999
#
# number of rings (size 3 to 8) (size 9 to 14) (size 15 to 20)
#    0.000    3.000    0.000    4.714    0.000    4.286 
#    0.000    5.714    0.000    0.000    0.000    1.000 
#    0.000    0.000    0.000    0.000    0.000    0.000 
#
# Total GULP energy -346866.321214 kJ/mol
# GULP energy per Si atom -12388.082901 kJ/mol
# Density = 1.743403 g / cm^3
# Si number density = 17.473802 Si / 1000 Ang^3
#
#
#
# Elastic Constant Matrix: (Units=GPa)
#
#
# Indices 1 2 3 4 5 6 
#
# 1 51.1707 19.0480 70.0259 0.0000 -3.7516 0.0000
# 2 19.0480 56.4277 42.7052 0.0000 0.0575 0.0000
# 3 70.0259 42.7052 184.8670 0.0000 -9.6400 0.0000
# 4 0.0000 0.0000 0.0000 22.5584 0.0000 2.6388
# 5 -3.7516 0.0575 -9.6400 0.0000 4.2683 0.0000
# 6 0.0000 0.0000 0.0000 2.6388 0.0000 12.0087
#
#
#
# Elastic Compliance Matrix: (Units=1/GPa)
#
#
# Indices 1 2 3 4 5 6 
#
# 1 0.040895 -0.002655 -0.014737 0.000000 0.002697 0.000000
# 2 -0.002655 0.022308 -0.004857 0.000000 -0.013603 0.000000
# 3 -0.014737 -0.004857 0.012969 0.000000 0.016403 0.000000
# 4 0.000000 0.000000 0.000000 0.045499 0.000000 -0.009998
# 5 0.002697 -0.013603 0.016403 0.000000 0.273884 0.000000
# 6 0.000000 0.000000 0.000000 -0.009998 0.000000 0.085470
#
#
# Mechanical properties :
#
#
# Convention : Reuss Voigt Hill
#
# Bulk Modulus (GPa) = 31.57074 61.78040 46.67557
# Shear Modulus (GPa) = 9.32695 18.47951 13.90323
#
# Velocity S-wave (km/s) = 2.31285 3.25554 2.82381
# Velocity P-wave (km/s) = 5.02385 7.04018 6.11568
#
# Compressibility (1/GPa) = 0.03167490
#
# Stress axis : x y z
#
# Youngs Moduli (GPa) = 24.45260 44.82783 77.10796
#
# Poissons Ratio (x) = 0.11900 1.13634
# Poissons Ratio (y) = 0.06491 0.37451
# Poissons Ratio (z) = 0.36036 0.21773
#
# Static dielectric constant tensor:
#      x y z
#    x 2.859750 0.000000 -0.093400 
#    y 0.000000 3.064730 0.000000 
#    z -0.093400 0.000000 3.913140 
# 
# 
# High freq. dielectric constant tensor:
#      x y z
#    x 1.607790 0.000000 -0.001470 
#    y 0.000000 1.661460 0.000000 
#    z -0.001470 0.000000 1.705020 
# 
# From -- ./inp_files/319306.got.cif
#   From: 2010.06.25/outbox.cif.g09.slc.cpg/sg12_160_cif.got.tgz:319306.got - 2010.06.28 00:19:55.
