data_PCOD8078107
_publ_section_title
;
Structure prediction by ZEFSAII (Michael W. Deem and Ramdas Pophale) SiO2 
 PCOD8078107
Probable space group: C 2/M
;
_chemical_formula_sum "Si O2"
_cell_formula_units_Z 60
_cell_length_a 11.175839
_cell_length_b 21.740578
_cell_length_c 30.171180
_cell_angle_alpha 90.000000
_cell_angle_beta 149.413936
_cell_angle_gamma 90.000000
_cell_volume 3730.078498
_symmetry_space_group_name_H-M "C 2/M"
_symmetry_group_IT_number 12
_symmetry_cell_setting 'monoclinic'
loop_
_space_group_symop_operation_xyz
x,y,z
-x,y,-z
-x,-y,-z
x,-y,z
1/2+x,1/2+y,z
1/2-x,1/2+y,-z
1/2-x,1/2-y,-z
1/2+x,1/2-y,z
loop_
_atom_site_type_symbol
_atom_site_label
_atom_site_fract_x
_atom_site_fract_y
_atom_site_fract_z
Si Si1 0.579366 0.699505 0.605392
Si Si2 0.751883 0.704068 0.061773
Si Si3 0.534425 0.068931 0.389139
Si Si4 0.433901 0.830402 0.528975
Si Si5 0.000000 0.883996 0.500000
Si Si6 0.056079 0.657696 0.793230
Si Si7 0.518923 0.681359 0.899913
Si Si8 0.246679 0.928866 0.209364
O O1 0.571476 0.770454 0.589192
O O2 0.345776 0.679739 0.557172
O O3 0.620204 0.659957 0.574385
O O4 0.801486 0.688260 0.707669
O O5 0.883940 0.653847 0.135036
O O6 0.905938 0.766519 0.110756
O O7 0.500000 0.722845 0.000000
O O8 0.718051 0.675925 0.001838
O O9 0.480751 0.114358 0.412441
O O10 0.367571 0.084593 0.294788
O O11 0.803908 0.073405 0.459405
O O12 0.489538 0.000000 0.391927
O O13 0.500000 0.847303 0.500000
O O14 0.261130 0.700808 0.837051
O O15 0.076786 0.591235 0.774943
O O16 0.489129 0.613670 0.867760
O O17 0.179541 0.000000 0.181890
#
# Coordination Sequence:
#
# PCOD8078107 Si02
#       8
#     8   8   8   8   4   8   8   8
#     4  10  19  31  51  73 104 127 164 211 260 299
#     4   9  16  30  47  73 104 126 159 193 243 297
#     4  10  20  32  50  71  98 132 172 206 242 298
#     4  10  22  34  47  70 103 138 167 208 252 301
#     4  10  15  32  50  74  95 128 162 214 256 282
#     4   9  18  29  50  73  96 130 162 204 251 292
#     4   8  17  30  48  72 101 129 153 203 240 293
#     4   9  18  32  49  75 100 125 163 205 247 291
#
# _framework density 16.085453000000001
#
# number of rings (size 3 to 8) (size 9 to 14) (size 15 to 20)
#    0.800    1.867    2.000    0.200    1.867    1.333 
#    0.000    1.333    0.000    0.400    0.000    0.000 
#    0.000    0.000    0.000    0.000    0.000    0.000 
#
# Total GULP energy -371732.151875 kJ/mol
# GULP energy per Si atom -12391.071729 kJ/mol
# Density = 1.604884 g / cm^3
# Si number density = 16.085453 Si / 1000 Ang^3
#
#
#
# Elastic Constant Matrix: (Units=GPa)
#
#
# Indices 1 2 3 4 5 6 
#
# 1 57.2827 33.4110 26.7427 0.0006 -19.4610 0.0006
# 2 33.4110 110.0571 53.5869 0.0004 -16.9915 0.0002
# 3 26.7427 53.5869 97.2940 0.0029 -10.8978 0.0017
# 4 0.0006 0.0004 0.0029 24.8763 0.0004 -0.1255
# 5 -19.4610 -16.9915 -10.8978 0.0004 23.7595 0.0004
# 6 0.0006 0.0002 0.0017 -0.1255 0.0004 15.8933
#
#
#
# Elastic Compliance Matrix: (Units=1/GPa)
#
#
# Indices 1 2 3 4 5 6 
#
# 1 0.027477 -0.003894 -0.003372 0.000000 0.018175 -0.000001
# 2 -0.003894 0.013852 -0.006121 0.000001 0.003910 0.000001
# 3 -0.003372 -0.006121 0.014523 -0.000002 -0.000479 -0.000001
# 4 0.000000 0.000001 -0.000002 0.040200 -0.000001 0.000317
# 5 0.018175 0.003910 -0.000479 -0.000001 0.059552 -0.000002
# 6 -0.000001 0.000001 -0.000001 0.000317 -0.000002 0.062922
#
#
# Mechanical properties :
#
#
# Convention : Reuss Voigt Hill
#
# Bulk Modulus (GPa) = 34.39018 54.67944 44.53481
# Shear Modulus (GPa) = 19.60830 22.96536 21.28683
#
# Velocity S-wave (km/s) = 3.49522 3.78260 3.64175
# Velocity P-wave (km/s) = 6.14124 7.29002 6.74015
#
# Compressibility (1/GPa) = 0.02907806
#
# Stress axis : x y z
#
# Youngs Moduli (GPa) = 36.39365 72.19034 68.85667
#
# Poissons Ratio (x) = 0.28108 0.23221
# Poissons Ratio (y) = 0.14170 0.42150
# Poissons Ratio (z) = 0.12273 0.44190
#
# Static dielectric constant tensor:
#      x y z
#    x 2.902360 0.000000 -0.120550 
#    y 0.000000 2.908530 0.000000 
#    z -0.120550 0.000000 3.077560 
# 
# 
# High freq. dielectric constant tensor:
#      x y z
#    x 1.599870 0.000000 -0.011470 
#    y 0.000000 1.600020 0.000000 
#    z -0.011470 0.000000 1.623170 
# 
# From -- ./inp_files/374579.got.cif
#   From: 2010.06.25/outbox.cif.g09.slc.cpg/sg12_188_cif.got.tgz:374579.got - 2010.06.28 00:19:55.
