data_PCOD8078840
_publ_section_title
;
Structure prediction by ZEFSAII (Michael W. Deem and Ramdas Pophale) SiO2 
 PCOD8078840
Probable space group: C 2/M
;
_chemical_formula_sum "Si O2"
_cell_formula_units_Z 64
_cell_length_a 24.721058
_cell_length_b 12.494367
_cell_length_c 21.513148
_cell_angle_alpha 90.000000
_cell_angle_beta 36.705038
_cell_angle_gamma 90.000000
_cell_volume 3971.598775
_symmetry_space_group_name_H-M "C 2/M"
_symmetry_group_IT_number 12
_symmetry_cell_setting 'monoclinic'
loop_
_space_group_symop_operation_xyz
x,y,z
-x,y,-z
-x,-y,-z
x,-y,z
1/2+x,1/2+y,z
1/2-x,1/2+y,-z
1/2-x,1/2-y,-z
1/2+x,1/2-y,z
loop_
_atom_site_type_symbol
_atom_site_label
_atom_site_fract_x
_atom_site_fract_y
_atom_site_fract_z
Si Si1 0.537607 0.621040 0.108095
Si Si2 0.017184 0.378457 0.638086
Si Si3 0.188577 0.207177 0.888350
Si Si4 0.172613 0.624467 0.415571
Si Si5 0.106510 0.253716 0.154307
Si Si6 0.633904 0.120814 0.318098
Si Si7 0.863496 0.874355 0.194537
Si Si8 0.727730 0.873442 0.948583
O O1 0.516901 0.500000 0.146106
O O2 0.544865 0.688029 0.163706
O O3 0.454881 0.665889 0.142724
O O4 0.630409 0.626454 0.983975
O O5 0.020881 0.500000 0.660483
O O6 0.116900 0.330918 0.527062
O O7 0.968223 0.305786 0.732982
O O8 0.964197 0.373626 0.621379
O O9 0.293587 0.174496 0.794980
O O10 0.151205 0.200633 0.852394
O O11 0.184625 0.324616 0.924498
O O12 0.147717 0.500000 0.438980
O O13 0.136058 0.675665 0.384291
O O14 0.280684 0.643931 0.319483
O O15 0.172494 0.174382 0.131129
O O16 0.164580 0.344804 0.065703
O O17 0.668738 0.000000 0.295031
O O18 0.869124 0.000000 0.169669
O O19 0.734261 0.000000 0.934819
#
# Coordination Sequence:
#
# PCOD8078840 Si02
#       8
#     8   8   8   8   8   8   8   8
#     4  10  19  30  47  68  95 125 153 188 225 265
#     4  10  17  27  44  66  93 122 151 186 229 272
#     4  10  17  28  47  71  95 119 146 180 232 279
#     4   8  15  26  42  66  95 119 143 185 235 273
#     4  10  20  32  45  67  91 124 159 186 221 270
#     4   9  15  24  41  69  97 117 142 180 230 279
#     4   9  17  30  48  73  97 117 147 190 234 273
#     4  10  20  33  46  65  95 124 152 187 225 270
#
# _framework density 16.114418000000001
#
# number of rings (size 3 to 8) (size 9 to 14) (size 15 to 20)
#    0.000    2.500    1.250    3.375    0.000    2.500 
#    0.000    0.625    0.000    6.750    0.000   10.500 
#    0.000    0.000    0.000    0.000    0.000    0.000 
#
# Total GULP energy -396532.253886 kJ/mol
# GULP energy per Si atom -12391.632934 kJ/mol
# Density = 1.607774 g / cm^3
# Si number density = 16.114418 Si / 1000 Ang^3
#
#
#
# Elastic Constant Matrix: (Units=GPa)
#
#
# Indices 1 2 3 4 5 6 
#
# 1 76.0080 35.3792 26.9960 0.0000 1.9857 0.0000
# 2 35.3792 72.3663 38.3353 0.0000 4.7841 0.0000
# 3 26.9960 38.3353 117.9436 0.0000 9.3101 0.0000
# 4 0.0000 0.0000 0.0000 18.9233 0.0000 1.9086
# 5 1.9857 4.7841 9.3101 0.0000 15.3117 0.0000
# 6 0.0000 0.0000 0.0000 1.9086 0.0000 17.9518
#
#
#
# Elastic Compliance Matrix: (Units=1/GPa)
#
#
# Indices 1 2 3 4 5 6 
#
# 1 0.017255 -0.007695 -0.001535 0.000000 0.001100 0.000000
# 2 -0.007695 0.020184 -0.004601 0.000000 -0.002511 0.000000
# 3 -0.001535 -0.004601 0.010710 0.000000 -0.004876 0.000000
# 4 0.000000 0.000000 0.000000 0.053418 0.000000 -0.005679
# 5 0.001100 -0.002511 -0.004876 0.000000 0.068916 0.000000
# 6 0.000000 0.000000 0.000000 -0.005679 0.000000 0.056308
#
#
# Mechanical properties :
#
#
# Convention : Reuss Voigt Hill
#
# Bulk Modulus (GPa) = 48.81209 51.97100 50.39154
# Shear Modulus (GPa) = 19.13638 21.47786 20.30712
#
# Velocity S-wave (km/s) = 3.44980 3.65476 3.55376
# Velocity P-wave (km/s) = 6.79888 7.08032 6.94103
#
# Compressibility (1/GPa) = 0.02048673
#
# Stress axis : x y z
#
# Youngs Moduli (GPa) = 57.95461 49.54422 93.36814
#
# Poissons Ratio (x) = 0.38126 0.14333
# Poissons Ratio (y) = 0.44598 0.42957
# Poissons Ratio (z) = 0.08897 0.22795
#
# Static dielectric constant tensor:
#      x y z
#    x 3.005710 0.000000 -0.039960 
#    y 0.000000 2.696910 0.000000 
#    z -0.039960 0.000000 3.205270 
# 
# 
# High freq. dielectric constant tensor:
#      x y z
#    x 1.609570 0.000000 -0.005010 
#    y 0.000000 1.571510 0.000000 
#    z -0.005010 0.000000 1.631130 
# 
# From -- ./inp_files/324946.got.cif
#   From: 2010.06.25/outbox.cif.g09.slc.cpg/sg12_163_cif.got.tgz:324946.got - 2010.06.28 00:19:55.
