data_PCOD8078155
_publ_section_title
;
Structure prediction by ZEFSAII (Michael W. Deem and Ramdas Pophale) SiO2 
 PCOD8078155
Probable space group: C 2/M
;
_chemical_formula_sum "Si O2"
_cell_formula_units_Z 56
_cell_length_a 19.872792
_cell_length_b 17.971004
_cell_length_c 11.449406
_cell_angle_alpha 90.000000
_cell_angle_beta 127.044408
_cell_angle_gamma 90.000000
_cell_volume 3263.690326
_symmetry_space_group_name_H-M "C 2/M"
_symmetry_group_IT_number 12
_symmetry_cell_setting 'monoclinic'
loop_
_space_group_symop_operation_xyz
x,y,z
-x,y,-z
-x,-y,-z
x,-y,z
1/2+x,1/2+y,z
1/2-x,1/2+y,-z
1/2-x,1/2-y,-z
1/2+x,1/2-y,z
loop_
_atom_site_type_symbol
_atom_site_label
_atom_site_fract_x
_atom_site_fract_y
_atom_site_fract_z
Si Si1 0.019192 0.085019 0.848348
Si Si2 0.151869 0.262770 0.372303
Si Si3 0.408564 0.081382 0.639374
Si Si4 0.945836 0.652141 0.324727
Si Si5 0.623797 0.356894 0.161827
Si Si6 0.197887 0.581457 0.703221
Si Si7 0.507550 0.302943 0.372426
O O1 0.925224 0.084750 0.805495
O O2 0.017427 0.121172 0.718952
O O3 0.052121 0.000000 0.875683
O O4 0.079679 0.138240 0.989396
O O5 0.250000 0.250000 0.500000
O O6 0.134678 0.351006 0.334905
O O7 0.119827 0.224138 0.218818
O O8 0.099780 0.228683 0.428348
O O9 0.507314 0.098975 0.719758
O O10 0.364803 0.074886 0.469240
O O11 0.400905 0.000000 0.694944
O O12 0.850723 0.623746 0.243446
O O13 0.000000 0.655577 0.500000
O O14 0.941563 0.736851 0.272468
O O15 0.721176 0.374653 0.253503
O O16 0.224489 0.500000 0.776634
O O17 0.500000 0.323982 0.500000
#
# Coordination Sequence:
#
# PCOD8078155 Si02
#       7
#     8   8   8   8   8   8   8
#     4  10  20  35  51  72 101 133 174 217 254 296
#     4  10  18  31  49  75 102 134 171 211 247 301
#     4   9  16  26  42  69 101 128 159 202 252 296
#     4   8  15  27  43  66  97 127 157 201 249 301
#     4  10  19  31  50  72  99 132 167 212 257 294
#     4  10  16  24  44  71  97 126 162 206 253 293
#     4   9  19  33  52  71 101 135 167 206 259 309
#
# _framework density 17.158488999999999
#
# number of rings (size 3 to 8) (size 9 to 14) (size 15 to 20)
#    0.000    2.571    1.429    3.000    0.000    2.000 
#    0.000    0.714    0.000    0.000    0.000   19.000 
#    0.000    0.000    0.000    0.000    0.000    0.000 
#
# Total GULP energy -346901.936668 kJ/mol
# GULP energy per Si atom -12389.354881 kJ/mol
# Density = 1.711944 g / cm^3
# Si number density = 17.158489 Si / 1000 Ang^3
#
#
#
# Elastic Constant Matrix: (Units=GPa)
#
#
# Indices 1 2 3 4 5 6 
#
# 1 92.4013 47.1979 30.1176 0.0000 0.4715 0.0000
# 2 47.1979 139.1137 39.2255 0.0000 -8.8866 0.0000
# 3 30.1176 39.2255 48.4448 0.0000 -8.9646 0.0000
# 4 0.0000 0.0000 0.0000 19.1741 0.0000 -2.7888
# 5 0.4715 -8.8866 -8.9646 0.0000 16.6495 0.0000
# 6 0.0000 0.0000 0.0000 -2.7888 0.0000 22.1930
#
#
#
# Elastic Compliance Matrix: (Units=1/GPa)
#
#
# Indices 1 2 3 4 5 6 
#
# 1 0.015128 -0.003313 -0.007918 0.000000 -0.006460 0.000000
# 2 -0.003313 0.010056 -0.005633 0.000000 0.002428 0.000000
# 3 -0.007918 -0.005633 0.032888 0.000000 0.014925 0.000000
# 4 0.000000 0.000000 0.000000 0.053125 0.000000 0.006676
# 5 -0.006460 0.002428 0.014925 0.000000 0.069577 0.000000
# 6 0.000000 0.000000 0.000000 0.006676 0.000000 0.045898
#
#
# Mechanical properties :
#
#
# Convention : Reuss Voigt Hill
#
# Bulk Modulus (GPa) = 41.07886 57.00465 49.04175
# Shear Modulus (GPa) = 18.62096 22.49792 20.55944
#
# Velocity S-wave (km/s) = 3.29786 3.62495 3.46527
# Velocity P-wave (km/s) = 6.20435 7.12846 6.68240
#
# Compressibility (1/GPa) = 0.02434342
#
# Stress axis : x y z
#
# Youngs Moduli (GPa) = 66.10130 99.44520 30.40625
#
# Poissons Ratio (x) = 0.32943 0.24076
# Poissons Ratio (y) = 0.21897 0.17129
# Poissons Ratio (z) = 0.52341 0.56022
#
# Static dielectric constant tensor:
#      x y z
#    x 3.319390 0.000000 0.093710 
#    y 0.000000 3.549420 0.000000 
#    z 0.093710 0.000000 2.798580 
# 
# 
# High freq. dielectric constant tensor:
#      x y z
#    x 1.662670 0.000000 0.013260 
#    y 0.000000 1.669890 0.000000 
#    z 0.013260 0.000000 1.607170 
# 
# From -- ./inp_files/168537.got.cif
#   From: 2010.06.25/outbox.cif.g09.slc.cpg/sg12_85_cif.got.tgz:168537.got - 2010.06.28 00:19:55.
