data_PCOD8078066
_publ_section_title
;
Structure prediction by ZEFSAII (Michael W. Deem and Ramdas Pophale) SiO2 
 PCOD8078066
Probable space group: C 2/M
;
_chemical_formula_sum "Si O2"
_cell_formula_units_Z 52
_cell_length_a 11.419216
_cell_length_b 27.331632
_cell_length_c 8.999048
_cell_angle_alpha 90.000000
_cell_angle_beta 76.529113
_cell_angle_gamma 90.000000
_cell_volume 2731.384598
_symmetry_space_group_name_H-M "C 2/M"
_symmetry_group_IT_number 12
_symmetry_cell_setting 'monoclinic'
loop_
_space_group_symop_operation_xyz
x,y,z
-x,y,-z
-x,-y,-z
x,-y,z
1/2+x,1/2+y,z
1/2-x,1/2+y,-z
1/2-x,1/2-y,-z
1/2+x,1/2-y,z
loop_
_atom_site_type_symbol
_atom_site_label
_atom_site_fract_x
_atom_site_fract_y
_atom_site_fract_z
Si Si1 0.837068 0.230907 0.346513
Si Si2 0.464904 0.555969 0.851167
Si Si3 0.203449 0.896890 0.317698
Si Si4 0.664255 0.848981 0.334917
Si Si5 0.210259 0.944986 0.616686
Si Si6 0.912911 0.667002 0.304526
Si Si7 0.500000 0.673234 0.500000
O O1 0.750000 0.250000 0.500000
O O2 0.768137 0.190967 0.263024
O O3 0.883317 0.279198 0.245268
O O4 0.957947 0.206631 0.375998
O O5 0.428847 0.500000 0.887519
O O6 0.347810 0.582763 0.821184
O O7 0.571144 0.562355 0.701180
O O8 0.500000 0.579455 0.000000
O O9 0.220971 0.939320 0.435618
O O10 0.332254 0.872565 0.240143
O O11 0.115544 0.857310 0.417006
O O12 0.711882 0.904912 0.316907
O O13 0.621913 0.836083 0.512414
O O14 0.555204 0.844800 0.248848
O O15 0.253443 0.000000 0.646945
#
# Coordination Sequence:
#
# PCOD8078066 Si02
#       7
#     8   8   8   8   8   8   4
#     4  10  15  24  39  64 102 132 152 199 245 281
#     4  10  20  33  50  72  97 126 163 205 246 289
#     4  11  18  30  46  74 100 124 160 203 243 291
#     4   9  16  29  40  66 101 132 159 195 238 293
#     4  10  18  31  50  71  97 131 159 197 246 291
#     4   9  18  26  42  67 106 129 160 198 244 286
#     4  12  16  24  43  70 100 122 161 194 246 282
#
# _framework density 19.037963999999999
#
# number of rings (size 3 to 8) (size 9 to 14) (size 15 to 20)
#    0.000    2.000    6.154    2.308    0.000    1.231 
#    0.000    6.923    0.000    0.923    0.000    7.538 
#    0.000    0.000    0.000    0.000    0.000    0.000 
#
# Total GULP energy -322253.367394 kJ/mol
# GULP energy per Si atom -12394.360284 kJ/mol
# Density = 1.899463 g / cm^3
# Si number density = 19.037964 Si / 1000 Ang^3
#
#
#
# Elastic Constant Matrix: (Units=GPa)
#
#
# Indices 1 2 3 4 5 6 
#
# 1 147.7127 76.6876 18.4595 0.0000 27.6691 0.0000
# 2 76.6876 138.7684 19.3703 0.0000 15.7066 0.0000
# 3 18.4595 19.3703 32.2831 0.0000 18.2402 0.0000
# 4 0.0000 0.0000 0.0000 7.6568 0.0000 4.8033
# 5 27.6691 15.7066 18.2402 0.0000 17.9780 0.0000
# 6 0.0000 0.0000 0.0000 4.8033 0.0000 32.2243
#
#
#
# Elastic Compliance Matrix: (Units=1/GPa)
#
#
# Indices 1 2 3 4 5 6 
#
# 1 0.013488 -0.005964 0.010898 0.000000 -0.026606 0.000000
# 2 -0.005964 0.010689 -0.006826 0.000000 0.006766 0.000000
# 3 0.010898 -0.006826 0.081893 0.000000 -0.093897 0.000000
# 4 0.000000 0.000000 0.000000 0.144076 0.000000 -0.021476
# 5 -0.026606 0.006766 -0.093897 0.000000 0.185927 0.000000
# 6 0.000000 0.000000 0.000000 -0.021476 0.000000 0.034234
#
#
# Mechanical properties :
#
#
# Convention : Reuss Voigt Hill
#
# Bulk Modulus (GPa) = 9.77646 60.86655 35.32151
# Shear Modulus (GPa) = 9.83895 25.18825 17.51360
#
# Velocity S-wave (km/s) = 2.27581 3.64133 3.03633
# Velocity P-wave (km/s) = 3.47162 7.05121 5.55750
#
# Compressibility (1/GPa) = 0.10228646
#
# Stress axis : x y z
#
# Youngs Moduli (GPa) = 74.14147 93.55401 12.21111
#
# Poissons Ratio (x) = 0.55792 -0.13308
# Poissons Ratio (y) = 0.44215 0.08335
# Poissons Ratio (z) = -0.80802 0.63861
#
# Static dielectric constant tensor:
#      x y z
#    x 3.877740 0.000000 0.167910 
#    y 0.000000 3.829740 0.000000 
#    z 0.167910 0.000000 2.831360 
# 
# 
# High freq. dielectric constant tensor:
#      x y z
#    x 1.746720 0.000000 0.014060 
#    y 0.000000 1.754580 0.000000 
#    z 0.014060 0.000000 1.654630 
# 
# From -- ./inp_files/52563.got.cif
#   From: 2010.06.25/outbox.cif.g09.slc.cpg/sg12_27_cif.got.tgz:52563.got - 2010.06.28 00:19:55.
