data_PCOD8078876
_publ_section_title
;
Structure prediction by ZEFSAII (Michael W. Deem and Ramdas Pophale) SiO2 
 PCOD8078876
Probable space group: C 2/M
;
_chemical_formula_sum "Si O2"
_cell_formula_units_Z 64
_cell_length_a 22.511269
_cell_length_b 17.924629
_cell_length_c 13.377052
_cell_angle_alpha 90.000000
_cell_angle_beta 45.809416
_cell_angle_gamma 90.000000
_cell_volume 3870.303028
_symmetry_space_group_name_H-M "C 2/M"
_symmetry_group_IT_number 12
_symmetry_cell_setting 'monoclinic'
loop_
_space_group_symop_operation_xyz
x,y,z
-x,y,-z
-x,-y,-z
x,-y,z
1/2+x,1/2+y,z
1/2-x,1/2+y,-z
1/2-x,1/2-y,-z
1/2+x,1/2-y,z
loop_
_atom_site_type_symbol
_atom_site_label
_atom_site_fract_x
_atom_site_fract_y
_atom_site_fract_z
Si Si1 0.775863 0.729677 0.104558
Si Si2 0.311612 0.312192 0.616121
Si Si3 0.120465 0.798714 0.163357
Si Si4 0.409689 0.586733 0.648407
Si Si5 0.529451 0.215233 0.581092
Si Si6 0.816778 0.585128 0.307883
Si Si7 0.132224 0.584086 0.977639
Si Si8 0.961037 0.585253 0.287178
O O1 0.756288 0.738671 0.245339
O O2 0.689461 0.743356 0.149070
O O3 0.809254 0.645989 0.039516
O O4 0.843673 0.792781 0.992045
O O5 0.341894 0.375381 0.658335
O O6 0.386198 0.260263 0.493784
O O7 0.262747 0.358722 0.588148
O O8 0.101315 0.882178 0.225550
O O9 0.036950 0.752428 0.268889
O O10 0.500000 0.607602 0.500000
O O11 0.392998 0.500000 0.669999
O O12 0.500000 0.218348 0.500000
O O13 0.538555 0.131101 0.609398
O O14 0.786092 0.500000 0.358549
O O15 0.863436 0.593647 0.147109
O O16 0.880154 0.608537 0.319713
O O17 0.160831 0.500000 0.974778
O O18 0.039259 0.599234 0.123738
O O19 0.956925 0.500000 0.326389
#
# Coordination Sequence:
#
# PCOD8078876 Si02
#       8
#     8   8   8   8   8   8   8   8
#     4   9  17  27  47  68  93 125 161 192 238 288
#     4  10  18  31  49  74  98 128 157 197 251 295
#     4  10  17  30  44  67  94 130 161 193 236 290
#     4  10  17  27  45  69  95 126 157 191 243 302
#     4  12  20  34  51  68 101 136 165 200 243 285
#     4   9  18  32  50  74 103 127 156 203 251 295
#     4   9  16  29  50  74  97 123 155 198 252 296
#     4  10  21  34  50  70  96 133 171 203 239 286
#
# _framework density 16.536173000000002
#
# number of rings (size 3 to 8) (size 9 to 14) (size 15 to 20)
#    0.000    2.125    5.000    0.750    0.000    5.250 
#    0.000    0.000    0.000    0.750    0.000    0.000 
#    0.000    0.000    0.000    6.000    0.000    0.000 
#
# Total GULP energy -396479.121701 kJ/mol
# GULP energy per Si atom -12389.972553 kJ/mol
# Density = 1.649854 g / cm^3
# Si number density = 16.536173 Si / 1000 Ang^3
#
#
#
# Elastic Constant Matrix: (Units=GPa)
#
#
# Indices 1 2 3 4 5 6 
#
# 1 53.0256 24.9301 20.2312 0.0000 -12.6261 0.0000
# 2 24.9301 66.5513 36.2180 0.0000 -7.5007 0.0000
# 3 20.2312 36.2180 79.5919 0.0000 -17.2233 0.0000
# 4 0.0000 0.0000 0.0000 22.8344 0.0000 -1.0532
# 5 -12.6261 -7.5007 -17.2233 0.0000 18.9105 0.0000
# 6 0.0000 0.0000 0.0000 -1.0532 0.0000 24.3130
#
#
#
# Elastic Compliance Matrix: (Units=1/GPa)
#
#
# Indices 1 2 3 4 5 6 
#
# 1 0.026077 -0.008286 0.000247 0.000000 0.014349 0.000000
# 2 -0.008286 0.022608 -0.009264 0.000000 -0.005002 0.000000
# 3 0.000247 -0.009264 0.019874 0.000000 0.014592 0.000000
# 4 0.000000 0.000000 0.000000 0.043881 0.000000 0.001901
# 5 0.014349 -0.005002 0.014592 0.000000 0.073767 0.000000
# 6 0.000000 0.000000 0.000000 0.001901 0.000000 0.041213
#
#
# Mechanical properties :
#
#
# Convention : Reuss Voigt Hill
#
# Bulk Modulus (GPa) = 29.45163 40.21415 34.83289
# Shear Modulus (GPa) = 18.29208 21.06423 19.67815
#
# Velocity S-wave (km/s) = 3.32955 3.57294 3.45339
# Velocity P-wave (km/s) = 5.71229 6.43373 6.08372
#
# Compressibility (1/GPa) = 0.03395398
#
# Stress axis : x y z
#
# Youngs Moduli (GPa) = 38.34828 44.23306 50.31604
#
# Poissons Ratio (x) = 0.36650 -0.01243
# Poissons Ratio (y) = 0.31774 0.46612
# Poissons Ratio (z) = -0.00948 0.40977
#
# Static dielectric constant tensor:
#      x y z
#    x 2.950520 0.000000 -0.199840 
#    y 0.000000 3.163200 0.000000 
#    z -0.199840 0.000000 3.298640 
# 
# 
# High freq. dielectric constant tensor:
#      x y z
#    x 1.611680 0.000000 -0.027790 
#    y 0.000000 1.624970 0.000000 
#    z -0.027790 0.000000 1.635390 
# 
# From -- ./inp_files/246352.got.cif
#   From: 2010.06.25/outbox.cif.g09.slc.cpg/sg12_124_cif.got.tgz:246352.got - 2010.06.28 00:19:55.
