data_PCOD8078538
_publ_section_title
;
Structure prediction by ZEFSAII (Michael W. Deem and Ramdas Pophale) SiO2 
 PCOD8078538
Probable space group: C 2/M
;
_chemical_formula_sum "Si O2"
_cell_formula_units_Z 48
_cell_length_a 20.806140
_cell_length_b 8.521497
_cell_length_c 16.805363
_cell_angle_alpha 90.000000
_cell_angle_beta 115.452602
_cell_angle_gamma 90.000000
_cell_volume 2690.386897
_symmetry_space_group_name_H-M "C 2/M"
_symmetry_group_IT_number 12
_symmetry_cell_setting 'monoclinic'
loop_
_space_group_symop_operation_xyz
x,y,z
-x,y,-z
-x,-y,-z
x,-y,z
1/2+x,1/2+y,z
1/2-x,1/2+y,-z
1/2-x,1/2-y,-z
1/2+x,1/2-y,z
loop_
_atom_site_type_symbol
_atom_site_label
_atom_site_fract_x
_atom_site_fract_y
_atom_site_fract_z
Si Si1 0.600141 0.682566 0.587412
Si Si2 0.459981 0.817950 0.586785
Si Si3 0.551871 0.813187 0.960201
Si Si4 0.963190 0.686124 0.222959
Si Si5 0.786561 0.314226 0.940642
Si Si6 0.321797 0.814239 0.235885
O O1 0.585062 0.500000 0.592684
O O2 0.536558 0.788744 0.587528
O O3 0.601766 0.720726 0.492910
O O4 0.671233 0.736860 0.671977
O O5 0.470343 0.763151 0.684705
O O6 0.440182 0.000000 0.571651
O O7 0.525975 0.747870 0.860323
O O8 0.547996 0.000000 0.958643
O O9 0.500000 0.742189 0.000000
O O10 0.631999 0.756703 0.018970
O O11 0.958041 0.500000 0.218607
O O12 0.887881 0.747327 0.217518
O O13 0.781186 0.500000 0.938892
O O14 0.750321 0.246467 0.842260
O O15 0.750000 0.250000 0.000000
O O16 0.319437 0.000000 0.242825
#
# Coordination Sequence:
#
# PCOD8078538 Si02
#       6
#     8   8   8   8   8   8
#     4  10  17  25  38  62  93 121 155 195 239 287
#     4   9  15  24  39  59  90 127 158 190 235 288
#     4   9  17  30  48  71  98 127 163 203 237 278
#     4   8  14  25  42  65  90 121 159 194 232 280
#     4  11  20  31  49  73  97 127 164 201 243 286
#     4  10  18  30  46  66  94 125 159 197 241 290
#
# _framework density 17.8413
#
# number of rings (size 3 to 8) (size 9 to 14) (size 15 to 20)
#    0.000    2.500    1.667    5.000    0.000    0.000 
#    0.000    0.000    0.000    2.000    0.000    1.167 
#    0.000    0.000    0.000    0.000    0.000    0.000 
#
# Total GULP energy -297385.678827 kJ/mol
# GULP energy per Si atom -12391.069951 kJ/mol
# Density = 1.780069 g / cm^3
# Si number density = 17.841300 Si / 1000 Ang^3
#
#
#
# Elastic Constant Matrix: (Units=GPa)
#
#
# Indices 1 2 3 4 5 6 
#
# 1 70.7923 16.5201 55.7498 0.0000 -1.4927 0.0000
# 2 16.5201 51.9714 37.9835 0.0000 1.8169 0.0000
# 3 55.7498 37.9835 215.9066 0.0000 2.6685 0.0000
# 4 0.0000 0.0000 0.0000 29.5622 0.0000 4.6819
# 5 -1.4927 1.8169 2.6685 0.0000 15.3105 0.0000
# 6 0.0000 0.0000 0.0000 4.6819 0.0000 9.2647
#
#
#
# Elastic Compliance Matrix: (Units=1/GPa)
#
#
# Indices 1 2 3 4 5 6 
#
# 1 0.018172 -0.002778 -0.004239 0.000000 0.002840 0.000000
# 2 -0.002778 0.022563 -0.003223 0.000000 -0.002387 0.000000
# 3 -0.004239 -0.003223 0.006307 0.000000 -0.001130 0.000000
# 4 0.000000 0.000000 0.000000 0.036770 0.000000 -0.018582
# 5 0.002840 -0.002387 -0.001130 0.000000 0.066072 0.000000
# 6 0.000000 0.000000 0.000000 -0.018582 0.000000 0.117326
#
#
# Mechanical properties :
#
#
# Convention : Reuss Voigt Hill
#
# Bulk Modulus (GPa) = 37.64510 62.13078 49.88794
# Shear Modulus (GPa) = 16.86098 26.05529 21.45813
#
# Velocity S-wave (km/s) = 3.07751 3.82565 3.47179
# Velocity P-wave (km/s) = 5.81153 7.37658 6.64032
#
# Compressibility (1/GPa) = 0.02656388
#
# Stress axis : x y z
#
# Youngs Moduli (GPa) = 55.02996 44.32026 158.55345
#
# Poissons Ratio (x) = 0.12311 0.67205
# Poissons Ratio (y) = 0.15286 0.51097
# Poissons Ratio (z) = 0.23325 0.14283
#
# Static dielectric constant tensor:
#      x y z
#    x 2.869650 0.000000 -0.065360 
#    y 0.000000 3.035730 0.000000 
#    z -0.065360 0.000000 4.303750 
# 
# 
# High freq. dielectric constant tensor:
#      x y z
#    x 1.608420 0.000000 0.002960 
#    y 0.000000 1.673350 0.000000 
#    z 0.002960 0.000000 1.727760 
# 
# From -- ./inp_files/280044.got.cif
#   From: 2010.06.25/outbox.cif.g09.slc.cpg/sg12_141_cif.got.tgz:280044.got - 2010.06.28 00:19:55.
