data_PCOD8078164
_publ_section_title
;
Structure prediction by ZEFSAII (Michael W. Deem and Ramdas Pophale) SiO2 
 PCOD8078164
Probable space group: C 2/M
;
_chemical_formula_sum "Si O2"
_cell_formula_units_Z 56
_cell_length_a 25.046187
_cell_length_b 27.914476
_cell_length_c 5.327711
_cell_angle_alpha 90.000000
_cell_angle_beta 89.999984
_cell_angle_gamma 90.000000
_cell_volume 3724.875464
_symmetry_space_group_name_H-M "C 2/M"
_symmetry_group_IT_number 12
_symmetry_cell_setting 'monoclinic'
loop_
_space_group_symop_operation_xyz
x,y,z
-x,y,-z
-x,-y,-z
x,-y,z
1/2+x,1/2+y,z
1/2-x,1/2+y,-z
1/2-x,1/2-y,-z
1/2+x,1/2-y,z
loop_
_atom_site_type_symbol
_atom_site_label
_atom_site_fract_x
_atom_site_fract_y
_atom_site_fract_z
Si Si1 0.864929 0.791313 0.750001
Si Si2 0.755968 0.323295 0.249999
Si Si3 0.167447 0.764650 0.749999
Si Si4 0.468814 0.354148 0.750000
Si Si5 0.735257 0.359447 0.749999
Si Si6 0.841278 0.054762 0.250000
Si Si7 0.408174 0.445316 0.749999
O O1 0.807772 0.817349 0.750002
O O2 0.868756 0.758098 0.499839
O O3 0.910852 0.830492 0.750000
O O4 0.868756 0.758098 0.000163
O O5 0.783157 0.271514 0.250000
O O6 0.771914 0.352792 0.500693
O O7 0.771914 0.352792 0.999305
O O8 0.189483 0.818843 0.749998
O O9 0.500000 0.338032 0.500000
O O10 0.460206 0.411513 0.750000
O O11 0.500000 0.338033 0.000000
O O12 0.710726 0.412236 0.750001
O O13 0.874766 0.066080 0.499648
O O14 0.821515 0.000000 0.250001
O O15 0.874766 0.066080 0.000351
O O16 0.428402 0.500000 0.749999
#
# Coordination Sequence:
#
# PCOD8078164 Si02
#       7
#     8   8   8   8   8   8   8
#     4  10  18  30  44  58  82 106 124 160 205 250
#     4  10  18  27  45  68  84 100 125 159 217 269
#     4  10  17  28  46  67  84 100 125 159 217 268
#     4  12  24  35  46  61  80 108 146 178 218 272
#     4  10  16  25  39  59  87 106 122 158 202 250
#     4  10  19  31  47  64  80 107 144 175 218 273
#     4  10  20  34  48  59  73  97 138 193 237 264
#
# _framework density 15.03406
#
# number of rings (size 3 to 8) (size 9 to 14) (size 15 to 20)
#    0.000    1.714    0.000   10.286    0.000    0.571 
#    0.000    0.000    0.000    0.000    0.000    0.000 
#    0.000    0.000    0.000    0.000    0.000    0.000 
#
# Total GULP energy -347039.577428 kJ/mol
# GULP energy per Si atom -12394.270622 kJ/mol
# Density = 1.499984 g / cm^3
# Si number density = 15.034060 Si / 1000 Ang^3
#
#
#
# Elastic Constant Matrix: (Units=GPa)
#
#
# Indices 1 2 3 4 5 6 
#
# 1 43.0047 34.4838 24.1627 0.0000 0.0001 0.0000
# 2 34.4838 53.9775 27.6593 0.0000 0.0001 0.0000
# 3 24.1627 27.6593 174.0419 0.0000 0.0002 0.0000
# 4 0.0000 0.0000 0.0000 12.4474 0.0000 0.0002
# 5 0.0001 0.0001 0.0002 0.0000 18.0667 0.0000
# 6 0.0000 0.0000 0.0000 0.0002 0.0000 26.3220
#
#
#
# Elastic Compliance Matrix: (Units=1/GPa)
#
#
# Indices 1 2 3 4 5 6 
#
# 1 0.048284 -0.029842 -0.001961 0.000000 0.000000 0.000000
# 2 -0.029842 0.038612 -0.001993 0.000000 0.000000 0.000000
# 3 -0.001961 -0.001993 0.006335 0.000000 0.000000 0.000000
# 4 0.000000 0.000000 0.000000 0.080338 0.000000 -0.000001
# 5 0.000000 0.000000 0.000000 0.000000 0.055350 0.000000
# 6 0.000000 0.000000 0.000000 -0.000001 0.000000 0.037991
#
#
# Mechanical properties :
#
#
# Convention : Reuss Voigt Hill
#
# Bulk Modulus (GPa) = 39.00293 49.29285 44.14789
# Shear Modulus (GPa) = 14.57521 23.68177 19.12849
#
# Velocity S-wave (km/s) = 3.11702 3.97319 3.57086
# Velocity P-wave (km/s) = 6.24130 7.34214 6.81399
#
# Compressibility (1/GPa) = 0.02563910
#
# Stress axis : x y z
#
# Youngs Moduli (GPa) = 20.71092 25.89860 157.85900
#
# Poissons Ratio (x) = 0.77285 0.30953
# Poissons Ratio (y) = 0.61805 0.31468
# Poissons Ratio (z) = 0.04061 0.05163
#
# Static dielectric constant tensor:
#      x y z
#    x 2.436130 0.000000 0.000000 
#    y 0.000000 2.707480 0.000000 
#    z 0.000000 0.000000 4.586020 
# 
# 
# High freq. dielectric constant tensor:
#      x y z
#    x 1.511990 0.000000 0.000000 
#    y 0.000000 1.545430 0.000000 
#    z 0.000000 0.000000 1.624450 
# 
# From -- ./inp_files/13164.got.cif
#   From: 2010.06.25/outbox.cif.g09.slc.cpg/sg12_7_cif.got.tgz:13164.got - 2010.06.28 00:19:55.
