data_PCOD8078283
_publ_section_title
;
Structure prediction by ZEFSAII (Michael W. Deem and Ramdas Pophale) SiO2 
 PCOD8078283
Probable space group: C 2/M
;
_chemical_formula_sum "Si O2"
_cell_formula_units_Z 64
_cell_length_a 18.723299
_cell_length_b 19.282852
_cell_length_c 11.329317
_cell_angle_alpha 90.000000
_cell_angle_beta 60.507175
_cell_angle_gamma 90.000000
_cell_volume 3560.286198
_symmetry_space_group_name_H-M "C 2/M"
_symmetry_group_IT_number 12
_symmetry_cell_setting 'monoclinic'
loop_
_space_group_symop_operation_xyz
x,y,z
-x,y,-z
-x,-y,-z
x,-y,z
1/2+x,1/2+y,z
1/2-x,1/2+y,-z
1/2-x,1/2-y,-z
1/2+x,1/2-y,z
loop_
_atom_site_type_symbol
_atom_site_label
_atom_site_fract_x
_atom_site_fract_y
_atom_site_fract_z
Si Si1 0.981871 0.806899 0.387046
Si Si2 0.210476 0.420684 0.358520
Si Si3 0.976823 0.661853 0.141621
Si Si4 0.049307 0.646100 0.577138
Si Si5 0.818755 0.849191 0.433552
Si Si6 0.756734 0.309297 0.856855
Si Si7 0.706049 0.214045 0.700219
Si Si8 0.889860 0.763626 0.891134
O O1 0.943747 0.729268 0.428117
O O2 0.915056 0.857231 0.381999
O O3 0.000000 0.837629 0.500000
O O4 0.066624 0.807535 0.246968
O O5 0.191232 0.500000 0.344023
O O6 0.138751 0.386276 0.494647
O O7 0.291040 0.414247 0.375546
O O8 0.222193 0.380197 0.226861
O O9 0.987855 0.623742 0.262458
O O10 0.882725 0.682681 0.202688
O O11 0.038210 0.728251 0.089776
O O12 0.000000 0.619818 0.000000
O O13 0.000000 0.620567 0.500000
O O14 0.764966 0.844690 0.596806
O O15 0.803272 0.779688 0.374738
O O16 0.750871 0.240223 0.781856
O O17 0.830786 0.296833 0.887739
O O18 0.666948 0.317382 0.990223
#
# Coordination Sequence:
#
# PCOD8078283 Si02
#       8
#     8   8   8   8   8   8   8   8
#     4  10  17  29  52  81 107 128 167 219 292 333
#     4  11  22  35  51  73 105 152 192 218 249 308
#     4  11  18  29  48  83 109 136 164 208 287 343
#     4  10  19  34  54  78 111 140 176 224 275 335
#     4  10  17  29  49  72 100 133 177 220 262 315
#     4  10  20  32  49  77 112 136 179 217 277 333
#     4  10  16  28  48  74 104 136 161 218 281 324
#     4  10  19  30  48  79 109 141 160 223 288 338
#
# _framework density 17.976084
#
# number of rings (size 3 to 8) (size 9 to 14) (size 15 to 20)
#    0.000    1.750    5.000    4.500    0.000    0.250 
#    0.000    0.000    0.000    2.250    0.000   14.000 
#    0.000    0.000    0.000    0.000    0.000    0.000 
#
# Total GULP energy -396479.712524 kJ/mol
# GULP energy per Si atom -12389.991016 kJ/mol
# Density = 1.793517 g / cm^3
# Si number density = 17.976084 Si / 1000 Ang^3
#
#
#
# Elastic Constant Matrix: (Units=GPa)
#
#
# Indices 1 2 3 4 5 6 
#
# 1 63.9134 7.3199 26.3887 0.0000 -5.2806 0.0000
# 2 7.3199 37.6411 25.6262 0.0000 -3.0774 0.0000
# 3 26.3887 25.6262 144.2675 0.0000 -4.0864 0.0000
# 4 0.0000 0.0000 0.0000 -5.4753 0.0000 -3.6100
# 5 -5.2806 -3.0774 -4.0864 0.0000 38.8758 0.0000
# 6 0.0000 0.0000 0.0000 -3.6100 0.0000 7.9065
#
#
#
# Elastic Compliance Matrix: (Units=1/GPa)
#
#
# Indices 1 2 3 4 5 6 
#
# 1 0.017127 -0.001225 -0.002860 0.000000 0.001929 0.000000
# 2 -0.001225 0.030440 -0.005135 0.000000 0.001703 0.000000
# 3 -0.002860 -0.005135 0.008369 0.000000 0.000085 0.000000
# 4 0.000000 0.000000 0.000000 -0.140378 0.000000 -0.064095
# 5 0.001929 0.001703 0.000085 0.000000 0.026129 0.000000
# 6 0.000000 0.000000 0.000000 -0.064095 0.000000 0.097214
#
#
# Mechanical properties :
#
#
# Convention : Reuss Voigt Hill
#
# Bulk Modulus (GPa) = 26.67025 40.49906 33.58466
# Shear Modulus (GPa) = 71.59238 20.69387 46.14312
#
# Velocity S-wave (km/s) = 6.31767 3.39660 5.07197
# Velocity P-wave (km/s) = 8.25142 6.16124 7.28172
#
# Compressibility (1/GPa) = 0.03749496
#
# Stress axis : x y z
#
# Youngs Moduli (GPa) = 58.38762 32.85159 119.48496
#
# Poissons Ratio (x) = 0.04026 0.34178
# Poissons Ratio (y) = 0.07155 0.61351
# Poissons Ratio (z) = 0.16702 0.16868
#
# Static dielectric constant tensor:
#      x y z
#    x 3.731730 0.000000 0.147330 
#    y 0.000000 2.640880 0.000000 
#    z 0.147330 0.000000 3.807540 
# 
# 
# High freq. dielectric constant tensor:
#      x y z
#    x 1.715790 0.000000 0.000350 
#    y 0.000000 1.599500 0.000000 
#    z 0.000350 0.000000 1.716850 
# 
# From -- ./inp_files/159235.got.cif
#   From: 2010.06.25/outbox.cif.g09.slc.cpg/sg12_80_cif.got.tgz:159235.got - 2010.06.28 00:19:55.
