data_PCOD8078044
_publ_section_title
;
Structure prediction by ZEFSAII (Michael W. Deem and Ramdas Pophale) SiO2 
 PCOD8078044
Probable space group: C 2/M
;
_chemical_formula_sum "Si O2"
_cell_formula_units_Z 48
_cell_length_a 5.260131
_cell_length_b 16.854017
_cell_length_c 29.894683
_cell_angle_alpha 90.000000
_cell_angle_beta 110.350851
_cell_angle_gamma 90.000000
_cell_volume 2484.863735
_symmetry_space_group_name_H-M "C 2/M"
_symmetry_group_IT_number 12
_symmetry_cell_setting 'monoclinic'
loop_
_space_group_symop_operation_xyz
x,y,z
-x,y,-z
-x,-y,-z
x,-y,z
1/2+x,1/2+y,z
1/2-x,1/2+y,-z
1/2-x,1/2-y,-z
1/2+x,1/2-y,z
loop_
_atom_site_type_symbol
_atom_site_label
_atom_site_fract_x
_atom_site_fract_y
_atom_site_fract_z
Si Si1 0.104567 0.405580 0.053726
Si Si2 0.313805 0.655711 0.404362
Si Si3 0.429661 0.200455 0.696692
Si Si4 0.607360 0.832202 0.555761
Si Si5 0.579915 0.198518 0.801708
Si Si6 0.712347 0.405823 0.108254
O O1 0.102745 0.500000 0.052637
O O2 0.408448 0.374202 0.080818
O O3 0.904528 0.374246 0.080169
O O4 0.000000 0.371751 0.000000
O O5 0.200013 0.639857 0.347307
O O6 0.333879 0.749942 0.415256
O O7 0.612636 0.617636 0.428214
O O8 0.112922 0.617856 0.429160
O O9 0.709851 0.230745 0.692299
O O10 0.494984 0.160071 0.748600
O O11 0.500000 0.813461 0.500000
O O12 0.319206 0.237935 0.809161
O O13 0.682923 0.127091 0.838440
O O14 0.719317 0.500000 0.111677
#
# Coordination Sequence:
#
# PCOD8078044 Si02
#       6
#     8   8   8   8   8   8
#     4   9  17  30  52  78  99 122 157 195 229 276
#     4  10  14  22  31  43  65  93 132 176 202 253
#     4  10  16  27  39  54  73 106 147 184 213 255
#     4  10  16  20  29  45  67  95 132 173 213 257
#     4  10  21  33  50  69  95 127 161 199 232 277
#     4  10  19  33  53  76 100 125 156 195 238 276
#
# _framework density 19.316956999999999
#
# number of rings (size 3 to 8) (size 9 to 14) (size 15 to 20)
#    0.000    2.167    3.333    4.000    0.000    2.000 
#    0.000    0.000    0.000   10.000    0.000    0.000 
#    0.000    0.000    0.000    0.000    0.000    9.167 
#
# Total GULP energy -297415.648084 kJ/mol
# GULP energy per Si atom -12392.318670 kJ/mol
# Density = 1.927299 g / cm^3
# Si number density = 19.316957 Si / 1000 Ang^3
#
#
#
# Elastic Constant Matrix: (Units=GPa)
#
#
# Indices 1 2 3 4 5 6 
#
# 1 180.1747 7.8680 63.2996 0.0000 5.3647 0.0000
# 2 7.8680 7.9242 19.0301 0.0000 -0.0033 0.0000
# 3 63.2996 19.0301 183.7741 0.0000 2.8792 0.0000
# 4 0.0000 0.0000 0.0000 2.8131 0.0000 -0.2601
# 5 5.3647 -0.0033 2.8792 0.0000 35.9138 0.0000
# 6 0.0000 0.0000 0.0000 -0.2601 0.0000 5.2220
#
#
#
# Elastic Compliance Matrix: (Units=1/GPa)
#
#
# Indices 1 2 3 4 5 6 
#
# 1 0.006348 -0.001440 -0.002025 0.000000 -0.000786 0.000000
# 2 -0.001440 0.168364 -0.016963 0.000000 0.001591 0.000000
# 3 -0.002025 -0.016963 0.007901 0.000000 -0.000332 0.000000
# 4 0.000000 0.000000 0.000000 0.357127 0.000000 0.017786
# 5 -0.000786 0.001591 -0.000332 0.000000 0.027989 0.000000
# 6 0.000000 0.000000 0.000000 0.017786 0.000000 0.192384
#
#
# Mechanical properties :
#
#
# Convention : Reuss Voigt Hill
#
# Bulk Modulus (GPa) = 7.05438 61.36316 34.20877
# Shear Modulus (GPa) = 5.89469 27.56813 16.73141
#
# Velocity S-wave (km/s) = 1.74877 3.78186 2.94624
# Velocity P-wave (km/s) = 2.78162 7.13480 5.41492
#
# Compressibility (1/GPa) = 0.14175591
#
# Stress axis : x y z
#
# Youngs Moduli (GPa) = 157.53230 5.93951 126.56986
#
# Poissons Ratio (x) = 0.00855 0.25631
# Poissons Ratio (y) = 0.22685 2.14705
# Poissons Ratio (z) = 0.31901 0.10075
#
# Static dielectric constant tensor:
#      x y z
#    x 5.463180 0.000000 0.036420 
#    y 0.000000 2.539910 0.000000 
#    z 0.036420 0.000000 3.846910 
# 
# 
# High freq. dielectric constant tensor:
#      x y z
#    x 1.791690 0.000000 0.001570 
#    y 0.000000 1.642310 0.000000 
#    z 0.001570 0.000000 1.775830 
# 
# From -- ./inp_files/354907.got.cif
#   From: 2010.06.25/outbox.cif.g09.slc.cpg/sg12_178_cif.got.tgz:354907.got - 2010.06.28 00:19:55.
