data_PCOD8078302
_publ_section_title
;
Structure prediction by ZEFSAII (Michael W. Deem and Ramdas Pophale) SiO2 
 PCOD8078302
Probable space group: C 2/M
;
_chemical_formula_sum "Si O2"
_cell_formula_units_Z 56
_cell_length_a 5.122252
_cell_length_b 33.118928
_cell_length_c 18.352867
_cell_angle_alpha 90.000000
_cell_angle_beta 68.666779
_cell_angle_gamma 90.000000
_cell_volume 2900.112695
_symmetry_space_group_name_H-M "C 2/M"
_symmetry_group_IT_number 12
_symmetry_cell_setting 'monoclinic'
loop_
_space_group_symop_operation_xyz
x,y,z
-x,y,-z
-x,-y,-z
x,-y,z
1/2+x,1/2+y,z
1/2-x,1/2+y,-z
1/2-x,1/2-y,-z
1/2+x,1/2-y,z
loop_
_atom_site_type_symbol
_atom_site_label
_atom_site_fract_x
_atom_site_fract_y
_atom_site_fract_z
Si Si1 0.677995 0.546370 0.550864
Si Si2 0.990029 0.724175 0.784908
Si Si3 0.564419 0.407819 0.289692
Si Si4 0.792796 0.294421 0.965066
Si Si5 0.250903 0.546754 0.865789
Si Si6 0.876072 0.637257 0.758718
Si Si7 0.685836 0.408333 0.914988
O O1 0.500000 0.561144 0.500000
O O2 0.607191 0.500000 0.576917
O O3 0.605906 0.573859 0.626581
O O4 0.000000 0.552445 0.500000
O O5 0.800926 0.758146 0.764646
O O6 0.892029 0.709482 0.873320
O O7 0.971047 0.683769 0.738458
O O8 0.643079 0.443480 0.226232
O O9 0.375971 0.373201 0.270722
O O10 0.853746 0.389114 0.289124
O O11 0.500000 0.318401 0.000000
O O12 0.750000 0.250000 0.000000
O O13 0.000000 0.317915 0.000000
O O14 0.178723 0.500000 0.879517
O O15 0.504670 0.557340 0.893687
O O16 0.972484 0.571673 0.915032
O O17 0.768803 0.628319 0.852218
O O18 0.500000 0.390723 0.000000
#
# Coordination Sequence:
#
# PCOD8078302 Si02
#       7
#     8   8   8   8   8   8   8
#     4  10  20  34  59  95 125 150 178 213 256 306
#     4  12  21  34  53  73 101 127 182 240 271 329
#     4  10  20  39  55  76 119 147 178 209 259 336
#     4  10  16  29  43  66  94 121 159 215 281 347
#     4  10  20  33  54  74  95 139 185 220 268 311
#     4  10  23  37  53  75 103 154 182 220 282 333
#     4  10  21  36  48  69 102 132 182 237 279 315
#
# _framework density 19.309594000000001
#
# number of rings (size 3 to 8) (size 9 to 14) (size 15 to 20)
#    0.000    1.714    2.857    3.000    0.000    2.286 
#    0.000    7.143    0.000    0.000    0.000    0.000 
#    0.000   40.000    0.000    0.000    0.000    0.000 
#
# Total GULP energy -347115.206412 kJ/mol
# GULP energy per Si atom -12396.971658 kJ/mol
# Density = 1.926564 g / cm^3
# Si number density = 19.309594 Si / 1000 Ang^3
#
#
#
# Elastic Constant Matrix: (Units=GPa)
#
#
# Indices 1 2 3 4 5 6 
#
# 1 119.6124 12.0516 9.2830 0.0000 -0.5719 0.0000
# 2 12.0516 78.9885 23.8139 0.0000 5.0956 0.0000
# 3 9.2830 23.8139 70.5465 0.0000 -5.2543 0.0000
# 4 0.0000 0.0000 0.0000 11.5953 0.0000 -6.4247
# 5 -0.5719 5.0956 -5.2543 0.0000 18.0665 0.0000
# 6 0.0000 0.0000 0.0000 -6.4247 0.0000 35.9135
#
#
#
# Elastic Compliance Matrix: (Units=1/GPa)
#
#
# Indices 1 2 3 4 5 6 
#
# 1 0.008530 -0.001108 -0.000721 0.000000 0.000373 0.000000
# 2 -0.001108 0.014790 -0.005274 0.000000 -0.005740 0.000000
# 3 -0.000721 -0.005274 0.016517 0.000000 0.006268 0.000000
# 4 0.000000 0.000000 0.000000 0.095730 0.000000 0.017125
# 5 0.000373 -0.005740 0.006268 0.000000 0.058805 0.000000
# 6 0.000000 0.000000 0.000000 0.017125 0.000000 0.030908
#
#
# Mechanical properties :
#
#
# Convention : Reuss Voigt Hill
#
# Bulk Modulus (GPa) = 39.01591 39.93827 39.47709
# Shear Modulus (GPa) = 20.15893 28.04834 24.10363
#
# Velocity S-wave (km/s) = 3.23458 3.81538 3.53692
# Velocity P-wave (km/s) = 5.84802 6.33542 6.09659
#
# Compressibility (1/GPa) = 0.02563057
#
# Stress axis : x y z
#
# Youngs Moduli (GPa) = 117.23736 67.61535 60.54344
#
# Poissons Ratio (x) = 0.07494 0.04362
# Poissons Ratio (y) = 0.12993 0.31931
# Poissons Ratio (z) = 0.08447 0.35661
#
# Static dielectric constant tensor:
#      x y z
#    x 3.882180 0.000000 -0.047660 
#    y 0.000000 3.193940 0.000000 
#    z -0.047660 0.000000 3.153510 
# 
# 
# High freq. dielectric constant tensor:
#      x y z
#    x 1.780420 0.000000 -0.003340 
#    y 0.000000 1.741130 0.000000 
#    z -0.003340 0.000000 1.710080 
# 
# From -- ./inp_files/253961.got.cif
#   From: 2010.06.25/outbox.cif.g09.slc.cpg/sg12_127_cif.got.tgz:253961.got - 2010.06.28 00:19:55.
