data_PCOD8078579
_publ_section_title
;
Structure prediction by ZEFSAII (Michael W. Deem and Ramdas Pophale) SiO2 
 PCOD8078579
Probable space group: C 2/M
;
_chemical_formula_sum "Si O2"
_cell_formula_units_Z 64
_cell_length_a 29.673436
_cell_length_b 14.990757
_cell_length_c 29.599609
_cell_angle_alpha 90.000000
_cell_angle_beta 18.603119
_cell_angle_gamma 90.000000
_cell_volume 4200.325064
_symmetry_space_group_name_H-M "C 2/M"
_symmetry_group_IT_number 12
_symmetry_cell_setting 'monoclinic'
loop_
_space_group_symop_operation_xyz
x,y,z
-x,y,-z
-x,-y,-z
x,-y,z
1/2+x,1/2+y,z
1/2-x,1/2+y,-z
1/2-x,1/2-y,-z
1/2+x,1/2-y,z
loop_
_atom_site_type_symbol
_atom_site_label
_atom_site_fract_x
_atom_site_fract_y
_atom_site_fract_z
Si Si1 0.809634 0.900157 0.784478
Si Si2 0.662761 0.102737 0.741391
Si Si3 0.102589 0.321070 0.048246
Si Si4 0.596377 0.598848 0.556732
Si Si5 0.585839 0.265649 0.646368
Si Si6 0.351076 0.319644 0.930540
Si Si7 0.085455 0.401534 0.163005
Si Si8 0.657197 0.393684 0.345776
O O1 0.777620 0.863421 0.764513
O O2 0.978369 0.899338 0.630001
O O3 0.748494 0.000000 0.847414
O O4 0.744640 0.841922 0.886200
O O5 0.525657 0.163481 0.864296
O O6 0.754964 0.112476 0.608807
O O7 0.742571 0.141856 0.709451
O O8 0.618600 0.000000 0.791295
O O9 0.116237 0.217415 0.050239
O O10 0.083485 0.380919 0.111316
O O11 0.593705 0.500000 0.583016
O O12 0.571229 0.681140 0.613866
O O13 0.750000 0.250000 0.500000
O O14 0.503291 0.328388 0.761212
O O15 0.510296 0.168579 0.717747
O O16 0.250000 0.250000 0.000000
O O17 0.249011 0.405805 0.026680
O O18 0.021007 0.500000 0.231388
O O19 0.500000 0.353096 0.500000
O O20 0.647843 0.500000 0.356947
#
# Coordination Sequence:
#
# PCOD8078579 Si02
#       8
#     8   8   8   8   8   8   8   8
#     4  10  17  25  41  58  77 109 149 183 204 241
#     4  10  18  27  41  59  85 118 148 179 217 254
#     4  10  18  28  41  62  83 106 146 187 216 247
#     4  10  18  28  44  62  81 117 157 179 206 258
#     4  10  19  29  43  66  91 112 144 193 235 261
#     4   8  17  31  43  57  84 114 141 181 225 262
#     4  10  19  33  48  61  87 122 154 189 226 266
#     4   9  16  28  38  53  83 114 145 179 211 248
#
# _framework density 15.236916000000001
#
# number of rings (size 3 to 8) (size 9 to 14) (size 15 to 20)
#    0.000    2.625    1.250    4.875    0.000    3.500 
#    0.000    1.875    0.000    0.000    0.000    0.000 
#    0.000    0.000    0.000   18.000    0.000    4.750 
#
# Total GULP energy -396435.219829 kJ/mol
# GULP energy per Si atom -12388.600620 kJ/mol
# Density = 1.520224 g / cm^3
# Si number density = 15.236916 Si / 1000 Ang^3
#
#
#
# Elastic Constant Matrix: (Units=GPa)
#
#
# Indices 1 2 3 4 5 6 
#
# 1 83.7495 26.0053 20.8311 0.0001 -3.6876 0.0010
# 2 26.0053 49.0519 11.5795 0.0012 2.9365 0.0005
# 3 20.8311 11.5795 71.7905 0.0070 -8.9624 0.0004
# 4 0.0001 0.0012 0.0070 18.9133 -0.0020 -0.4066
# 5 -3.6876 2.9365 -8.9624 -0.0020 27.0246 -0.0004
# 6 0.0010 0.0005 0.0004 -0.4066 -0.0004 16.6000
#
#
#
# Elastic Compliance Matrix: (Units=1/GPa)
#
#
# Indices 1 2 3 4 5 6 
#
# 1 0.015052 -0.007399 -0.002939 0.000002 0.001883 0.000000
# 2 -0.007399 0.025169 -0.002483 -0.000001 -0.004568 0.000000
# 3 -0.002939 -0.002483 0.015821 -0.000005 0.005116 0.000000
# 4 0.000002 -0.000001 -0.000005 0.052901 0.000003 0.001296
# 5 0.001883 -0.004568 0.005116 0.000003 0.039453 0.000001
# 6 0.000000 0.000000 0.000000 0.001296 0.000001 0.060273
#
#
# Mechanical properties :
#
#
# Convention : Reuss Voigt Hill
#
# Bulk Modulus (GPa) = 32.89442 35.71373 34.30408
# Shear Modulus (GPa) = 20.45464 22.25264 21.35364
#
# Velocity S-wave (km/s) = 3.66791 3.82572 3.74764
# Velocity P-wave (km/s) = 6.29075 6.55780 6.42566
#
# Compressibility (1/GPa) = 0.03040029
#
# Stress axis : x y z
#
# Youngs Moduli (GPa) = 66.43765 39.73188 63.20567
#
# Poissons Ratio (x) = 0.29397 0.18576
# Poissons Ratio (y) = 0.49156 0.15694
# Poissons Ratio (z) = 0.19526 0.09865
#
# Static dielectric constant tensor:
#      x y z
#    x 2.973390 0.000090 -0.130430 
#    y 0.000090 2.823870 -0.000120 
#    z -0.130430 -0.000120 3.078890 
# 
# 
# High freq. dielectric constant tensor:
#      x y z
#    x 1.573270 0.000000 -0.006900 
#    y 0.000000 1.528830 0.000000 
#    z -0.006900 0.000000 1.598680 
# 
# From -- ./inp_files/369711.got.cif
#   From: 2010.06.25/outbox.cif.g09.slc.cpg/sg12_185_cif.got.tgz:369711.got - 2010.06.28 00:19:55.
