data_PCOD8078895
_publ_section_title
;
Structure prediction by ZEFSAII (Michael W. Deem and Ramdas Pophale) SiO2 
 PCOD8078895
Probable space group: C 2/M
;
_chemical_formula_sum "Si O2"
_cell_formula_units_Z 64
_cell_length_a 29.574156
_cell_length_b 9.181275
_cell_length_c 15.217525
_cell_angle_alpha 90.000000
_cell_angle_beta 78.719025
_cell_angle_gamma 90.000000
_cell_volume 4052.159676
_symmetry_space_group_name_H-M "C 2/M"
_symmetry_group_IT_number 12
_symmetry_cell_setting 'monoclinic'
loop_
_space_group_symop_operation_xyz
x,y,z
-x,y,-z
-x,-y,-z
x,-y,z
1/2+x,1/2+y,z
1/2-x,1/2+y,-z
1/2-x,1/2-y,-z
1/2+x,1/2-y,z
loop_
_atom_site_type_symbol
_atom_site_label
_atom_site_fract_x
_atom_site_fract_y
_atom_site_fract_z
Si Si1 0.464768 0.327439 0.393864
Si Si2 0.044897 0.830736 0.795657
Si Si3 0.302364 0.168352 0.064331
Si Si4 0.405293 0.171424 0.070676
Si Si5 0.629399 0.328138 0.236511
Si Si6 0.786578 0.669794 0.868631
Si Si7 0.440630 0.667914 0.890468
Si Si8 0.063739 0.172713 0.411018
O O1 0.469567 0.500000 0.388808
O O2 0.444899 0.275329 0.307770
O O3 0.431426 0.280479 0.487916
O O4 0.515931 0.262729 0.390807
O O5 0.077011 0.734456 0.844713
O O6 0.991408 0.802798 0.835167
O O7 0.057435 0.000000 0.804136
O O8 0.351658 0.212914 0.084019
O O9 0.264074 0.264119 0.128429
O O10 0.290569 0.000000 0.084928
O O11 0.302967 0.204499 0.960943
O O12 0.412891 0.000000 0.065302
O O13 0.434151 0.238001 0.979948
O O14 0.638616 0.500000 0.233365
O O15 0.677693 0.245499 0.210691
O O16 0.595702 0.283972 0.169676
O O17 0.606572 0.271908 0.336418
O O18 0.784943 0.500000 0.848459
O O19 0.433708 0.500000 0.918812
O O20 0.061705 0.000000 0.403393
#
# Coordination Sequence:
#
# PCOD8078895 Si02
#       8
#     8   8   8   8   8   8   8   8
#     4   8  13  24  43  67  93 118 152 195 227 257
#     4  10  19  31  46  67  93 124 161 196 225 256
#     4   9  19  34  47  63  87 116 152 192 229 271
#     4  11  22  34  46  63  90 125 160 191 227 270
#     4  10  17  27  46  71  96 123 152 183 226 272
#     4  10  19  31  48  68  90 117 149 186 231 278
#     4  10  19  30  44  65  94 126 160 192 218 256
#     4   8  13  23  43  69  93 119 151 188 228 266
#
# _framework density 15.794048
#
# number of rings (size 3 to 8) (size 9 to 14) (size 15 to 20)
#    0.000    2.500    2.500    1.875    0.000    3.500 
#    0.000    0.000    0.000    0.750    0.000    2.625 
#    0.000    0.000    0.000    0.000    0.000    0.000 
#
# Total GULP energy -396716.071792 kJ/mol
# GULP energy per Si atom -12397.377243 kJ/mol
# Density = 1.575810 g / cm^3
# Si number density = 15.794048 Si / 1000 Ang^3
#
#
#
# Elastic Constant Matrix: (Units=GPa)
#
#
# Indices 1 2 3 4 5 6 
#
# 1 62.4970 30.4569 45.3788 0.0000 -7.8829 0.0000
# 2 30.4569 42.9366 36.0749 0.0000 -3.4907 0.0000
# 3 45.3788 36.0749 126.8369 0.0000 -6.9242 0.0000
# 4 0.0000 0.0000 0.0000 8.8431 0.0000 -1.2866
# 5 -7.8829 -3.4907 -6.9242 0.0000 23.7667 0.0000
# 6 0.0000 0.0000 0.0000 -1.2866 0.0000 23.4617
#
#
#
# Elastic Compliance Matrix: (Units=1/GPa)
#
#
# Indices 1 2 3 4 5 6 
#
# 1 0.027830 -0.014692 -0.005479 0.000000 0.005476 0.000000
# 2 -0.014692 0.038453 -0.005729 0.000000 -0.000895 0.000000
# 3 -0.005479 -0.005729 0.011512 0.000000 0.000695 0.000000
# 4 0.000000 0.000000 0.000000 0.113992 0.000000 0.006251
# 5 0.005476 -0.000895 0.000695 0.000000 0.043963 0.000000
# 6 0.000000 0.000000 0.000000 0.006251 0.000000 0.042965
#
#
# Mechanical properties :
#
#
# Convention : Reuss Voigt Hill
#
# Bulk Modulus (GPa) = 38.47091 50.67685 44.57388
# Shear Modulus (GPa) = 14.74140 19.23831 16.98985
#
# Velocity S-wave (km/s) = 3.05839 3.49388 3.28336
# Velocity P-wave (km/s) = 6.07309 6.95931 6.53125
#
# Compressibility (1/GPa) = 0.02599366
#
# Stress axis : x y z
#
# Youngs Moduli (GPa) = 35.93255 26.00581 86.86747
#
# Poissons Ratio (x) = 0.38209 0.47595
# Poissons Ratio (y) = 0.52794 0.49767
# Poissons Ratio (z) = 0.19688 0.14899
#
# Static dielectric constant tensor:
#      x y z
#    x 2.918830 0.000000 -0.067950 
#    y 0.000000 2.780140 0.000000 
#    z -0.067950 0.000000 3.195710 
# 
# 
# High freq. dielectric constant tensor:
#      x y z
#    x 1.589430 0.000000 -0.010420 
#    y 0.000000 1.584730 0.000000 
#    z -0.010420 0.000000 1.599960 
# 
# From -- ./inp_files/248298.got.cif
#   From: 2010.06.25/outbox.cif.g09.slc.cpg/sg12_125_cif.got.tgz:248298.got - 2010.06.28 00:19:55.
