data_PCOD8078741
_publ_section_title
;
Structure prediction by ZEFSAII (Michael W. Deem and Ramdas Pophale) SiO2 
 PCOD8078741
Probable space group: C 2/M
;
_chemical_formula_sum "Si O2"
_cell_formula_units_Z 48
_cell_length_a 28.646861
_cell_length_b 8.854160
_cell_length_c 12.103532
_cell_angle_alpha 90.000000
_cell_angle_beta 69.300942
_cell_angle_gamma 90.000000
_cell_volume 2871.818807
_symmetry_space_group_name_H-M "C 2/M"
_symmetry_group_IT_number 12
_symmetry_cell_setting 'monoclinic'
loop_
_space_group_symop_operation_xyz
x,y,z
-x,y,-z
-x,-y,-z
x,-y,z
1/2+x,1/2+y,z
1/2-x,1/2+y,-z
1/2-x,1/2-y,-z
1/2+x,1/2-y,z
loop_
_atom_site_type_symbol
_atom_site_label
_atom_site_fract_x
_atom_site_fract_y
_atom_site_fract_z
Si Si1 0.679487 0.828426 0.572273
Si Si2 0.487986 0.332462 0.880965
Si Si3 0.416619 0.172308 0.228929
Si Si4 0.751691 0.674088 0.676548
Si Si5 0.617261 0.678611 0.964663
Si Si6 0.721565 0.821562 0.922156
O O1 0.619651 0.809068 0.634349
O O2 0.706323 0.714932 0.633482
O O3 0.696211 0.795165 0.432087
O O4 0.695292 0.000000 0.590655
O O5 0.494606 0.500000 0.826429
O O6 0.527377 0.224855 0.785024
O O7 0.500000 0.331515 0.000000
O O8 0.430339 0.279404 0.917280
O O9 0.393176 0.271898 0.151564
O O10 0.419029 0.000000 0.186364
O O11 0.746036 0.500000 0.716536
O O12 0.750279 0.775483 0.786581
O O13 0.626775 0.500000 0.956630
O O14 0.664920 0.763789 0.972030
O O15 0.721656 0.000000 0.933125
O O16 0.750000 0.750000 0.000000
#
# Coordination Sequence:
#
# PCOD8078741 Si02
#       6
#     8   8   8   8   8   8
#     4   9  18  30  46  71 101 131 161 196 238 287
#     4   8  16  28  42  63  94 127 159 193 235 288
#     4  10  17  26  44  71 100 129 160 194 235 286
#     4  10  19  32  49  69  96 130 164 199 241 285
#     4  10  19  32  47  66  94 128 162 200 242 284
#     4  12  24  37  52  71  95 126 166 205 244 290
#
# _framework density 16.714146
#
# number of rings (size 3 to 8) (size 9 to 14) (size 15 to 20)
#    0.000    2.167    1.667    4.000    0.000    5.000 
#    0.000    0.000    0.000    0.000    0.000    1.167 
#    0.000    9.333    0.000    0.000    0.000    0.000 
#
# Total GULP energy -297478.941339 kJ/mol
# GULP energy per Si atom -12394.955889 kJ/mol
# Density = 1.667610 g / cm^3
# Si number density = 16.714146 Si / 1000 Ang^3
#
#
#
# Elastic Constant Matrix: (Units=GPa)
#
#
# Indices 1 2 3 4 5 6 
#
# 1 98.7232 54.3894 67.8473 0.0000 -25.3536 0.0000
# 2 54.3894 111.1993 48.5175 0.0000 -13.7251 0.0000
# 3 67.8473 48.5175 88.1084 0.0000 -25.3588 0.0000
# 4 0.0000 0.0000 0.0000 23.2837 0.0000 -3.8098
# 5 -25.3536 -13.7251 -25.3588 0.0000 32.6850 0.0000
# 6 0.0000 0.0000 0.0000 -3.8098 0.0000 27.8945
#
#
#
# Elastic Compliance Matrix: (Units=1/GPa)
#
#
# Indices 1 2 3 4 5 6 
#
# 1 0.023989 -0.004851 -0.014204 0.000000 0.005551 0.000000
# 2 -0.004851 0.012818 -0.003678 0.000000 -0.001234 0.000000
# 3 -0.014204 -0.003678 0.026647 0.000000 0.008112 0.000000
# 4 0.000000 0.000000 0.000000 0.043930 0.000000 0.006000
# 5 0.005551 -0.001234 0.008112 0.000000 0.040677 0.000000
# 6 0.000000 0.000000 0.000000 0.006000 0.000000 0.036669
#
#
# Mechanical properties :
#
#
# Convention : Reuss Voigt Hill
#
# Bulk Modulus (GPa) = 55.58976 71.05992 63.32484
# Shear Modulus (GPa) = 21.16928 25.25775 23.21351
#
# Velocity S-wave (km/s) = 3.56272 3.89158 3.73078
# Velocity P-wave (km/s) = 7.08910 7.92462 7.51848
#
# Compressibility (1/GPa) = 0.01798892
#
# Stress axis : x y z
#
# Youngs Moduli (GPa) = 41.68598 78.01516 37.52749
#
# Poissons Ratio (x) = 0.37845 0.53302
# Poissons Ratio (y) = 0.20222 0.13803
# Poissons Ratio (z) = 0.59209 0.28694
#
# Static dielectric constant tensor:
#      x y z
#    x 3.381380 0.000000 -0.601400 
#    y 0.000000 3.301230 0.000000 
#    z -0.601400 0.000000 3.194000 
# 
# 
# High freq. dielectric constant tensor:
#      x y z
#    x 1.620700 0.000000 -0.047180 
#    y 0.000000 1.659250 0.000000 
#    z -0.047180 0.000000 1.617170 
# 
# From -- ./inp_files/179201.got.cif
#   From: 2010.06.25/outbox.cif.g09.slc.cpg/sg12_90_cif.got.tgz:179201.got - 2010.06.28 00:19:55.
