data_PCOD8078047
_publ_section_title
;
Structure prediction by ZEFSAII (Michael W. Deem and Ramdas Pophale) SiO2 
 PCOD8078047
Probable space group: C 2/M
;
_chemical_formula_sum "Si O2"
_cell_formula_units_Z 52
_cell_length_a 14.499296
_cell_length_b 22.863669
_cell_length_c 28.521779
_cell_angle_alpha 90.000000
_cell_angle_beta 158.046655
_cell_angle_gamma 90.000000
_cell_volume 3534.830174
_symmetry_space_group_name_H-M "C 2/M"
_symmetry_group_IT_number 12
_symmetry_cell_setting 'monoclinic'
loop_
_space_group_symop_operation_xyz
x,y,z
-x,y,-z
-x,-y,-z
x,-y,z
1/2+x,1/2+y,z
1/2-x,1/2+y,-z
1/2-x,1/2-y,-z
1/2+x,1/2-y,z
loop_
_atom_site_type_symbol
_atom_site_label
_atom_site_fract_x
_atom_site_fract_y
_atom_site_fract_z
Si Si1 0.269261 0.171792 0.647797
Si Si2 0.500000 0.176231 0.000000
Si Si3 0.597431 0.228977 0.194656
Si Si4 0.720566 0.660995 0.954613
Si Si5 0.104275 0.566838 0.808396
Si Si6 0.782489 0.270208 0.189747
Si Si7 0.505061 0.612916 0.068591
O O1 0.262852 0.198737 0.696618
O O2 0.353833 0.104058 0.688515
O O3 0.450985 0.207976 0.700057
O O4 0.000000 0.175551 0.500000
O O5 0.638944 0.136753 0.025770
O O6 0.702876 0.215882 0.120844
O O7 0.444155 0.284826 0.140769
O O8 0.799813 0.249934 0.252081
O O9 0.412893 0.182451 0.084503
O O10 0.559181 0.611241 0.905682
O O11 0.032349 0.500000 0.783826
O O12 0.259988 0.572003 0.833010
O O13 0.270416 0.592299 0.928473
O O14 0.572892 0.320436 0.086240
#
# Coordination Sequence:
#
# PCOD8078047 Si02
#       7
#     8   4   8   8   8   8   8
#     4  11  20  30  42  59  91 123 148 176 204 248
#     4  10  14  22  42  64  88 110 136 170 200 246
#     4   9  16  27  40  61  86 118 144 169 209 247
#     4   9  15  23  43  65  88 108 137 176 209 265
#     4  10  19  30  44  62  83 110 149 185 220 254
#     4   9  17  26  42  63  88 115 144 169 203 263
#     4   9  15  26  45  64  83 105 136 185 220 252
#
# _framework density 14.710749
#
# number of rings (size 3 to 8) (size 9 to 14) (size 15 to 20)
#    0.000    2.462    3.077    3.692    0.000    0.923 
#    0.000    0.000    0.000    0.000    0.000    2.154 
#    0.000    0.000    0.000    5.538    0.000    1.692 
#
# Total GULP energy -322182.841920 kJ/mol
# GULP energy per Si atom -12391.647766 kJ/mol
# Density = 1.467727 g / cm^3
# Si number density = 14.710749 Si / 1000 Ang^3
#
#
#
# Elastic Constant Matrix: (Units=GPa)
#
#
# Indices 1 2 3 4 5 6 
#
# 1 128.7587 38.8387 38.5556 -0.0014 4.4854 -0.0003
# 2 38.8387 52.3425 28.6617 -0.0012 -1.9725 -0.0031
# 3 38.5556 28.6617 82.9606 -0.0518 -3.1055 0.0006
# 4 -0.0014 -0.0012 -0.0518 5.6442 0.0067 4.0780
# 5 4.4854 -1.9725 -3.1055 0.0067 15.5551 -0.0055
# 6 -0.0003 -0.0031 0.0006 4.0780 -0.0055 11.4525
#
#
#
# Elastic Compliance Matrix: (Units=1/GPa)
#
#
# Indices 1 2 3 4 5 6 
#
# 1 0.010778 -0.006576 -0.002906 -0.000024 -0.004522 0.000005
# 2 -0.006576 0.027604 -0.006326 -0.000089 0.004134 0.000041
# 3 -0.002906 -0.006326 0.015709 0.000187 0.003172 -0.000068
# 4 -0.000024 -0.000089 0.000187 0.238545 -0.000099 -0.084942
# 5 -0.004522 0.004134 0.003172 -0.000099 0.066749 0.000068
# 6 0.000005 0.000041 -0.000068 -0.084942 0.000068 0.117563
#
#
# Mechanical properties :
#
#
# Convention : Reuss Voigt Hill
#
# Bulk Modulus (GPa) = 44.49533 52.90817 48.70175
# Shear Modulus (GPa) = 9.68885 17.06409 13.37647
#
# Velocity S-wave (km/s) = 2.56915 3.40953 3.01873
# Velocity P-wave (km/s) = 6.25405 7.17939 6.73264
#
# Compressibility (1/GPa) = 0.02247427
#
# Stress axis : x y z
#
# Youngs Moduli (GPa) = 92.78220 36.22612 63.65798
#
# Poissons Ratio (x) = 0.23824 0.18501
# Poissons Ratio (y) = 0.61017 0.40269
# Poissons Ratio (z) = 0.26965 0.22916
#
# Static dielectric constant tensor:
#      x y z
#    x 3.204170 0.000010 0.147530 
#    y 0.000010 2.599870 -0.000040 
#    z 0.147530 -0.000040 2.485890 
# 
# 
# High freq. dielectric constant tensor:
#      x y z
#    x 1.577940 0.000000 0.011930 
#    y 0.000000 1.523390 0.000000 
#    z 0.011930 0.000000 1.525930 
# 
# From -- ./inp_files/272491.got.cif
#   From: 2010.06.25/outbox.cif.g09.slc.cpg/sg12_137_cif.got.tgz:272491.got - 2010.06.28 00:19:55.
