data_PCOD8078581
_publ_section_title
;
Structure prediction by ZEFSAII (Michael W. Deem and Ramdas Pophale) SiO2 
 PCOD8078581
Probable space group: C 2/M
;
_chemical_formula_sum "Si O2"
_cell_formula_units_Z 56
_cell_length_a 28.325087
_cell_length_b 9.164842
_cell_length_c 28.401804
_cell_angle_alpha 90.000000
_cell_angle_beta 28.882962
_cell_angle_gamma 90.000000
_cell_volume 3561.304395
_symmetry_space_group_name_H-M "C 2/M"
_symmetry_group_IT_number 12
_symmetry_cell_setting 'monoclinic'
loop_
_space_group_symop_operation_xyz
x,y,z
-x,y,-z
-x,-y,-z
x,-y,z
1/2+x,1/2+y,z
1/2-x,1/2+y,-z
1/2-x,1/2-y,-z
1/2+x,1/2-y,z
loop_
_atom_site_type_symbol
_atom_site_label
_atom_site_fract_x
_atom_site_fract_y
_atom_site_fract_z
Si Si1 0.600919 0.168429 0.937832
Si Si2 0.910535 0.664927 0.542306
Si Si3 0.381323 0.165863 0.792615
Si Si4 0.032413 0.169763 0.365225
Si Si5 0.150377 0.668890 0.076763
Si Si6 0.346498 0.671339 0.015645
Si Si7 0.293869 0.331622 0.715721
O O1 0.602958 0.269845 0.981630
O O2 0.687000 0.213134 0.826925
O O3 0.613060 0.000000 0.942648
O O4 0.500000 0.197577 0.000000
O O5 0.883685 0.500000 0.552149
O O6 0.816989 0.738548 0.648825
O O7 0.000000 0.672666 0.500000
O O8 0.939152 0.751554 0.470083
O O9 0.451509 0.269731 0.701260
O O10 0.413034 0.182370 0.819839
O O11 0.268299 0.210565 0.883664
O O12 0.396158 0.000000 0.762498
O O13 0.130039 0.204114 0.309301
O O14 0.008660 0.000000 0.383356
O O15 0.170576 0.500000 0.047207
O O16 0.250000 0.750000 0.000000
O O17 0.101540 0.748029 0.074320
O O18 0.364822 0.500000 0.994889
O O19 0.300342 0.500000 0.695505
#
# Coordination Sequence:
#
# PCOD8078581 Si02
#       7
#     8   8   8   8   8   8   8
#     4  10  20  33  48  65  86 116 153 190 226 262
#     4   9  17  27  40  58  81 111 142 175 214 260
#     4   9  17  27  40  61  87 115 144 176 213 259
#     4  10  17  25  41  62  85 114 144 177 212 255
#     4   9  17  28  42  61  85 114 147 180 217 262
#     4  10  19  30  44  61  85 116 149 186 224 260
#     4   9  17  29  42  59  82 111 146 182 218 257
#
# _framework density 15.724576000000001
#
# number of rings (size 3 to 8) (size 9 to 14) (size 15 to 20)
#    0.000    2.571    1.429    2.571    0.000    6.000 
#    0.000    0.000    0.000    0.000    0.000    0.000 
#    0.000    1.143    0.000    3.429    0.000    4.571 
#
# Total GULP energy -347143.436738 kJ/mol
# GULP energy per Si atom -12397.979883 kJ/mol
# Density = 1.568879 g / cm^3
# Si number density = 15.724576 Si / 1000 Ang^3
#
#
#
# Elastic Constant Matrix: (Units=GPa)
#
#
# Indices 1 2 3 4 5 6 
#
# 1 63.6638 49.6139 47.0477 0.0054 20.5830 -0.0029
# 2 49.6139 109.6227 54.8055 -0.0420 25.3440 0.0395
# 3 47.0477 54.8055 88.0615 0.0230 23.8629 0.0032
# 4 0.0054 -0.0420 0.0230 26.2704 -0.0027 11.1773
# 5 20.5830 25.3440 23.8629 -0.0027 24.7562 -0.0042
# 6 -0.0029 0.0395 0.0032 11.1773 -0.0042 23.0862
#
#
#
# Elastic Compliance Matrix: (Units=1/GPa)
#
#
# Indices 1 2 3 4 5 6 
#
# 1 0.031683 -0.007221 -0.009878 -0.000022 -0.009428 0.000027
# 2 -0.007221 0.016036 -0.004467 0.000054 -0.006106 -0.000055
# 3 -0.009878 -0.004467 0.021587 -0.000032 -0.008022 0.000018
# 4 -0.000022 0.000054 -0.000032 0.047941 -0.000005 -0.023211
# 5 -0.009428 -0.006106 -0.008022 -0.000005 0.062217 0.000024
# 6 0.000027 -0.000055 0.000018 -0.023211 0.000024 0.054554
#
#
# Mechanical properties :
#
#
# Convention : Reuss Voigt Hill
#
# Bulk Modulus (GPa) = 38.20729 62.69803 50.45266
# Shear Modulus (GPa) = 17.49019 22.14797 19.81908
#
# Velocity S-wave (km/s) = 3.33871 3.75706 3.55405
# Velocity P-wave (km/s) = 6.26205 7.66680 6.99975
#
# Compressibility (1/GPa) = 0.02617302
#
# Stress axis : x y z
#
# Youngs Moduli (GPa) = 31.56252 62.36138 46.32407
#
# Poissons Ratio (x) = 0.45033 0.45759
# Poissons Ratio (y) = 0.22792 0.20693
# Poissons Ratio (z) = 0.31178 0.27857
#
# Static dielectric constant tensor:
#      x y z
#    x 2.955380 -0.000060 0.471880 
#    y -0.000060 3.115310 0.000020 
#    z 0.471880 0.000020 2.992890 
# 
# 
# High freq. dielectric constant tensor:
#      x y z
#    x 1.562300 0.000000 0.041940 
#    y 0.000000 1.618180 0.000000 
#    z 0.041940 0.000000 1.582450 
# 
# From -- ./inp_files/247729.got.cif
#   From: 2010.06.25/outbox.cif.g09.slc.cpg/sg12_124_cif.got.tgz:247729.got - 2010.06.28 00:19:55.
