data_PCOD8078584
_publ_section_title
;
Structure prediction by ZEFSAII (Michael W. Deem and Ramdas Pophale) SiO2 
 PCOD8078584
Probable space group: C 2/M
;
_chemical_formula_sum "Si O2"
_cell_formula_units_Z 64
_cell_length_a 19.103678
_cell_length_b 9.075536
_cell_length_c 23.607139
_cell_angle_alpha 90.000000
_cell_angle_beta 64.790825
_cell_angle_gamma 90.000000
_cell_volume 3703.100295
_symmetry_space_group_name_H-M "C 2/M"
_symmetry_group_IT_number 12
_symmetry_cell_setting 'monoclinic'
loop_
_space_group_symop_operation_xyz
x,y,z
-x,y,-z
-x,-y,-z
x,-y,z
1/2+x,1/2+y,z
1/2-x,1/2+y,-z
1/2-x,1/2-y,-z
1/2+x,1/2-y,z
loop_
_atom_site_type_symbol
_atom_site_label
_atom_site_fract_x
_atom_site_fract_y
_atom_site_fract_z
Si Si1 0.548242 0.675498 0.867123
Si Si2 0.114684 0.825643 0.038443
Si Si3 0.420990 0.325142 0.495834
Si Si4 0.230248 0.672047 0.448653
Si Si5 0.163064 0.827013 0.144837
Si Si6 0.495943 0.325003 0.238851
Si Si7 0.684078 0.675074 0.898447
Si Si8 0.899935 0.171213 0.375232
O O1 0.545173 0.500000 0.867312
O O2 0.473467 0.733194 0.927694
O O3 0.546272 0.735199 0.803280
O O4 0.624584 0.733338 0.871721
O O5 0.158227 0.778039 0.080769
O O6 0.113067 0.000000 0.033650
O O7 0.157500 0.760024 0.968655
O O8 0.500000 0.275826 0.500000
O O9 0.409936 0.500000 0.503440
O O10 0.346069 0.249352 0.552295
O O11 0.420856 0.266171 0.430694
O O12 0.212720 0.500000 0.463744
O O13 0.250000 0.750000 0.500000
O O14 0.310351 0.694929 0.386039
O O15 0.086098 0.780082 0.205562
O O16 0.233751 0.740131 0.148175
O O17 0.177251 0.000000 0.145120
O O18 0.488081 0.500000 0.242856
O O19 0.455075 0.254867 0.308517
O O20 0.688724 0.500000 0.897802
O O21 0.918897 0.000000 0.372335
#
# Coordination Sequence:
#
# PCOD8078584 Si02
#       8
#     8   8   8   8   8   8   8   8
#     4   8  14  24  40  61  80 101 135 176 207 235
#     4   8  14  25  41  60  79 103 137 169 199 243
#     4   9  17  29  45  67  94 118 141 174 214 253
#     4   9  16  27  45  68  91 114 143 177 212 251
#     4   9  17  28  42  59  81 109 138 167 199 244
#     4   8  14  27  45  61  78 107 147 177 197 236
#     4  10  17  25  41  63  84 103 127 169 218 250
#     4   8  14  26  45  64  81 109 146 176 203 242
#
# _framework density 17.282816
#
# number of rings (size 3 to 8) (size 9 to 14) (size 15 to 20)
#    0.000    3.375    0.000    3.375    0.000    1.750 
#    0.000    1.250    0.000    8.250    0.000    0.000 
#    0.000    0.000    0.000    0.000    0.000    0.000 
#
# Total GULP energy -396450.965130 kJ/mol
# GULP energy per Si atom -12389.092660 kJ/mol
# Density = 1.724348 g / cm^3
# Si number density = 17.282816 Si / 1000 Ang^3
#
#
#
# Elastic Constant Matrix: (Units=GPa)
#
#
# Indices 1 2 3 4 5 6 
#
# 1 151.6335 28.8987 56.3881 0.0000 -21.2314 0.0008
# 2 28.8987 23.0003 13.7598 0.0001 -6.7486 0.0019
# 3 56.3881 13.7598 104.3921 0.0000 -15.9463 0.0001
# 4 0.0000 0.0001 0.0000 11.5987 0.0000 -6.9263
# 5 -21.2314 -6.7486 -15.9463 0.0000 18.3988 0.0000
# 6 0.0008 0.0019 0.0001 -6.9263 0.0000 26.0820
#
#
#
# Elastic Compliance Matrix: (Units=1/GPa)
#
#
# Indices 1 2 3 4 5 6 
#
# 1 0.010500 -0.009420 -0.003581 0.000000 0.005558 0.000000
# 2 -0.009420 0.058869 -0.001191 -0.000003 0.009691 -0.000005
# 3 -0.003581 -0.001191 0.012647 0.000000 0.006392 0.000000
# 4 0.000000 -0.000003 0.000000 0.102466 -0.000001 0.027210
# 5 0.005558 0.009691 0.006392 -0.000001 0.069859 -0.000001
# 6 0.000000 -0.000005 0.000000 0.027210 -0.000001 0.045566
#
#
# Mechanical properties :
#
#
# Convention : Reuss Voigt Hill
#
# Bulk Modulus (GPa) = 18.64549 53.01323 35.82936
# Shear Modulus (GPa) = 14.44387 23.21453 18.82920
#
# Velocity S-wave (km/s) = 2.89405 3.66897 3.30430
# Velocity P-wave (km/s) = 4.68820 6.97775 5.94425
#
# Compressibility (1/GPa) = 0.05363228
#
# Stress axis : x y z
#
# Youngs Moduli (GPa) = 95.23875 16.98694 79.07018
#
# Poissons Ratio (x) = 0.16001 0.28316
# Poissons Ratio (y) = 0.89711 0.09418
# Poissons Ratio (z) = 0.34106 0.02023
#
# Static dielectric constant tensor:
#      x y z
#    x 3.495970 0.000000 -0.133340 
#    y 0.000000 2.754410 0.000000 
#    z -0.133340 0.000000 3.551730 
# 
# 
# High freq. dielectric constant tensor:
#      x y z
#    x 1.671590 0.000000 -0.015810 
#    y 0.000000 1.615170 0.000000 
#    z -0.015810 0.000000 1.653790 
# 
# From -- ./inp_files/342873.got.cif
#   From: 2010.06.25/outbox.cif.g09.slc.cpg/sg12_172_cif.got.tgz:342873.got - 2010.06.28 00:19:55.
