data_PCOD8078290
_publ_section_title
;
Structure prediction by ZEFSAII (Michael W. Deem and Ramdas Pophale) SiO2 
 PCOD8078290
Probable space group: C 2/M
;
_chemical_formula_sum "Si O2"
_cell_formula_units_Z 56
_cell_length_a 29.707223
_cell_length_b 28.036874
_cell_length_c 12.825713
_cell_angle_alpha 90.000000
_cell_angle_beta 18.684141
_cell_angle_gamma 90.000000
_cell_volume 3422.149469
_symmetry_space_group_name_H-M "C 2/M"
_symmetry_group_IT_number 12
_symmetry_cell_setting 'monoclinic'
loop_
_space_group_symop_operation_xyz
x,y,z
-x,y,-z
-x,-y,-z
x,-y,z
1/2+x,1/2+y,z
1/2-x,1/2+y,-z
1/2-x,1/2-y,-z
1/2+x,1/2-y,z
loop_
_atom_site_type_symbol
_atom_site_label
_atom_site_fract_x
_atom_site_fract_y
_atom_site_fract_z
Si Si1 0.205994 0.603301 0.766911
Si Si2 0.588573 0.293065 0.906843
Si Si3 0.877351 0.555318 0.844305
Si Si4 0.848955 0.052084 0.278569
Si Si5 0.110482 0.312725 0.840747
Si Si6 0.484723 0.617931 0.826433
Si Si7 0.436869 0.446189 0.525059
O O1 0.223024 0.566546 0.633513
O O2 0.130704 0.651419 0.892670
O O3 0.362582 0.612272 0.460730
O O4 0.114748 0.582123 0.061839
O O5 0.750003 0.302060 0.529250
O O6 0.555734 0.238042 0.007004
O O7 0.500000 0.309969 0.000000
O O8 0.548415 0.325511 0.095679
O O9 0.902755 0.500000 0.812603
O O10 0.000000 0.575329 0.500000
O O11 0.729613 0.563980 0.109976
O O12 0.809846 0.000000 0.318600
O O13 0.861207 0.091395 0.161473
O O14 0.000000 0.048669 0.000000
O O15 0.000000 0.333897 0.000000
O O16 0.482724 0.594398 0.716906
O O17 0.500000 0.441936 0.500000
O O18 0.463016 0.500000 0.422666
#
# Coordination Sequence:
#
# PCOD8078290 Si02
#       7
#     8   8   8   8   8   8   8
#     4  10  17  30  48  70  96 126 159 195 234 286
#     4  10  17  32  50  71  97 129 161 192 237 292
#     4   9  18  33  52  70  92 129 168 196 230 283
#     4   9  15  23  41  71  96 116 149 193 233 275
#     4  10  20  30  47  72 102 128 158 196 237 288
#     4  10  16  28  50  71  94 125 158 195 237 288
#     4   9  18  32  50  73  97 122 159 204 242 277
#
# _framework density 16.363985
#
# number of rings (size 3 to 8) (size 9 to 14) (size 15 to 20)
#    0.000    2.429    2.857    1.286    0.000    3.429 
#    2.571    0.000    0.000    2.571    0.000    4.000 
#    0.000    0.000    0.000    0.000    0.000    0.000 
#
# Total GULP energy -347008.775938 kJ/mol
# GULP energy per Si atom -12393.170569 kJ/mol
# Density = 1.632674 g / cm^3
# Si number density = 16.363985 Si / 1000 Ang^3
#
#
#
# Elastic Constant Matrix: (Units=GPa)
#
#
# Indices 1 2 3 4 5 6 
#
# 1 76.7618 43.4139 37.8778 -0.0001 9.8131 -0.0017
# 2 43.4139 102.2335 29.8678 0.0103 18.0023 0.0022
# 3 37.8778 29.8678 70.2162 0.0853 19.5228 -0.0031
# 4 -0.0001 0.0103 0.0853 10.6509 -0.0130 0.7042
# 5 9.8131 18.0023 19.5228 -0.0130 26.2610 -0.0004
# 6 -0.0017 0.0022 -0.0031 0.7042 -0.0004 27.7118
#
#
#
# Elastic Compliance Matrix: (Units=1/GPa)
#
#
# Indices 1 2 3 4 5 6 
#
# 1 0.021133 -0.006870 -0.009570 0.000088 0.003927 -0.000001
# 2 -0.006870 0.013996 -0.000370 -0.000019 -0.006752 -0.000001
# 3 -0.009570 -0.000370 0.023316 -0.000203 -0.013504 0.000007
# 4 0.000088 -0.000019 -0.000203 0.094048 0.000178 -0.002390
# 5 0.003927 -0.006752 -0.013504 0.000178 0.051280 -0.000005
# 6 -0.000001 -0.000001 0.000007 -0.002390 -0.000005 0.036146
#
#
# Mechanical properties :
#
#
# Convention : Reuss Voigt Hill
#
# Bulk Modulus (GPa) = 40.28068 52.39226 46.33647
# Shear Modulus (GPa) = 17.74218 22.12822 19.93520
#
# Velocity S-wave (km/s) = 3.29632 3.68129 3.49411
# Velocity P-wave (km/s) = 6.25752 7.08205 6.68252
#
# Compressibility (1/GPa) = 0.02482580
#
# Stress axis : x y z
#
# Youngs Moduli (GPa) = 47.31984 71.44923 42.88822
#
# Poissons Ratio (x) = 0.49084 0.41043
# Poissons Ratio (y) = 0.32508 0.01588
# Poissons Ratio (z) = 0.45284 0.02645
#
# Static dielectric constant tensor:
#      x y z
#    x 2.881710 0.000000 0.071870 
#    y 0.000000 3.358580 0.000010 
#    z 0.071870 0.000010 3.087940 
# 
# 
# High freq. dielectric constant tensor:
#      x y z
#    x 1.597120 0.000000 -0.002210 
#    y 0.000000 1.632410 0.000000 
#    z -0.002210 0.000000 1.615980 
# 
# From -- ./inp_files/185190.got.cif
#   From: 2010.06.25/outbox.cif.g09.slc.cpg/sg12_93_cif.got.tgz:185190.got - 2010.06.28 00:19:55.
