data_PCOD8078606
_publ_section_title
;
Structure prediction by ZEFSAII (Michael W. Deem and Ramdas Pophale) SiO2 
 PCOD8078606
Probable space group: C 2/M
;
_chemical_formula_sum "Si O2"
_cell_formula_units_Z 56
_cell_length_a 19.391546
_cell_length_b 9.004843
_cell_length_c 18.281035
_cell_angle_alpha 90.000000
_cell_angle_beta 90.621071
_cell_angle_gamma 90.000000
_cell_volume 3192.007072
_symmetry_space_group_name_H-M "C 2/M"
_symmetry_group_IT_number 12
_symmetry_cell_setting 'monoclinic'
loop_
_space_group_symop_operation_xyz
x,y,z
-x,y,-z
-x,-y,-z
x,-y,z
1/2+x,1/2+y,z
1/2-x,1/2+y,-z
1/2-x,1/2-y,-z
1/2+x,1/2-y,z
loop_
_atom_site_type_symbol
_atom_site_label
_atom_site_fract_x
_atom_site_fract_y
_atom_site_fract_z
Si Si1 0.927561 0.326108 0.933142
Si Si2 0.578030 0.829678 0.228268
Si Si3 0.822776 0.172354 0.494563
Si Si4 0.826715 0.829058 0.655384
Si Si5 0.423326 0.322692 0.072347
Si Si6 0.669933 0.174666 0.646096
Si Si7 0.079276 0.675166 0.783188
O O1 0.937839 0.500000 0.950692
O O2 0.891412 0.305700 0.853602
O O3 0.000554 0.244731 0.927898
O O4 0.885549 0.245127 0.998912
O O5 0.625344 0.746651 0.285450
O O6 0.499174 0.772752 0.232405
O O7 0.579766 0.000000 0.250817
O O8 0.750000 0.250000 0.500000
O O9 0.859066 0.195436 0.574237
O O10 0.862853 0.247606 0.426859
O O11 0.812469 0.000000 0.477593
O O12 0.748238 0.767965 0.659238
O O13 0.824894 0.000000 0.676309
O O14 0.422840 0.500000 0.069576
O O15 0.388610 0.263199 0.146754
O O16 0.624493 0.222175 0.714462
O O17 0.668017 0.000000 0.632254
O O18 0.082682 0.500000 0.799705
#
# Coordination Sequence:
#
# PCOD8078606 Si02
#       7
#     8   8   8   8   8   8   8
#     4   9  16  28  44  63  90 124 159 190 225 270
#     4   9  18  30  47  70  93 122 156 189 228 274
#     4   9  17  30  48  70  93 120 156 193 230 272
#     4   9  18  31  48  70  94 120 150 189 236 277
#     4  10  17  25  42  69  94 118 153 193 233 272
#     4   9  18  33  52  71  91 121 159 194 230 273
#     4   9  18  33  49  67  95 126 156 190 230 277
#
# _framework density 17.54382
#
# number of rings (size 3 to 8) (size 9 to 14) (size 15 to 20)
#    0.000    2.857    0.000    4.714    0.000    6.286 
#    0.000    0.714    0.000    5.143    0.000    0.000 
#    0.000    0.000    0.000    0.000    0.000    0.000 
#
# Total GULP energy -346904.345809 kJ/mol
# GULP energy per Si atom -12389.440922 kJ/mol
# Density = 1.750389 g / cm^3
# Si number density = 17.543820 Si / 1000 Ang^3
#
#
#
# Elastic Constant Matrix: (Units=GPa)
#
#
# Indices 1 2 3 4 5 6 
#
# 1 44.4105 24.1385 55.3513 0.0000 -7.4784 0.0000
# 2 24.1385 89.8629 81.0585 0.0000 -13.7762 0.0000
# 3 55.3513 81.0585 197.2723 0.0000 -40.5457 0.0000
# 4 0.0000 0.0000 0.0000 38.6807 0.0000 3.5815
# 5 -7.4784 -13.7762 -40.5457 0.0000 120.5376 0.0000
# 6 0.0000 0.0000 0.0000 3.5815 0.0000 18.5681
#
#
#
# Elastic Compliance Matrix: (Units=1/GPa)
#
#
# Indices 1 2 3 4 5 6 
#
# 1 0.034825 -0.000798 -0.009688 0.000000 -0.001189 0.000000
# 2 -0.000798 0.017723 -0.007146 0.000000 -0.000428 0.000000
# 3 -0.009688 -0.007146 0.011207 0.000000 0.002352 0.000000
# 4 0.000000 0.000000 0.000000 0.026323 0.000000 -0.005077
# 5 -0.001189 -0.000428 0.002352 0.000000 0.008965 0.000000
# 6 0.000000 0.000000 0.000000 -0.005077 0.000000 0.054835
#
#
# Mechanical properties :
#
#
# Convention : Reuss Voigt Hill
#
# Bulk Modulus (GPa) = 35.09912 72.51579 53.80746
# Shear Modulus (GPa) = 25.17123 46.95711 36.06417
#
# Velocity S-wave (km/s) = 3.79194 5.17916 4.53886
# Velocity P-wave (km/s) = 6.26272 8.78571 7.62924
#
# Compressibility (1/GPa) = 0.02849074
#
# Stress axis : x y z
#
# Youngs Moduli (GPa) = 28.71481 56.42378 89.22864
#
# Poissons Ratio (x) = 0.04504 0.86443
# Poissons Ratio (y) = 0.02292 0.63765
# Poissons Ratio (z) = 0.27818 0.40322
#
# Static dielectric constant tensor:
#      x y z
#    x 2.790900 0.000000 -0.068770 
#    y 0.000000 3.281710 0.000000 
#    z -0.068770 0.000000 4.175480 
# 
# 
# High freq. dielectric constant tensor:
#      x y z
#    x 1.611500 0.000000 -0.004020 
#    y 0.000000 1.680720 0.000000 
#    z -0.004020 0.000000 1.707460 
# 
# From -- ./inp_files/280309.got.cif
#   From: 2010.06.25/outbox.cif.g09.slc.cpg/sg12_141_cif.got.tgz:280309.got - 2010.06.28 00:19:55.
